MODEL 1
REMARK VINA RESULT:     -10.1      0.000      0.000
REMARK SMILES CC(=O)NCC(=O)N1[C@@H](C(=O)OCCOC(=O)c2ccc(-c3c4nc(c(-c5ccc(S(=O)(=O)[O-])cc5)c5ccc([nH]5)c(-c5ccc(S(=O)(=O)[O-])cc5)c5nc(c(-c6ccc(S(=O)(=O)[O-])cc6)c6ccc3[nH]6)C=C5)C=C4)cc2)CC[C@H]2CCCC[C@H]21
REMARK SMILES IDX 13 1 12 2 10 3 11 4 9 5 8 6 85 7 78 8 80 9 84 10 79 11 81 12
REMARK SMILES IDX 83 13 82 14 6 15 7 16 5 17 4 18 1 19 2 20 3 21 14 23 15 24
REMARK SMILES IDX 16 25 17 26 18 27 19 28 77 29 20 30 76 31 21 32 22 33 23 34
REMARK SMILES IDX 70 35 24 36 75 37 69 38 71 39 25 40 74 41 68 42 67 43 26 45
REMARK SMILES IDX 56 46 37 47 55 48 38 49 41 50 54 51 72 52 39 53 40 54 53 56
REMARK SMILES IDX 73 57 42 58 27 59 28 60 36 61 29 62 35 63 30 64 31 65 32 66
REMARK SMILES IDX 33 67 34 68 57 69 58 70 66 71 59 72 65 73 60 74 61 75 62 76
REMARK SMILES IDX 63 77 64 78 43 79 44 80 52 81 45 82 51 83 46 84 47 85 48 86
REMARK SMILES IDX 49 87 50 88
REMARK H PARENT 4 22 71 44 41 55
REMARK Flexibility Score: inf
ROOT
ATOM      1  C   UNL A   1      39.798  22.598  27.181  1.00  0.00     0.274 C 
ENDROOT
BRANCH   1   2
ATOM      2  O   UNL A   1      40.690  21.583  26.679  1.00  0.00    -0.461 OA
BRANCH   2   3
ATOM      3  C   UNL A   1      41.897  21.559  27.291  1.00  0.00     0.328 C 
ATOM      4  O   UNL A   1      42.467  20.538  27.661  1.00  0.00    -0.250 OA
BRANCH   3   5
ATOM      5  C   UNL A   1      42.515  22.928  27.564  1.00  0.00     0.195 C 
ATOM      6  N   UNL A   1      43.577  23.383  26.658  1.00  0.00    -0.324 N 
ATOM      7  C   UNL A   1      43.921  24.805  26.802  1.00  0.00     0.089 C 
ATOM      8  C   UNL A   1      42.913  23.140  29.023  1.00  0.00     0.037 C 
ATOM      9  C   UNL A   1      44.307  25.129  28.265  1.00  0.00     0.012 C 
ATOM     10  C   UNL A   1      45.014  25.330  25.869  1.00  0.00     0.025 C 
ATOM     11  C   UNL A   1      43.254  24.612  29.261  1.00  0.00     0.008 C 
ATOM     12  C   UNL A   1      45.723  24.648  28.646  1.00  0.00     0.006 C 
ATOM     13  C   UNL A   1      46.413  24.806  26.173  1.00  0.00     0.002 C 
ATOM     14  C   UNL A   1      46.553  24.075  27.502  1.00  0.00     0.000 C 
BRANCH   6  15
ATOM     15  C   UNL A   1      43.778  22.690  25.477  1.00  0.00     0.242 C 
ATOM     16  O   UNL A   1      43.119  22.957  24.471  1.00  0.00    -0.273 OA
BRANCH  15  17
ATOM     17  C   UNL A   1      44.923  21.671  25.440  1.00  0.00     0.216 C 
BRANCH  17  18
ATOM     18  N   UNL A   1      44.338  20.344  25.316  1.00  0.00    -0.347 N 
ATOM     19  C   UNL A   1      46.432  19.039  25.511  1.00  0.00     0.114 C 
ATOM     20  C   UNL A   1      44.948  19.126  25.263  1.00  0.00     0.217 C 
ATOM     21  O   UNL A   1      44.264  18.124  25.057  1.00  0.00    -0.275 OA
ATOM     22  H   UNL A   1      43.355  20.322  25.262  1.00  0.00     0.164 HD
ENDBRANCH  17  18
ENDBRANCH  15  17
ENDBRANCH   6  15
ENDBRANCH   3   5
ENDBRANCH   2   3
ENDBRANCH   1   2
BRANCH   1  23
ATOM     23  C   UNL A   1      39.116  23.400  26.062  1.00  0.00     0.275 C 
BRANCH  23  24
ATOM     24  O   UNL A   1      39.042  24.814  26.337  1.00  0.00    -0.458 OA
BRANCH  24  25
ATOM     25  C   UNL A   1      40.222  25.472  26.315  1.00  0.00     0.338 C 
ATOM     26  O   UNL A   1      40.996  25.550  25.365  1.00  0.00    -0.246 OA
BRANCH  25  27
ATOM     27  C   UNL A   1      40.402  26.274  27.539  1.00  0.00     0.060 A 
ATOM     28  C   UNL A   1      39.638  25.932  28.663  1.00  0.00     0.016 A 
ATOM     29  C   UNL A   1      41.242  27.386  27.576  1.00  0.00     0.016 A 
ATOM     30  C   UNL A   1      39.713  26.684  29.829  1.00  0.00     0.010 A 
ATOM     31  C   UNL A   1      41.296  28.164  28.740  1.00  0.00     0.010 A 
ATOM     32  C   UNL A   1      40.524  27.823  29.866  1.00  0.00    -0.014 A 
BRANCH  32  33
ATOM     33  C   UNL A   1      40.460  28.719  31.043  1.00  0.00     0.031 A 
ATOM     34  C   UNL A   1      39.465  29.845  31.047  1.00  0.00     0.074 A 
ATOM     35  C   UNL A   1      41.250  28.503  32.110  1.00  0.00     0.049 A 
ATOM     36  N   UNL A   1      39.292  30.792  31.931  1.00  0.00    -0.248 NA
ATOM     37  C   UNL A   1      38.537  29.904  29.906  1.00  0.00     0.031 C 
ATOM     38  C   UNL A   1      42.190  27.393  32.256  1.00  0.00     0.029 A 
ATOM     39  N   UNL A   1      41.385  29.215  33.276  1.00  0.00    -0.354 N 
ATOM     40  C   UNL A   1      38.251  31.574  31.445  1.00  0.00     0.074 A 
ATOM     41  C   UNL A   1      37.838  30.995  30.185  1.00  0.00     0.031 C 
ATOM     42  C   UNL A   1      42.815  27.504  33.442  1.00  0.00     0.029 A 
ATOM     43  C   UNL A   1      42.354  28.718  34.114  1.00  0.00     0.049 A 
ATOM     44  H   UNL A   1      40.840  30.006  33.491  1.00  0.00     0.167 HD
ATOM     45  C   UNL A   1      37.695  32.678  31.998  1.00  0.00     0.031 A 
ATOM     46  C   UNL A   1      42.839  29.207  35.272  1.00  0.00     0.031 A 
ATOM     47  C   UNL A   1      38.126  33.257  33.242  1.00  0.00     0.049 A 
ATOM     48  C   UNL A   1      42.274  30.493  35.817  1.00  0.00     0.074 A 
ATOM     49  C   UNL A   1      37.640  34.385  33.882  1.00  0.00     0.029 A 
ATOM     50  N   UNL A   1      39.147  32.756  34.035  1.00  0.00    -0.354 N 
ATOM     51  N   UNL A   1      41.304  31.236  35.338  1.00  0.00    -0.248 NA
ATOM     52  C   UNL A   1      42.872  31.008  37.057  1.00  0.00     0.031 C 
ATOM     53  C   UNL A   1      38.406  34.594  35.034  1.00  0.00     0.029 A 
ATOM     54  C   UNL A   1      39.325  33.563  35.145  1.00  0.00     0.049 A 
ATOM     55  H   UNL A   1      39.671  31.946  33.837  1.00  0.00     0.167 HD
ATOM     56  C   UNL A   1      41.159  32.292  36.232  1.00  0.00     0.074 A 
ATOM     57  C   UNL A   1      42.130  32.084  37.286  1.00  0.00     0.031 C 
ATOM     58  C   UNL A   1      40.297  33.339  36.185  1.00  0.00     0.031 A 
BRANCH  45  59
ATOM     59  C   UNL A   1      36.595  33.358  31.228  1.00  0.00    -0.014 A 
ATOM     60  C   UNL A   1      36.812  33.865  29.934  1.00  0.00     0.010 A 
ATOM     61  C   UNL A   1      35.315  33.472  31.802  1.00  0.00     0.010 A 
ATOM     62  C   UNL A   1      35.780  34.508  29.245  1.00  0.00     0.020 A 
ATOM     63  C   UNL A   1      34.274  34.092  31.107  1.00  0.00     0.020 A 
ATOM     64  C   UNL A   1      34.518  34.623  29.839  1.00  0.00     0.054 A 
BRANCH  64  65
ATOM     65  S   UNL A   1      33.194  35.453  28.919  1.00  0.00     0.124 S 
ATOM     66  O   UNL A   1      32.414  36.058  29.995  1.00  0.00    -0.237 OA
ATOM     67  O   UNL A   1      33.930  36.391  28.074  1.00  0.00    -0.237 OA
ATOM     68  O   UNL A   1      32.531  34.364  28.205  1.00  0.00    -0.744 OA
ENDBRANCH  64  65
ENDBRANCH  45  59
BRANCH  46  69
ATOM     69  C   UNL A   1      43.945  28.500  35.976  1.00  0.00    -0.014 A 
ATOM     70  C   UNL A   1      43.669  27.479  36.902  1.00  0.00     0.010 A 
ATOM     71  C   UNL A   1      45.285  28.848  35.722  1.00  0.00     0.010 A 
ATOM     72  C   UNL A   1      44.712  26.829  37.570  1.00  0.00     0.020 A 
ATOM     73  C   UNL A   1      46.330  28.180  36.366  1.00  0.00     0.020 A 
ATOM     74  C   UNL A   1      46.036  27.182  37.294  1.00  0.00     0.054 A 
BRANCH  74  75
ATOM     75  S   UNL A   1      47.373  26.285  38.132  1.00  0.00     0.124 S 
ATOM     76  O   UNL A   1      46.781  24.964  38.319  1.00  0.00    -0.237 OA
ATOM     77  O   UNL A   1      48.460  26.360  37.160  1.00  0.00    -0.237 OA
ATOM     78  O   UNL A   1      47.588  27.056  39.355  1.00  0.00    -0.744 OA
ENDBRANCH  74  75
ENDBRANCH  46  69
BRANCH  58  79
ATOM     79  C   UNL A   1      40.336  34.321  37.326  1.00  0.00    -0.014 A 
ATOM     80  C   UNL A   1      41.147  35.468  37.276  1.00  0.00     0.010 A 
ATOM     81  C   UNL A   1      39.498  34.121  38.439  1.00  0.00     0.010 A 
ATOM     82  C   UNL A   1      41.140  36.383  38.333  1.00  0.00     0.020 A 
ATOM     83  C   UNL A   1      39.468  35.047  39.484  1.00  0.00     0.020 A 
ATOM     84  C   UNL A   1      40.300  36.167  39.430  1.00  0.00     0.054 A 
BRANCH  84  85
ATOM     85  S   UNL A   1      40.272  37.395  40.765  1.00  0.00     0.124 S 
ATOM     86  O   UNL A   1      38.871  37.806  40.769  1.00  0.00    -0.237 OA
ATOM     87  O   UNL A   1      40.702  36.618  41.925  1.00  0.00    -0.237 OA
ATOM     88  O   UNL A   1      41.218  38.414  40.318  1.00  0.00    -0.744 OA
ENDBRANCH  84  85
ENDBRANCH  58  79
ENDBRANCH  32  33
ENDBRANCH  25  27
ENDBRANCH  24  25
ENDBRANCH  23  24
ENDBRANCH   1  23
TORSDOF 17
ENDMDL
MODEL 2
REMARK VINA RESULT:     -10.0      4.892     10.656
REMARK SMILES CC(=O)NCC(=O)N1[C@@H](C(=O)OCCOC(=O)c2ccc(-c3c4nc(c(-c5ccc(S(=O)(=O)[O-])cc5)c5ccc([nH]5)c(-c5ccc(S(=O)(=O)[O-])cc5)c5nc(c(-c6ccc(S(=O)(=O)[O-])cc6)c6ccc3[nH]6)C=C5)C=C4)cc2)CC[C@H]2CCCC[C@H]21
REMARK SMILES IDX 13 1 12 2 10 3 11 4 9 5 8 6 85 7 78 8 80 9 84 10 79 11 81 12
REMARK SMILES IDX 83 13 82 14 6 15 7 16 5 17 4 18 1 19 2 20 3 21 14 23 15 24
REMARK SMILES IDX 16 25 17 26 18 27 19 28 77 29 20 30 76 31 21 32 22 33 23 34
REMARK SMILES IDX 70 35 24 36 75 37 69 38 71 39 25 40 74 41 68 42 67 43 26 45
REMARK SMILES IDX 56 46 37 47 55 48 38 49 41 50 54 51 72 52 39 53 40 54 53 56
REMARK SMILES IDX 73 57 42 58 27 59 28 60 36 61 29 62 35 63 30 64 31 65 32 66
REMARK SMILES IDX 33 67 34 68 57 69 58 70 66 71 59 72 65 73 60 74 61 75 62 76
REMARK SMILES IDX 63 77 64 78 43 79 44 80 52 81 45 82 51 83 46 84 47 85 48 86
REMARK SMILES IDX 49 87 50 88
REMARK H PARENT 4 22 71 44 41 55
REMARK Flexibility Score: inf
ROOT
ATOM      1  C   UNL A   1      35.885  21.390  25.747  1.00  0.00     0.274 C 
ENDROOT
BRANCH   1   2
ATOM      2  O   UNL A   1      35.006  22.465  25.357  1.00  0.00    -0.461 OA
BRANCH   2   3
ATOM      3  C   UNL A   1      34.359  23.050  26.392  1.00  0.00     0.328 C 
ATOM      4  O   UNL A   1      34.168  22.516  27.480  1.00  0.00    -0.250 OA
BRANCH   3   5
ATOM      5  C   UNL A   1      33.803  24.443  26.108  1.00  0.00     0.195 C 
ATOM      6  N   UNL A   1      32.346  24.576  25.983  1.00  0.00    -0.324 N 
ATOM      7  C   UNL A   1      31.866  25.965  25.997  1.00  0.00     0.089 C 
ATOM      8  C   UNL A   1      34.518  25.167  24.969  1.00  0.00     0.037 C 
ATOM      9  C   UNL A   1      32.563  26.795  24.893  1.00  0.00     0.012 C 
ATOM     10  C   UNL A   1      30.352  26.154  25.883  1.00  0.00     0.025 C 
ATOM     11  C   UNL A   1      34.093  26.636  24.940  1.00  0.00     0.008 C 
ATOM     12  C   UNL A   1      32.014  26.517  23.478  1.00  0.00     0.006 C 
ATOM     13  C   UNL A   1      29.770  25.809  24.517  1.00  0.00     0.002 C 
ATOM     14  C   UNL A   1      30.799  25.598  23.414  1.00  0.00     0.000 C 
BRANCH   6  15
ATOM     15  C   UNL A   1      31.551  23.515  26.382  1.00  0.00     0.242 C 
ATOM     16  O   UNL A   1      31.121  23.449  27.535  1.00  0.00    -0.273 OA
BRANCH  15  17
ATOM     17  C   UNL A   1      31.135  22.501  25.310  1.00  0.00     0.216 C 
BRANCH  17  18
ATOM     18  N   UNL A   1      31.636  21.194  25.712  1.00  0.00    -0.347 N 
ATOM     19  C   UNL A   1      32.548  20.500  23.518  1.00  0.00     0.114 C 
ATOM     20  C   UNL A   1      32.210  20.213  24.958  1.00  0.00     0.217 C 
ATOM     21  O   UNL A   1      32.477  19.134  25.486  1.00  0.00    -0.275 OA
ATOM     22  H   UNL A   1      31.546  20.987  26.670  1.00  0.00     0.164 HD
ENDBRANCH  17  18
ENDBRANCH  15  17
ENDBRANCH   6  15
ENDBRANCH   3   5
ENDBRANCH   2   3
ENDBRANCH   1   2
BRANCH   1  23
ATOM     23  C   UNL A   1      37.314  21.563  25.210  1.00  0.00     0.275 C 
BRANCH  23  24
ATOM     24  O   UNL A   1      37.880  22.856  25.506  1.00  0.00    -0.458 OA
BRANCH  24  25
ATOM     25  C   UNL A   1      39.022  22.838  26.230  1.00  0.00     0.338 C 
ATOM     26  O   UNL A   1      39.857  21.938  26.252  1.00  0.00    -0.246 OA
BRANCH  25  27
ATOM     27  C   UNL A   1      39.261  24.143  26.871  1.00  0.00     0.060 A 
ATOM     28  C   UNL A   1      40.031  25.083  26.174  1.00  0.00     0.016 A 
ATOM     29  C   UNL A   1      38.811  24.426  28.161  1.00  0.00     0.016 A 
ATOM     30  C   UNL A   1      40.346  26.310  26.746  1.00  0.00     0.010 A 
ATOM     31  C   UNL A   1      39.153  25.649  28.752  1.00  0.00     0.010 A 
ATOM     32  C   UNL A   1      39.931  26.590  28.052  1.00  0.00    -0.014 A 
BRANCH  32  33
ATOM     33  C   UNL A   1      40.423  27.817  28.721  1.00  0.00     0.031 A 
ATOM     34  C   UNL A   1      41.832  27.846  29.242  1.00  0.00     0.074 A 
ATOM     35  C   UNL A   1      39.636  28.902  28.821  1.00  0.00     0.049 A 
ATOM     36  N   UNL A   1      42.440  28.778  29.926  1.00  0.00    -0.248 NA
ATOM     37  C   UNL A   1      42.666  26.671  28.944  1.00  0.00     0.031 C 
ATOM     38  C   UNL A   1      38.284  29.021  28.276  1.00  0.00     0.029 A 
ATOM     39  N   UNL A   1      39.865  30.115  29.422  1.00  0.00    -0.354 N 
ATOM     40  C   UNL A   1      43.722  28.296  30.161  1.00  0.00     0.074 A 
ATOM     41  C   UNL A   1      43.801  26.985  29.553  1.00  0.00     0.031 C 
ATOM     42  C   UNL A   1      37.798  30.238  28.578  1.00  0.00     0.029 A 
ATOM     43  C   UNL A   1      38.784  30.963  29.377  1.00  0.00     0.049 A 
ATOM     44  H   UNL A   1      40.720  30.354  29.845  1.00  0.00     0.167 HD
ATOM     45  C   UNL A   1      44.739  28.891  30.828  1.00  0.00     0.031 A 
ATOM     46  C   UNL A   1      38.599  32.170  29.947  1.00  0.00     0.031 A 
ATOM     47  C   UNL A   1      44.646  30.187  31.446  1.00  0.00     0.049 A 
ATOM     48  C   UNL A   1      39.710  32.768  30.770  1.00  0.00     0.074 A 
ATOM     49  C   UNL A   1      45.613  30.873  32.160  1.00  0.00     0.029 A 
ATOM     50  N   UNL A   1      43.517  30.992  31.425  1.00  0.00    -0.354 N 
ATOM     51  N   UNL A   1      40.911  32.293  31.003  1.00  0.00    -0.248 NA
ATOM     52  C   UNL A   1      39.439  34.064  31.410  1.00  0.00     0.031 C 
ATOM     53  C   UNL A   1      45.049  32.070  32.616  1.00  0.00     0.029 A 
ATOM     54  C   UNL A   1      43.753  32.157  32.133  1.00  0.00     0.049 A 
ATOM     55  H   UNL A   1      42.671  30.768  30.973  1.00  0.00     0.167 HD
ATOM     56  C   UNL A   1      41.547  33.244  31.796  1.00  0.00     0.074 A 
ATOM     57  C   UNL A   1      40.604  34.325  31.990  1.00  0.00     0.031 C 
ATOM     58  C   UNL A   1      42.801  33.224  32.314  1.00  0.00     0.031 A 
BRANCH  45  59
ATOM     59  C   UNL A   1      46.022  28.117  30.967  1.00  0.00    -0.014 A 
ATOM     60  C   UNL A   1      46.275  27.316  32.096  1.00  0.00     0.010 A 
ATOM     61  C   UNL A   1      46.982  28.174  29.939  1.00  0.00     0.010 A 
ATOM     62  C   UNL A   1      47.482  26.619  32.211  1.00  0.00     0.020 A 
ATOM     63  C   UNL A   1      48.178  27.460  30.039  1.00  0.00     0.020 A 
ATOM     64  C   UNL A   1      48.429  26.701  31.184  1.00  0.00     0.054 A 
BRANCH  64  65
ATOM     65  S   UNL A   1      49.980  25.778  31.355  1.00  0.00     0.124 S 
ATOM     66  O   UNL A   1      50.913  26.830  31.754  1.00  0.00    -0.237 OA
ATOM     67  O   UNL A   1      49.659  24.799  32.391  1.00  0.00    -0.237 OA
ATOM     68  O   UNL A   1      50.203  25.222  30.023  1.00  0.00    -0.744 OA
ENDBRANCH  64  65
ENDBRANCH  45  59
BRANCH  46  69
ATOM     69  C   UNL A   1      37.298  32.877  29.792  1.00  0.00    -0.014 A 
ATOM     70  C   UNL A   1      37.056  33.699  28.677  1.00  0.00     0.010 A 
ATOM     71  C   UNL A   1      36.291  32.731  30.764  1.00  0.00     0.010 A 
ATOM     72  C   UNL A   1      35.836  34.371  28.545  1.00  0.00     0.020 A 
ATOM     73  C   UNL A   1      35.061  33.379  30.621  1.00  0.00     0.020 A 
ATOM     74  C   UNL A   1      34.845  34.204  29.516  1.00  0.00     0.054 A 
BRANCH  74  75
ATOM     75  S   UNL A   1      33.251  35.042  29.293  1.00  0.00     0.124 S 
ATOM     76  O   UNL A   1      32.688  34.984  30.639  1.00  0.00    -0.237 OA
ATOM     77  O   UNL A   1      33.654  36.368  28.833  1.00  0.00    -0.237 OA
ATOM     78  O   UNL A   1      32.572  34.224  28.292  1.00  0.00    -0.744 OA
ENDBRANCH  74  75
ENDBRANCH  46  69
BRANCH  58  79
ATOM     79  C   UNL A   1      43.242  34.424  33.109  1.00  0.00    -0.014 A 
ATOM     80  C   UNL A   1      44.060  35.416  32.543  1.00  0.00     0.010 A 
ATOM     81  C   UNL A   1      42.776  34.589  34.427  1.00  0.00     0.010 A 
ATOM     82  C   UNL A   1      44.428  36.539  33.290  1.00  0.00     0.020 A 
ATOM     83  C   UNL A   1      43.119  35.723  35.168  1.00  0.00     0.020 A 
ATOM     84  C   UNL A   1      43.955  36.685  34.598  1.00  0.00     0.054 A 
BRANCH  84  85
ATOM     85  S   UNL A   1      44.405  38.175  35.530  1.00  0.00     0.124 S 
ATOM     86  O   UNL A   1      45.864  38.127  35.490  1.00  0.00    -0.237 OA
ATOM     87  O   UNL A   1      43.790  39.243  34.746  1.00  0.00    -0.237 OA
ATOM     88  O   UNL A   1      43.811  37.953  36.845  1.00  0.00    -0.744 OA
ENDBRANCH  84  85
ENDBRANCH  58  79
ENDBRANCH  32  33
ENDBRANCH  25  27
ENDBRANCH  24  25
ENDBRANCH  23  24
ENDBRANCH   1  23
TORSDOF 17
ENDMDL
MODEL 3
REMARK VINA RESULT:      -9.9      4.751     10.814
REMARK SMILES CC(=O)NCC(=O)N1[C@@H](C(=O)OCCOC(=O)c2ccc(-c3c4nc(c(-c5ccc(S(=O)(=O)[O-])cc5)c5ccc([nH]5)c(-c5ccc(S(=O)(=O)[O-])cc5)c5nc(c(-c6ccc(S(=O)(=O)[O-])cc6)c6ccc3[nH]6)C=C5)C=C4)cc2)CC[C@H]2CCCC[C@H]21
REMARK SMILES IDX 13 1 12 2 10 3 11 4 9 5 8 6 85 7 78 8 80 9 84 10 79 11 81 12
REMARK SMILES IDX 83 13 82 14 6 15 7 16 5 17 4 18 1 19 2 20 3 21 14 23 15 24
REMARK SMILES IDX 16 25 17 26 18 27 19 28 77 29 20 30 76 31 21 32 22 33 23 34
REMARK SMILES IDX 70 35 24 36 75 37 69 38 71 39 25 40 74 41 68 42 67 43 26 45
REMARK SMILES IDX 56 46 37 47 55 48 38 49 41 50 54 51 72 52 39 53 40 54 53 56
REMARK SMILES IDX 73 57 42 58 27 59 28 60 36 61 29 62 35 63 30 64 31 65 32 66
REMARK SMILES IDX 33 67 34 68 57 69 58 70 66 71 59 72 65 73 60 74 61 75 62 76
REMARK SMILES IDX 63 77 64 78 43 79 44 80 52 81 45 82 51 83 46 84 47 85 48 86
REMARK SMILES IDX 49 87 50 88
REMARK H PARENT 4 22 71 44 41 55
REMARK Flexibility Score: inf
ROOT
ATOM      1  C   UNL A   1      32.115  29.571  25.198  1.00  0.00     0.274 C 
ENDROOT
BRANCH   1   2
ATOM      2  O   UNL A   1      32.257  28.183  24.830  1.00  0.00    -0.461 OA
BRANCH   2   3
ATOM      3  C   UNL A   1      33.470  27.871  24.318  1.00  0.00     0.328 C 
ATOM      4  O   UNL A   1      34.186  28.655  23.704  1.00  0.00    -0.250 OA
BRANCH   3   5
ATOM      5  C   UNL A   1      33.896  26.416  24.497  1.00  0.00     0.195 C 
ATOM      6  N   UNL A   1      33.485  25.459  23.462  1.00  0.00    -0.324 N 
ATOM      7  C   UNL A   1      34.161  24.157  23.545  1.00  0.00     0.089 C 
ATOM      8  C   UNL A   1      33.617  25.863  25.893  1.00  0.00     0.037 C 
ATOM      9  C   UNL A   1      33.964  23.528  24.945  1.00  0.00     0.012 C 
ATOM     10  C   UNL A   1      33.776  23.131  22.478  1.00  0.00     0.025 C 
ATOM     11  C   UNL A   1      34.320  24.516  26.069  1.00  0.00     0.008 C 
ATOM     12  C   UNL A   1      32.560  22.922  25.153  1.00  0.00     0.006 C 
ATOM     13  C   UNL A   1      32.362  22.575  22.611  1.00  0.00     0.002 C 
ATOM     14  C   UNL A   1      31.661  22.909  23.922  1.00  0.00     0.000 C 
BRANCH   6  15
ATOM     15  C   UNL A   1      32.976  25.954  22.273  1.00  0.00     0.242 C 
ATOM     16  O   UNL A   1      33.722  26.198  21.322  1.00  0.00    -0.273 OA
BRANCH  15  17
ATOM     17  C   UNL A   1      31.452  26.069  22.149  1.00  0.00     0.216 C 
BRANCH  17  18
ATOM     18  N   UNL A   1      31.129  27.464  21.882  1.00  0.00    -0.347 N 
ATOM     19  C   UNL A   1      29.133  27.625  23.335  1.00  0.00     0.114 C 
ATOM     20  C   UNL A   1      30.072  28.209  22.311  1.00  0.00     0.217 C 
ATOM     21  O   UNL A   1      29.937  29.355  21.884  1.00  0.00    -0.275 OA
ATOM     22  H   UNL A   1      31.769  27.939  21.305  1.00  0.00     0.164 HD
ENDBRANCH  17  18
ENDBRANCH  15  17
ENDBRANCH   6  15
ENDBRANCH   3   5
ENDBRANCH   2   3
ENDBRANCH   1   2
BRANCH   1  23
ATOM     23  C   UNL A   1      32.203  29.797  26.715  1.00  0.00     0.275 C 
BRANCH  23  24
ATOM     24  O   UNL A   1      33.504  29.494  27.262  1.00  0.00    -0.458 OA
BRANCH  24  25
ATOM     25  C   UNL A   1      34.315  30.559  27.453  1.00  0.00     0.338 C 
ATOM     26  O   UNL A   1      34.010  31.741  27.324  1.00  0.00    -0.246 OA
BRANCH  25  27
ATOM     27  C   UNL A   1      35.603  30.142  28.036  1.00  0.00     0.060 A 
ATOM     28  C   UNL A   1      35.607  29.704  29.367  1.00  0.00     0.016 A 
ATOM     29  C   UNL A   1      36.801  30.245  27.330  1.00  0.00     0.016 A 
ATOM     30  C   UNL A   1      36.795  29.355  29.997  1.00  0.00     0.010 A 
ATOM     31  C   UNL A   1      38.003  29.924  27.972  1.00  0.00     0.010 A 
ATOM     32  C   UNL A   1      38.006  29.490  29.311  1.00  0.00    -0.014 A 
BRANCH  32  33
ATOM     33  C   UNL A   1      39.279  29.293  30.043  1.00  0.00     0.031 A 
ATOM     34  C   UNL A   1      40.235  28.236  29.568  1.00  0.00     0.074 A 
ATOM     35  C   UNL A   1      39.594  30.077  31.089  1.00  0.00     0.049 A 
ATOM     36  N   UNL A   1      41.361  27.840  30.100  1.00  0.00    -0.248 NA
ATOM     37  C   UNL A   1      39.876  27.539  28.322  1.00  0.00     0.031 C 
ATOM     38  C   UNL A   1      38.786  31.191  31.586  1.00  0.00     0.029 A 
ATOM     39  N   UNL A   1      40.683  30.051  31.924  1.00  0.00    -0.354 N 
ATOM     40  C   UNL A   1      41.836  26.833  29.269  1.00  0.00     0.074 A 
ATOM     41  C   UNL A   1      40.873  26.673  28.201  1.00  0.00     0.031 C 
ATOM     42  C   UNL A   1      39.403  31.735  32.649  1.00  0.00     0.029 A 
ATOM     43  C   UNL A   1      40.621  30.980  32.936  1.00  0.00     0.049 A 
ATOM     44  H   UNL A   1      41.435  29.426  31.811  1.00  0.00     0.167 HD
ATOM     45  C   UNL A   1      42.972  26.105  29.389  1.00  0.00     0.031 A 
ATOM     46  C   UNL A   1      41.436  31.173  33.991  1.00  0.00     0.031 A 
ATOM     47  C   UNL A   1      43.915  26.258  30.465  1.00  0.00     0.049 A 
ATOM     48  C   UNL A   1      42.640  30.283  34.160  1.00  0.00     0.074 A 
ATOM     49  C   UNL A   1      45.088  25.558  30.689  1.00  0.00     0.029 A 
ATOM     50  N   UNL A   1      43.790  27.173  31.500  1.00  0.00    -0.354 N 
ATOM     51  N   UNL A   1      43.069  29.319  33.379  1.00  0.00    -0.248 NA
ATOM     52  C   UNL A   1      43.467  30.504  35.355  1.00  0.00     0.031 C 
ATOM     53  C   UNL A   1      45.644  26.015  31.889  1.00  0.00     0.029 A 
ATOM     54  C   UNL A   1      44.851  27.041  32.379  1.00  0.00     0.049 A 
ATOM     55  H   UNL A   1      43.055  27.820  31.596  1.00  0.00     0.167 HD
ATOM     56  C   UNL A   1      44.229  28.837  33.975  1.00  0.00     0.074 A 
ATOM     57  C   UNL A   1      44.442  29.623  35.172  1.00  0.00     0.031 C 
ATOM     58  C   UNL A   1      45.047  27.834  33.566  1.00  0.00     0.031 A 
BRANCH  45  59
ATOM     59  C   UNL A   1      43.224  25.040  28.356  1.00  0.00    -0.014 A 
ATOM     60  C   UNL A   1      43.927  25.321  27.171  1.00  0.00     0.010 A 
ATOM     61  C   UNL A   1      42.767  23.729  28.587  1.00  0.00     0.010 A 
ATOM     62  C   UNL A   1      44.134  24.319  26.218  1.00  0.00     0.020 A 
ATOM     63  C   UNL A   1      42.994  22.719  27.648  1.00  0.00     0.020 A 
ATOM     64  C   UNL A   1      43.661  23.025  26.460  1.00  0.00     0.054 A 
BRANCH  64  65
ATOM     65  S   UNL A   1      43.952  21.743  25.212  1.00  0.00     0.124 S 
ATOM     66  O   UNL A   1      42.859  20.811  25.477  1.00  0.00    -0.237 OA
ATOM     67  O   UNL A   1      43.853  22.487  23.958  1.00  0.00    -0.237 OA
ATOM     68  O   UNL A   1      45.287  21.243  25.532  1.00  0.00    -0.744 OA
ENDBRANCH  64  65
ENDBRANCH  45  59
BRANCH  46  69
ATOM     69  C   UNL A   1      41.121  32.229  34.993  1.00  0.00    -0.014 A 
ATOM     70  C   UNL A   1      41.564  33.550  34.808  1.00  0.00     0.010 A 
ATOM     71  C   UNL A   1      40.373  31.915  36.144  1.00  0.00     0.010 A 
ATOM     72  C   UNL A   1      41.276  34.533  35.760  1.00  0.00     0.020 A 
ATOM     73  C   UNL A   1      40.059  32.901  37.082  1.00  0.00     0.020 A 
ATOM     74  C   UNL A   1      40.522  34.203  36.889  1.00  0.00     0.054 A 
BRANCH  74  75
ATOM     75  S   UNL A   1      40.114  35.509  38.082  1.00  0.00     0.124 S 
ATOM     76  O   UNL A   1      39.954  36.672  37.215  1.00  0.00    -0.237 OA
ATOM     77  O   UNL A   1      38.889  35.004  38.695  1.00  0.00    -0.237 OA
ATOM     78  O   UNL A   1      41.277  35.540  38.966  1.00  0.00    -0.744 OA
ENDBRANCH  74  75
ENDBRANCH  46  69
BRANCH  58  79
ATOM     79  C   UNL A   1      46.270  27.554  34.397  1.00  0.00    -0.014 A 
ATOM     80  C   UNL A   1      47.474  28.248  34.185  1.00  0.00     0.010 A 
ATOM     81  C   UNL A   1      46.192  26.623  35.450  1.00  0.00     0.010 A 
ATOM     82  C   UNL A   1      48.587  27.995  34.992  1.00  0.00     0.020 A 
ATOM     83  C   UNL A   1      47.294  26.387  36.276  1.00  0.00     0.020 A 
ATOM     84  C   UNL A   1      48.489  27.066  36.033  1.00  0.00     0.054 A 
BRANCH  84  85
ATOM     85  S   UNL A   1      49.931  26.792  37.099  1.00  0.00     0.124 S 
ATOM     86  O   UNL A   1      51.011  26.674  36.123  1.00  0.00    -0.237 OA
ATOM     87  O   UNL A   1      49.957  27.999  37.922  1.00  0.00    -0.237 OA
ATOM     88  O   UNL A   1      49.603  25.563  37.816  1.00  0.00    -0.744 OA
ENDBRANCH  84  85
ENDBRANCH  58  79
ENDBRANCH  32  33
ENDBRANCH  25  27
ENDBRANCH  24  25
ENDBRANCH  23  24
ENDBRANCH   1  23
TORSDOF 17
ENDMDL
