MODEL 1
REMARK VINA RESULT:     -12.7      0.000      0.000
REMARK SMILES CC1(C)Oc2ccc(NC(=O)[C@H]3CC=CC[C@@H]3C(=O)OCCOC(=O)c3ccc(-c4c5nc(c(-c6ccc(S(=O)(=O)[O-])cc6)c6ccc([nH]6)c(-c6ccc(S(=O)(=O)[O-])cc6)c6nc(c(-c7ccc(S(=O)(=O)[O-])cc7)c7ccc4[nH]7)C=C6)C=C5)cc3)cc2NC1=O
REMARK SMILES IDX 22 1 21 2 20 3 18 4 19 5 17 6 12 7 13 8 14 9 16 10 15 11
REMARK SMILES IDX 10 12 9 13 11 15 8 16 1 17 2 18 3 19 4 20 89 21 5 22 88 23
REMARK SMILES IDX 90 24 6 25 87 26 7 28 86 29 23 30 24 31 25 32 26 33 27 34
REMARK SMILES IDX 85 35 28 36 84 37 29 38 30 39 31 40 78 41 32 42 83 43 77 44
REMARK SMILES IDX 79 45 33 46 82 47 76 48 75 49 34 51 64 52 45 53 63 54 46 55
REMARK SMILES IDX 49 56 62 57 80 58 47 59 48 60 61 62 81 63 50 64 35 65 36 66
REMARK SMILES IDX 44 67 37 68 43 69 38 70 39 71 40 72 41 73 42 74 65 75 66 76
REMARK SMILES IDX 74 77 67 78 73 79 68 80 69 81 70 82 71 83 72 84 51 85 52 86
REMARK SMILES IDX 60 87 53 88 59 89 54 90 55 91 56 92 57 93 58 94
REMARK H PARENT 9 14 88 27 79 50 49 61
REMARK Flexibility Score: inf
ROOT
ATOM      1  C   UNL A   1      36.938  21.005  25.005  1.00  0.00     0.275 C 
ENDROOT
BRANCH   1   2
ATOM      2  C   UNL A   1      35.787  21.686  25.746  1.00  0.00     0.274 C 
BRANCH   2   3
ATOM      3  O   UNL A   1      34.815  22.096  24.762  1.00  0.00    -0.462 OA
BRANCH   3   4
ATOM      4  C   UNL A   1      34.861  23.371  24.297  1.00  0.00     0.310 C 
ATOM      5  O   UNL A   1      35.408  24.302  24.876  1.00  0.00    -0.252 OA
BRANCH   4   6
ATOM      6  C   UNL A   1      34.118  23.525  22.967  1.00  0.00     0.116 C 
ATOM      7  C   UNL A   1      33.398  24.896  22.861  1.00  0.00     0.097 C 
ATOM      8  C   UNL A   1      32.170  24.853  23.813  1.00  0.00     0.041 C 
ATOM      9  C   UNL A   1      31.340  23.607  23.634  1.00  0.00    -0.030 C 
ATOM     10  C   UNL A   1      33.238  22.309  22.667  1.00  0.00     0.043 C 
ATOM     11  C   UNL A   1      31.817  22.474  23.099  1.00  0.00    -0.030 C 
BRANCH   7  12
ATOM     12  C   UNL A   1      32.887  25.410  21.468  1.00  0.00     0.228 C 
ATOM     13  N   UNL A   1      32.249  26.594  21.229  1.00  0.00    -0.326 N 
ATOM     14  H   UNL A   1      32.120  26.807  20.276  1.00  0.00     0.169 HD
ATOM     15  O   UNL A   1      33.018  24.704  20.457  1.00  0.00    -0.274 OA
BRANCH  13  16
ATOM     16  C   UNL A   1      31.754  27.545  22.111  1.00  0.00     0.043 A 
ATOM     17  C   UNL A   1      31.385  28.845  27.695  1.00  0.00     0.067 C 
ATOM     18  C   UNL A   1      32.411  28.538  26.610  1.00  0.00     0.182 C 
ATOM     19  C   UNL A   1      33.638  27.641  26.914  1.00  0.00     0.067 C 
ATOM     20  O   UNL A   1      31.563  27.763  25.787  1.00  0.00    -0.476 OA
ATOM     21  C   UNL A   1      33.095  29.808  26.023  1.00  0.00     0.268 C 
ATOM     22  C   UNL A   1      31.344  28.338  24.570  1.00  0.00     0.144 A 
ATOM     23  N   UNL A   1      33.291  29.716  24.657  1.00  0.00    -0.319 N 
ATOM     24  O   UNL A   1      33.587  30.702  26.702  1.00  0.00    -0.270 OA
ATOM     25  C   UNL A   1      30.245  27.826  23.917  1.00  0.00     0.051 A 
ATOM     26  C   UNL A   1      32.434  28.899  23.915  1.00  0.00     0.086 A 
ATOM     27  H   UNL A   1      34.018  30.215  24.218  1.00  0.00     0.170 HD
ATOM     28  C   UNL A   1      30.465  27.407  22.630  1.00  0.00     0.030 A 
ATOM     29  C   UNL A   1      32.661  28.489  22.624  1.00  0.00     0.056 A 
ENDBRANCH  13  16
ENDBRANCH   7  12
ENDBRANCH   4   6
ENDBRANCH   3   4
ENDBRANCH   2   3
ENDBRANCH   1   2
BRANCH   1  30
ATOM     30  O   UNL A   1      38.069  21.904  25.004  1.00  0.00    -0.458 OA
BRANCH  30  31
ATOM     31  C   UNL A   1      39.043  21.671  25.913  1.00  0.00     0.338 C 
ATOM     32  O   UNL A   1      39.581  20.575  26.109  1.00  0.00    -0.246 OA
BRANCH  31  33
ATOM     33  C   UNL A   1      39.388  22.917  26.666  1.00  0.00     0.060 A 
ATOM     34  C   UNL A   1      40.560  22.981  27.423  1.00  0.00     0.016 A 
ATOM     35  C   UNL A   1      38.579  24.054  26.641  1.00  0.00     0.016 A 
ATOM     36  C   UNL A   1      40.953  24.189  28.052  1.00  0.00     0.010 A 
ATOM     37  C   UNL A   1      38.972  25.244  27.306  1.00  0.00     0.010 A 
ATOM     38  C   UNL A   1      40.219  25.390  27.922  1.00  0.00    -0.014 A 
BRANCH  38  39
ATOM     39  C   UNL A   1      40.834  26.734  28.287  1.00  0.00     0.031 A 
ATOM     40  C   UNL A   1      42.281  27.150  28.133  1.00  0.00     0.074 A 
ATOM     41  C   UNL A   1      40.222  27.572  29.152  1.00  0.00     0.049 A 
ATOM     42  N   UNL A   1      42.887  28.012  27.360  1.00  0.00    -0.248 NA
ATOM     43  C   UNL A   1      43.178  26.621  29.148  1.00  0.00     0.031 C 
ATOM     44  C   UNL A   1      38.965  27.335  29.858  1.00  0.00     0.029 A 
ATOM     45  N   UNL A   1      40.625  28.813  29.595  1.00  0.00    -0.354 N 
ATOM     46  C   UNL A   1      44.259  27.839  27.600  1.00  0.00     0.074 A 
ATOM     47  C   UNL A   1      44.386  26.874  28.666  1.00  0.00     0.031 C 
ATOM     48  C   UNL A   1      38.642  28.436  30.554  1.00  0.00     0.029 A 
ATOM     49  C   UNL A   1      39.674  29.448  30.352  1.00  0.00     0.049 A 
ATOM     50  H   UNL A   1      41.504  29.205  29.387  1.00  0.00     0.167 HD
ATOM     51  C   UNL A   1      45.332  28.638  27.376  1.00  0.00     0.031 A 
ATOM     52  C   UNL A   1      39.610  30.730  30.760  1.00  0.00     0.031 A 
ATOM     53  C   UNL A   1      45.253  30.065  27.526  1.00  0.00     0.049 A 
ATOM     54  C   UNL A   1      40.697  31.691  30.365  1.00  0.00     0.074 A 
ATOM     55  C   UNL A   1      46.239  31.016  27.326  1.00  0.00     0.029 A 
ATOM     56  N   UNL A   1      44.195  30.707  28.153  1.00  0.00    -0.354 N 
ATOM     57  N   UNL A   1      41.835  31.450  29.756  1.00  0.00    -0.248 NA
ATOM     58  C   UNL A   1      40.463  33.108  30.673  1.00  0.00     0.031 C 
ATOM     59  C   UNL A   1      45.826  32.197  27.956  1.00  0.00     0.029 A 
ATOM     60  C   UNL A   1      44.533  32.018  28.426  1.00  0.00     0.049 A 
ATOM     61  H   UNL A   1      43.330  30.290  28.372  1.00  0.00     0.167 HD
ATOM     62  C   UNL A   1      42.455  32.688  29.605  1.00  0.00     0.074 A 
ATOM     63  C   UNL A   1      41.550  33.675  30.162  1.00  0.00     0.031 C 
ATOM     64  C   UNL A   1      43.655  32.983  29.044  1.00  0.00     0.031 A 
BRANCH  51  65
ATOM     65  C   UNL A   1      46.688  27.970  27.218  1.00  0.00    -0.014 A 
ATOM     66  C   UNL A   1      46.983  27.080  26.166  1.00  0.00     0.010 A 
ATOM     67  C   UNL A   1      47.644  28.127  28.241  1.00  0.00     0.010 A 
ATOM     68  C   UNL A   1      48.169  26.330  26.165  1.00  0.00     0.020 A 
ATOM     69  C   UNL A   1      48.835  27.388  28.241  1.00  0.00     0.020 A 
ATOM     70  C   UNL A   1      49.081  26.475  27.214  1.00  0.00     0.054 A 
BRANCH  70  71
ATOM     71  S   UNL A   1      50.583  25.450  27.236  1.00  0.00     0.124 S 
ATOM     72  O   UNL A   1      51.507  26.267  28.018  1.00  0.00    -0.237 OA
ATOM     73  O   UNL A   1      50.122  24.223  27.884  1.00  0.00    -0.237 OA
ATOM     74  O   UNL A   1      50.924  25.306  25.822  1.00  0.00    -0.744 OA
ENDBRANCH  70  71
ENDBRANCH  51  65
BRANCH  52  75
ATOM     75  C   UNL A   1      38.341  31.175  31.387  1.00  0.00    -0.014 A 
ATOM     76  C   UNL A   1      37.262  31.623  30.606  1.00  0.00     0.010 A 
ATOM     77  C   UNL A   1      38.306  31.346  32.783  1.00  0.00     0.010 A 
ATOM     78  C   UNL A   1      36.201  32.303  31.209  1.00  0.00     0.020 A 
ATOM     79  C   UNL A   1      37.239  32.009  33.388  1.00  0.00     0.020 A 
ATOM     80  C   UNL A   1      36.213  32.518  32.591  1.00  0.00     0.054 A 
BRANCH  80  81
ATOM     81  S   UNL A   1      34.910  33.542  33.328  1.00  0.00     0.124 S 
ATOM     82  O   UNL A   1      35.198  34.851  32.746  1.00  0.00    -0.237 OA
ATOM     83  O   UNL A   1      33.691  32.895  32.852  1.00  0.00    -0.237 OA
ATOM     84  O   UNL A   1      35.155  33.429  34.763  1.00  0.00    -0.744 OA
ENDBRANCH  80  81
ENDBRANCH  52  75
BRANCH  64  85
ATOM     85  C   UNL A   1      44.111  34.422  29.023  1.00  0.00    -0.014 A 
ATOM     86  C   UNL A   1      43.689  35.254  27.969  1.00  0.00     0.010 A 
ATOM     87  C   UNL A   1      45.050  34.915  29.947  1.00  0.00     0.010 A 
ATOM     88  C   UNL A   1      44.214  36.538  27.820  1.00  0.00     0.020 A 
ATOM     89  C   UNL A   1      45.556  36.213  29.820  1.00  0.00     0.020 A 
ATOM     90  C   UNL A   1      45.152  37.007  28.742  1.00  0.00     0.054 A 
BRANCH  90  91
ATOM     91  S   UNL A   1      45.837  38.672  28.523  1.00  0.00     0.124 S 
ATOM     92  O   UNL A   1      46.017  39.114  29.903  1.00  0.00    -0.237 OA
ATOM     93  O   UNL A   1      47.068  38.421  27.778  1.00  0.00    -0.237 OA
ATOM     94  O   UNL A   1      44.797  39.371  27.772  1.00  0.00    -0.744 OA
ENDBRANCH  90  91
ENDBRANCH  64  85
ENDBRANCH  38  39
ENDBRANCH  31  33
ENDBRANCH  30  31
ENDBRANCH   1  30
TORSDOF 16
ENDMDL
MODEL 2
REMARK VINA RESULT:     -12.7      5.101     12.488
REMARK SMILES CC1(C)Oc2ccc(NC(=O)[C@H]3CC=CC[C@@H]3C(=O)OCCOC(=O)c3ccc(-c4c5nc(c(-c6ccc(S(=O)(=O)[O-])cc6)c6ccc([nH]6)c(-c6ccc(S(=O)(=O)[O-])cc6)c6nc(c(-c7ccc(S(=O)(=O)[O-])cc7)c7ccc4[nH]7)C=C6)C=C5)cc3)cc2NC1=O
REMARK SMILES IDX 22 1 21 2 20 3 18 4 19 5 17 6 12 7 13 8 14 9 16 10 15 11
REMARK SMILES IDX 10 12 9 13 11 15 8 16 1 17 2 18 3 19 4 20 89 21 5 22 88 23
REMARK SMILES IDX 90 24 6 25 87 26 7 28 86 29 23 30 24 31 25 32 26 33 27 34
REMARK SMILES IDX 85 35 28 36 84 37 29 38 30 39 31 40 78 41 32 42 83 43 77 44
REMARK SMILES IDX 79 45 33 46 82 47 76 48 75 49 34 51 64 52 45 53 63 54 46 55
REMARK SMILES IDX 49 56 62 57 80 58 47 59 48 60 61 62 81 63 50 64 35 65 36 66
REMARK SMILES IDX 44 67 37 68 43 69 38 70 39 71 40 72 41 73 42 74 65 75 66 76
REMARK SMILES IDX 74 77 67 78 73 79 68 80 69 81 70 82 71 83 72 84 51 85 52 86
REMARK SMILES IDX 60 87 53 88 59 89 54 90 55 91 56 92 57 93 58 94
REMARK H PARENT 9 14 88 27 79 50 49 61
REMARK Flexibility Score: inf
ROOT
ATOM      1  C   UNL A   1      33.632  33.884  28.270  1.00  0.00     0.275 C 
ENDROOT
BRANCH   1   2
ATOM      2  C   UNL A   1      34.242  34.648  29.445  1.00  0.00     0.274 C 
BRANCH   2   3
ATOM      3  O   UNL A   1      33.991  33.883  30.642  1.00  0.00    -0.462 OA
BRANCH   3   4
ATOM      4  C   UNL A   1      35.044  33.304  31.274  1.00  0.00     0.310 C 
ATOM      5  O   UNL A   1      35.269  32.099  31.287  1.00  0.00    -0.252 OA
BRANCH   4   6
ATOM      6  C   UNL A   1      35.913  34.331  32.005  1.00  0.00     0.116 C 
ATOM      7  C   UNL A   1      37.081  33.660  32.775  1.00  0.00     0.097 C 
ATOM      8  C   UNL A   1      36.473  32.944  34.013  1.00  0.00     0.041 C 
ATOM      9  C   UNL A   1      35.533  33.829  34.792  1.00  0.00    -0.030 C 
ATOM     10  C   UNL A   1      35.066  35.301  32.833  1.00  0.00     0.043 C 
ATOM     11  C   UNL A   1      34.920  34.898  34.265  1.00  0.00    -0.030 C 
BRANCH   7  12
ATOM     12  C   UNL A   1      38.286  34.526  33.286  1.00  0.00     0.228 C 
ATOM     13  N   UNL A   1      39.401  34.860  32.571  1.00  0.00    -0.326 N 
ATOM     14  H   UNL A   1      39.990  35.517  33.008  1.00  0.00     0.169 HD
ATOM     15  O   UNL A   1      38.300  34.949  34.452  1.00  0.00    -0.274 OA
BRANCH  13  16
ATOM     16  C   UNL A   1      39.838  34.423  31.327  1.00  0.00     0.043 A 
ATOM     17  C   UNL A   1      42.666  36.117  26.622  1.00  0.00     0.067 C 
ATOM     18  C   UNL A   1      42.831  36.002  28.134  1.00  0.00     0.182 C 
ATOM     19  C   UNL A   1      43.524  37.130  28.939  1.00  0.00     0.067 C 
ATOM     20  O   UNL A   1      41.459  36.084  28.462  1.00  0.00    -0.476 OA
ATOM     21  C   UNL A   1      43.653  34.756  28.578  1.00  0.00     0.268 C 
ATOM     22  C   UNL A   1      40.989  34.939  29.035  1.00  0.00     0.144 A 
ATOM     23  N   UNL A   1      43.142  34.171  29.722  1.00  0.00    -0.319 N 
ATOM     24  O   UNL A   1      44.736  34.439  28.100  1.00  0.00    -0.270 OA
ATOM     25  C   UNL A   1      39.615  34.840  29.005  1.00  0.00     0.051 A 
ATOM     26  C   UNL A   1      41.781  34.326  29.999  1.00  0.00     0.086 A 
ATOM     27  H   UNL A   1      43.725  33.656  30.327  1.00  0.00     0.170 HD
ATOM     28  C   UNL A   1      39.016  34.574  30.209  1.00  0.00     0.030 A 
ATOM     29  C   UNL A   1      41.189  34.052  31.208  1.00  0.00     0.056 A 
ENDBRANCH  13  16
ENDBRANCH   7  12
ENDBRANCH   4   6
ENDBRANCH   3   4
ENDBRANCH   2   3
ENDBRANCH   1   2
BRANCH   1  30
ATOM     30  O   UNL A   1      34.674  33.097  27.652  1.00  0.00    -0.458 OA
BRANCH  30  31
ATOM     31  C   UNL A   1      34.536  31.753  27.687  1.00  0.00     0.338 C 
ATOM     32  O   UNL A   1      33.477  31.144  27.494  1.00  0.00    -0.246 OA
BRANCH  31  33
ATOM     33  C   UNL A   1      35.837  31.084  28.002  1.00  0.00     0.060 A 
ATOM     34  C   UNL A   1      36.936  31.840  28.417  1.00  0.00     0.016 A 
ATOM     35  C   UNL A   1      36.010  29.702  27.908  1.00  0.00     0.016 A 
ATOM     36  C   UNL A   1      38.139  31.210  28.822  1.00  0.00     0.010 A 
ATOM     37  C   UNL A   1      37.233  29.091  28.285  1.00  0.00     0.010 A 
ATOM     38  C   UNL A   1      38.286  29.805  28.869  1.00  0.00    -0.014 A 
BRANCH  38  39
ATOM     39  C   UNL A   1      39.427  29.156  29.639  1.00  0.00     0.031 A 
ATOM     40  C   UNL A   1      39.832  29.422  31.073  1.00  0.00     0.074 A 
ATOM     41  C   UNL A   1      40.449  28.548  28.996  1.00  0.00     0.049 A 
ATOM     42  N   UNL A   1      39.782  28.707  32.165  1.00  0.00    -0.248 NA
ATOM     43  C   UNL A   1      40.580  30.654  31.275  1.00  0.00     0.031 C 
ATOM     44  C   UNL A   1      40.634  28.442  27.551  1.00  0.00     0.029 A 
ATOM     45  N   UNL A   1      41.554  27.915  29.521  1.00  0.00    -0.354 N 
ATOM     46  C   UNL A   1      40.183  29.564  33.201  1.00  0.00     0.074 A 
ATOM     47  C   UNL A   1      40.577  30.813  32.591  1.00  0.00     0.031 C 
ATOM     48  C   UNL A   1      41.717  27.690  27.304  1.00  0.00     0.029 A 
ATOM     49  C   UNL A   1      42.307  27.273  28.573  1.00  0.00     0.049 A 
ATOM     50  H   UNL A   1      41.780  27.922  30.480  1.00  0.00     0.167 HD
ATOM     51  C   UNL A   1      40.652  29.328  34.451  1.00  0.00     0.031 A 
ATOM     52  C   UNL A   1      43.306  26.381  28.720  1.00  0.00     0.031 A 
ATOM     53  C   UNL A   1      41.511  28.211  34.735  1.00  0.00     0.049 A 
ATOM     54  C   UNL A   1      43.723  25.953  30.100  1.00  0.00     0.074 A 
ATOM     55  C   UNL A   1      42.061  27.823  35.944  1.00  0.00     0.029 A 
ATOM     56  N   UNL A   1      42.138  27.464  33.748  1.00  0.00    -0.354 N 
ATOM     57  N   UNL A   1      43.340  26.425  31.264  1.00  0.00    -0.248 NA
ATOM     58  C   UNL A   1      44.673  24.837  30.183  1.00  0.00     0.031 C 
ATOM     59  C   UNL A   1      43.113  26.940  35.670  1.00  0.00     0.029 A 
ATOM     60  C   UNL A   1      43.127  26.679  34.308  1.00  0.00     0.049 A 
ATOM     61  H   UNL A   1      41.912  27.488  32.791  1.00  0.00     0.167 HD
ATOM     62  C   UNL A   1      44.002  25.659  32.221  1.00  0.00     0.074 A 
ATOM     63  C   UNL A   1      44.786  24.679  31.496  1.00  0.00     0.031 C 
ATOM     64  C   UNL A   1      43.955  25.751  33.575  1.00  0.00     0.031 A 
BRANCH  51  65
ATOM     65  C   UNL A   1      40.461  30.417  35.493  1.00  0.00    -0.014 A 
ATOM     66  C   UNL A   1      39.190  30.856  35.916  1.00  0.00     0.010 A 
ATOM     67  C   UNL A   1      41.592  31.122  35.952  1.00  0.00     0.010 A 
ATOM     68  C   UNL A   1      39.050  31.995  36.724  1.00  0.00     0.020 A 
ATOM     69  C   UNL A   1      41.460  32.254  36.767  1.00  0.00     0.020 A 
ATOM     70  C   UNL A   1      40.187  32.699  37.130  1.00  0.00     0.054 A 
BRANCH  70  71
ATOM     71  S   UNL A   1      39.991  34.211  38.121  1.00  0.00     0.124 S 
ATOM     72  O   UNL A   1      41.123  35.023  37.681  1.00  0.00    -0.237 OA
ATOM     73  O   UNL A   1      38.673  34.692  37.712  1.00  0.00    -0.237 OA
ATOM     74  O   UNL A   1      40.068  33.733  39.500  1.00  0.00    -0.744 OA
ENDBRANCH  70  71
ENDBRANCH  51  65
BRANCH  52  75
ATOM     75  C   UNL A   1      43.783  25.693  27.495  1.00  0.00    -0.014 A 
ATOM     76  C   UNL A   1      43.215  24.479  27.074  1.00  0.00     0.010 A 
ATOM     77  C   UNL A   1      44.956  26.163  26.876  1.00  0.00     0.010 A 
ATOM     78  C   UNL A   1      43.858  23.708  26.102  1.00  0.00     0.020 A 
ATOM     79  C   UNL A   1      45.589  25.403  25.893  1.00  0.00     0.020 A 
ATOM     80  C   UNL A   1      45.057  24.162  25.542  1.00  0.00     0.054 A 
BRANCH  80  81
ATOM     81  S   UNL A   1      45.957  23.074  24.405  1.00  0.00     0.124 S 
ATOM     82  O   UNL A   1      46.403  22.011  25.303  1.00  0.00    -0.237 OA
ATOM     83  O   UNL A   1      44.926  22.695  23.444  1.00  0.00    -0.237 OA
ATOM     84  O   UNL A   1      47.016  23.929  23.877  1.00  0.00    -0.744 OA
ENDBRANCH  80  81
ENDBRANCH  52  75
BRANCH  64  85
ATOM     85  C   UNL A   1      44.795  24.802  34.394  1.00  0.00    -0.014 A 
ATOM     86  C   UNL A   1      44.225  23.591  34.830  1.00  0.00     0.010 A 
ATOM     87  C   UNL A   1      46.080  25.152  34.846  1.00  0.00     0.010 A 
ATOM     88  C   UNL A   1      44.906  22.762  35.723  1.00  0.00     0.020 A 
ATOM     89  C   UNL A   1      46.780  24.309  35.716  1.00  0.00     0.020 A 
ATOM     90  C   UNL A   1      46.177  23.131  36.168  1.00  0.00     0.054 A 
BRANCH  90  91
ATOM     91  S   UNL A   1      47.040  22.050  37.341  1.00  0.00     0.124 S 
ATOM     92  O   UNL A   1      47.333  20.878  36.520  1.00  0.00    -0.237 OA
ATOM     93  O   UNL A   1      48.199  22.851  37.728  1.00  0.00    -0.237 OA
ATOM     94  O   UNL A   1      46.056  21.843  38.401  1.00  0.00    -0.744 OA
ENDBRANCH  90  91
ENDBRANCH  64  85
ENDBRANCH  38  39
ENDBRANCH  31  33
ENDBRANCH  30  31
ENDBRANCH   1  30
TORSDOF 16
ENDMDL
MODEL 3
REMARK VINA RESULT:     -12.5      4.465     10.540
REMARK SMILES CC1(C)Oc2ccc(NC(=O)[C@H]3CC=CC[C@@H]3C(=O)OCCOC(=O)c3ccc(-c4c5nc(c(-c6ccc(S(=O)(=O)[O-])cc6)c6ccc([nH]6)c(-c6ccc(S(=O)(=O)[O-])cc6)c6nc(c(-c7ccc(S(=O)(=O)[O-])cc7)c7ccc4[nH]7)C=C6)C=C5)cc3)cc2NC1=O
REMARK SMILES IDX 22 1 21 2 20 3 18 4 19 5 17 6 12 7 13 8 14 9 16 10 15 11
REMARK SMILES IDX 10 12 9 13 11 15 8 16 1 17 2 18 3 19 4 20 89 21 5 22 88 23
REMARK SMILES IDX 90 24 6 25 87 26 7 28 86 29 23 30 24 31 25 32 26 33 27 34
REMARK SMILES IDX 85 35 28 36 84 37 29 38 30 39 31 40 78 41 32 42 83 43 77 44
REMARK SMILES IDX 79 45 33 46 82 47 76 48 75 49 34 51 64 52 45 53 63 54 46 55
REMARK SMILES IDX 49 56 62 57 80 58 47 59 48 60 61 62 81 63 50 64 35 65 36 66
REMARK SMILES IDX 44 67 37 68 43 69 38 70 39 71 40 72 41 73 42 74 65 75 66 76
REMARK SMILES IDX 74 77 67 78 73 79 68 80 69 81 70 82 71 83 72 84 51 85 52 86
REMARK SMILES IDX 60 87 53 88 59 89 54 90 55 91 56 92 57 93 58 94
REMARK H PARENT 9 14 88 27 79 50 49 61
REMARK Flexibility Score: inf
ROOT
ATOM      1  C   UNL A   1      32.060  30.678  26.867  1.00  0.00     0.275 C 
ENDROOT
BRANCH   1   2
ATOM      2  C   UNL A   1      31.795  29.228  27.271  1.00  0.00     0.274 C 
BRANCH   2   3
ATOM      3  O   UNL A   1      31.897  28.417  26.082  1.00  0.00    -0.462 OA
BRANCH   3   4
ATOM      4  C   UNL A   1      32.353  27.144  26.202  1.00  0.00     0.310 C 
ATOM      5  O   UNL A   1      33.533  26.820  26.144  1.00  0.00    -0.252 OA
BRANCH   4   6
ATOM      6  C   UNL A   1      31.212  26.139  26.390  1.00  0.00     0.116 C 
ATOM      7  C   UNL A   1      31.698  24.674  26.231  1.00  0.00     0.097 C 
ATOM      8  C   UNL A   1      31.975  24.435  24.721  1.00  0.00     0.041 C 
ATOM      9  C   UNL A   1      30.841  24.899  23.842  1.00  0.00    -0.030 C 
ATOM     10  C   UNL A   1      29.990  26.510  25.547  1.00  0.00     0.043 C 
ATOM     11  C   UNL A   1      29.940  25.815  24.225  1.00  0.00    -0.030 C 
BRANCH   7  12
ATOM     12  C   UNL A   1      30.797  23.489  26.731  1.00  0.00     0.228 C 
ATOM     13  N   UNL A   1      31.101  22.159  26.661  1.00  0.00    -0.326 N 
ATOM     14  H   UNL A   1      30.477  21.568  27.141  1.00  0.00     0.169 HD
ATOM     15  O   UNL A   1      29.678  23.717  27.214  1.00  0.00    -0.274 OA
BRANCH  13  16
ATOM     16  C   UNL A   1      32.148  21.506  26.024  1.00  0.00     0.043 A 
ATOM     17  C   UNL A   1      37.012  22.431  23.109  1.00  0.00     0.067 C 
ATOM     18  C   UNL A   1      36.344  22.750  24.442  1.00  0.00     0.182 C 
ATOM     19  C   UNL A   1      36.467  24.162  25.068  1.00  0.00     0.067 C 
ATOM     20  O   UNL A   1      35.008  22.644  23.993  1.00  0.00    -0.476 OA
ATOM     21  C   UNL A   1      36.832  21.849  25.614  1.00  0.00     0.268 C 
ATOM     22  C   UNL A   1      34.334  21.620  24.591  1.00  0.00     0.144 A 
ATOM     23  N   UNL A   1      35.803  21.495  26.468  1.00  0.00    -0.319 N 
ATOM     24  O   UNL A   1      38.010  21.636  25.876  1.00  0.00    -0.270 OA
ATOM     25  C   UNL A   1      33.194  21.250  23.913  1.00  0.00     0.051 A 
ATOM     26  C   UNL A   1      34.502  21.447  25.960  1.00  0.00     0.086 A 
ATOM     27  H   UNL A   1      35.984  21.280  27.412  1.00  0.00     0.170 HD
ATOM     28  C   UNL A   1      32.050  21.196  24.666  1.00  0.00     0.030 A 
ATOM     29  C   UNL A   1      33.362  21.389  26.723  1.00  0.00     0.056 A 
ENDBRANCH  13  16
ENDBRANCH   7  12
ENDBRANCH   4   6
ENDBRANCH   3   4
ENDBRANCH   2   3
ENDBRANCH   1   2
BRANCH   1  30
ATOM     30  O   UNL A   1      33.482  30.841  26.671  1.00  0.00    -0.458 OA
BRANCH  30  31
ATOM     31  C   UNL A   1      34.146  31.601  27.570  1.00  0.00     0.338 C 
ATOM     32  O   UNL A   1      33.713  32.644  28.074  1.00  0.00    -0.246 OA
BRANCH  31  33
ATOM     33  C   UNL A   1      35.491  31.022  27.878  1.00  0.00     0.060 A 
ATOM     34  C   UNL A   1      36.506  31.831  28.393  1.00  0.00     0.016 A 
ATOM     35  C   UNL A   1      35.787  29.672  27.681  1.00  0.00     0.016 A 
ATOM     36  C   UNL A   1      37.747  31.275  28.791  1.00  0.00     0.010 A 
ATOM     37  C   UNL A   1      37.048  29.139  28.053  1.00  0.00     0.010 A 
ATOM     38  C   UNL A   1      38.016  29.888  28.730  1.00  0.00    -0.014 A 
BRANCH  38  39
ATOM     39  C   UNL A   1      39.186  29.277  29.488  1.00  0.00     0.031 A 
ATOM     40  C   UNL A   1      39.649  29.619  30.887  1.00  0.00     0.074 A 
ATOM     41  C   UNL A   1      40.179  28.632  28.838  1.00  0.00     0.049 A 
ATOM     42  N   UNL A   1      39.642  28.964  32.018  1.00  0.00    -0.248 NA
ATOM     43  C   UNL A   1      40.406  30.857  30.993  1.00  0.00     0.031 C 
ATOM     44  C   UNL A   1      40.305  28.447  27.394  1.00  0.00     0.029 A 
ATOM     45  N   UNL A   1      41.304  28.023  29.352  1.00  0.00    -0.354 N 
ATOM     46  C   UNL A   1      40.086  29.874  32.989  1.00  0.00     0.074 A 
ATOM     47  C   UNL A   1      40.457  31.086  32.297  1.00  0.00     0.031 C 
ATOM     48  C   UNL A   1      41.377  27.679  27.145  1.00  0.00     0.029 A 
ATOM     49  C   UNL A   1      42.017  27.328  28.410  1.00  0.00     0.049 A 
ATOM     50  H   UNL A   1      41.568  28.081  30.299  1.00  0.00     0.167 HD
ATOM     51  C   UNL A   1      40.604  29.704  34.231  1.00  0.00     0.031 A 
ATOM     52  C   UNL A   1      43.019  26.441  28.565  1.00  0.00     0.031 A 
ATOM     53  C   UNL A   1      41.472  28.600  34.539  1.00  0.00     0.049 A 
ATOM     54  C   UNL A   1      43.490  26.087  29.948  1.00  0.00     0.074 A 
ATOM     55  C   UNL A   1      42.070  28.276  35.744  1.00  0.00     0.029 A 
ATOM     56  N   UNL A   1      42.057  27.798  33.570  1.00  0.00    -0.354 N 
ATOM     57  N   UNL A   1      43.155  26.622  31.100  1.00  0.00    -0.248 NA
ATOM     58  C   UNL A   1      44.441  24.972  30.052  1.00  0.00     0.031 C 
ATOM     59  C   UNL A   1      43.109  27.375  35.477  1.00  0.00     0.029 A 
ATOM     60  C   UNL A   1      43.067  27.040  34.131  1.00  0.00     0.049 A 
ATOM     61  H   UNL A   1      41.792  27.772  32.622  1.00  0.00     0.167 HD
ATOM     62  C   UNL A   1      43.855  25.907  32.069  1.00  0.00     0.074 A 
ATOM     63  C   UNL A   1      44.607  24.885  31.367  1.00  0.00     0.031 C 
ATOM     64  C   UNL A   1      43.863  26.071  33.417  1.00  0.00     0.031 A 
BRANCH  51  65
ATOM     65  C   UNL A   1      40.458  30.848  35.219  1.00  0.00    -0.014 A 
ATOM     66  C   UNL A   1      41.563  31.507  35.794  1.00  0.00     0.010 A 
ATOM     67  C   UNL A   1      39.172  31.171  35.696  1.00  0.00     0.010 A 
ATOM     68  C   UNL A   1      41.394  32.418  36.849  1.00  0.00     0.020 A 
ATOM     69  C   UNL A   1      38.995  32.087  36.743  1.00  0.00     0.020 A 
ATOM     70  C   UNL A   1      40.110  32.688  37.330  1.00  0.00     0.054 A 
BRANCH  70  71
ATOM     71  S   UNL A   1      39.908  33.818  38.740  1.00  0.00     0.124 S 
ATOM     72  O   UNL A   1      40.905  34.848  38.461  1.00  0.00    -0.237 OA
ATOM     73  O   UNL A   1      38.514  34.238  38.616  1.00  0.00    -0.237 OA
ATOM     74  O   UNL A   1      40.193  32.976  39.901  1.00  0.00    -0.744 OA
ENDBRANCH  70  71
ENDBRANCH  51  65
BRANCH  52  75
ATOM     75  C   UNL A   1      43.445  25.687  27.361  1.00  0.00    -0.014 A 
ATOM     76  C   UNL A   1      42.827  24.476  27.004  1.00  0.00     0.010 A 
ATOM     77  C   UNL A   1      44.619  26.089  26.697  1.00  0.00     0.010 A 
ATOM     78  C   UNL A   1      43.421  23.644  26.053  1.00  0.00     0.020 A 
ATOM     79  C   UNL A   1      45.204  25.267  25.735  1.00  0.00     0.020 A 
ATOM     80  C   UNL A   1      44.622  24.032  25.448  1.00  0.00     0.054 A 
BRANCH  80  81
ATOM     81  S   UNL A   1      45.459  22.866  24.340  1.00  0.00     0.124 S 
ATOM     82  O   UNL A   1      44.417  22.596  23.352  1.00  0.00    -0.237 OA
ATOM     83  O   UNL A   1      46.596  23.645  23.859  1.00  0.00    -0.237 OA
ATOM     84  O   UNL A   1      45.797  21.745  25.212  1.00  0.00    -0.744 OA
ENDBRANCH  80  81
ENDBRANCH  52  75
BRANCH  64  85
ATOM     85  C   UNL A   1      44.733  25.164  34.252  1.00  0.00    -0.014 A 
ATOM     86  C   UNL A   1      44.173  23.992  34.793  1.00  0.00     0.010 A 
ATOM     87  C   UNL A   1      46.044  25.524  34.614  1.00  0.00     0.010 A 
ATOM     88  C   UNL A   1      44.890  23.212  35.701  1.00  0.00     0.020 A 
ATOM     89  C   UNL A   1      46.779  24.728  35.500  1.00  0.00     0.020 A 
ATOM     90  C   UNL A   1      46.186  23.591  36.056  1.00  0.00     0.054 A 
BRANCH  90  91
ATOM     91  S   UNL A   1      47.097  22.574  37.251  1.00  0.00     0.124 S 
ATOM     92  O   UNL A   1      48.046  21.869  36.394  1.00  0.00    -0.237 OA
ATOM     93  O   UNL A   1      47.680  23.570  38.147  1.00  0.00    -0.237 OA
ATOM     94  O   UNL A   1      46.058  21.742  37.852  1.00  0.00    -0.744 OA
ENDBRANCH  90  91
ENDBRANCH  64  85
ENDBRANCH  38  39
ENDBRANCH  31  33
ENDBRANCH  30  31
ENDBRANCH   1  30
TORSDOF 16
ENDMDL
