MODEL 1
REMARK VINA RESULT:     -10.0      0.000      0.000
REMARK SMILES C[C@H](SC1CCOCC1)c1ccc(C(=O)OCCOC(=O)c2ccc(-c3c4nc(c(-c5ccc(S(=O)(=O)[O-])cc5)c5ccc([nH]5)c(-c5ccc(S(=O)(=O)[O-])cc5)c5nc(c(-c6ccc(S(=O)(=O)[O-])cc6)c6ccc3[nH]6)C=C5)C=C4)cc2)o1
REMARK SMILES IDX 17 1 16 2 14 3 15 4 13 5 10 6 11 7 82 8 12 9 2 10 1 11 3 12
REMARK SMILES IDX 4 13 5 14 9 15 6 16 8 17 7 18 18 19 19 20 20 21 21 22 22 23
REMARK SMILES IDX 23 24 81 25 24 26 80 27 25 28 26 29 27 30 74 31 28 32 79 33
REMARK SMILES IDX 73 34 75 35 29 36 78 37 72 38 71 39 30 41 60 42 41 43 59 44
REMARK SMILES IDX 42 45 45 46 58 47 76 48 43 49 44 50 57 52 77 53 46 54 31 55
REMARK SMILES IDX 32 56 40 57 33 58 39 59 34 60 35 61 36 62 37 63 38 64 61 65
REMARK SMILES IDX 62 66 70 67 63 68 69 69 64 70 65 71 66 72 67 73 68 74 47 75
REMARK SMILES IDX 48 76 56 77 49 78 55 79 50 80 51 81 52 82 53 83 54 84
REMARK H PARENT 75 40 45 51
REMARK Flexibility Score: inf
ROOT
ATOM      1  C   UNL A   1      41.622  21.338  27.604  1.00  0.00     0.275 C 
ENDROOT
BRANCH   1   2
ATOM      2  O   UNL A   1      40.763  20.182  27.564  1.00  0.00    -0.456 OA
BRANCH   2   3
ATOM      3  C   UNL A   1      40.744  19.503  26.377  1.00  0.00     0.374 C 
ATOM      4  O   UNL A   1      39.768  19.427  25.645  1.00  0.00    -0.242 OA
BRANCH   3   5
ATOM      5  C   UNL A   1      42.061  18.988  26.075  1.00  0.00     0.211 A 
ATOM      6  C   UNL A   1      43.970  19.040  24.945  1.00  0.00     0.117 A 
ATOM      7  C   UNL A   1      44.162  18.180  26.009  1.00  0.00     0.048 A 
ATOM      8  O   UNL A   1      42.673  19.467  24.949  1.00  0.00    -0.453 OA
ATOM      9  C   UNL A   1      42.939  18.146  26.732  1.00  0.00     0.058 A 
BRANCH   6  10
ATOM     10  C   UNL A   1      44.870  19.706  23.946  1.00  0.00     0.110 C 
ATOM     11  C   UNL A   1      45.049  18.916  22.655  1.00  0.00     0.028 C 
BRANCH  10  12
ATOM     12  S   UNL A   1      46.405  20.433  24.637  1.00  0.00    -0.147 SA
BRANCH  12  13
ATOM     13  C   UNL A   1      45.976  22.091  25.293  1.00  0.00     0.052 C 
ATOM     14  C   UNL A   1      45.039  22.147  26.496  1.00  0.00     0.043 C 
ATOM     15  C   UNL A   1      45.536  23.083  24.222  1.00  0.00     0.043 C 
ATOM     16  C   UNL A   1      44.951  23.581  27.006  1.00  0.00     0.161 C 
ATOM     17  C   UNL A   1      45.426  24.470  24.851  1.00  0.00     0.161 C 
ATOM     18  O   UNL A   1      44.530  24.461  25.961  1.00  0.00    -0.381 OA
ENDBRANCH  12  13
ENDBRANCH  10  12
ENDBRANCH   6  10
ENDBRANCH   3   5
ENDBRANCH   2   3
ENDBRANCH   1   2
BRANCH   1  19
ATOM     19  C   UNL A   1      41.027  22.514  26.818  1.00  0.00     0.275 C 
BRANCH  19  20
ATOM     20  O   UNL A   1      41.532  23.786  27.269  1.00  0.00    -0.458 OA
BRANCH  20  21
ATOM     21  C   UNL A   1      40.922  24.872  26.737  1.00  0.00     0.338 C 
ATOM     22  O   UNL A   1      40.524  24.993  25.590  1.00  0.00    -0.246 OA
BRANCH  21  23
ATOM     23  C   UNL A   1      40.672  25.876  27.787  1.00  0.00     0.060 A 
ATOM     24  C   UNL A   1      41.604  26.906  27.931  1.00  0.00     0.016 A 
ATOM     25  C   UNL A   1      39.587  25.783  28.664  1.00  0.00     0.016 A 
ATOM     26  C   UNL A   1      41.458  27.848  28.944  1.00  0.00     0.010 A 
ATOM     27  C   UNL A   1      39.444  26.732  29.686  1.00  0.00     0.010 A 
ATOM     28  C   UNL A   1      40.383  27.766  29.836  1.00  0.00    -0.014 A 
BRANCH  28  29
ATOM     29  C   UNL A   1      40.292  28.753  30.940  1.00  0.00     0.031 A 
ATOM     30  C   UNL A   1      41.230  28.661  32.109  1.00  0.00     0.074 A 
ATOM     31  C   UNL A   1      39.413  29.770  30.859  1.00  0.00     0.049 A 
ATOM     32  N   UNL A   1      41.312  29.431  33.162  1.00  0.00    -0.248 NA
ATOM     33  C   UNL A   1      42.207  27.562  32.086  1.00  0.00     0.031 C 
ATOM     34  C   UNL A   1      38.492  30.004  29.745  1.00  0.00     0.029 A 
ATOM     35  N   UNL A   1      39.164  30.807  31.723  1.00  0.00    -0.354 N 
ATOM     36  C   UNL A   1      42.339  28.906  33.937  1.00  0.00     0.074 A 
ATOM     37  C   UNL A   1      42.840  27.741  33.238  1.00  0.00     0.031 C 
ATOM     38  C   UNL A   1      37.788  31.122  29.989  1.00  0.00     0.029 A 
ATOM     39  C   UNL A   1      38.179  31.660  31.289  1.00  0.00     0.049 A 
ATOM     40  H   UNL A   1      39.646  30.928  32.573  1.00  0.00     0.167 HD
ATOM     41  C   UNL A   1      42.822  29.352  35.123  1.00  0.00     0.031 A 
ATOM     42  C   UNL A   1      37.638  32.744  31.879  1.00  0.00     0.031 A 
ATOM     43  C   UNL A   1      42.320  30.505  35.821  1.00  0.00     0.049 A 
ATOM     44  C   UNL A   1      38.143  33.180  33.226  1.00  0.00     0.074 A 
ATOM     45  C   UNL A   1      42.743  31.033  37.028  1.00  0.00     0.029 A 
ATOM     46  N   UNL A   1      41.278  31.306  35.379  1.00  0.00    -0.354 N 
ATOM     47  N   UNL A   1      39.109  32.666  33.948  1.00  0.00    -0.248 NA
ATOM     48  C   UNL A   1      37.481  34.340  33.840  1.00  0.00     0.031 C 
ATOM     49  C   UNL A   1      41.928  32.130  37.336  1.00  0.00     0.029 A 
ATOM     50  C   UNL A   1      41.028  32.311  36.299  1.00  0.00     0.049 A 
ATOM     51  H   UNL A   1      40.788  31.180  34.533  1.00  0.00     0.167 HD
ATOM     52  C   UNL A   1      39.182  33.447  35.096  1.00  0.00     0.074 A 
ATOM     53  C   UNL A   1      38.171  34.478  34.965  1.00  0.00     0.031 C 
ATOM     54  C   UNL A   1      40.011  33.323  36.161  1.00  0.00     0.031 A 
BRANCH  41  55
ATOM     55  C   UNL A   1      43.923  28.549  35.758  1.00  0.00    -0.014 A 
ATOM     56  C   UNL A   1      43.640  27.483  36.632  1.00  0.00     0.010 A 
ATOM     57  C   UNL A   1      45.263  28.864  35.471  1.00  0.00     0.010 A 
ATOM     58  C   UNL A   1      44.680  26.778  37.244  1.00  0.00     0.020 A 
ATOM     59  C   UNL A   1      46.306  28.147  36.065  1.00  0.00     0.020 A 
ATOM     60  C   UNL A   1      46.007  27.122  36.966  1.00  0.00     0.054 A 
BRANCH  60  61
ATOM     61  S   UNL A   1      47.342  26.201  37.780  1.00  0.00     0.124 S 
ATOM     62  O   UNL A   1      46.657  25.652  38.948  1.00  0.00    -0.237 OA
ATOM     63  O   UNL A   1      47.730  25.227  36.763  1.00  0.00    -0.237 OA
ATOM     64  O   UNL A   1      48.342  27.226  38.069  1.00  0.00    -0.744 OA
ENDBRANCH  60  61
ENDBRANCH  41  55
BRANCH  42  65
ATOM     65  C   UNL A   1      36.537  33.479  31.199  1.00  0.00    -0.014 A 
ATOM     66  C   UNL A   1      36.730  34.045  29.928  1.00  0.00     0.010 A 
ATOM     67  C   UNL A   1      35.278  33.593  31.817  1.00  0.00     0.010 A 
ATOM     68  C   UNL A   1      35.682  34.713  29.285  1.00  0.00     0.020 A 
ATOM     69  C   UNL A   1      34.223  34.241  31.170  1.00  0.00     0.020 A 
ATOM     70  C   UNL A   1      34.435  34.804  29.909  1.00  0.00     0.054 A 
BRANCH  70  71
ATOM     71  S   UNL A   1      33.067  35.612  29.030  1.00  0.00     0.124 S 
ATOM     72  O   UNL A   1      32.249  36.107  30.133  1.00  0.00    -0.237 OA
ATOM     73  O   UNL A   1      33.754  36.632  28.242  1.00  0.00    -0.237 OA
ATOM     74  O   UNL A   1      32.477  34.526  28.249  1.00  0.00    -0.744 OA
ENDBRANCH  70  71
ENDBRANCH  42  65
BRANCH  54  75
ATOM     75  C   UNL A   1      39.872  34.335  37.264  1.00  0.00    -0.014 A 
ATOM     76  C   UNL A   1      40.492  35.594  37.174  1.00  0.00     0.010 A 
ATOM     77  C   UNL A   1      39.071  34.043  38.384  1.00  0.00     0.010 A 
ATOM     78  C   UNL A   1      40.335  36.534  38.197  1.00  0.00     0.020 A 
ATOM     79  C   UNL A   1      38.895  34.987  39.398  1.00  0.00     0.020 A 
ATOM     80  C   UNL A   1      39.539  36.223  39.304  1.00  0.00     0.054 A 
BRANCH  80  81
ATOM     81  S   UNL A   1      39.313  37.473  40.600  1.00  0.00     0.124 S 
ATOM     82  O   UNL A   1      38.261  38.312  40.031  1.00  0.00    -0.237 OA
ATOM     83  O   UNL A   1      38.920  36.672  41.757  1.00  0.00    -0.237 OA
ATOM     84  O   UNL A   1      40.626  38.103  40.705  1.00  0.00    -0.744 OA
ENDBRANCH  80  81
ENDBRANCH  54  75
ENDBRANCH  28  29
ENDBRANCH  21  23
ENDBRANCH  20  21
ENDBRANCH  19  20
ENDBRANCH   1  19
TORSDOF 17
ENDMDL
MODEL 2
REMARK VINA RESULT:     -10.0      2.912      4.617
REMARK SMILES C[C@H](SC1CCOCC1)c1ccc(C(=O)OCCOC(=O)c2ccc(-c3c4nc(c(-c5ccc(S(=O)(=O)[O-])cc5)c5ccc([nH]5)c(-c5ccc(S(=O)(=O)[O-])cc5)c5nc(c(-c6ccc(S(=O)(=O)[O-])cc6)c6ccc3[nH]6)C=C5)C=C4)cc2)o1
REMARK SMILES IDX 17 1 16 2 14 3 15 4 13 5 10 6 11 7 82 8 12 9 2 10 1 11 3 12
REMARK SMILES IDX 4 13 5 14 9 15 6 16 8 17 7 18 18 19 19 20 20 21 21 22 22 23
REMARK SMILES IDX 23 24 81 25 24 26 80 27 25 28 26 29 27 30 74 31 28 32 79 33
REMARK SMILES IDX 73 34 75 35 29 36 78 37 72 38 71 39 30 41 60 42 41 43 59 44
REMARK SMILES IDX 42 45 45 46 58 47 76 48 43 49 44 50 57 52 77 53 46 54 31 55
REMARK SMILES IDX 32 56 40 57 33 58 39 59 34 60 35 61 36 62 37 63 38 64 61 65
REMARK SMILES IDX 62 66 70 67 63 68 69 69 64 70 65 71 66 72 67 73 68 74 47 75
REMARK SMILES IDX 48 76 56 77 49 78 55 79 50 80 51 81 52 82 53 83 54 84
REMARK H PARENT 75 40 45 51
REMARK Flexibility Score: inf
ROOT
ATOM      1  C   UNL A   1      42.286  21.632  25.773  1.00  0.00     0.275 C 
ENDROOT
BRANCH   1   2
ATOM      2  O   UNL A   1      41.137  21.671  26.642  1.00  0.00    -0.456 OA
BRANCH   2   3
ATOM      3  C   UNL A   1      40.011  21.064  26.157  1.00  0.00     0.374 C 
ATOM      4  O   UNL A   1      39.919  19.865  25.934  1.00  0.00    -0.242 OA
BRANCH   3   5
ATOM      5  C   UNL A   1      38.932  22.022  26.055  1.00  0.00     0.211 A 
ATOM      6  C   UNL A   1      36.780  22.533  25.878  1.00  0.00     0.117 A 
ATOM      7  C   UNL A   1      37.441  23.702  26.203  1.00  0.00     0.048 A 
ATOM      8  O   UNL A   1      37.699  21.536  25.717  1.00  0.00    -0.453 OA
ATOM      9  C   UNL A   1      38.819  23.374  26.316  1.00  0.00     0.058 A 
BRANCH   6  10
ATOM     10  C   UNL A   1      35.343  22.105  25.838  1.00  0.00     0.110 C 
ATOM     11  C   UNL A   1      34.830  21.797  24.436  1.00  0.00     0.028 C 
BRANCH  10  12
ATOM     12  S   UNL A   1      34.205  23.085  26.890  1.00  0.00    -0.147 SA
BRANCH  12  13
ATOM     13  C   UNL A   1      33.460  24.380  25.828  1.00  0.00     0.052 C 
ATOM     14  C   UNL A   1      34.304  25.619  25.538  1.00  0.00     0.043 C 
ATOM     15  C   UNL A   1      32.046  24.777  26.237  1.00  0.00     0.043 C 
ATOM     16  C   UNL A   1      33.598  26.484  24.500  1.00  0.00     0.161 C 
ATOM     17  C   UNL A   1      31.456  25.684  25.159  1.00  0.00     0.161 C 
ATOM     18  O   UNL A   1      32.282  26.827  24.942  1.00  0.00    -0.381 OA
ENDBRANCH  12  13
ENDBRANCH  10  12
ENDBRANCH   6  10
ENDBRANCH   3   5
ENDBRANCH   2   3
ENDBRANCH   1   2
BRANCH   1  19
ATOM     19  C   UNL A   1      42.916  23.021  25.603  1.00  0.00     0.275 C 
BRANCH  19  20
ATOM     20  O   UNL A   1      42.445  23.960  26.589  1.00  0.00    -0.458 OA
BRANCH  20  21
ATOM     21  C   UNL A   1      42.228  25.218  26.133  1.00  0.00     0.338 C 
ATOM     22  O   UNL A   1      42.250  25.583  24.969  1.00  0.00    -0.246 OA
BRANCH  21  23
ATOM     23  C   UNL A   1      41.821  26.095  27.246  1.00  0.00     0.060 A 
ATOM     24  C   UNL A   1      42.512  27.297  27.407  1.00  0.00     0.016 A 
ATOM     25  C   UNL A   1      40.829  25.727  28.160  1.00  0.00     0.016 A 
ATOM     26  C   UNL A   1      42.217  28.138  28.475  1.00  0.00     0.010 A 
ATOM     27  C   UNL A   1      40.536  26.575  29.237  1.00  0.00     0.010 A 
ATOM     28  C   UNL A   1      41.234  27.783  29.404  1.00  0.00    -0.014 A 
BRANCH  28  29
ATOM     29  C   UNL A   1      40.987  28.675  30.564  1.00  0.00     0.031 A 
ATOM     30  C   UNL A   1      41.878  28.603  31.770  1.00  0.00     0.074 A 
ATOM     31  C   UNL A   1      40.006  29.596  30.503  1.00  0.00     0.049 A 
ATOM     32  N   UNL A   1      41.829  29.303  32.873  1.00  0.00    -0.248 NA
ATOM     33  C   UNL A   1      42.970  27.619  31.726  1.00  0.00     0.031 C 
ATOM     34  C   UNL A   1      39.114  29.806  29.362  1.00  0.00     0.029 A 
ATOM     35  N   UNL A   1      39.608  30.538  31.418  1.00  0.00    -0.354 N 
ATOM     36  C   UNL A   1      42.874  28.839  33.663  1.00  0.00     0.074 A 
ATOM     37  C   UNL A   1      43.529  27.785  32.917  1.00  0.00     0.031 C 
ATOM     38  C   UNL A   1      38.282  30.823  29.641  1.00  0.00     0.029 A 
ATOM     39  C   UNL A   1      38.554  31.309  30.990  1.00  0.00     0.049 A 
ATOM     40  H   UNL A   1      40.036  30.651  32.297  1.00  0.00     0.167 HD
ATOM     41  C   UNL A   1      43.252  29.250  34.898  1.00  0.00     0.031 A 
ATOM     42  C   UNL A   1      37.872  32.286  31.620  1.00  0.00     0.031 A 
ATOM     43  C   UNL A   1      42.597  30.293  35.643  1.00  0.00     0.049 A 
ATOM     44  C   UNL A   1      38.268  32.679  33.017  1.00  0.00     0.074 A 
ATOM     45  C   UNL A   1      42.908  30.779  36.900  1.00  0.00     0.029 A 
ATOM     46  N   UNL A   1      41.494  31.007  35.200  1.00  0.00    -0.354 N 
ATOM     47  N   UNL A   1      39.252  32.222  33.752  1.00  0.00    -0.248 NA
ATOM     48  C   UNL A   1      37.456  33.717  33.669  1.00  0.00     0.031 C 
ATOM     49  C   UNL A   1      41.965  31.758  37.237  1.00  0.00     0.029 A 
ATOM     50  C   UNL A   1      41.096  31.913  36.169  1.00  0.00     0.049 A 
ATOM     51  H   UNL A   1      41.058  30.888  34.325  1.00  0.00     0.167 HD
ATOM     52  C   UNL A   1      39.189  32.926  34.950  1.00  0.00     0.074 A 
ATOM     53  C   UNL A   1      38.077  33.850  34.834  1.00  0.00     0.031 C 
ATOM     54  C   UNL A   1      39.980  32.817  36.045  1.00  0.00     0.031 A 
BRANCH  41  55
ATOM     55  C   UNL A   1      44.407  28.528  35.536  1.00  0.00    -0.014 A 
ATOM     56  C   UNL A   1      45.738  28.897  35.268  1.00  0.00     0.010 A 
ATOM     57  C   UNL A   1      44.154  27.466  36.423  1.00  0.00     0.010 A 
ATOM     58  C   UNL A   1      46.796  28.185  35.840  1.00  0.00     0.020 A 
ATOM     59  C   UNL A   1      45.210  26.766  37.013  1.00  0.00     0.020 A 
ATOM     60  C   UNL A   1      46.526  27.115  36.699  1.00  0.00     0.054 A 
BRANCH  60  61
ATOM     61  S   UNL A   1      47.913  26.197  37.422  1.00  0.00     0.124 S 
ATOM     62  O   UNL A   1      48.744  27.277  37.949  1.00  0.00    -0.237 OA
ATOM     63  O   UNL A   1      47.260  25.359  38.424  1.00  0.00    -0.237 OA
ATOM     64  O   UNL A   1      48.478  25.475  36.285  1.00  0.00    -0.744 OA
ENDBRANCH  60  61
ENDBRANCH  41  55
BRANCH  42  65
ATOM     65  C   UNL A   1      36.727  32.945  30.935  1.00  0.00    -0.014 A 
ATOM     66  C   UNL A   1      35.408  32.712  31.358  1.00  0.00     0.010 A 
ATOM     67  C   UNL A   1      36.960  33.831  29.868  1.00  0.00     0.010 A 
ATOM     68  C   UNL A   1      34.339  33.354  30.724  1.00  0.00     0.020 A 
ATOM     69  C   UNL A   1      35.897  34.492  29.246  1.00  0.00     0.020 A 
ATOM     70  C   UNL A   1      34.591  34.243  29.675  1.00  0.00     0.054 A 
BRANCH  70  71
ATOM     71  S   UNL A   1      33.198  35.122  28.911  1.00  0.00     0.124 S 
ATOM     72  O   UNL A   1      32.633  34.096  28.041  1.00  0.00    -0.237 OA
ATOM     73  O   UNL A   1      32.385  35.492  30.067  1.00  0.00    -0.237 OA
ATOM     74  O   UNL A   1      33.839  36.243  28.227  1.00  0.00    -0.744 OA
ENDBRANCH  70  71
ENDBRANCH  42  65
BRANCH  54  75
ATOM     75  C   UNL A   1      39.684  33.731  37.202  1.00  0.00    -0.014 A 
ATOM     76  C   UNL A   1      38.805  33.339  38.228  1.00  0.00     0.010 A 
ATOM     77  C   UNL A   1      40.330  34.978  37.292  1.00  0.00     0.010 A 
ATOM     78  C   UNL A   1      38.557  34.189  39.310  1.00  0.00     0.020 A 
ATOM     79  C   UNL A   1      40.101  35.821  38.381  1.00  0.00     0.020 A 
ATOM     80  C   UNL A   1      39.205  35.427  39.377  1.00  0.00     0.054 A 
BRANCH  80  81
ATOM     81  S   UNL A   1      38.903  36.497  40.812  1.00  0.00     0.124 S 
ATOM     82  O   UNL A   1      38.343  37.692  40.185  1.00  0.00    -0.237 OA
ATOM     83  O   UNL A   1      37.969  35.711  41.612  1.00  0.00    -0.237 OA
ATOM     84  O   UNL A   1      40.230  36.666  41.401  1.00  0.00    -0.744 OA
ENDBRANCH  80  81
ENDBRANCH  54  75
ENDBRANCH  28  29
ENDBRANCH  21  23
ENDBRANCH  20  21
ENDBRANCH  19  20
ENDBRANCH   1  19
TORSDOF 17
ENDMDL
MODEL 3
REMARK VINA RESULT:      -9.9      2.864      4.486
REMARK SMILES C[C@H](SC1CCOCC1)c1ccc(C(=O)OCCOC(=O)c2ccc(-c3c4nc(c(-c5ccc(S(=O)(=O)[O-])cc5)c5ccc([nH]5)c(-c5ccc(S(=O)(=O)[O-])cc5)c5nc(c(-c6ccc(S(=O)(=O)[O-])cc6)c6ccc3[nH]6)C=C5)C=C4)cc2)o1
REMARK SMILES IDX 17 1 16 2 14 3 15 4 13 5 10 6 11 7 82 8 12 9 2 10 1 11 3 12
REMARK SMILES IDX 4 13 5 14 9 15 6 16 8 17 7 18 18 19 19 20 20 21 21 22 22 23
REMARK SMILES IDX 23 24 81 25 24 26 80 27 25 28 26 29 27 30 74 31 28 32 79 33
REMARK SMILES IDX 73 34 75 35 29 36 78 37 72 38 71 39 30 41 60 42 41 43 59 44
REMARK SMILES IDX 42 45 45 46 58 47 76 48 43 49 44 50 57 52 77 53 46 54 31 55
REMARK SMILES IDX 32 56 40 57 33 58 39 59 34 60 35 61 36 62 37 63 38 64 61 65
REMARK SMILES IDX 62 66 70 67 63 68 69 69 64 70 65 71 66 72 67 73 68 74 47 75
REMARK SMILES IDX 48 76 56 77 49 78 55 79 50 80 51 81 52 82 53 83 54 84
REMARK H PARENT 75 40 45 51
REMARK Flexibility Score: inf
ROOT
ATOM      1  C   UNL A   1      42.173  21.316  25.971  1.00  0.00     0.275 C 
ENDROOT
BRANCH   1   2
ATOM      2  O   UNL A   1      40.936  21.323  26.710  1.00  0.00    -0.456 OA
BRANCH   2   3
ATOM      3  C   UNL A   1      39.860  20.782  26.063  1.00  0.00     0.374 C 
ATOM      4  O   UNL A   1      39.724  19.588  25.836  1.00  0.00    -0.242 OA
BRANCH   3   5
ATOM      5  C   UNL A   1      38.875  21.806  25.788  1.00  0.00     0.211 A 
ATOM      6  C   UNL A   1      36.875  22.457  25.082  1.00  0.00     0.117 A 
ATOM      7  C   UNL A   1      37.440  23.539  25.731  1.00  0.00     0.048 A 
ATOM      8  O   UNL A   1      37.781  21.436  25.056  1.00  0.00    -0.453 OA
ATOM      9  C   UNL A   1      38.721  23.121  26.182  1.00  0.00     0.058 A 
BRANCH   6  10
ATOM     10  C   UNL A   1      35.501  22.120  24.583  1.00  0.00     0.110 C 
ATOM     11  C   UNL A   1      34.832  23.251  23.810  1.00  0.00     0.028 C 
BRANCH  10  12
ATOM     12  S   UNL A   1      34.424  21.249  25.785  1.00  0.00    -0.147 SA
BRANCH  12  13
ATOM     13  C   UNL A   1      33.937  19.654  25.024  1.00  0.00     0.052 C 
ATOM     14  C   UNL A   1      35.059  18.725  24.567  1.00  0.00     0.043 C 
ATOM     15  C   UNL A   1      32.873  19.785  23.941  1.00  0.00     0.043 C 
ATOM     16  C   UNL A   1      34.468  17.386  24.139  1.00  0.00     0.161 C 
ATOM     17  C   UNL A   1      32.393  18.390  23.549  1.00  0.00     0.161 C 
ATOM     18  O   UNL A   1      33.483  17.574  23.120  1.00  0.00    -0.381 OA
ENDBRANCH  12  13
ENDBRANCH  10  12
ENDBRANCH   6  10
ENDBRANCH   3   5
ENDBRANCH   2   3
ENDBRANCH   1   2
BRANCH   1  19
ATOM     19  C   UNL A   1      42.670  22.739  25.683  1.00  0.00     0.275 C 
BRANCH  19  20
ATOM     20  O   UNL A   1      42.149  23.701  26.620  1.00  0.00    -0.458 OA
BRANCH  20  21
ATOM     21  C   UNL A   1      42.094  24.978  26.168  1.00  0.00     0.338 C 
ATOM     22  O   UNL A   1      42.216  25.345  25.010  1.00  0.00    -0.246 OA
BRANCH  21  23
ATOM     23  C   UNL A   1      41.725  25.887  27.267  1.00  0.00     0.060 A 
ATOM     24  C   UNL A   1      42.543  26.996  27.490  1.00  0.00     0.016 A 
ATOM     25  C   UNL A   1      40.641  25.633  28.113  1.00  0.00     0.016 A 
ATOM     26  C   UNL A   1      42.284  27.858  28.551  1.00  0.00     0.010 A 
ATOM     27  C   UNL A   1      40.384  26.501  29.184  1.00  0.00     0.010 A 
ATOM     28  C   UNL A   1      41.209  27.615  29.413  1.00  0.00    -0.014 A 
BRANCH  28  29
ATOM     29  C   UNL A   1      40.999  28.520  30.569  1.00  0.00     0.031 A 
ATOM     30  C   UNL A   1      41.901  28.432  31.766  1.00  0.00     0.074 A 
ATOM     31  C   UNL A   1      40.042  29.467  30.514  1.00  0.00     0.049 A 
ATOM     32  N   UNL A   1      41.883  29.140  32.866  1.00  0.00    -0.248 NA
ATOM     33  C   UNL A   1      42.966  27.419  31.716  1.00  0.00     0.031 C 
ATOM     34  C   UNL A   1      39.143  29.693  29.380  1.00  0.00     0.029 A 
ATOM     35  N   UNL A   1      39.679  30.424  31.427  1.00  0.00    -0.354 N 
ATOM     36  C   UNL A   1      42.923  28.652  33.647  1.00  0.00     0.074 A 
ATOM     37  C   UNL A   1      43.542  27.577  32.901  1.00  0.00     0.031 C 
ATOM     38  C   UNL A   1      38.341  30.733  29.662  1.00  0.00     0.029 A 
ATOM     39  C   UNL A   1      38.641  31.220  31.006  1.00  0.00     0.049 A 
ATOM     40  H   UNL A   1      40.120  30.530  32.301  1.00  0.00     0.167 HD
ATOM     41  C   UNL A   1      43.326  29.061  34.875  1.00  0.00     0.031 A 
ATOM     42  C   UNL A   1      37.992  32.218  31.637  1.00  0.00     0.031 A 
ATOM     43  C   UNL A   1      42.706  30.125  35.620  1.00  0.00     0.049 A 
ATOM     44  C   UNL A   1      38.413  32.609  33.027  1.00  0.00     0.074 A 
ATOM     45  C   UNL A   1      43.043  30.610  36.872  1.00  0.00     0.029 A 
ATOM     46  N   UNL A   1      41.618  30.865  35.186  1.00  0.00    -0.354 N 
ATOM     47  N   UNL A   1      39.393  32.131  33.754  1.00  0.00    -0.248 NA
ATOM     48  C   UNL A   1      37.637  33.671  33.681  1.00  0.00     0.031 C 
ATOM     49  C   UNL A   1      42.130  31.615  37.212  1.00  0.00     0.029 A 
ATOM     50  C   UNL A   1      41.254  31.787  36.153  1.00  0.00     0.049 A 
ATOM     51  H   UNL A   1      41.169  30.752  34.316  1.00  0.00     0.167 HD
ATOM     52  C   UNL A   1      39.362  32.843  34.948  1.00  0.00     0.074 A 
ATOM     53  C   UNL A   1      38.274  33.795  34.839  1.00  0.00     0.031 C 
ATOM     54  C   UNL A   1      40.161  32.720  36.035  1.00  0.00     0.031 A 
BRANCH  41  55
ATOM     55  C   UNL A   1      44.468  28.312  35.505  1.00  0.00    -0.014 A 
ATOM     56  C   UNL A   1      44.248  27.151  36.269  1.00  0.00     0.010 A 
ATOM     57  C   UNL A   1      45.783  28.775  35.323  1.00  0.00     0.010 A 
ATOM     58  C   UNL A   1      45.321  26.496  36.880  1.00  0.00     0.020 A 
ATOM     59  C   UNL A   1      46.860  28.109  35.915  1.00  0.00     0.020 A 
ATOM     60  C   UNL A   1      46.619  26.986  36.709  1.00  0.00     0.054 A 
BRANCH  60  61
ATOM     61  S   UNL A   1      47.996  26.126  37.520  1.00  0.00     0.124 S 
ATOM     62  O   UNL A   1      47.785  26.481  38.921  1.00  0.00    -0.237 OA
ATOM     63  O   UNL A   1      47.747  24.726  37.182  1.00  0.00    -0.237 OA
ATOM     64  O   UNL A   1      49.182  26.711  36.900  1.00  0.00    -0.744 OA
ENDBRANCH  60  61
ENDBRANCH  41  55
BRANCH  42  65
ATOM     65  C   UNL A   1      36.858  32.903  30.960  1.00  0.00    -0.014 A 
ATOM     66  C   UNL A   1      37.084  34.009  30.124  1.00  0.00     0.010 A 
ATOM     67  C   UNL A   1      35.544  32.430  31.132  1.00  0.00     0.010 A 
ATOM     68  C   UNL A   1      36.015  34.632  29.471  1.00  0.00     0.020 A 
ATOM     69  C   UNL A   1      34.476  33.035  30.465  1.00  0.00     0.020 A 
ATOM     70  C   UNL A   1      34.718  34.138  29.643  1.00  0.00     0.054 A 
BRANCH  70  71
ATOM     71  S   UNL A   1      33.353  34.914  28.733  1.00  0.00     0.124 S 
ATOM     72  O   UNL A   1      32.565  35.503  29.811  1.00  0.00    -0.237 OA
ATOM     73  O   UNL A   1      34.047  35.861  27.864  1.00  0.00    -0.237 OA
ATOM     74  O   UNL A   1      32.726  33.790  28.038  1.00  0.00    -0.744 OA
ENDBRANCH  70  71
ENDBRANCH  42  65
BRANCH  54  75
ATOM     75  C   UNL A   1      39.902  33.648  37.190  1.00  0.00    -0.014 A 
ATOM     76  C   UNL A   1      40.586  34.871  37.305  1.00  0.00     0.010 A 
ATOM     77  C   UNL A   1      38.925  33.315  38.147  1.00  0.00     0.010 A 
ATOM     78  C   UNL A   1      40.317  35.734  38.371  1.00  0.00     0.020 A 
ATOM     79  C   UNL A   1      38.639  34.184  39.203  1.00  0.00     0.020 A 
ATOM     80  C   UNL A   1      39.347  35.383  39.316  1.00  0.00     0.054 A 
BRANCH  80  81
ATOM     81  S   UNL A   1      38.981  36.537  40.668  1.00  0.00     0.124 S 
ATOM     82  O   UNL A   1      40.308  36.770  41.233  1.00  0.00    -0.237 OA
ATOM     83  O   UNL A   1      38.386  37.674  39.971  1.00  0.00    -0.237 OA
ATOM     84  O   UNL A   1      38.062  35.787  41.521  1.00  0.00    -0.744 OA
ENDBRANCH  80  81
ENDBRANCH  54  75
ENDBRANCH  28  29
ENDBRANCH  21  23
ENDBRANCH  20  21
ENDBRANCH  19  20
ENDBRANCH   1  19
TORSDOF 17
ENDMDL
