MODEL 1
REMARK VINA RESULT:     -11.0      0.000      0.000
REMARK SMILES O=C(OCCOC(=O)[C@H]1[C@H]2CC[C@H](C2)[C@@H]1C(=O)Nc1sc2c(c1C(=O)NC1CCCCC1)CCCC2)c1ccc(-c2c3nc(c(-c4ccc(S(=O)(=O)[O-])cc4)c4ccc([nH]4)c(-c4ccc(S(=O)(=O)[O-])cc4)c4nc(c(-c5ccc(S(=O)(=O)[O-])cc5)c5ccc2[nH]5)C=C4)C=C3)cc1
REMARK SMILES IDX 5 1 4 2 3 3 2 4 1 5 37 6 38 7 96 8 39 9 95 10 40 11 41 12
REMARK SMILES IDX 42 13 89 14 43 15 94 16 88 17 90 18 44 19 93 20 87 21 86 22
REMARK SMILES IDX 45 24 75 25 56 26 74 27 57 28 60 29 73 30 91 31 58 32 59 33
REMARK SMILES IDX 72 35 92 36 61 37 46 38 47 39 55 40 48 41 54 42 49 43 50 44
REMARK SMILES IDX 51 45 52 46 53 47 76 48 77 49 85 50 78 51 84 52 79 53 80 54
REMARK SMILES IDX 81 55 82 56 83 57 62 58 63 59 71 60 64 61 70 62 65 63 66 64
REMARK SMILES IDX 67 65 68 66 69 67 6 68 7 69 8 70 9 71 10 72 15 73 11 74
REMARK SMILES IDX 14 75 13 76 12 77 16 78 17 79 18 80 19 82 20 83 23 84 21 85
REMARK SMILES IDX 22 86 36 87 33 88 35 89 34 90 24 91 25 92 26 93 27 95 28 96
REMARK SMILES IDX 32 97 29 98 31 99 30 100
REMARK H PARENT 90 23 60 34 18 81 26 94
REMARK Flexibility Score: inf
ROOT
ATOM      1  C   UNL A   1      46.909  40.271  28.542  1.00  0.00     0.274 C 
ENDROOT
BRANCH   1   2
ATOM      2  C   UNL A   1      48.182  39.436  28.405  1.00  0.00     0.275 C 
BRANCH   2   3
ATOM      3  O   UNL A   1      47.941  38.033  28.162  1.00  0.00    -0.458 OA
BRANCH   3   4
ATOM      4  C   UNL A   1      47.601  37.029  29.007  1.00  0.00     0.338 C 
ATOM      5  O   UNL A   1      47.696  37.242  30.217  1.00  0.00    -0.246 OA
BRANCH   4   6
ATOM      6  C   UNL A   1      47.136  35.661  28.589  1.00  0.00     0.060 A 
ATOM      7  C   UNL A   1      46.462  35.329  27.407  1.00  0.00     0.016 A 
ATOM      8  C   UNL A   1      47.366  34.622  29.511  1.00  0.00     0.016 A 
ATOM      9  C   UNL A   1      46.104  33.992  27.112  1.00  0.00     0.010 A 
ATOM     10  C   UNL A   1      46.999  33.298  29.226  1.00  0.00     0.010 A 
ATOM     11  C   UNL A   1      46.377  32.960  28.013  1.00  0.00    -0.014 A 
BRANCH  11  12
ATOM     12  C   UNL A   1      45.913  31.556  27.799  1.00  0.00     0.031 A 
ATOM     13  C   UNL A   1      44.565  31.175  28.331  1.00  0.00     0.074 A 
ATOM     14  C   UNL A   1      46.698  30.594  27.269  1.00  0.00     0.049 A 
ATOM     15  N   UNL A   1      43.995  30.000  28.349  1.00  0.00    -0.248 NA
ATOM     16  C   UNL A   1      43.752  32.256  28.909  1.00  0.00     0.031 C 
ATOM     17  C   UNL A   1      47.993  30.819  26.650  1.00  0.00     0.029 A 
ATOM     18  N   UNL A   1      46.576  29.222  27.239  1.00  0.00    -0.354 N 
ATOM     19  C   UNL A   1      42.725  30.216  28.858  1.00  0.00     0.074 A 
ATOM     20  C   UNL A   1      42.655  31.604  29.260  1.00  0.00     0.031 C 
ATOM     21  C   UNL A   1      48.636  29.648  26.490  1.00  0.00     0.029 A 
ATOM     22  C   UNL A   1      47.744  28.572  26.887  1.00  0.00     0.049 A 
ATOM     23  H   UNL A   1      45.737  28.751  27.449  1.00  0.00     0.167 HD
ATOM     24  C   UNL A   1      41.686  29.352  28.909  1.00  0.00     0.031 A 
ATOM     25  C   UNL A   1      48.058  27.260  26.872  1.00  0.00     0.031 A 
ATOM     26  C   UNL A   1      41.784  27.963  28.556  1.00  0.00     0.049 A 
ATOM     27  C   UNL A   1      46.936  26.278  27.070  1.00  0.00     0.074 A 
ATOM     28  C   UNL A   1      40.791  27.001  28.538  1.00  0.00     0.029 A 
ATOM     29  N   UNL A   1      42.960  27.333  28.173  1.00  0.00    -0.354 N 
ATOM     30  N   UNL A   1      45.698  26.518  27.435  1.00  0.00    -0.248 NA
ATOM     31  C   UNL A   1      47.216  24.872  26.753  1.00  0.00     0.031 C 
ATOM     32  C   UNL A   1      41.377  25.779  28.184  1.00  0.00     0.029 A 
ATOM     33  C   UNL A   1      42.724  25.992  27.933  1.00  0.00     0.049 A 
ATOM     34  H   UNL A   1      43.835  27.775  28.086  1.00  0.00     0.167 HD
ATOM     35  C   UNL A   1      45.030  25.308  27.304  1.00  0.00     0.074 A 
ATOM     36  C   UNL A   1      46.008  24.336  26.857  1.00  0.00     0.031 C 
ATOM     37  C   UNL A   1      43.715  25.039  27.499  1.00  0.00     0.031 A 
BRANCH  24  38
ATOM     38  C   UNL A   1      40.365  29.931  29.323  1.00  0.00    -0.014 A 
ATOM     39  C   UNL A   1      40.123  30.227  30.681  1.00  0.00     0.010 A 
ATOM     40  C   UNL A   1      39.346  30.144  28.382  1.00  0.00     0.010 A 
ATOM     41  C   UNL A   1      38.864  30.660  31.099  1.00  0.00     0.020 A 
ATOM     42  C   UNL A   1      38.091  30.605  28.794  1.00  0.00     0.020 A 
ATOM     43  C   UNL A   1      37.853  30.837  30.152  1.00  0.00     0.054 A 
BRANCH  43  44
ATOM     44  S   UNL A   1      36.222  31.380  30.725  1.00  0.00     0.124 S 
ATOM     45  O   UNL A   1      35.900  30.362  31.722  1.00  0.00    -0.237 OA
ATOM     46  O   UNL A   1      36.497  32.713  31.256  1.00  0.00    -0.237 OA
ATOM     47  O   UNL A   1      35.403  31.350  29.516  1.00  0.00    -0.744 OA
ENDBRANCH  43  44
ENDBRANCH  24  38
BRANCH  25  48
ATOM     48  C   UNL A   1      49.438  26.789  26.551  1.00  0.00    -0.014 A 
ATOM     49  C   UNL A   1      49.822  26.536  25.222  1.00  0.00     0.010 A 
ATOM     50  C   UNL A   1      50.373  26.556  27.578  1.00  0.00     0.010 A 
ATOM     51  C   UNL A   1      51.092  26.023  24.927  1.00  0.00     0.020 A 
ATOM     52  C   UNL A   1      51.653  26.060  27.287  1.00  0.00     0.020 A 
ATOM     53  C   UNL A   1      51.999  25.784  25.962  1.00  0.00     0.054 A 
BRANCH  53  54
ATOM     54  S   UNL A   1      53.644  25.131  25.545  1.00  0.00     0.124 S 
ATOM     55  O   UNL A   1      54.423  25.489  26.726  1.00  0.00    -0.237 OA
ATOM     56  O   UNL A   1      53.379  23.704  25.373  1.00  0.00    -0.237 OA
ATOM     57  O   UNL A   1      53.997  25.846  24.322  1.00  0.00    -0.744 OA
ENDBRANCH  53  54
ENDBRANCH  25  48
BRANCH  37  58
ATOM     58  C   UNL A   1      43.253  23.645  27.183  1.00  0.00    -0.014 A 
ATOM     59  C   UNL A   1      43.189  23.179  25.859  1.00  0.00     0.010 A 
ATOM     60  C   UNL A   1      42.912  22.779  28.238  1.00  0.00     0.010 A 
ATOM     61  C   UNL A   1      42.760  21.878  25.593  1.00  0.00     0.020 A 
ATOM     62  C   UNL A   1      42.511  21.468  27.977  1.00  0.00     0.020 A 
ATOM     63  C   UNL A   1      42.424  21.030  26.655  1.00  0.00     0.054 A 
BRANCH  63  64
ATOM     64  S   UNL A   1      41.917  19.330  26.285  1.00  0.00     0.124 S 
ATOM     65  O   UNL A   1      42.418  18.605  27.449  1.00  0.00    -0.237 OA
ATOM     66  O   UNL A   1      40.464  19.443  26.191  1.00  0.00    -0.237 OA
ATOM     67  O   UNL A   1      42.596  19.033  25.025  1.00  0.00    -0.744 OA
ENDBRANCH  63  64
ENDBRANCH  37  58
ENDBRANCH  11  12
ENDBRANCH   4   6
ENDBRANCH   3   4
ENDBRANCH   2   3
ENDBRANCH   1   2
BRANCH   1  68
ATOM     68  O   UNL A   1      46.494  40.697  27.247  1.00  0.00    -0.462 OA
BRANCH  68  69
ATOM     69  C   UNL A   1      45.164  40.897  26.983  1.00  0.00     0.310 C 
ATOM     70  O   UNL A   1      44.240  40.493  27.661  1.00  0.00    -0.252 OA
BRANCH  69  71
ATOM     71  C   UNL A   1      45.086  41.724  25.708  1.00  0.00     0.115 C 
ATOM     72  C   UNL A   1      44.525  43.119  26.096  1.00  0.00     0.004 C 
ATOM     73  C   UNL A   1      46.381  42.123  24.952  1.00  0.00     0.096 C 
ATOM     74  C   UNL A   1      45.446  43.849  27.084  1.00  0.00     0.005 C 
ATOM     75  C   UNL A   1      44.747  43.841  24.798  1.00  0.00     0.009 C 
ATOM     76  C   UNL A   1      46.255  43.648  24.831  1.00  0.00     0.003 C 
ATOM     77  C   UNL A   1      46.586  44.313  26.183  1.00  0.00     0.005 C 
BRANCH  73  78
ATOM     78  C   UNL A   1      46.615  41.370  23.628  1.00  0.00     0.229 C 
ATOM     79  O   UNL A   1      46.784  40.141  23.716  1.00  0.00    -0.274 OA
ATOM     80  N   UNL A   1      46.500  41.842  22.356  1.00  0.00    -0.317 N 
ATOM     81  H   UNL A   1      46.425  41.112  21.700  1.00  0.00     0.170 HD
BRANCH  80  82
ATOM     82  C   UNL A   1      46.462  43.088  21.749  1.00  0.00     0.108 A 
ATOM     83  S   UNL A   1      47.942  43.825  21.356  1.00  0.00    -0.122 S 
ATOM     84  C   UNL A   1      45.366  43.704  21.093  1.00  0.00     0.078 A 
ATOM     85  C   UNL A   1      47.148  45.273  20.995  1.00  0.00     0.011 A 
ATOM     86  C   UNL A   1      45.798  45.073  20.717  1.00  0.00    -0.019 A 
ATOM     87  C   UNL A   1      47.901  46.573  20.923  1.00  0.00     0.047 C 
ATOM     88  C   UNL A   1      45.036  46.236  20.141  1.00  0.00     0.037 C 
ATOM     89  C   UNL A   1      46.926  47.745  20.999  1.00  0.00     0.006 C 
ATOM     90  C   UNL A   1      45.802  47.568  19.995  1.00  0.00     0.005 C 
BRANCH  84  91
ATOM     91  C   UNL A   1      44.127  42.871  21.018  1.00  0.00     0.254 C 
ATOM     92  O   UNL A   1      43.893  42.076  21.948  1.00  0.00    -0.269 OA
ATOM     93  N   UNL A   1      43.135  42.737  20.098  1.00  0.00    -0.349 N 
ATOM     94  H   UNL A   1      42.539  42.022  20.418  1.00  0.00     0.164 HD
BRANCH  93  95
ATOM     95  C   UNL A   1      42.588  43.215  18.832  1.00  0.00     0.082 C 
ATOM     96  C   UNL A   1      41.280  43.978  19.035  1.00  0.00     0.025 C 
ATOM     97  C   UNL A   1      43.626  43.751  17.866  1.00  0.00     0.025 C 
ATOM     98  C   UNL A   1      40.831  44.705  17.779  1.00  0.00     0.002 C 
ATOM     99  C   UNL A   1      43.167  44.839  16.893  1.00  0.00     0.002 C 
ATOM    100  C   UNL A   1      41.935  45.634  17.313  1.00  0.00     0.000 C 
ENDBRANCH  93  95
ENDBRANCH  84  91
ENDBRANCH  80  82
ENDBRANCH  73  78
ENDBRANCH  69  71
ENDBRANCH  68  69
ENDBRANCH   1  68
TORSDOF 18
ENDMDL
MODEL 2
REMARK VINA RESULT:     -10.6      9.559     13.060
REMARK SMILES O=C(OCCOC(=O)[C@H]1[C@H]2CC[C@H](C2)[C@@H]1C(=O)Nc1sc2c(c1C(=O)NC1CCCCC1)CCCC2)c1ccc(-c2c3nc(c(-c4ccc(S(=O)(=O)[O-])cc4)c4ccc([nH]4)c(-c4ccc(S(=O)(=O)[O-])cc4)c4nc(c(-c5ccc(S(=O)(=O)[O-])cc5)c5ccc2[nH]5)C=C4)C=C3)cc1
REMARK SMILES IDX 5 1 4 2 3 3 2 4 1 5 37 6 38 7 96 8 39 9 95 10 40 11 41 12
REMARK SMILES IDX 42 13 89 14 43 15 94 16 88 17 90 18 44 19 93 20 87 21 86 22
REMARK SMILES IDX 45 24 75 25 56 26 74 27 57 28 60 29 73 30 91 31 58 32 59 33
REMARK SMILES IDX 72 35 92 36 61 37 46 38 47 39 55 40 48 41 54 42 49 43 50 44
REMARK SMILES IDX 51 45 52 46 53 47 76 48 77 49 85 50 78 51 84 52 79 53 80 54
REMARK SMILES IDX 81 55 82 56 83 57 62 58 63 59 71 60 64 61 70 62 65 63 66 64
REMARK SMILES IDX 67 65 68 66 69 67 6 68 7 69 8 70 9 71 10 72 15 73 11 74
REMARK SMILES IDX 14 75 13 76 12 77 16 78 17 79 18 80 19 82 20 83 23 84 21 85
REMARK SMILES IDX 22 86 36 87 33 88 35 89 34 90 24 91 25 92 26 93 27 95 28 96
REMARK SMILES IDX 32 97 29 98 31 99 30 100
REMARK H PARENT 90 23 60 34 18 81 26 94
REMARK Flexibility Score: inf
ROOT
ATOM      1  C   UNL A   1      38.779  34.503  32.339  1.00  0.00     0.274 C 
ENDROOT
BRANCH   1   2
ATOM      2  C   UNL A   1      38.697  33.780  33.683  1.00  0.00     0.275 C 
BRANCH   2   3
ATOM      3  O   UNL A   1      39.447  34.417  34.740  1.00  0.00    -0.458 OA
BRANCH   3   4
ATOM      4  C   UNL A   1      40.247  33.895  35.702  1.00  0.00     0.338 C 
ATOM      5  O   UNL A   1      40.267  34.457  36.799  1.00  0.00    -0.246 OA
BRANCH   4   6
ATOM      6  C   UNL A   1      41.137  32.694  35.534  1.00  0.00     0.060 A 
ATOM      7  C   UNL A   1      40.858  31.381  35.935  1.00  0.00     0.016 A 
ATOM      8  C   UNL A   1      42.398  32.934  34.955  1.00  0.00     0.016 A 
ATOM      9  C   UNL A   1      41.768  30.325  35.691  1.00  0.00     0.010 A 
ATOM     10  C   UNL A   1      43.307  31.891  34.726  1.00  0.00     0.010 A 
ATOM     11  C   UNL A   1      42.998  30.565  35.075  1.00  0.00    -0.014 A 
BRANCH  11  12
ATOM     12  C   UNL A   1      44.038  29.506  34.905  1.00  0.00     0.031 A 
ATOM     13  C   UNL A   1      44.926  29.201  36.074  1.00  0.00     0.074 A 
ATOM     14  C   UNL A   1      44.295  28.911  33.721  1.00  0.00     0.049 A 
ATOM     15  N   UNL A   1      45.952  28.397  36.133  1.00  0.00    -0.248 NA
ATOM     16  C   UNL A   1      44.611  29.884  37.339  1.00  0.00     0.031 C 
ATOM     17  C   UNL A   1      43.486  29.049  32.523  1.00  0.00     0.029 A 
ATOM     18  N   UNL A   1      45.355  28.141  33.292  1.00  0.00    -0.354 N 
ATOM     19  C   UNL A   1      46.351  28.408  37.459  1.00  0.00     0.074 A 
ATOM     20  C   UNL A   1      45.546  29.398  38.140  1.00  0.00     0.031 C 
ATOM     21  C   UNL A   1      44.157  28.577  31.457  1.00  0.00     0.029 A 
ATOM     22  C   UNL A   1      45.404  27.989  31.918  1.00  0.00     0.049 A 
ATOM     23  H   UNL A   1      46.012  27.740  33.904  1.00  0.00     0.167 HD
ATOM     24  C   UNL A   1      47.253  27.606  38.068  1.00  0.00     0.031 A 
ATOM     25  C   UNL A   1      46.338  27.430  31.122  1.00  0.00     0.031 A 
ATOM     26  C   UNL A   1      48.085  26.664  37.371  1.00  0.00     0.049 A 
ATOM     27  C   UNL A   1      47.437  26.650  31.788  1.00  0.00     0.074 A 
ATOM     28  C   UNL A   1      49.011  25.778  37.888  1.00  0.00     0.029 A 
ATOM     29  N   UNL A   1      48.099  26.503  35.993  1.00  0.00    -0.354 N 
ATOM     30  N   UNL A   1      47.724  26.575  33.067  1.00  0.00    -0.248 NA
ATOM     31  C   UNL A   1      48.266  25.796  30.928  1.00  0.00     0.031 C 
ATOM     32  C   UNL A   1      49.615  25.108  36.816  1.00  0.00     0.029 A 
ATOM     33  C   UNL A   1      49.029  25.543  35.637  1.00  0.00     0.049 A 
ATOM     34  H   UNL A   1      47.531  26.999  35.360  1.00  0.00     0.167 HD
ATOM     35  C   UNL A   1      48.707  25.600  33.173  1.00  0.00     0.074 A 
ATOM     36  C   UNL A   1      48.984  25.138  31.827  1.00  0.00     0.031 C 
ATOM     37  C   UNL A   1      49.296  25.106  34.289  1.00  0.00     0.031 A 
BRANCH  24  38
ATOM     38  C   UNL A   1      47.327  27.711  39.564  1.00  0.00    -0.014 A 
ATOM     39  C   UNL A   1      46.333  27.105  40.360  1.00  0.00     0.010 A 
ATOM     40  C   UNL A   1      48.350  28.443  40.184  1.00  0.00     0.010 A 
ATOM     41  C   UNL A   1      46.324  27.286  41.743  1.00  0.00     0.020 A 
ATOM     42  C   UNL A   1      48.361  28.603  41.573  1.00  0.00     0.020 A 
ATOM     43  C   UNL A   1      47.334  28.044  42.340  1.00  0.00     0.054 A 
BRANCH  43  44
ATOM     44  S   UNL A   1      47.286  28.280  44.136  1.00  0.00     0.124 S 
ATOM     45  O   UNL A   1      47.961  29.566  44.287  1.00  0.00    -0.237 OA
ATOM     46  O   UNL A   1      45.853  28.286  44.420  1.00  0.00    -0.237 OA
ATOM     47  O   UNL A   1      48.017  27.126  44.655  1.00  0.00    -0.744 OA
ENDBRANCH  43  44
ENDBRANCH  24  38
BRANCH  25  48
ATOM     48  C   UNL A   1      46.227  27.475  29.633  1.00  0.00    -0.014 A 
ATOM     49  C   UNL A   1      46.856  28.493  28.895  1.00  0.00     0.010 A 
ATOM     50  C   UNL A   1      45.459  26.518  28.942  1.00  0.00     0.010 A 
ATOM     51  C   UNL A   1      46.691  28.579  27.507  1.00  0.00     0.020 A 
ATOM     52  C   UNL A   1      45.305  26.589  27.550  1.00  0.00     0.020 A 
ATOM     53  C   UNL A   1      45.911  27.629  26.842  1.00  0.00     0.054 A 
BRANCH  53  54
ATOM     54  S   UNL A   1      45.727  27.761  25.038  1.00  0.00     0.124 S 
ATOM     55  O   UNL A   1      44.279  27.868  24.886  1.00  0.00    -0.237 OA
ATOM     56  O   UNL A   1      46.484  28.973  24.734  1.00  0.00    -0.237 OA
ATOM     57  O   UNL A   1      46.319  26.522  24.540  1.00  0.00    -0.744 OA
ENDBRANCH  53  54
ENDBRANCH  25  48
BRANCH  37  58
ATOM     58  C   UNL A   1      50.265  23.973  34.101  1.00  0.00    -0.014 A 
ATOM     59  C   UNL A   1      51.652  24.196  34.068  1.00  0.00     0.010 A 
ATOM     60  C   UNL A   1      49.773  22.660  33.992  1.00  0.00     0.010 A 
ATOM     61  C   UNL A   1      52.530  23.125  33.896  1.00  0.00     0.020 A 
ATOM     62  C   UNL A   1      50.650  21.584  33.849  1.00  0.00     0.020 A 
ATOM     63  C   UNL A   1      52.023  21.825  33.788  1.00  0.00     0.054 A 
BRANCH  63  64
ATOM     64  S   UNL A   1      53.188  20.447  33.615  1.00  0.00     0.124 S 
ATOM     65  O   UNL A   1      52.391  19.317  34.081  1.00  0.00    -0.237 OA
ATOM     66  O   UNL A   1      53.487  20.459  32.186  1.00  0.00    -0.237 OA
ATOM     67  O   UNL A   1      54.302  20.825  34.482  1.00  0.00    -0.744 OA
ENDBRANCH  63  64
ENDBRANCH  37  58
ENDBRANCH  11  12
ENDBRANCH   4   6
ENDBRANCH   3   4
ENDBRANCH   2   3
ENDBRANCH   1   2
BRANCH   1  68
ATOM     68  O   UNL A   1      38.181  33.686  31.336  1.00  0.00    -0.462 OA
BRANCH  68  69
ATOM     69  C   UNL A   1      38.861  33.410  30.179  1.00  0.00     0.310 C 
ATOM     70  O   UNL A   1      39.393  34.231  29.458  1.00  0.00    -0.252 OA
BRANCH  69  71
ATOM     71  C   UNL A   1      38.831  31.899  30.000  1.00  0.00     0.115 C 
ATOM     72  C   UNL A   1      40.295  31.393  30.102  1.00  0.00     0.004 C 
ATOM     73  C   UNL A   1      38.129  30.998  31.050  1.00  0.00     0.096 C 
ATOM     74  C   UNL A   1      40.909  31.698  31.475  1.00  0.00     0.005 C 
ATOM     75  C   UNL A   1      40.040  29.913  30.144  1.00  0.00     0.009 C 
ATOM     76  C   UNL A   1      39.222  29.989  31.425  1.00  0.00     0.003 C 
ATOM     77  C   UNL A   1      40.250  30.650  32.367  1.00  0.00     0.005 C 
BRANCH  73  78
ATOM     78  C   UNL A   1      36.793  30.387  30.588  1.00  0.00     0.229 C 
ATOM     79  O   UNL A   1      36.808  29.175  30.308  1.00  0.00    -0.274 OA
ATOM     80  N   UNL A   1      35.555  30.956  30.599  1.00  0.00    -0.317 N 
ATOM     81  H   UNL A   1      34.842  30.281  30.522  1.00  0.00     0.170 HD
BRANCH  80  82
ATOM     82  C   UNL A   1      35.044  32.241  30.689  1.00  0.00     0.108 A 
ATOM     83  S   UNL A   1      35.119  33.021  32.196  1.00  0.00    -0.122 S 
ATOM     84  C   UNL A   1      34.769  33.144  29.631  1.00  0.00     0.078 A 
ATOM     85  C   UNL A   1      34.122  34.262  31.625  1.00  0.00     0.011 A 
ATOM     86  C   UNL A   1      34.129  34.339  30.235  1.00  0.00    -0.019 A 
ATOM     87  C   UNL A   1      33.410  35.184  32.577  1.00  0.00     0.047 C 
ATOM     88  C   UNL A   1      33.486  35.548  29.611  1.00  0.00     0.037 C 
ATOM     89  C   UNL A   1      32.285  35.917  31.850  1.00  0.00     0.006 C 
ATOM     90  C   UNL A   1      32.802  36.546  30.569  1.00  0.00     0.005 C 
BRANCH  84  91
ATOM     91  C   UNL A   1      35.126  32.646  28.268  1.00  0.00     0.254 C 
ATOM     92  O   UNL A   1      35.937  33.305  27.592  1.00  0.00    -0.269 OA
ATOM     93  N   UNL A   1      34.727  31.584  27.517  1.00  0.00    -0.349 N 
ATOM     94  H   UNL A   1      35.169  31.667  26.642  1.00  0.00     0.164 HD
BRANCH  93  95
ATOM     95  C   UNL A   1      33.915  30.372  27.473  1.00  0.00     0.082 C 
ATOM     96  C   UNL A   1      32.553  30.629  26.830  1.00  0.00     0.025 C 
ATOM     97  C   UNL A   1      34.686  29.116  27.118  1.00  0.00     0.025 C 
ATOM     98  C   UNL A   1      31.798  29.344  26.534  1.00  0.00     0.002 C 
ATOM     99  C   UNL A   1      33.911  28.010  26.400  1.00  0.00     0.002 C 
ATOM    100  C   UNL A   1      32.653  28.449  25.658  1.00  0.00     0.000 C 
ENDBRANCH  93  95
ENDBRANCH  84  91
ENDBRANCH  80  82
ENDBRANCH  73  78
ENDBRANCH  69  71
ENDBRANCH  68  69
ENDBRANCH   1  68
TORSDOF 18
ENDMDL
MODEL 3
REMARK VINA RESULT:     -10.4      2.645      5.005
REMARK SMILES O=C(OCCOC(=O)[C@H]1[C@H]2CC[C@H](C2)[C@@H]1C(=O)Nc1sc2c(c1C(=O)NC1CCCCC1)CCCC2)c1ccc(-c2c3nc(c(-c4ccc(S(=O)(=O)[O-])cc4)c4ccc([nH]4)c(-c4ccc(S(=O)(=O)[O-])cc4)c4nc(c(-c5ccc(S(=O)(=O)[O-])cc5)c5ccc2[nH]5)C=C4)C=C3)cc1
REMARK SMILES IDX 5 1 4 2 3 3 2 4 1 5 37 6 38 7 96 8 39 9 95 10 40 11 41 12
REMARK SMILES IDX 42 13 89 14 43 15 94 16 88 17 90 18 44 19 93 20 87 21 86 22
REMARK SMILES IDX 45 24 75 25 56 26 74 27 57 28 60 29 73 30 91 31 58 32 59 33
REMARK SMILES IDX 72 35 92 36 61 37 46 38 47 39 55 40 48 41 54 42 49 43 50 44
REMARK SMILES IDX 51 45 52 46 53 47 76 48 77 49 85 50 78 51 84 52 79 53 80 54
REMARK SMILES IDX 81 55 82 56 83 57 62 58 63 59 71 60 64 61 70 62 65 63 66 64
REMARK SMILES IDX 67 65 68 66 69 67 6 68 7 69 8 70 9 71 10 72 15 73 11 74
REMARK SMILES IDX 14 75 13 76 12 77 16 78 17 79 18 80 19 82 20 83 23 84 21 85
REMARK SMILES IDX 22 86 36 87 33 88 35 89 34 90 24 91 25 92 26 93 27 95 28 96
REMARK SMILES IDX 32 97 29 98 31 99 30 100
REMARK H PARENT 90 23 60 34 18 81 26 94
REMARK Flexibility Score: inf
ROOT
ATOM      1  C   UNL A   1      45.790  37.553  31.872  1.00  0.00     0.274 C 
ENDROOT
BRANCH   1   2
ATOM      2  C   UNL A   1      47.281  37.687  31.561  1.00  0.00     0.275 C 
BRANCH   2   3
ATOM      3  O   UNL A   1      47.582  37.768  30.151  1.00  0.00    -0.458 OA
BRANCH   3   4
ATOM      4  C   UNL A   1      48.226  36.905  29.328  1.00  0.00     0.338 C 
ATOM      5  O   UNL A   1      49.318  37.253  28.873  1.00  0.00    -0.246 OA
BRANCH   4   6
ATOM      6  C   UNL A   1      47.708  35.558  28.903  1.00  0.00     0.060 A 
ATOM      7  C   UNL A   1      46.996  35.265  27.732  1.00  0.00     0.016 A 
ATOM      8  C   UNL A   1      47.925  34.499  29.804  1.00  0.00     0.016 A 
ATOM      9  C   UNL A   1      46.588  33.945  27.427  1.00  0.00     0.010 A 
ATOM     10  C   UNL A   1      47.509  33.193  29.510  1.00  0.00     0.010 A 
ATOM     11  C   UNL A   1      46.848  32.892  28.307  1.00  0.00    -0.014 A 
BRANCH  11  12
ATOM     12  C   UNL A   1      46.334  31.507  28.085  1.00  0.00     0.031 A 
ATOM     13  C   UNL A   1      44.996  31.155  28.661  1.00  0.00     0.074 A 
ATOM     14  C   UNL A   1      47.069  30.532  27.508  1.00  0.00     0.049 A 
ATOM     15  N   UNL A   1      44.392  29.998  28.678  1.00  0.00    -0.248 NA
ATOM     16  C   UNL A   1      44.238  32.249  29.289  1.00  0.00     0.031 C 
ATOM     17  C   UNL A   1      48.346  30.731  26.845  1.00  0.00     0.029 A 
ATOM     18  N   UNL A   1      46.904  29.166  27.458  1.00  0.00    -0.354 N 
ATOM     19  C   UNL A   1      43.149  30.242  29.239  1.00  0.00     0.074 A 
ATOM     20  C   UNL A   1      43.136  31.622  29.669  1.00  0.00     0.031 C 
ATOM     21  C   UNL A   1      48.947  29.545  26.639  1.00  0.00     0.029 A 
ATOM     22  C   UNL A   1      48.038  28.488  27.049  1.00  0.00     0.049 A 
ATOM     23  H   UNL A   1      46.060  28.716  27.690  1.00  0.00     0.167 HD
ATOM     24  C   UNL A   1      42.087  29.408  29.313  1.00  0.00     0.031 A 
ATOM     25  C   UNL A   1      48.311  27.168  26.998  1.00  0.00     0.031 A 
ATOM     26  C   UNL A   1      42.129  28.023  28.931  1.00  0.00     0.049 A 
ATOM     27  C   UNL A   1      47.169  26.216  27.220  1.00  0.00     0.074 A 
ATOM     28  C   UNL A   1      41.107  27.092  28.933  1.00  0.00     0.029 A 
ATOM     29  N   UNL A   1      43.270  27.366  28.493  1.00  0.00    -0.354 N 
ATOM     30  N   UNL A   1      45.953  26.486  27.636  1.00  0.00    -0.248 NA
ATOM     31  C   UNL A   1      47.393  24.809  26.867  1.00  0.00     0.031 C 
ATOM     32  C   UNL A   1      41.642  25.860  28.535  1.00  0.00     0.029 A 
ATOM     33  C   UNL A   1      42.985  26.038  28.237  1.00  0.00     0.049 A 
ATOM     34  H   UNL A   1      44.155  27.784  28.381  1.00  0.00     0.167 HD
ATOM     35  C   UNL A   1      45.243  25.299  27.509  1.00  0.00     0.074 A 
ATOM     36  C   UNL A   1      46.174  24.307  27.007  1.00  0.00     0.031 C 
ATOM     37  C   UNL A   1      43.930  25.065  27.748  1.00  0.00     0.031 A 
BRANCH  24  38
ATOM     38  C   UNL A   1      40.800  30.018  29.788  1.00  0.00    -0.014 A 
ATOM     39  C   UNL A   1      40.567  30.179  31.170  1.00  0.00     0.010 A 
ATOM     40  C   UNL A   1      39.802  30.392  28.876  1.00  0.00     0.010 A 
ATOM     41  C   UNL A   1      39.335  30.639  31.633  1.00  0.00     0.020 A 
ATOM     42  C   UNL A   1      38.575  30.882  29.335  1.00  0.00     0.020 A 
ATOM     43  C   UNL A   1      38.342  30.979  30.711  1.00  0.00     0.054 A 
BRANCH  43  44
ATOM     44  S   UNL A   1      36.743  31.554  31.340  1.00  0.00     0.124 S 
ATOM     45  O   UNL A   1      37.081  32.883  31.846  1.00  0.00    -0.237 OA
ATOM     46  O   UNL A   1      35.902  31.533  30.146  1.00  0.00    -0.237 OA
ATOM     47  O   UNL A   1      36.398  30.567  32.360  1.00  0.00    -0.744 OA
ENDBRANCH  43  44
ENDBRANCH  24  38
BRANCH  25  48
ATOM     48  C   UNL A   1      49.664  26.663  26.616  1.00  0.00    -0.014 A 
ATOM     49  C   UNL A   1      50.088  26.682  25.275  1.00  0.00     0.010 A 
ATOM     50  C   UNL A   1      50.529  26.124  27.588  1.00  0.00     0.010 A 
ATOM     51  C   UNL A   1      51.325  26.141  24.906  1.00  0.00     0.020 A 
ATOM     52  C   UNL A   1      51.777  25.597  27.227  1.00  0.00     0.020 A 
ATOM     53  C   UNL A   1      52.162  25.596  25.884  1.00  0.00     0.054 A 
BRANCH  53  54
ATOM     54  S   UNL A   1      53.768  24.913  25.374  1.00  0.00     0.124 S 
ATOM     55  O   UNL A   1      54.012  25.614  24.117  1.00  0.00    -0.237 OA
ATOM     56  O   UNL A   1      54.636  25.291  26.486  1.00  0.00    -0.237 OA
ATOM     57  O   UNL A   1      53.509  23.481  25.252  1.00  0.00    -0.744 OA
ENDBRANCH  53  54
ENDBRANCH  25  48
BRANCH  37  58
ATOM     58  C   UNL A   1      43.414  23.692  27.424  1.00  0.00    -0.014 A 
ATOM     59  C   UNL A   1      43.125  22.761  28.435  1.00  0.00     0.010 A 
ATOM     60  C   UNL A   1      43.183  23.346  26.079  1.00  0.00     0.010 A 
ATOM     61  C   UNL A   1      42.644  21.493  28.106  1.00  0.00     0.020 A 
ATOM     62  C   UNL A   1      42.674  22.089  25.748  1.00  0.00     0.020 A 
ATOM     63  C   UNL A   1      42.420  21.166  26.764  1.00  0.00     0.054 A 
BRANCH  63  64
ATOM     64  S   UNL A   1      41.748  19.530  26.366  1.00  0.00     0.124 S 
ATOM     65  O   UNL A   1      42.169  18.741  27.519  1.00  0.00    -0.237 OA
ATOM     66  O   UNL A   1      40.314  19.789  26.270  1.00  0.00    -0.237 OA
ATOM     67  O   UNL A   1      42.400  19.187  25.104  1.00  0.00    -0.744 OA
ENDBRANCH  63  64
ENDBRANCH  37  58
ENDBRANCH  11  12
ENDBRANCH   4   6
ENDBRANCH   3   4
ENDBRANCH   2   3
ENDBRANCH   1   2
BRANCH   1  68
ATOM     68  O   UNL A   1      45.074  37.402  30.649  1.00  0.00    -0.462 OA
BRANCH  68  69
ATOM     69  C   UNL A   1      43.967  38.170  30.403  1.00  0.00     0.310 C 
ATOM     70  O   UNL A   1      43.357  38.818  31.230  1.00  0.00    -0.252 OA
BRANCH  69  71
ATOM     71  C   UNL A   1      43.678  38.063  28.913  1.00  0.00     0.115 C 
ATOM     72  C   UNL A   1      43.872  36.577  28.510  1.00  0.00     0.004 C 
ATOM     73  C   UNL A   1      42.251  38.337  28.368  1.00  0.00     0.096 C 
ATOM     74  C   UNL A   1      42.896  35.654  29.252  1.00  0.00     0.005 C 
ATOM     75  C   UNL A   1      43.324  36.629  27.112  1.00  0.00     0.009 C 
ATOM     76  C   UNL A   1      41.940  37.068  27.563  1.00  0.00     0.003 C 
ATOM     77  C   UNL A   1      41.583  35.911  28.519  1.00  0.00     0.005 C 
BRANCH  73  78
ATOM     78  C   UNL A   1      42.094  39.664  27.601  1.00  0.00     0.229 C 
ATOM     79  O   UNL A   1      41.705  39.577  26.423  1.00  0.00    -0.274 OA
ATOM     80  N   UNL A   1      42.168  40.934  28.087  1.00  0.00    -0.317 N 
ATOM     81  H   UNL A   1      41.762  41.586  27.471  1.00  0.00     0.170 HD
BRANCH  80  82
ATOM     82  C   UNL A   1      42.670  41.543  29.227  1.00  0.00     0.108 A 
ATOM     83  S   UNL A   1      41.775  41.400  30.664  1.00  0.00    -0.122 S 
ATOM     84  C   UNL A   1      43.996  41.989  29.463  1.00  0.00     0.078 A 
ATOM     85  C   UNL A   1      42.764  42.547  31.417  1.00  0.00     0.011 A 
ATOM     86  C   UNL A   1      43.996  42.671  30.781  1.00  0.00    -0.019 A 
ATOM     87  C   UNL A   1      42.321  43.247  32.672  1.00  0.00     0.047 C 
ATOM     88  C   UNL A   1      45.057  43.469  31.489  1.00  0.00     0.037 C 
ATOM     89  C   UNL A   1      43.175  44.491  32.904  1.00  0.00     0.006 C 
ATOM     90  C   UNL A   1      44.651  44.147  32.815  1.00  0.00     0.005 C 
BRANCH  84  91
ATOM     91  C   UNL A   1      44.960  41.714  28.354  1.00  0.00     0.254 C 
ATOM     92  O   UNL A   1      45.870  40.887  28.554  1.00  0.00    -0.269 OA
ATOM     93  N   UNL A   1      45.117  42.207  27.097  1.00  0.00    -0.349 N 
ATOM     94  H   UNL A   1      45.928  41.793  26.723  1.00  0.00     0.164 HD
BRANCH  93  95
ATOM     95  C   UNL A   1      44.579  43.096  26.071  1.00  0.00     0.082 C 
ATOM     96  C   UNL A   1      45.540  44.243  25.760  1.00  0.00     0.025 C 
ATOM     97  C   UNL A   1      43.870  42.384  24.936  1.00  0.00     0.025 C 
ATOM     98  C   UNL A   1      45.129  45.026  24.524  1.00  0.00     0.002 C 
ATOM     99  C   UNL A   1      43.890  43.073  23.570  1.00  0.00     0.002 C 
ATOM    100  C   UNL A   1      45.013  44.079  23.345  1.00  0.00     0.000 C 
ENDBRANCH  93  95
ENDBRANCH  84  91
ENDBRANCH  80  82
ENDBRANCH  73  78
ENDBRANCH  69  71
ENDBRANCH  68  69
ENDBRANCH   1  68
TORSDOF 18
ENDMDL
