MODEL 1
REMARK VINA RESULT:     -13.2      0.000      0.000
REMARK SMILES Cc1cccc(OC2(C(=O)OCCOC(=O)c3ccc(-c4c5nc(c(-c6ccc(S(=O)(=O)[O-])cc6)c6ccc([nH]6)c(-c6ccc(S(=O)(=O)[O-])cc6)c6nc(c(-c7ccc(S(=O)(=O)[O-])cc7)c7ccc4[nH]7)C=C6)C=C5)cc3)CCN(C(=O)c3cnc[nH]c3=O)CC2)c1
REMARK SMILES IDX 13 1 12 2 11 3 9 4 10 5 8 6 77 7 90 8 78 9 89 10 79 11 80 12
REMARK SMILES IDX 81 13 7 14 6 15 1 16 2 17 3 18 91 19 4 20 5 21 82 22 83 23
REMARK SMILES IDX 87 24 84 25 86 26 88 27 85 28 14 30 15 31 16 32 17 33 18 34
REMARK SMILES IDX 76 35 19 36 75 37 20 38 21 39 22 40 69 41 23 42 74 43 68 44
REMARK SMILES IDX 70 45 24 46 73 47 67 48 66 49 25 51 55 52 36 53 54 54 37 55
REMARK SMILES IDX 40 56 53 57 71 58 38 59 39 60 52 62 72 63 41 64 26 65 27 66
REMARK SMILES IDX 35 67 28 68 34 69 29 70 30 71 31 72 32 73 33 74 56 75 57 76
REMARK SMILES IDX 65 77 58 78 64 79 59 80 60 81 61 82 62 83 63 84 42 85 43 86
REMARK SMILES IDX 51 87 44 88 50 89 45 90 46 91 47 92 48 93 49 94
REMARK H PARENT 86 29 70 50 40 61
REMARK Flexibility Score: inf
ROOT
ATOM      1  C   UNL A   1      34.958  29.325  27.251  1.00  0.00     0.275 C 
ENDROOT
BRANCH   1   2
ATOM      2  C   UNL A   1      33.748  29.318  26.288  1.00  0.00     0.274 C 
BRANCH   2   3
ATOM      3  O   UNL A   1      33.663  28.009  25.735  1.00  0.00    -0.459 OA
BRANCH   3   4
ATOM      4  C   UNL A   1      33.597  27.781  24.395  1.00  0.00     0.350 C 
ATOM      5  O   UNL A   1      34.223  28.394  23.545  1.00  0.00    -0.247 OA
BRANCH   4   6
ATOM      6  C   UNL A   1      32.376  26.862  24.173  1.00  0.00     0.209 C 
ATOM      7  C   UNL A   1      32.639  26.529  22.668  1.00  0.00     0.082 C 
ATOM      8  C   UNL A   1      32.422  25.645  25.111  1.00  0.00     0.082 C 
ATOM      9  C   UNL A   1      32.159  25.192  22.178  1.00  0.00     0.124 C 
ATOM     10  C   UNL A   1      31.668  24.498  24.457  1.00  0.00     0.124 C 
ATOM     11  N   UNL A   1      32.360  24.203  23.206  1.00  0.00    -0.338 N 
ATOM     12  C   UNL A   1      33.468  23.367  23.161  1.00  0.00     0.261 C 
ATOM     13  O   UNL A   1      34.464  23.564  22.473  1.00  0.00    -0.269 OA
BRANCH   6  14
ATOM     14  O   UNL A   1      31.234  27.596  24.621  1.00  0.00    -0.475 OA
BRANCH  14  15
ATOM     15  C   UNL A   1      30.304  28.278  23.907  1.00  0.00     0.121 A 
ATOM     16  C   UNL A   1      28.930  31.776  23.518  1.00  0.00     0.044 C 
ATOM     17  C   UNL A   1      29.052  30.290  23.374  1.00  0.00    -0.047 A 
ATOM     18  C   UNL A   1      27.962  29.522  22.963  1.00  0.00     0.003 A 
ATOM     19  C   UNL A   1      30.226  29.656  23.805  1.00  0.00     0.050 A 
ATOM     20  C   UNL A   1      28.050  28.134  22.990  1.00  0.00     0.004 A 
ATOM     21  C   UNL A   1      29.213  27.518  23.466  1.00  0.00     0.046 A 
ENDBRANCH  14  15
ENDBRANCH   6  14
BRANCH  12  22
ATOM     22  C   UNL A   1      33.333  22.167  24.000  1.00  0.00     0.123 A 
ATOM     23  C   UNL A   1      32.563  21.136  23.629  1.00  0.00     0.132 A 
ATOM     24  C   UNL A   1      34.156  22.009  25.213  1.00  0.00     0.263 A 
ATOM     25  N   UNL A   1      32.506  19.930  24.291  1.00  0.00    -0.246 NA
ATOM     26  N   UNL A   1      34.117  20.767  25.774  1.00  0.00    -0.312 N 
ATOM     27  O   UNL A   1      34.839  22.903  25.698  1.00  0.00    -0.269 OA
ATOM     28  C   UNL A   1      33.290  19.791  25.305  1.00  0.00     0.199 A 
ATOM     29  H   UNL A   1      34.704  20.570  26.540  1.00  0.00     0.171 HD
ENDBRANCH  12  22
ENDBRANCH   4   6
ENDBRANCH   3   4
ENDBRANCH   2   3
ENDBRANCH   1   2
BRANCH   1  30
ATOM     30  O   UNL A   1      35.728  30.544  27.441  1.00  0.00    -0.458 OA
BRANCH  30  31
ATOM     31  C   UNL A   1      36.688  30.574  28.425  1.00  0.00     0.338 C 
ATOM     32  O   UNL A   1      36.552  31.210  29.445  1.00  0.00    -0.246 OA
BRANCH  31  33
ATOM     33  C   UNL A   1      37.671  29.479  28.132  1.00  0.00     0.060 A 
ATOM     34  C   UNL A   1      38.605  29.618  27.091  1.00  0.00     0.016 A 
ATOM     35  C   UNL A   1      37.930  28.628  29.200  1.00  0.00     0.016 A 
ATOM     36  C   UNL A   1      39.885  29.077  27.226  1.00  0.00     0.010 A 
ATOM     37  C   UNL A   1      39.230  28.289  29.439  1.00  0.00     0.010 A 
ATOM     38  C   UNL A   1      40.201  28.475  28.443  1.00  0.00    -0.014 A 
BRANCH  38  39
ATOM     39  C   UNL A   1      41.371  27.642  28.681  1.00  0.00     0.031 A 
ATOM     40  C   UNL A   1      41.386  26.226  28.262  1.00  0.00     0.074 A 
ATOM     41  C   UNL A   1      42.374  28.412  29.171  1.00  0.00     0.049 A 
ATOM     42  N   UNL A   1      41.743  25.228  29.000  1.00  0.00    -0.248 NA
ATOM     43  C   UNL A   1      40.894  25.793  26.945  1.00  0.00     0.031 C 
ATOM     44  C   UNL A   1      43.792  28.200  29.341  1.00  0.00     0.029 A 
ATOM     45  N   UNL A   1      42.185  29.689  29.746  1.00  0.00    -0.354 N 
ATOM     46  C   UNL A   1      41.935  24.172  28.118  1.00  0.00     0.074 A 
ATOM     47  C   UNL A   1      41.142  24.474  26.957  1.00  0.00     0.031 C 
ATOM     48  C   UNL A   1      44.238  29.075  30.271  1.00  0.00     0.029 A 
ATOM     49  C   UNL A   1      43.088  29.824  30.779  1.00  0.00     0.049 A 
ATOM     50  H   UNL A   1      41.526  30.362  29.459  1.00  0.00     0.167 HD
ATOM     51  C   UNL A   1      43.063  23.403  28.201  1.00  0.00     0.031 A 
ATOM     52  C   UNL A   1      42.604  29.863  32.056  1.00  0.00     0.031 A 
ATOM     53  C   UNL A   1      43.971  24.009  29.165  1.00  0.00     0.049 A 
ATOM     54  C   UNL A   1      43.015  28.582  32.724  1.00  0.00     0.074 A 
ATOM     55  C   UNL A   1      45.030  24.879  28.962  1.00  0.00     0.029 A 
ATOM     56  N   UNL A   1      43.616  24.104  30.499  1.00  0.00    -0.354 N 
ATOM     57  N   UNL A   1      43.060  27.420  32.128  1.00  0.00    -0.248 NA
ATOM     58  C   UNL A   1      43.562  28.571  34.072  1.00  0.00     0.031 C 
ATOM     59  C   UNL A   1      45.296  25.525  30.191  1.00  0.00     0.029 A 
ATOM     60  C   UNL A   1      44.361  25.088  31.115  1.00  0.00     0.049 A 
ATOM     61  H   UNL A   1      42.933  23.551  30.943  1.00  0.00     0.167 HD
ATOM     62  C   UNL A   1      43.772  26.561  32.926  1.00  0.00     0.074 A 
ATOM     63  C   UNL A   1      44.021  27.313  34.145  1.00  0.00     0.031 C 
ATOM     64  C   UNL A   1      44.214  25.332  32.534  1.00  0.00     0.031 A 
BRANCH  51  65
ATOM     65  C   UNL A   1      43.555  22.422  27.154  1.00  0.00    -0.014 A 
ATOM     66  C   UNL A   1      42.789  21.262  26.895  1.00  0.00     0.010 A 
ATOM     67  C   UNL A   1      44.708  22.593  26.362  1.00  0.00     0.010 A 
ATOM     68  C   UNL A   1      43.166  20.296  25.958  1.00  0.00     0.020 A 
ATOM     69  C   UNL A   1      45.102  21.624  25.411  1.00  0.00     0.020 A 
ATOM     70  C   UNL A   1      44.327  20.478  25.220  1.00  0.00     0.054 A 
BRANCH  70  71
ATOM     71  S   UNL A   1      44.768  19.205  24.004  1.00  0.00     0.124 S 
ATOM     72  O   UNL A   1      44.484  19.871  22.734  1.00  0.00    -0.237 OA
ATOM     73  O   UNL A   1      46.182  18.974  24.287  1.00  0.00    -0.237 OA
ATOM     74  O   UNL A   1      43.881  18.090  24.329  1.00  0.00    -0.744 OA
ENDBRANCH  70  71
ENDBRANCH  51  65
BRANCH  52  75
ATOM     75  C   UNL A   1      41.285  30.571  32.239  1.00  0.00    -0.014 A 
ATOM     76  C   UNL A   1      40.154  29.767  32.520  1.00  0.00     0.010 A 
ATOM     77  C   UNL A   1      41.166  31.958  32.446  1.00  0.00     0.010 A 
ATOM     78  C   UNL A   1      38.992  30.300  33.091  1.00  0.00     0.020 A 
ATOM     79  C   UNL A   1      39.986  32.504  33.000  1.00  0.00     0.020 A 
ATOM     80  C   UNL A   1      38.921  31.665  33.350  1.00  0.00     0.054 A 
BRANCH  80  81
ATOM     81  S   UNL A   1      37.522  32.273  34.346  1.00  0.00     0.124 S 
ATOM     82  O   UNL A   1      37.650  31.496  35.575  1.00  0.00    -0.237 OA
ATOM     83  O   UNL A   1      37.822  33.698  34.466  1.00  0.00    -0.237 OA
ATOM     84  O   UNL A   1      36.372  31.939  33.517  1.00  0.00    -0.744 OA
ENDBRANCH  80  81
ENDBRANCH  52  75
BRANCH  64  85
ATOM     85  C   UNL A   1      44.700  24.255  33.461  1.00  0.00    -0.014 A 
ATOM     86  C   UNL A   1      43.876  23.228  33.933  1.00  0.00     0.010 A 
ATOM     87  C   UNL A   1      46.083  24.170  33.761  1.00  0.00     0.010 A 
ATOM     88  C   UNL A   1      44.385  22.219  34.748  1.00  0.00     0.020 A 
ATOM     89  C   UNL A   1      46.614  23.126  34.512  1.00  0.00     0.020 A 
ATOM     90  C   UNL A   1      45.749  22.178  35.036  1.00  0.00     0.054 A 
BRANCH  90  91
ATOM     91  S   UNL A   1      46.380  20.847  36.073  1.00  0.00     0.124 S 
ATOM     92  O   UNL A   1      46.015  21.316  37.408  1.00  0.00    -0.237 OA
ATOM     93  O   UNL A   1      45.637  19.685  35.592  1.00  0.00    -0.237 OA
ATOM     94  O   UNL A   1      47.811  20.829  35.782  1.00  0.00    -0.744 OA
ENDBRANCH  90  91
ENDBRANCH  64  85
ENDBRANCH  38  39
ENDBRANCH  31  33
ENDBRANCH  30  31
ENDBRANCH   1  30
TORSDOF 17
ENDMDL
MODEL 2
REMARK VINA RESULT:     -13.1      1.828      4.319
REMARK SMILES Cc1cccc(OC2(C(=O)OCCOC(=O)c3ccc(-c4c5nc(c(-c6ccc(S(=O)(=O)[O-])cc6)c6ccc([nH]6)c(-c6ccc(S(=O)(=O)[O-])cc6)c6nc(c(-c7ccc(S(=O)(=O)[O-])cc7)c7ccc4[nH]7)C=C6)C=C5)cc3)CCN(C(=O)c3cnc[nH]c3=O)CC2)c1
REMARK SMILES IDX 13 1 12 2 11 3 9 4 10 5 8 6 77 7 90 8 78 9 89 10 79 11 80 12
REMARK SMILES IDX 81 13 7 14 6 15 1 16 2 17 3 18 91 19 4 20 5 21 82 22 83 23
REMARK SMILES IDX 87 24 84 25 86 26 88 27 85 28 14 30 15 31 16 32 17 33 18 34
REMARK SMILES IDX 76 35 19 36 75 37 20 38 21 39 22 40 69 41 23 42 74 43 68 44
REMARK SMILES IDX 70 45 24 46 73 47 67 48 66 49 25 51 55 52 36 53 54 54 37 55
REMARK SMILES IDX 40 56 53 57 71 58 38 59 39 60 52 62 72 63 41 64 26 65 27 66
REMARK SMILES IDX 35 67 28 68 34 69 29 70 30 71 31 72 32 73 33 74 56 75 57 76
REMARK SMILES IDX 65 77 58 78 64 79 59 80 60 81 61 82 62 83 63 84 42 85 43 86
REMARK SMILES IDX 51 87 44 88 50 89 45 90 46 91 47 92 48 93 49 94
REMARK H PARENT 86 29 70 50 40 61
REMARK Flexibility Score: inf
ROOT
ATOM      1  C   UNL A   1      34.597  29.786  27.274  1.00  0.00     0.275 C 
ENDROOT
BRANCH   1   2
ATOM      2  C   UNL A   1      33.098  29.408  27.325  1.00  0.00     0.274 C 
BRANCH   2   3
ATOM      3  O   UNL A   1      32.954  28.179  26.623  1.00  0.00    -0.459 OA
BRANCH   3   4
ATOM      4  C   UNL A   1      31.749  27.717  26.190  1.00  0.00     0.350 C 
ATOM      5  O   UNL A   1      30.897  27.203  26.897  1.00  0.00    -0.247 OA
BRANCH   4   6
ATOM      6  C   UNL A   1      31.829  27.679  24.649  1.00  0.00     0.209 C 
ATOM      7  C   UNL A   1      30.619  26.720  24.402  1.00  0.00     0.082 C 
ATOM      8  C   UNL A   1      31.659  29.085  24.051  1.00  0.00     0.082 C 
ATOM      9  C   UNL A   1      29.870  26.896  23.111  1.00  0.00     0.124 C 
ATOM     10  C   UNL A   1      31.086  28.951  22.649  1.00  0.00     0.124 C 
ATOM     11  N   UNL A   1      29.788  28.298  22.790  1.00  0.00    -0.338 N 
ATOM     12  C   UNL A   1      28.635  29.013  23.084  1.00  0.00     0.261 C 
ATOM     13  O   UNL A   1      27.758  28.637  23.855  1.00  0.00    -0.269 OA
BRANCH   6  14
ATOM     14  O   UNL A   1      33.178  27.331  24.325  1.00  0.00    -0.475 OA
BRANCH  14  15
ATOM     15  C   UNL A   1      33.725  26.117  24.073  1.00  0.00     0.121 A 
ATOM     16  C   UNL A   1      33.198  23.090  21.874  1.00  0.00     0.044 C 
ATOM     17  C   UNL A   1      33.747  23.953  22.969  1.00  0.00    -0.047 A 
ATOM     18  C   UNL A   1      34.422  23.389  24.051  1.00  0.00     0.003 A 
ATOM     19  C   UNL A   1      33.441  25.322  22.976  1.00  0.00     0.050 A 
ATOM     20  C   UNL A   1      34.781  24.190  25.131  1.00  0.00     0.004 A 
ATOM     21  C   UNL A   1      34.427  25.544  25.142  1.00  0.00     0.046 A 
ENDBRANCH  14  15
ENDBRANCH   6  14
BRANCH  12  22
ATOM     22  C   UNL A   1      28.524  30.280  22.347  1.00  0.00     0.123 A 
ATOM     23  C   UNL A   1      28.078  30.318  21.084  1.00  0.00     0.132 A 
ATOM     24  C   UNL A   1      28.772  31.564  23.026  1.00  0.00     0.263 A 
ATOM     25  N   UNL A   1      27.812  31.476  20.387  1.00  0.00    -0.246 NA
ATOM     26  N   UNL A   1      28.414  32.669  22.314  1.00  0.00    -0.312 N 
ATOM     27  O   UNL A   1      29.254  31.661  24.149  1.00  0.00    -0.269 OA
ATOM     28  C   UNL A   1      27.967  32.584  21.029  1.00  0.00     0.199 A 
ATOM     29  H   UNL A   1      28.479  33.555  22.740  1.00  0.00     0.171 HD
ENDBRANCH  12  22
ENDBRANCH   4   6
ENDBRANCH   3   4
ENDBRANCH   2   3
ENDBRANCH   1   2
BRANCH   1  30
ATOM     30  O   UNL A   1      35.351  29.938  28.508  1.00  0.00    -0.458 OA
BRANCH  30  31
ATOM     31  C   UNL A   1      36.591  30.530  28.457  1.00  0.00     0.338 C 
ATOM     32  O   UNL A   1      36.789  31.657  28.847  1.00  0.00    -0.246 OA
BRANCH  31  33
ATOM     33  C   UNL A   1      37.595  29.452  28.167  1.00  0.00     0.060 A 
ATOM     34  C   UNL A   1      38.498  29.586  27.099  1.00  0.00     0.016 A 
ATOM     35  C   UNL A   1      37.902  28.638  29.250  1.00  0.00     0.016 A 
ATOM     36  C   UNL A   1      39.794  29.081  27.215  1.00  0.00     0.010 A 
ATOM     37  C   UNL A   1      39.216  28.338  29.465  1.00  0.00     0.010 A 
ATOM     38  C   UNL A   1      40.157  28.521  28.439  1.00  0.00    -0.014 A 
BRANCH  38  39
ATOM     39  C   UNL A   1      41.353  27.725  28.669  1.00  0.00     0.031 A 
ATOM     40  C   UNL A   1      41.408  26.309  28.251  1.00  0.00     0.074 A 
ATOM     41  C   UNL A   1      42.336  28.526  29.151  1.00  0.00     0.049 A 
ATOM     42  N   UNL A   1      41.801  25.324  28.988  1.00  0.00    -0.248 NA
ATOM     43  C   UNL A   1      40.920  25.859  26.938  1.00  0.00     0.031 C 
ATOM     44  C   UNL A   1      43.761  28.357  29.310  1.00  0.00     0.029 A 
ATOM     45  N   UNL A   1      42.112  29.797  29.726  1.00  0.00    -0.354 N 
ATOM     46  C   UNL A   1      42.019  24.273  28.105  1.00  0.00     0.074 A 
ATOM     47  C   UNL A   1      41.208  24.549  26.950  1.00  0.00     0.031 C 
ATOM     48  C   UNL A   1      44.187  29.246  30.236  1.00  0.00     0.029 A 
ATOM     49  C   UNL A   1      43.018  29.960  30.752  1.00  0.00     0.049 A 
ATOM     50  H   UNL A   1      41.431  30.449  29.444  1.00  0.00     0.167 HD
ATOM     51  C   UNL A   1      43.170  23.539  28.180  1.00  0.00     0.031 A 
ATOM     52  C   UNL A   1      42.543  29.985  32.033  1.00  0.00     0.031 A 
ATOM     53  C   UNL A   1      44.066  24.173  29.136  1.00  0.00     0.049 A 
ATOM     54  C   UNL A   1      42.998  28.718  32.699  1.00  0.00     0.074 A 
ATOM     55  C   UNL A   1      45.097  25.074  28.925  1.00  0.00     0.029 A 
ATOM     56  N   UNL A   1      43.719  24.259  30.473  1.00  0.00    -0.354 N 
ATOM     57  N   UNL A   1      43.074  27.558  32.103  1.00  0.00    -0.248 NA
ATOM     58  C   UNL A   1      43.555  28.725  34.043  1.00  0.00     0.031 C 
ATOM     59  C   UNL A   1      45.352  25.729  30.151  1.00  0.00     0.029 A 
ATOM     60  C   UNL A   1      44.438  25.266  31.083  1.00  0.00     0.049 A 
ATOM     61  H   UNL A   1      43.056  23.685  30.923  1.00  0.00     0.167 HD
ATOM     62  C   UNL A   1      43.818  26.722  32.897  1.00  0.00     0.074 A 
ATOM     63  C   UNL A   1      44.054  27.482  34.114  1.00  0.00     0.031 C 
ATOM     64  C   UNL A   1      44.295  25.506  32.502  1.00  0.00     0.031 A 
BRANCH  51  65
ATOM     65  C   UNL A   1      43.683  22.571  27.130  1.00  0.00    -0.014 A 
ATOM     66  C   UNL A   1      42.940  21.399  26.863  1.00  0.00     0.010 A 
ATOM     67  C   UNL A   1      44.837  22.767  26.344  1.00  0.00     0.010 A 
ATOM     68  C   UNL A   1      43.338  20.445  25.922  1.00  0.00     0.020 A 
ATOM     69  C   UNL A   1      45.252  21.811  25.390  1.00  0.00     0.020 A 
ATOM     70  C   UNL A   1      44.499  20.651  25.190  1.00  0.00     0.054 A 
BRANCH  70  71
ATOM     71  S   UNL A   1      44.967  19.392  23.970  1.00  0.00     0.124 S 
ATOM     72  O   UNL A   1      46.423  19.357  24.097  1.00  0.00    -0.237 OA
ATOM     73  O   UNL A   1      44.268  18.206  24.456  1.00  0.00    -0.237 OA
ATOM     74  O   UNL A   1      44.470  19.930  22.706  1.00  0.00    -0.744 OA
ENDBRANCH  70  71
ENDBRANCH  51  65
BRANCH  52  75
ATOM     75  C   UNL A   1      41.205  30.654  32.225  1.00  0.00    -0.014 A 
ATOM     76  C   UNL A   1      40.128  29.833  32.641  1.00  0.00     0.010 A 
ATOM     77  C   UNL A   1      41.033  32.048  32.313  1.00  0.00     0.010 A 
ATOM     78  C   UNL A   1      38.974  30.369  33.226  1.00  0.00     0.020 A 
ATOM     79  C   UNL A   1      39.861  32.593  32.882  1.00  0.00     0.020 A 
ATOM     80  C   UNL A   1      38.855  31.747  33.365  1.00  0.00     0.054 A 
BRANCH  80  81
ATOM     81  S   UNL A   1      37.483  32.387  34.379  1.00  0.00     0.124 S 
ATOM     82  O   UNL A   1      36.320  32.112  33.543  1.00  0.00    -0.237 OA
ATOM     83  O   UNL A   1      37.593  31.582  35.594  1.00  0.00    -0.237 OA
ATOM     84  O   UNL A   1      37.825  33.796  34.525  1.00  0.00    -0.744 OA
ENDBRANCH  80  81
ENDBRANCH  52  75
BRANCH  64  85
ATOM     85  C   UNL A   1      44.820  24.446  33.427  1.00  0.00    -0.014 A 
ATOM     86  C   UNL A   1      46.128  24.447  33.921  1.00  0.00     0.010 A 
ATOM     87  C   UNL A   1      43.925  23.482  33.957  1.00  0.00     0.010 A 
ATOM     88  C   UNL A   1      46.556  23.473  34.821  1.00  0.00     0.020 A 
ATOM     89  C   UNL A   1      44.321  22.551  34.912  1.00  0.00     0.020 A 
ATOM     90  C   UNL A   1      45.650  22.529  35.306  1.00  0.00     0.054 A 
BRANCH  90  91
ATOM     91  S   UNL A   1      46.226  21.297  36.488  1.00  0.00     0.124 S 
ATOM     92  O   UNL A   1      45.841  21.907  37.758  1.00  0.00    -0.237 OA
ATOM     93  O   UNL A   1      45.467  20.108  36.107  1.00  0.00    -0.237 OA
ATOM     94  O   UNL A   1      47.662  21.219  36.237  1.00  0.00    -0.744 OA
ENDBRANCH  90  91
ENDBRANCH  64  85
ENDBRANCH  38  39
ENDBRANCH  31  33
ENDBRANCH  30  31
ENDBRANCH   1  30
TORSDOF 17
ENDMDL
MODEL 3
REMARK VINA RESULT:     -12.8      2.611      5.036
REMARK SMILES Cc1cccc(OC2(C(=O)OCCOC(=O)c3ccc(-c4c5nc(c(-c6ccc(S(=O)(=O)[O-])cc6)c6ccc([nH]6)c(-c6ccc(S(=O)(=O)[O-])cc6)c6nc(c(-c7ccc(S(=O)(=O)[O-])cc7)c7ccc4[nH]7)C=C6)C=C5)cc3)CCN(C(=O)c3cnc[nH]c3=O)CC2)c1
REMARK SMILES IDX 13 1 12 2 11 3 9 4 10 5 8 6 77 7 90 8 78 9 89 10 79 11 80 12
REMARK SMILES IDX 81 13 7 14 6 15 1 16 2 17 3 18 91 19 4 20 5 21 82 22 83 23
REMARK SMILES IDX 87 24 84 25 86 26 88 27 85 28 14 30 15 31 16 32 17 33 18 34
REMARK SMILES IDX 76 35 19 36 75 37 20 38 21 39 22 40 69 41 23 42 74 43 68 44
REMARK SMILES IDX 70 45 24 46 73 47 67 48 66 49 25 51 55 52 36 53 54 54 37 55
REMARK SMILES IDX 40 56 53 57 71 58 38 59 39 60 52 62 72 63 41 64 26 65 27 66
REMARK SMILES IDX 35 67 28 68 34 69 29 70 30 71 31 72 32 73 33 74 56 75 57 76
REMARK SMILES IDX 65 77 58 78 64 79 59 80 60 81 61 82 62 83 63 84 42 85 43 86
REMARK SMILES IDX 51 87 44 88 50 89 45 90 46 91 47 92 48 93 49 94
REMARK H PARENT 86 29 70 50 40 61
REMARK Flexibility Score: inf
ROOT
ATOM      1  C   UNL A   1      33.453  30.794  27.243  1.00  0.00     0.275 C 
ENDROOT
BRANCH   1   2
ATOM      2  C   UNL A   1      33.147  29.279  27.295  1.00  0.00     0.274 C 
BRANCH   2   3
ATOM      3  O   UNL A   1      31.867  29.092  26.700  1.00  0.00    -0.459 OA
BRANCH   3   4
ATOM      4  C   UNL A   1      31.426  27.877  26.273  1.00  0.00     0.350 C 
ATOM      5  O   UNL A   1      31.176  26.925  26.995  1.00  0.00    -0.247 OA
BRANCH   4   6
ATOM      6  C   UNL A   1      31.626  27.859  24.742  1.00  0.00     0.209 C 
ATOM      7  C   UNL A   1      30.468  26.867  24.394  1.00  0.00     0.082 C 
ATOM      8  C   UNL A   1      31.458  29.266  24.146  1.00  0.00     0.082 C 
ATOM      9  C   UNL A   1      29.815  27.035  23.051  1.00  0.00     0.124 C 
ATOM     10  C   UNL A   1      30.998  29.132  22.703  1.00  0.00     0.124 C 
ATOM     11  N   UNL A   1      29.715  28.437  22.737  1.00  0.00    -0.338 N 
ATOM     12  C   UNL A   1      28.521  29.113  22.949  1.00  0.00     0.261 C 
ATOM     13  O   UNL A   1      27.599  28.702  23.646  1.00  0.00    -0.269 OA
BRANCH   6  14
ATOM     14  O   UNL A   1      33.005  27.556  24.520  1.00  0.00    -0.475 OA
BRANCH  14  15
ATOM     15  C   UNL A   1      33.606  26.364  24.280  1.00  0.00     0.121 A 
ATOM     16  C   UNL A   1      33.301  23.360  22.009  1.00  0.00     0.044 C 
ATOM     17  C   UNL A   1      33.760  24.222  23.146  1.00  0.00    -0.047 A 
ATOM     18  C   UNL A   1      34.391  23.661  24.256  1.00  0.00     0.003 A 
ATOM     19  C   UNL A   1      33.409  25.580  23.157  1.00  0.00     0.050 A 
ATOM     20  C   UNL A   1      34.663  24.454  25.366  1.00  0.00     0.004 A 
ATOM     21  C   UNL A   1      34.266  25.796  25.378  1.00  0.00     0.046 A 
ENDBRANCH  14  15
ENDBRANCH   6  14
BRANCH  12  22
ATOM     22  C   UNL A   1      28.428  30.385  22.216  1.00  0.00     0.123 A 
ATOM     23  C   UNL A   1      28.010  30.431  20.945  1.00  0.00     0.132 A 
ATOM     24  C   UNL A   1      28.662  31.665  22.909  1.00  0.00     0.263 A 
ATOM     25  N   UNL A   1      27.761  31.593  20.249  1.00  0.00    -0.246 NA
ATOM     26  N   UNL A   1      28.320  32.775  22.196  1.00  0.00    -0.312 N 
ATOM     27  O   UNL A   1      29.119  31.755  24.043  1.00  0.00    -0.269 OA
ATOM     28  C   UNL A   1      27.902  32.697  20.901  1.00  0.00     0.199 A 
ATOM     29  H   UNL A   1      28.377  33.658  22.629  1.00  0.00     0.171 HD
ENDBRANCH  12  22
ENDBRANCH   4   6
ENDBRANCH   3   4
ENDBRANCH   2   3
ENDBRANCH   1   2
BRANCH   1  30
ATOM     30  O   UNL A   1      34.085  31.447  28.378  1.00  0.00    -0.458 OA
BRANCH  30  31
ATOM     31  C   UNL A   1      35.220  32.194  28.164  1.00  0.00     0.338 C 
ATOM     32  O   UNL A   1      35.195  33.267  27.607  1.00  0.00    -0.246 OA
BRANCH  31  33
ATOM     33  C   UNL A   1      36.315  31.602  29.001  1.00  0.00     0.060 A 
ATOM     34  C   UNL A   1      36.215  30.283  29.479  1.00  0.00     0.016 A 
ATOM     35  C   UNL A   1      37.560  32.197  28.836  1.00  0.00     0.016 A 
ATOM     36  C   UNL A   1      37.361  29.492  29.583  1.00  0.00     0.010 A 
ATOM     37  C   UNL A   1      38.645  31.378  28.722  1.00  0.00     0.010 A 
ATOM     38  C   UNL A   1      38.561  30.037  29.130  1.00  0.00    -0.014 A 
BRANCH  38  39
ATOM     39  C   UNL A   1      39.880  29.478  29.387  1.00  0.00     0.031 A 
ATOM     40  C   UNL A   1      40.232  28.127  28.904  1.00  0.00     0.074 A 
ATOM     41  C   UNL A   1      40.661  30.425  29.962  1.00  0.00     0.049 A 
ATOM     42  N   UNL A   1      40.779  27.195  29.612  1.00  0.00    -0.248 NA
ATOM     43  C   UNL A   1      39.902  27.669  27.545  1.00  0.00     0.031 C 
ATOM     44  C   UNL A   1      42.083  30.528  30.191  1.00  0.00     0.029 A 
ATOM     45  N   UNL A   1      40.165  31.592  30.586  1.00  0.00    -0.354 N 
ATOM     46  C   UNL A   1      41.240  26.261  28.692  1.00  0.00     0.074 A 
ATOM     47  C   UNL A   1      40.443  26.442  27.508  1.00  0.00     0.031 C 
ATOM     48  C   UNL A   1      42.283  31.427  31.183  1.00  0.00     0.029 A 
ATOM     49  C   UNL A   1      40.974  31.867  31.667  1.00  0.00     0.049 A 
ATOM     50  H   UNL A   1      39.382  32.114  30.298  1.00  0.00     0.167 HD
ATOM     51  C   UNL A   1      42.508  25.763  28.795  1.00  0.00     0.031 A 
ATOM     52  C   UNL A   1      40.447  31.724  32.919  1.00  0.00     0.031 A 
ATOM     53  C   UNL A   1      43.218  26.503  29.829  1.00  0.00     0.049 A 
ATOM     54  C   UNL A   1      41.113  30.533  33.547  1.00  0.00     0.074 A 
ATOM     55  C   UNL A   1      44.058  27.598  29.720  1.00  0.00     0.029 A 
ATOM     56  N   UNL A   1      42.801  26.439  31.147  1.00  0.00    -0.354 N 
ATOM     57  N   UNL A   1      41.443  29.446  32.899  1.00  0.00    -0.248 NA
ATOM     58  C   UNL A   1      41.597  30.568  34.918  1.00  0.00     0.031 C 
ATOM     59  C   UNL A   1      44.123  28.217  30.989  1.00  0.00     0.029 A 
ATOM     60  C   UNL A   1      43.279  27.529  31.845  1.00  0.00     0.049 A 
ATOM     61  H   UNL A   1      42.245  25.722  31.530  1.00  0.00     0.167 HD
ATOM     62  C   UNL A   1      42.302  28.726  33.691  1.00  0.00     0.074 A 
ATOM     63  C   UNL A   1      42.328  29.444  34.955  1.00  0.00     0.031 C 
ATOM     64  C   UNL A   1      43.027  27.652  33.264  1.00  0.00     0.031 A 
BRANCH  51  65
ATOM     65  C   UNL A   1      43.250  24.979  27.728  1.00  0.00    -0.014 A 
ATOM     66  C   UNL A   1      44.014  25.685  26.771  1.00  0.00     0.010 A 
ATOM     67  C   UNL A   1      43.286  23.573  27.636  1.00  0.00     0.010 A 
ATOM     68  C   UNL A   1      44.721  25.051  25.746  1.00  0.00     0.020 A 
ATOM     69  C   UNL A   1      43.998  22.918  26.604  1.00  0.00     0.020 A 
ATOM     70  C   UNL A   1      44.708  23.666  25.662  1.00  0.00     0.054 A 
BRANCH  70  71
ATOM     71  S   UNL A   1      45.654  22.887  24.324  1.00  0.00     0.124 S 
ATOM     72  O   UNL A   1      46.339  21.797  25.016  1.00  0.00    -0.237 OA
ATOM     73  O   UNL A   1      44.606  22.476  23.393  1.00  0.00    -0.237 OA
ATOM     74  O   UNL A   1      46.524  23.957  23.844  1.00  0.00    -0.744 OA
ENDBRANCH  70  71
ENDBRANCH  51  65
BRANCH  52  75
ATOM     75  C   UNL A   1      38.995  32.105  33.070  1.00  0.00    -0.014 A 
ATOM     76  C   UNL A   1      38.683  33.486  33.024  1.00  0.00     0.010 A 
ATOM     77  C   UNL A   1      37.931  31.192  32.949  1.00  0.00     0.010 A 
ATOM     78  C   UNL A   1      37.387  33.942  32.755  1.00  0.00     0.020 A 
ATOM     79  C   UNL A   1      36.617  31.649  32.701  1.00  0.00     0.020 A 
ATOM     80  C   UNL A   1      36.362  33.019  32.572  1.00  0.00     0.054 A 
BRANCH  80  81
ATOM     81  S   UNL A   1      34.764  33.633  31.946  1.00  0.00     0.124 S 
ATOM     82  O   UNL A   1      35.168  34.480  30.829  1.00  0.00    -0.237 OA
ATOM     83  O   UNL A   1      34.076  32.395  31.584  1.00  0.00    -0.237 OA
ATOM     84  O   UNL A   1      34.222  34.340  33.098  1.00  0.00    -0.744 OA
ENDBRANCH  80  81
ENDBRANCH  52  75
BRANCH  64  85
ATOM     85  C   UNL A   1      43.709  26.662  34.163  1.00  0.00    -0.014 A 
ATOM     86  C   UNL A   1      43.011  25.785  34.999  1.00  0.00     0.010 A 
ATOM     87  C   UNL A   1      45.113  26.487  34.063  1.00  0.00     0.010 A 
ATOM     88  C   UNL A   1      43.685  24.845  35.776  1.00  0.00     0.020 A 
ATOM     89  C   UNL A   1      45.788  25.502  34.777  1.00  0.00     0.020 A 
ATOM     90  C   UNL A   1      45.069  24.714  35.663  1.00  0.00     0.054 A 
BRANCH  90  91
ATOM     91  S   UNL A   1      45.911  23.473  36.662  1.00  0.00     0.124 S 
ATOM     92  O   UNL A   1      45.462  23.826  38.007  1.00  0.00    -0.237 OA
ATOM     93  O   UNL A   1      45.378  22.219  36.132  1.00  0.00    -0.237 OA
ATOM     94  O   UNL A   1      47.325  23.707  36.388  1.00  0.00    -0.744 OA
ENDBRANCH  90  91
ENDBRANCH  64  85
ENDBRANCH  38  39
ENDBRANCH  31  33
ENDBRANCH  30  31
ENDBRANCH   1  30
TORSDOF 17
ENDMDL
