MODEL 1
REMARK VINA RESULT:     -11.0      0.000      0.000
REMARK SMILES COc1ccc(NC(=O)NCc2ccc(C(=O)OCCOC(=O)c3ccc(-c4c5nc(c(-c6ccc(S(=O)(=O)[O-])cc6)c6ccc([nH]6)c(-c6ccc(S(=O)(=O)[O-])cc6)c6nc(c(-c7ccc(S(=O)(=O)[O-])cc7)c7ccc4[nH]7)C=C6)C=C5)cc3)cc2)c(OC)c1
REMARK SMILES IDX 19 1 18 2 16 3 17 4 15 5 12 6 13 7 85 8 14 9 84 10 11 11
REMARK SMILES IDX 10 12 7 13 8 14 9 16 6 18 3 19 4 20 89 21 5 22 86 23 2 24
REMARK SMILES IDX 1 25 87 26 88 27 20 28 21 29 22 30 23 31 24 32 25 33 83 34
REMARK SMILES IDX 26 35 82 36 27 37 28 38 29 39 76 40 30 41 81 42 75 43 77 44
REMARK SMILES IDX 31 45 80 46 74 47 73 48 32 50 62 51 43 52 61 53 44 54 47 55
REMARK SMILES IDX 60 56 78 57 45 58 46 59 59 61 79 62 48 63 33 64 34 65 42 66
REMARK SMILES IDX 35 67 41 68 36 69 37 70 38 71 39 72 40 73 63 74 64 75 72 76
REMARK SMILES IDX 65 77 71 78 66 79 67 80 68 81 69 82 70 83 49 84 50 85 58 86
REMARK SMILES IDX 51 87 57 88 52 89 53 90 54 91 55 92 56 93
REMARK H PARENT 7 15 10 17 77 49 47 60
REMARK Flexibility Score: inf
ROOT
ATOM      1  C   UNL A   1      34.496  32.239  27.790  1.00  0.00     0.275 C 
ENDROOT
BRANCH   1   2
ATOM      2  O   UNL A   1      34.262  30.868  27.418  1.00  0.00    -0.458 OA
BRANCH   2   3
ATOM      3  C   UNL A   1      33.002  30.577  27.013  1.00  0.00     0.338 C 
ATOM      4  O   UNL A   1      32.091  31.372  26.843  1.00  0.00    -0.246 OA
BRANCH   3   5
ATOM      5  C   UNL A   1      32.886  29.137  26.697  1.00  0.00     0.060 A 
ATOM      6  C   UNL A   1      32.643  26.387  26.259  1.00  0.00    -0.029 A 
ATOM      7  C   UNL A   1      31.609  27.067  26.887  1.00  0.00     0.006 A 
ATOM      8  C   UNL A   1      33.775  27.101  25.803  1.00  0.00     0.006 A 
ATOM      9  C   UNL A   1      31.765  28.424  27.149  1.00  0.00     0.016 A 
ATOM     10  C   UNL A   1      33.894  28.471  26.007  1.00  0.00     0.016 A 
BRANCH   6  11
ATOM     11  C   UNL A   1      32.714  24.892  26.301  1.00  0.00     0.153 C 
BRANCH  11  12
ATOM     12  N   UNL A   1      31.738  24.162  27.057  1.00  0.00    -0.334 N 
ATOM     13  N   UNL A   1      30.211  23.375  25.389  1.00  0.00    -0.305 N 
ATOM     14  C   UNL A   1      30.662  23.445  26.667  1.00  0.00     0.319 C 
ATOM     15  H   UNL A   1      29.315  22.975  25.315  1.00  0.00     0.172 HD
ATOM     16  O   UNL A   1      29.981  22.912  27.549  1.00  0.00    -0.248 OA
ATOM     17  H   UNL A   1      31.877  24.188  28.031  1.00  0.00     0.165 HD
BRANCH  13  18
ATOM     18  C   UNL A   1      30.752  23.755  24.147  1.00  0.00     0.085 A 
ATOM     19  C   UNL A   1      32.305  24.894  22.120  1.00  0.00     0.122 A 
ATOM     20  C   UNL A   1      32.438  23.539  22.435  1.00  0.00     0.049 A 
ATOM     21  C   UNL A   1      31.266  25.625  22.696  1.00  0.00     0.095 A 
ATOM     22  C   UNL A   1      31.638  22.956  23.425  1.00  0.00     0.034 A 
ATOM     23  C   UNL A   1      30.449  25.033  23.665  1.00  0.00     0.146 A 
BRANCH  19  24
ATOM     24  O   UNL A   1      33.240  25.386  21.252  1.00  0.00    -0.497 OA
ATOM     25  C   UNL A   1      32.840  25.534  19.894  1.00  0.00     0.278 C 
ENDBRANCH  19  24
BRANCH  23  26
ATOM     26  O   UNL A   1      29.416  25.719  24.256  1.00  0.00    -0.494 OA
ATOM     27  C   UNL A   1      29.378  27.085  23.838  1.00  0.00     0.278 C 
ENDBRANCH  23  26
ENDBRANCH  13  18
ENDBRANCH  11  12
ENDBRANCH   6  11
ENDBRANCH   3   5
ENDBRANCH   2   3
ENDBRANCH   1   2
BRANCH   1  28
ATOM     28  C   UNL A   1      34.613  32.374  29.308  1.00  0.00     0.275 C 
BRANCH  28  29
ATOM     29  O   UNL A   1      35.994  32.380  29.721  1.00  0.00    -0.458 OA
BRANCH  29  30
ATOM     30  C   UNL A   1      36.336  31.403  30.593  1.00  0.00     0.338 C 
ATOM     31  O   UNL A   1      35.755  31.098  31.622  1.00  0.00    -0.246 OA
BRANCH  30  32
ATOM     32  C   UNL A   1      37.501  30.644  30.109  1.00  0.00     0.060 A 
ATOM     33  C   UNL A   1      38.338  30.074  31.053  1.00  0.00     0.016 A 
ATOM     34  C   UNL A   1      37.907  30.704  28.781  1.00  0.00     0.016 A 
ATOM     35  C   UNL A   1      39.652  29.754  30.723  1.00  0.00     0.010 A 
ATOM     36  C   UNL A   1      39.165  30.195  28.417  1.00  0.00     0.010 A 
ATOM     37  C   UNL A   1      40.087  29.764  29.391  1.00  0.00    -0.014 A 
BRANCH  37  38
ATOM     38  C   UNL A   1      41.483  29.335  29.039  1.00  0.00     0.031 A 
ATOM     39  C   UNL A   1      42.638  30.314  29.099  1.00  0.00     0.074 A 
ATOM     40  C   UNL A   1      41.737  28.059  28.668  1.00  0.00     0.049 A 
ATOM     41  N   UNL A   1      43.860  30.180  28.641  1.00  0.00    -0.248 NA
ATOM     42  C   UNL A   1      42.385  31.619  29.732  1.00  0.00     0.031 C 
ATOM     43  C   UNL A   1      40.748  26.976  28.595  1.00  0.00     0.029 A 
ATOM     44  N   UNL A   1      42.908  27.443  28.292  1.00  0.00    -0.354 N 
ATOM     45  C   UNL A   1      44.492  31.402  28.864  1.00  0.00     0.074 A 
ATOM     46  C   UNL A   1      43.517  32.268  29.491  1.00  0.00     0.031 C 
ATOM     47  C   UNL A   1      41.361  25.829  28.280  1.00  0.00     0.029 A 
ATOM     48  C   UNL A   1      42.757  26.109  27.981  1.00  0.00     0.049 A 
ATOM     49  H   UNL A   1      43.774  27.911  28.249  1.00  0.00     0.167 HD
ATOM     50  C   UNL A   1      45.764  31.772  28.569  1.00  0.00     0.031 A 
ATOM     51  C   UNL A   1      43.611  25.211  27.453  1.00  0.00     0.031 A 
ATOM     52  C   UNL A   1      46.749  30.890  27.992  1.00  0.00     0.049 A 
ATOM     53  C   UNL A   1      44.998  25.653  27.089  1.00  0.00     0.074 A 
ATOM     54  C   UNL A   1      48.070  31.163  27.677  1.00  0.00     0.029 A 
ATOM     55  N   UNL A   1      46.529  29.561  27.659  1.00  0.00    -0.354 N 
ATOM     56  N   UNL A   1      45.554  26.828  27.254  1.00  0.00    -0.248 NA
ATOM     57  C   UNL A   1      45.865  24.654  26.452  1.00  0.00     0.031 C 
ATOM     58  C   UNL A   1      48.630  30.019  27.100  1.00  0.00     0.029 A 
ATOM     59  C   UNL A   1      47.681  29.011  27.120  1.00  0.00     0.049 A 
ATOM     60  H   UNL A   1      45.679  29.080  27.787  1.00  0.00     0.167 HD
ATOM     61  C   UNL A   1      46.844  26.706  26.755  1.00  0.00     0.074 A 
ATOM     62  C   UNL A   1      46.992  25.337  26.305  1.00  0.00     0.031 C 
ATOM     63  C   UNL A   1      47.818  27.646  26.675  1.00  0.00     0.031 A 
BRANCH  50  64
ATOM     64  C   UNL A   1      46.163  33.208  28.817  1.00  0.00    -0.014 A 
ATOM     65  C   UNL A   1      46.043  34.197  27.824  1.00  0.00     0.010 A 
ATOM     66  C   UNL A   1      46.618  33.585  30.096  1.00  0.00     0.010 A 
ATOM     67  C   UNL A   1      46.412  35.520  28.092  1.00  0.00     0.020 A 
ATOM     68  C   UNL A   1      46.957  34.911  30.378  1.00  0.00     0.020 A 
ATOM     69  C   UNL A   1      46.870  35.869  29.367  1.00  0.00     0.054 A 
BRANCH  69  70
ATOM     70  S   UNL A   1      47.324  37.596  29.693  1.00  0.00     0.124 S 
ATOM     71  O   UNL A   1      48.554  37.736  28.916  1.00  0.00    -0.237 OA
ATOM     72  O   UNL A   1      46.171  38.333  29.181  1.00  0.00    -0.237 OA
ATOM     73  O   UNL A   1      47.497  37.643  31.143  1.00  0.00    -0.744 OA
ENDBRANCH  69  70
ENDBRANCH  50  64
BRANCH  51  74
ATOM     74  C   UNL A   1      43.148  23.821  27.171  1.00  0.00    -0.014 A 
ATOM     75  C   UNL A   1      42.724  23.451  25.884  1.00  0.00     0.010 A 
ATOM     76  C   UNL A   1      43.159  22.848  28.191  1.00  0.00     0.010 A 
ATOM     77  C   UNL A   1      42.311  22.140  25.623  1.00  0.00     0.020 A 
ATOM     78  C   UNL A   1      42.785  21.529  27.924  1.00  0.00     0.020 A 
ATOM     79  C   UNL A   1      42.352  21.186  26.644  1.00  0.00     0.054 A 
BRANCH  79  80
ATOM     80  S   UNL A   1      41.873  19.477  26.266  1.00  0.00     0.124 S 
ATOM     81  O   UNL A   1      40.440  19.611  26.021  1.00  0.00    -0.237 OA
ATOM     82  O   UNL A   1      42.690  19.171  25.095  1.00  0.00    -0.237 OA
ATOM     83  O   UNL A   1      42.235  18.744  27.477  1.00  0.00    -0.744 OA
ENDBRANCH  79  80
ENDBRANCH  51  74
BRANCH  63  84
ATOM     84  C   UNL A   1      49.148  27.213  26.120  1.00  0.00    -0.014 A 
ATOM     85  C   UNL A   1      50.105  26.573  26.928  1.00  0.00     0.010 A 
ATOM     86  C   UNL A   1      49.425  27.417  24.756  1.00  0.00     0.010 A 
ATOM     87  C   UNL A   1      51.331  26.176  26.386  1.00  0.00     0.020 A 
ATOM     88  C   UNL A   1      50.637  26.993  24.206  1.00  0.00     0.020 A 
ATOM     89  C   UNL A   1      51.588  26.388  25.029  1.00  0.00     0.054 A 
BRANCH  89  90
ATOM     90  S   UNL A   1      53.169  25.824  24.342  1.00  0.00     0.124 S 
ATOM     91  O   UNL A   1      54.110  26.780  24.920  1.00  0.00    -0.237 OA
ATOM     92  O   UNL A   1      53.270  24.458  24.851  1.00  0.00    -0.237 OA
ATOM     93  O   UNL A   1      52.980  25.933  22.898  1.00  0.00    -0.744 OA
ENDBRANCH  89  90
ENDBRANCH  63  84
ENDBRANCH  37  38
ENDBRANCH  30  32
ENDBRANCH  29  30
ENDBRANCH  28  29
ENDBRANCH   1  28
TORSDOF 19
ENDMDL
MODEL 2
REMARK VINA RESULT:     -10.8      5.137      9.524
REMARK SMILES COc1ccc(NC(=O)NCc2ccc(C(=O)OCCOC(=O)c3ccc(-c4c5nc(c(-c6ccc(S(=O)(=O)[O-])cc6)c6ccc([nH]6)c(-c6ccc(S(=O)(=O)[O-])cc6)c6nc(c(-c7ccc(S(=O)(=O)[O-])cc7)c7ccc4[nH]7)C=C6)C=C5)cc3)cc2)c(OC)c1
REMARK SMILES IDX 19 1 18 2 16 3 17 4 15 5 12 6 13 7 85 8 14 9 84 10 11 11
REMARK SMILES IDX 10 12 7 13 8 14 9 16 6 18 3 19 4 20 89 21 5 22 86 23 2 24
REMARK SMILES IDX 1 25 87 26 88 27 20 28 21 29 22 30 23 31 24 32 25 33 83 34
REMARK SMILES IDX 26 35 82 36 27 37 28 38 29 39 76 40 30 41 81 42 75 43 77 44
REMARK SMILES IDX 31 45 80 46 74 47 73 48 32 50 62 51 43 52 61 53 44 54 47 55
REMARK SMILES IDX 60 56 78 57 45 58 46 59 59 61 79 62 48 63 33 64 34 65 42 66
REMARK SMILES IDX 35 67 41 68 36 69 37 70 38 71 39 72 40 73 63 74 64 75 72 76
REMARK SMILES IDX 65 77 71 78 66 79 67 80 68 81 69 82 70 83 49 84 50 85 58 86
REMARK SMILES IDX 51 87 57 88 52 89 53 90 54 91 55 92 56 93
REMARK H PARENT 7 15 10 17 77 49 47 60
REMARK Flexibility Score: inf
ROOT
ATOM      1  C   UNL A   1      31.782  30.569  25.588  1.00  0.00     0.275 C 
ENDROOT
BRANCH   1   2
ATOM      2  O   UNL A   1      30.808  29.573  25.223  1.00  0.00    -0.458 OA
BRANCH   2   3
ATOM      3  C   UNL A   1      31.170  28.741  24.217  1.00  0.00     0.338 C 
ATOM      4  O   UNL A   1      31.687  29.061  23.158  1.00  0.00    -0.246 OA
BRANCH   3   5
ATOM      5  C   UNL A   1      30.946  27.333  24.613  1.00  0.00     0.060 A 
ATOM      6  C   UNL A   1      30.680  24.666  25.407  1.00  0.00    -0.029 A 
ATOM      7  C   UNL A   1      31.114  25.608  26.329  1.00  0.00     0.006 A 
ATOM      8  C   UNL A   1      30.328  25.077  24.100  1.00  0.00     0.006 A 
ATOM      9  C   UNL A   1      31.296  26.920  25.908  1.00  0.00     0.016 A 
ATOM     10  C   UNL A   1      30.446  26.405  23.706  1.00  0.00     0.016 A 
BRANCH   6  11
ATOM     11  C   UNL A   1      30.840  23.201  25.673  1.00  0.00     0.153 C 
BRANCH  11  12
ATOM     12  N   UNL A   1      31.397  22.770  26.922  1.00  0.00    -0.334 N 
ATOM     13  N   UNL A   1      33.749  22.673  26.482  1.00  0.00    -0.305 N 
ATOM     14  C   UNL A   1      32.678  22.584  27.310  1.00  0.00     0.319 C 
ATOM     15  H   UNL A   1      34.577  22.319  26.881  1.00  0.00     0.172 HD
ATOM     16  O   UNL A   1      32.873  22.199  28.467  1.00  0.00    -0.248 OA
ATOM     17  H   UNL A   1      30.729  22.576  27.619  1.00  0.00     0.165 HD
BRANCH  13  18
ATOM     18  C   UNL A   1      33.927  23.161  25.176  1.00  0.00     0.085 A 
ATOM     19  C   UNL A   1      33.531  24.200  22.610  1.00  0.00     0.122 A 
ATOM     20  C   UNL A   1      34.073  24.999  23.620  1.00  0.00     0.049 A 
ATOM     21  C   UNL A   1      33.362  22.835  22.843  1.00  0.00     0.095 A 
ATOM     22  C   UNL A   1      34.307  24.473  24.896  1.00  0.00     0.034 A 
ATOM     23  C   UNL A   1      33.622  22.306  24.111  1.00  0.00     0.146 A 
BRANCH  19  24
ATOM     24  O   UNL A   1      33.204  24.859  21.457  1.00  0.00    -0.497 OA
ATOM     25  C   UNL A   1      33.199  26.282  21.512  1.00  0.00     0.278 C 
ENDBRANCH  19  24
BRANCH  23  26
ATOM     26  O   UNL A   1      33.468  20.967  24.379  1.00  0.00    -0.494 OA
ATOM     27  C   UNL A   1      32.420  20.386  23.602  1.00  0.00     0.278 C 
ENDBRANCH  23  26
ENDBRANCH  13  18
ENDBRANCH  11  12
ENDBRANCH   6  11
ENDBRANCH   3   5
ENDBRANCH   2   3
ENDBRANCH   1   2
BRANCH   1  28
ATOM     28  C   UNL A   1      33.055  29.910  26.117  1.00  0.00     0.275 C 
BRANCH  28  29
ATOM     29  O   UNL A   1      33.252  30.213  27.513  1.00  0.00    -0.458 OA
BRANCH  29  30
ATOM     30  C   UNL A   1      34.003  31.312  27.760  1.00  0.00     0.338 C 
ATOM     31  O   UNL A   1      33.623  32.472  27.788  1.00  0.00    -0.246 OA
BRANCH  30  32
ATOM     32  C   UNL A   1      35.389  30.944  28.092  1.00  0.00     0.060 A 
ATOM     33  C   UNL A   1      35.610  29.694  28.644  1.00  0.00     0.016 A 
ATOM     34  C   UNL A   1      36.409  31.888  28.102  1.00  0.00     0.016 A 
ATOM     35  C   UNL A   1      36.763  29.449  29.385  1.00  0.00     0.010 A 
ATOM     36  C   UNL A   1      37.647  31.563  28.681  1.00  0.00     0.010 A 
ATOM     37  C   UNL A   1      37.829  30.358  29.388  1.00  0.00    -0.014 A 
BRANCH  37  38
ATOM     38  C   UNL A   1      39.100  30.045  30.124  1.00  0.00     0.031 A 
ATOM     39  C   UNL A   1      40.061  28.993  29.607  1.00  0.00     0.074 A 
ATOM     40  C   UNL A   1      39.417  30.706  31.261  1.00  0.00     0.049 A 
ATOM     41  N   UNL A   1      41.094  28.450  30.207  1.00  0.00    -0.248 NA
ATOM     42  C   UNL A   1      39.820  28.465  28.255  1.00  0.00     0.031 C 
ATOM     43  C   UNL A   1      38.624  31.777  31.877  1.00  0.00     0.029 A 
ATOM     44  N   UNL A   1      40.498  30.588  32.104  1.00  0.00    -0.354 N 
ATOM     45  C   UNL A   1      41.575  27.472  29.340  1.00  0.00     0.074 A 
ATOM     46  C   UNL A   1      40.717  27.490  28.175  1.00  0.00     0.031 C 
ATOM     47  C   UNL A   1      39.277  32.264  32.940  1.00  0.00     0.029 A 
ATOM     48  C   UNL A   1      40.460  31.452  33.177  1.00  0.00     0.049 A 
ATOM     49  H   UNL A   1      41.230  29.947  31.955  1.00  0.00     0.167 HD
ATOM     50  C   UNL A   1      42.629  26.632  29.500  1.00  0.00     0.031 A 
ATOM     51  C   UNL A   1      41.238  31.553  34.273  1.00  0.00     0.031 A 
ATOM     52  C   UNL A   1      43.513  26.653  30.639  1.00  0.00     0.049 A 
ATOM     53  C   UNL A   1      42.368  30.583  34.454  1.00  0.00     0.074 A 
ATOM     54  C   UNL A   1      44.621  25.858  30.884  1.00  0.00     0.029 A 
ATOM     55  N   UNL A   1      43.402  27.520  31.717  1.00  0.00    -0.354 N 
ATOM     56  N   UNL A   1      42.767  29.629  33.649  1.00  0.00    -0.248 NA
ATOM     57  C   UNL A   1      43.141  30.692  35.697  1.00  0.00     0.031 C 
ATOM     58  C   UNL A   1      45.144  26.205  32.133  1.00  0.00     0.029 A 
ATOM     59  C   UNL A   1      44.406  27.263  32.637  1.00  0.00     0.049 A 
ATOM     60  H   UNL A   1      42.712  28.217  31.812  1.00  0.00     0.167 HD
ATOM     61  C   UNL A   1      43.850  29.032  34.282  1.00  0.00     0.074 A 
ATOM     62  C   UNL A   1      44.057  29.749  35.524  1.00  0.00     0.031 C 
ATOM     63  C   UNL A   1      44.603  27.983  33.871  1.00  0.00     0.031 A 
BRANCH  50  64
ATOM     64  C   UNL A   1      42.866  25.579  28.442  1.00  0.00    -0.014 A 
ATOM     65  C   UNL A   1      43.759  25.782  27.374  1.00  0.00     0.010 A 
ATOM     66  C   UNL A   1      42.215  24.334  28.553  1.00  0.00     0.010 A 
ATOM     67  C   UNL A   1      43.961  24.781  26.418  1.00  0.00     0.020 A 
ATOM     68  C   UNL A   1      42.438  23.320  27.618  1.00  0.00     0.020 A 
ATOM     69  C   UNL A   1      43.297  23.556  26.545  1.00  0.00     0.054 A 
BRANCH  69  70
ATOM     70  S   UNL A   1      43.592  22.268  25.300  1.00  0.00     0.124 S 
ATOM     71  O   UNL A   1      42.549  21.295  25.619  1.00  0.00    -0.237 OA
ATOM     72  O   UNL A   1      43.412  22.990  24.042  1.00  0.00    -0.237 OA
ATOM     73  O   UNL A   1      44.957  21.827  25.572  1.00  0.00    -0.744 OA
ENDBRANCH  69  70
ENDBRANCH  50  64
BRANCH  51  74
ATOM     74  C   UNL A   1      40.923  32.571  35.317  1.00  0.00    -0.014 A 
ATOM     75  C   UNL A   1      40.107  32.247  36.414  1.00  0.00     0.010 A 
ATOM     76  C   UNL A   1      41.466  33.868  35.231  1.00  0.00     0.010 A 
ATOM     77  C   UNL A   1      39.834  33.201  37.400  1.00  0.00     0.020 A 
ATOM     78  C   UNL A   1      41.228  34.811  36.234  1.00  0.00     0.020 A 
ATOM     79  C   UNL A   1      40.403  34.476  37.306  1.00  0.00     0.054 A 
BRANCH  79  80
ATOM     80  S   UNL A   1      40.086  35.676  38.629  1.00  0.00     0.124 S 
ATOM     81  O   UNL A   1      41.371  35.711  39.321  1.00  0.00    -0.237 OA
ATOM     82  O   UNL A   1      39.734  36.882  37.885  1.00  0.00    -0.237 OA
ATOM     83  O   UNL A   1      38.986  35.074  39.380  1.00  0.00    -0.744 OA
ENDBRANCH  79  80
ENDBRANCH  51  74
BRANCH  63  84
ATOM     84  C   UNL A   1      45.752  27.575  34.752  1.00  0.00    -0.014 A 
ATOM     85  C   UNL A   1      47.023  28.160  34.616  1.00  0.00     0.010 A 
ATOM     86  C   UNL A   1      45.542  26.615  35.758  1.00  0.00     0.010 A 
ATOM     87  C   UNL A   1      48.073  27.767  35.451  1.00  0.00     0.020 A 
ATOM     88  C   UNL A   1      46.581  26.242  36.614  1.00  0.00     0.020 A 
ATOM     89  C   UNL A   1      47.844  26.811  36.445  1.00  0.00     0.054 A 
BRANCH  89  90
ATOM     90  S   UNL A   1      49.212  26.350  37.543  1.00  0.00     0.124 S 
ATOM     91  O   UNL A   1      50.348  26.338  36.625  1.00  0.00    -0.237 OA
ATOM     92  O   UNL A   1      49.211  27.431  38.527  1.00  0.00    -0.237 OA
ATOM     93  O   UNL A   1      48.817  25.043  38.061  1.00  0.00    -0.744 OA
ENDBRANCH  89  90
ENDBRANCH  63  84
ENDBRANCH  37  38
ENDBRANCH  30  32
ENDBRANCH  29  30
ENDBRANCH  28  29
ENDBRANCH   1  28
TORSDOF 19
ENDMDL
MODEL 3
REMARK VINA RESULT:     -10.5      6.192     11.425
REMARK SMILES COc1ccc(NC(=O)NCc2ccc(C(=O)OCCOC(=O)c3ccc(-c4c5nc(c(-c6ccc(S(=O)(=O)[O-])cc6)c6ccc([nH]6)c(-c6ccc(S(=O)(=O)[O-])cc6)c6nc(c(-c7ccc(S(=O)(=O)[O-])cc7)c7ccc4[nH]7)C=C6)C=C5)cc3)cc2)c(OC)c1
REMARK SMILES IDX 19 1 18 2 16 3 17 4 15 5 12 6 13 7 85 8 14 9 84 10 11 11
REMARK SMILES IDX 10 12 7 13 8 14 9 16 6 18 3 19 4 20 89 21 5 22 86 23 2 24
REMARK SMILES IDX 1 25 87 26 88 27 20 28 21 29 22 30 23 31 24 32 25 33 83 34
REMARK SMILES IDX 26 35 82 36 27 37 28 38 29 39 76 40 30 41 81 42 75 43 77 44
REMARK SMILES IDX 31 45 80 46 74 47 73 48 32 50 62 51 43 52 61 53 44 54 47 55
REMARK SMILES IDX 60 56 78 57 45 58 46 59 59 61 79 62 48 63 33 64 34 65 42 66
REMARK SMILES IDX 35 67 41 68 36 69 37 70 38 71 39 72 40 73 63 74 64 75 72 76
REMARK SMILES IDX 65 77 71 78 66 79 67 80 68 81 69 82 70 83 49 84 50 85 58 86
REMARK SMILES IDX 51 87 57 88 52 89 53 90 54 91 55 92 56 93
REMARK H PARENT 7 15 10 17 77 49 47 60
REMARK Flexibility Score: inf
ROOT
ATOM      1  C   UNL A   1      42.348  22.422  26.638  1.00  0.00     0.275 C 
ENDROOT
BRANCH   1   2
ATOM      2  O   UNL A   1      40.961  22.360  27.016  1.00  0.00    -0.458 OA
BRANCH   2   3
ATOM      3  C   UNL A   1      40.202  21.481  26.318  1.00  0.00     0.338 C 
ATOM      4  O   UNL A   1      40.503  20.335  26.022  1.00  0.00    -0.246 OA
BRANCH   3   5
ATOM      5  C   UNL A   1      38.874  22.066  26.030  1.00  0.00     0.060 A 
ATOM      6  C   UNL A   1      36.389  23.136  25.328  1.00  0.00    -0.029 A 
ATOM      7  C   UNL A   1      36.674  21.816  25.008  1.00  0.00     0.006 A 
ATOM      8  C   UNL A   1      37.335  23.901  26.050  1.00  0.00     0.006 A 
ATOM      9  C   UNL A   1      37.933  21.312  25.312  1.00  0.00     0.016 A 
ATOM     10  C   UNL A   1      38.567  23.367  26.413  1.00  0.00     0.016 A 
BRANCH   6  11
ATOM     11  C   UNL A   1      35.235  23.848  24.692  1.00  0.00     0.153 C 
BRANCH  11  12
ATOM     12  N   UNL A   1      34.765  25.076  25.264  1.00  0.00    -0.334 N 
ATOM     13  N   UNL A   1      32.399  24.750  25.426  1.00  0.00    -0.305 N 
ATOM     14  C   UNL A   1      33.529  25.468  25.642  1.00  0.00     0.319 C 
ATOM     15  H   UNL A   1      31.575  25.266  25.586  1.00  0.00     0.172 HD
ATOM     16  O   UNL A   1      33.410  26.604  26.114  1.00  0.00    -0.248 OA
ATOM     17  H   UNL A   1      35.467  25.751  25.407  1.00  0.00     0.165 HD
BRANCH  13  18
ATOM     18  C   UNL A   1      32.153  23.427  25.019  1.00  0.00     0.085 A 
ATOM     19  C   UNL A   1      32.395  20.827  24.018  1.00  0.00     0.122 A 
ATOM     20  C   UNL A   1      32.312  21.048  25.395  1.00  0.00     0.049 A 
ATOM     21  C   UNL A   1      32.171  21.892  23.145  1.00  0.00     0.095 A 
ATOM     22  C   UNL A   1      32.156  22.345  25.900  1.00  0.00     0.034 A 
ATOM     23  C   UNL A   1      31.987  23.182  23.651  1.00  0.00     0.146 A 
BRANCH  19  24
ATOM     24  O   UNL A   1      32.702  19.546  23.650  1.00  0.00    -0.497 OA
ATOM     25  C   UNL A   1      33.696  18.879  24.421  1.00  0.00     0.278 C 
ENDBRANCH  19  24
BRANCH  23  26
ATOM     26  O   UNL A   1      31.764  24.257  22.825  1.00  0.00    -0.494 OA
ATOM     27  C   UNL A   1      32.860  24.480  21.936  1.00  0.00     0.278 C 
ENDBRANCH  23  26
ENDBRANCH  13  18
ENDBRANCH  11  12
ENDBRANCH   6  11
ENDBRANCH   3   5
ENDBRANCH   2   3
ENDBRANCH   1   2
BRANCH   1  28
ATOM     28  C   UNL A   1      42.674  23.773  26.001  1.00  0.00     0.275 C 
BRANCH  28  29
ATOM     29  O   UNL A   1      41.549  24.669  26.088  1.00  0.00    -0.458 OA
BRANCH  29  30
ATOM     30  C   UNL A   1      41.844  25.978  25.909  1.00  0.00     0.338 C 
ATOM     31  O   UNL A   1      42.450  26.476  24.973  1.00  0.00    -0.246 OA
BRANCH  30  32
ATOM     32  C   UNL A   1      41.259  26.804  26.978  1.00  0.00     0.060 A 
ATOM     33  C   UNL A   1      41.742  28.091  27.138  1.00  0.00     0.016 A 
ATOM     34  C   UNL A   1      40.442  26.251  27.959  1.00  0.00     0.016 A 
ATOM     35  C   UNL A   1      41.591  28.751  28.355  1.00  0.00     0.010 A 
ATOM     36  C   UNL A   1      40.129  27.004  29.103  1.00  0.00     0.010 A 
ATOM     37  C   UNL A   1      40.746  28.245  29.352  1.00  0.00    -0.014 A 
BRANCH  37  38
ATOM     38  C   UNL A   1      40.524  29.008  30.627  1.00  0.00     0.031 A 
ATOM     39  C   UNL A   1      39.422  30.042  30.736  1.00  0.00     0.074 A 
ATOM     40  C   UNL A   1      41.304  28.779  31.709  1.00  0.00     0.049 A 
ATOM     41  N   UNL A   1      39.213  30.932  31.677  1.00  0.00    -0.248 NA
ATOM     42  C   UNL A   1      38.442  30.102  29.640  1.00  0.00     0.031 C 
ATOM     43  C   UNL A   1      42.386  27.789  31.790  1.00  0.00     0.029 A 
ATOM     44  N   UNL A   1      41.303  29.350  32.961  1.00  0.00    -0.354 N 
ATOM     45  C   UNL A   1      38.131  31.699  31.250  1.00  0.00     0.074 A 
ATOM     46  C   UNL A   1      37.730  31.175  29.962  1.00  0.00     0.031 C 
ATOM     47  C   UNL A   1      42.883  27.770  33.033  1.00  0.00     0.029 A 
ATOM     48  C   UNL A   1      42.268  28.840  33.803  1.00  0.00     0.049 A 
ATOM     49  H   UNL A   1      40.673  30.057  33.231  1.00  0.00     0.167 HD
ATOM     50  C   UNL A   1      37.529  32.746  31.869  1.00  0.00     0.031 A 
ATOM     51  C   UNL A   1      42.674  29.217  35.031  1.00  0.00     0.031 A 
ATOM     52  C   UNL A   1      37.897  33.232  33.176  1.00  0.00     0.049 A 
ATOM     53  C   UNL A   1      42.028  30.407  35.677  1.00  0.00     0.074 A 
ATOM     54  C   UNL A   1      37.334  34.273  33.897  1.00  0.00     0.029 A 
ATOM     55  N   UNL A   1      38.909  32.705  33.965  1.00  0.00    -0.354 N 
ATOM     56  N   UNL A   1      41.048  31.152  35.229  1.00  0.00    -0.248 NA
ATOM     57  C   UNL A   1      42.555  30.818  36.984  1.00  0.00     0.031 C 
ATOM     58  C   UNL A   1      38.043  34.411  35.094  1.00  0.00     0.029 A 
ATOM     59  C   UNL A   1      39.001  33.413  35.153  1.00  0.00     0.049 A 
ATOM     60  H   UNL A   1      39.477  31.939  33.717  1.00  0.00     0.167 HD
ATOM     61  C   UNL A   1      40.829  32.113  36.208  1.00  0.00     0.074 A 
ATOM     62  C   UNL A   1      41.763  31.838  37.281  1.00  0.00     0.031 C 
ATOM     63  C   UNL A   1      39.935  33.131  36.215  1.00  0.00     0.031 A 
BRANCH  50  64
ATOM     64  C   UNL A   1      36.436  33.479  31.125  1.00  0.00    -0.014 A 
ATOM     65  C   UNL A   1      36.613  33.948  29.811  1.00  0.00     0.010 A 
ATOM     66  C   UNL A   1      35.181  33.652  31.743  1.00  0.00     0.010 A 
ATOM     67  C   UNL A   1      35.575  34.614  29.149  1.00  0.00     0.020 A 
ATOM     68  C   UNL A   1      34.132  34.288  31.074  1.00  0.00     0.020 A 
ATOM     69  C   UNL A   1      34.341  34.782  29.786  1.00  0.00     0.054 A 
BRANCH  69  70
ATOM     70  S   UNL A   1      33.006  35.633  28.897  1.00  0.00     0.124 S 
ATOM     71  O   UNL A   1      33.747  36.611  28.104  1.00  0.00    -0.237 OA
ATOM     72  O   UNL A   1      32.385  34.550  28.137  1.00  0.00    -0.237 OA
ATOM     73  O   UNL A   1      32.180  36.194  29.964  1.00  0.00    -0.744 OA
ENDBRANCH  69  70
ENDBRANCH  50  64
BRANCH  51  74
ATOM     74  C   UNL A   1      43.800  28.497  35.695  1.00  0.00    -0.014 A 
ATOM     75  C   UNL A   1      43.554  27.407  36.546  1.00  0.00     0.010 A 
ATOM     76  C   UNL A   1      45.133  28.885  35.451  1.00  0.00     0.010 A 
ATOM     77  C   UNL A   1      44.617  26.725  37.148  1.00  0.00     0.020 A 
ATOM     78  C   UNL A   1      46.197  28.181  36.018  1.00  0.00     0.020 A 
ATOM     79  C   UNL A   1      45.932  27.112  36.873  1.00  0.00     0.054 A 
BRANCH  79  80
ATOM     80  S   UNL A   1      47.295  26.172  37.615  1.00  0.00     0.124 S 
ATOM     81  O   UNL A   1      47.199  24.895  36.915  1.00  0.00    -0.237 OA
ATOM     82  O   UNL A   1      48.460  26.990  37.285  1.00  0.00    -0.237 OA
ATOM     83  O   UNL A   1      46.953  26.135  39.035  1.00  0.00    -0.744 OA
ENDBRANCH  79  80
ENDBRANCH  51  74
BRANCH  63  84
ATOM     84  C   UNL A   1      39.892  34.000  37.443  1.00  0.00    -0.014 A 
ATOM     85  C   UNL A   1      40.681  35.159  37.547  1.00  0.00     0.010 A 
ATOM     86  C   UNL A   1      39.016  33.669  38.492  1.00  0.00     0.010 A 
ATOM     87  C   UNL A   1      40.619  35.953  38.696  1.00  0.00     0.020 A 
ATOM     88  C   UNL A   1      38.929  34.476  39.628  1.00  0.00     0.020 A 
ATOM     89  C   UNL A   1      39.742  35.606  39.728  1.00  0.00     0.054 A 
BRANCH  89  90
ATOM     90  S   UNL A   1      39.648  36.676  41.190  1.00  0.00     0.124 S 
ATOM     91  O   UNL A   1      41.055  36.812  41.558  1.00  0.00    -0.237 OA
ATOM     92  O   UNL A   1      39.018  37.884  40.662  1.00  0.00    -0.237 OA
ATOM     93  O   UNL A   1      38.830  35.912  42.128  1.00  0.00    -0.744 OA
ENDBRANCH  89  90
ENDBRANCH  63  84
ENDBRANCH  37  38
ENDBRANCH  30  32
ENDBRANCH  29  30
ENDBRANCH  28  29
ENDBRANCH   1  28
TORSDOF 19
ENDMDL
