MODEL 1
REMARK VINA RESULT:     -11.9      0.000      0.000
REMARK SMILES O=C(OCCOC(=O)c1ccc(N2CNC(c3ccccc3)=[NH+]C2=S)cc1)c1ccc(-c2c3nc(c(-c4ccc(S(=O)(=O)[O-])cc4)c4ccc([nH]4)c(-c4ccc(S(=O)(=O)[O-])cc4)c4nc(c(-c5ccc(S(=O)(=O)[O-])cc5)c5ccc2[nH]5)C=C4)C=C3)cc1
REMARK SMILES IDX 4 1 3 2 2 3 1 4 28 5 29 6 87 7 30 8 86 9 31 10 32 11 33 12
REMARK SMILES IDX 80 13 34 14 85 15 79 16 81 17 35 18 84 19 78 20 77 21 36 23
REMARK SMILES IDX 66 24 47 25 65 26 48 27 51 28 64 29 82 30 49 31 50 32 63 34
REMARK SMILES IDX 83 35 52 36 37 37 38 38 46 39 39 40 45 41 40 42 41 43 42 44
REMARK SMILES IDX 43 45 44 46 67 47 68 48 76 49 69 50 75 51 70 52 71 53 72 54
REMARK SMILES IDX 73 55 74 56 53 57 54 58 62 59 55 60 61 61 56 62 57 63 58 64
REMARK SMILES IDX 59 65 60 66 5 67 6 68 7 69 8 70 9 71 10 72 27 73 11 74 26 75
REMARK SMILES IDX 12 76 13 77 14 78 24 79 15 80 23 81 25 82 16 83 17 86 18 87
REMARK SMILES IDX 22 88 19 89 21 90 20 91
REMARK H PARENT 81 22 51 33 15 84 23 85
REMARK Flexibility Score: inf
ROOT
ATOM      1  C   UNL A   1      32.148  30.081  26.709  1.00  0.00     0.275 C 
ENDROOT
BRANCH   1   2
ATOM      2  O   UNL A   1      33.569  30.056  26.887  1.00  0.00    -0.458 OA
BRANCH   2   3
ATOM      3  C   UNL A   1      34.337  30.760  27.750  1.00  0.00     0.338 C 
ATOM      4  O   UNL A   1      33.982  31.905  28.031  1.00  0.00    -0.246 OA
BRANCH   3   5
ATOM      5  C   UNL A   1      35.659  30.282  28.282  1.00  0.00     0.060 A 
ATOM      6  C   UNL A   1      35.938  29.804  29.570  1.00  0.00     0.016 A 
ATOM      7  C   UNL A   1      36.711  30.287  27.359  1.00  0.00     0.016 A 
ATOM      8  C   UNL A   1      37.183  29.250  29.902  1.00  0.00     0.010 A 
ATOM      9  C   UNL A   1      37.950  29.742  27.688  1.00  0.00     0.010 A 
ATOM     10  C   UNL A   1      38.197  29.206  28.958  1.00  0.00    -0.014 A 
BRANCH  10  11
ATOM     11  C   UNL A   1      39.581  28.814  29.308  1.00  0.00     0.031 A 
ATOM     12  C   UNL A   1      40.470  29.885  29.864  1.00  0.00     0.074 A 
ATOM     13  C   UNL A   1      40.054  27.572  29.093  1.00  0.00     0.049 A 
ATOM     14  N   UNL A   1      41.746  29.847  30.129  1.00  0.00    -0.248 NA
ATOM     15  C   UNL A   1      39.822  31.173  30.173  1.00  0.00     0.031 C 
ATOM     16  C   UNL A   1      39.265  26.423  28.658  1.00  0.00     0.029 A 
ATOM     17  N   UNL A   1      41.333  27.079  29.172  1.00  0.00    -0.354 N 
ATOM     18  C   UNL A   1      42.052  31.107  30.625  1.00  0.00     0.074 A 
ATOM     19  C   UNL A   1      40.852  31.906  30.553  1.00  0.00     0.031 C 
ATOM     20  C   UNL A   1      40.086  25.387  28.413  1.00  0.00     0.029 A 
ATOM     21  C   UNL A   1      41.460  25.799  28.683  1.00  0.00     0.049 A 
ATOM     22  H   UNL A   1      42.087  27.591  29.544  1.00  0.00     0.167 HD
ATOM     23  C   UNL A   1      43.223  31.549  31.135  1.00  0.00     0.031 A 
ATOM     24  C   UNL A   1      42.562  25.055  28.458  1.00  0.00     0.031 A 
ATOM     25  C   UNL A   1      44.411  30.747  31.169  1.00  0.00     0.049 A 
ATOM     26  C   UNL A   1      43.892  25.599  28.898  1.00  0.00     0.074 A 
ATOM     27  C   UNL A   1      45.652  31.065  31.684  1.00  0.00     0.029 A 
ATOM     28  N   UNL A   1      44.504  29.467  30.641  1.00  0.00    -0.354 N 
ATOM     29  N   UNL A   1      44.162  26.774  29.416  1.00  0.00    -0.248 NA
ATOM     30  C   UNL A   1      45.053  24.710  28.776  1.00  0.00     0.031 C 
ATOM     31  C   UNL A   1      46.512  29.996  31.416  1.00  0.00     0.029 A 
ATOM     32  C   UNL A   1      45.788  28.985  30.797  1.00  0.00     0.049 A 
ATOM     33  H   UNL A   1      43.763  28.975  30.217  1.00  0.00     0.167 HD
ATOM     34  C   UNL A   1      45.507  26.738  29.757  1.00  0.00     0.074 A 
ATOM     35  C   UNL A   1      46.005  25.440  29.347  1.00  0.00     0.031 C 
ATOM     36  C   UNL A   1      46.250  27.680  30.387  1.00  0.00     0.031 A 
BRANCH  23  37
ATOM     37  C   UNL A   1      43.242  32.962  31.647  1.00  0.00    -0.014 A 
ATOM     38  C   UNL A   1      43.645  34.030  30.821  1.00  0.00     0.010 A 
ATOM     39  C   UNL A   1      42.931  33.218  32.992  1.00  0.00     0.010 A 
ATOM     40  C   UNL A   1      43.820  35.308  31.352  1.00  0.00     0.020 A 
ATOM     41  C   UNL A   1      43.069  34.505  33.519  1.00  0.00     0.020 A 
ATOM     42  C   UNL A   1      43.543  35.534  32.703  1.00  0.00     0.054 A 
BRANCH  42  43
ATOM     43  S   UNL A   1      43.817  37.194  33.378  1.00  0.00     0.124 S 
ATOM     44  O   UNL A   1      45.120  37.045  34.025  1.00  0.00    -0.237 OA
ATOM     45  O   UNL A   1      43.806  38.033  32.182  1.00  0.00    -0.237 OA
ATOM     46  O   UNL A   1      42.690  37.391  34.285  1.00  0.00    -0.744 OA
ENDBRANCH  42  43
ENDBRANCH  23  37
BRANCH  24  47
ATOM     47  C   UNL A   1      42.440  23.720  27.810  1.00  0.00    -0.014 A 
ATOM     48  C   UNL A   1      42.951  23.483  26.523  1.00  0.00     0.010 A 
ATOM     49  C   UNL A   1      41.840  22.657  28.509  1.00  0.00     0.010 A 
ATOM     50  C   UNL A   1      42.879  22.204  25.955  1.00  0.00     0.020 A 
ATOM     51  C   UNL A   1      41.788  21.373  27.958  1.00  0.00     0.020 A 
ATOM     52  C   UNL A   1      42.309  21.155  26.682  1.00  0.00     0.054 A 
BRANCH  52  53
ATOM     53  S   UNL A   1      42.310  19.487  25.964  1.00  0.00     0.124 S 
ATOM     54  O   UNL A   1      43.162  19.658  24.792  1.00  0.00    -0.237 OA
ATOM     55  O   UNL A   1      42.869  18.683  27.047  1.00  0.00    -0.237 OA
ATOM     56  O   UNL A   1      40.897  19.241  25.682  1.00  0.00    -0.744 OA
ENDBRANCH  52  53
ENDBRANCH  24  47
BRANCH  36  57
ATOM     57  C   UNL A   1      47.667  27.331  30.746  1.00  0.00    -0.014 A 
ATOM     58  C   UNL A   1      47.980  26.693  31.957  1.00  0.00     0.010 A 
ATOM     59  C   UNL A   1      48.674  27.523  29.781  1.00  0.00     0.010 A 
ATOM     60  C   UNL A   1      49.281  26.244  32.193  1.00  0.00     0.020 A 
ATOM     61  C   UNL A   1      49.967  27.049  30.002  1.00  0.00     0.020 A 
ATOM     62  C   UNL A   1      50.262  26.413  31.208  1.00  0.00     0.054 A 
BRANCH  62  63
ATOM     63  S   UNL A   1      51.911  25.715  31.494  1.00  0.00     0.124 S 
ATOM     64  O   UNL A   1      51.611  24.301  31.700  1.00  0.00    -0.237 OA
ATOM     65  O   UNL A   1      52.611  26.035  30.253  1.00  0.00    -0.237 OA
ATOM     66  O   UNL A   1      52.390  26.429  32.676  1.00  0.00    -0.744 OA
ENDBRANCH  62  63
ENDBRANCH  36  57
ENDBRANCH  10  11
ENDBRANCH   3   5
ENDBRANCH   2   3
ENDBRANCH   1   2
BRANCH   1  67
ATOM     67  C   UNL A   1      31.693  30.101  25.242  1.00  0.00     0.275 C 
BRANCH  67  68
ATOM     68  O   UNL A   1      31.646  28.807  24.609  1.00  0.00    -0.458 OA
BRANCH  68  69
ATOM     69  C   UNL A   1      32.781  28.422  23.958  1.00  0.00     0.338 C 
ATOM     70  O   UNL A   1      33.595  29.158  23.437  1.00  0.00    -0.246 OA
BRANCH  69  71
ATOM     71  C   UNL A   1      32.969  26.951  24.074  1.00  0.00     0.060 A 
ATOM     72  C   UNL A   1      33.569  26.439  25.225  1.00  0.00     0.019 A 
ATOM     73  C   UNL A   1      32.583  26.070  23.071  1.00  0.00     0.019 A 
ATOM     74  C   UNL A   1      33.686  25.048  25.417  1.00  0.00     0.044 A 
ATOM     75  C   UNL A   1      32.752  24.683  23.255  1.00  0.00     0.044 A 
ATOM     76  C   UNL A   1      33.236  24.132  24.461  1.00  0.00     0.103 A 
BRANCH  76  77
ATOM     77  N   UNL A   1      33.250  22.690  24.657  1.00  0.00    -0.219 N 
ATOM     78  C   UNL A   1      34.410  21.991  24.131  1.00  0.00     0.405 C 
ATOM     79  C   UNL A   1      32.178  21.896  25.139  1.00  0.00     0.297 C 
ATOM     80  N   UNL A   1      34.516  20.666  24.667  1.00  0.00    -0.274 N 
ATOM     81  N   UNL A   1      32.230  20.531  24.966  1.00  0.00    -0.236 N 
ATOM     82  S   UNL A   1      30.784  22.446  25.934  1.00  0.00    -0.005 S 
ATOM     83  C   UNL A   1      33.370  19.953  24.813  1.00  0.00     0.229 C 
ATOM     84  H   UNL A   1      35.387  20.287  24.919  1.00  0.00     0.260 HD
ATOM     85  H   UNL A   1      31.401  20.000  24.958  1.00  0.00     0.268 HD
BRANCH  83  86
ATOM     86  C   UNL A   1      33.406  18.471  24.827  1.00  0.00     0.047 A 
ATOM     87  C   UNL A   1      34.042  17.763  23.804  1.00  0.00     0.015 A 
ATOM     88  C   UNL A   1      32.720  17.793  25.839  1.00  0.00     0.015 A 
ATOM     89  C   UNL A   1      34.000  16.365  23.803  1.00  0.00     0.001 A 
ATOM     90  C   UNL A   1      32.665  16.398  25.824  1.00  0.00     0.001 A 
ATOM     91  C   UNL A   1      33.308  15.686  24.809  1.00  0.00     0.000 A 
ENDBRANCH  83  86
ENDBRANCH  76  77
ENDBRANCH  69  71
ENDBRANCH  68  69
ENDBRANCH  67  68
ENDBRANCH   1  67
TORSDOF 16
ENDMDL
MODEL 2
REMARK VINA RESULT:     -11.8      0.946      8.246
REMARK SMILES O=C(OCCOC(=O)c1ccc(N2CNC(c3ccccc3)=[NH+]C2=S)cc1)c1ccc(-c2c3nc(c(-c4ccc(S(=O)(=O)[O-])cc4)c4ccc([nH]4)c(-c4ccc(S(=O)(=O)[O-])cc4)c4nc(c(-c5ccc(S(=O)(=O)[O-])cc5)c5ccc2[nH]5)C=C4)C=C3)cc1
REMARK SMILES IDX 4 1 3 2 2 3 1 4 28 5 29 6 87 7 30 8 86 9 31 10 32 11 33 12
REMARK SMILES IDX 80 13 34 14 85 15 79 16 81 17 35 18 84 19 78 20 77 21 36 23
REMARK SMILES IDX 66 24 47 25 65 26 48 27 51 28 64 29 82 30 49 31 50 32 63 34
REMARK SMILES IDX 83 35 52 36 37 37 38 38 46 39 39 40 45 41 40 42 41 43 42 44
REMARK SMILES IDX 43 45 44 46 67 47 68 48 76 49 69 50 75 51 70 52 71 53 72 54
REMARK SMILES IDX 73 55 74 56 53 57 54 58 62 59 55 60 61 61 56 62 57 63 58 64
REMARK SMILES IDX 59 65 60 66 5 67 6 68 7 69 8 70 9 71 10 72 27 73 11 74 26 75
REMARK SMILES IDX 12 76 13 77 14 78 24 79 15 80 23 81 25 82 16 83 17 86 18 87
REMARK SMILES IDX 22 88 19 89 21 90 20 91
REMARK H PARENT 81 22 51 33 15 84 23 85
REMARK Flexibility Score: inf
ROOT
ATOM      1  C   UNL A   1      32.238  29.219  26.956  1.00  0.00     0.275 C 
ENDROOT
BRANCH   1   2
ATOM      2  O   UNL A   1      33.653  29.198  27.181  1.00  0.00    -0.458 OA
BRANCH   2   3
ATOM      3  C   UNL A   1      34.433  30.103  27.817  1.00  0.00     0.338 C 
ATOM      4  O   UNL A   1      34.010  31.255  27.918  1.00  0.00    -0.246 OA
BRANCH   3   5
ATOM      5  C   UNL A   1      35.831  29.822  28.290  1.00  0.00     0.060 A 
ATOM      6  C   UNL A   1      36.231  29.387  29.562  1.00  0.00     0.016 A 
ATOM      7  C   UNL A   1      36.831  29.983  27.325  1.00  0.00     0.016 A 
ATOM      8  C   UNL A   1      37.556  29.021  29.838  1.00  0.00     0.010 A 
ATOM      9  C   UNL A   1      38.150  29.625  27.599  1.00  0.00     0.010 A 
ATOM     10  C   UNL A   1      38.525  29.128  28.852  1.00  0.00    -0.014 A 
BRANCH  10  11
ATOM     11  C   UNL A   1      39.965  28.942  29.142  1.00  0.00     0.031 A 
ATOM     12  C   UNL A   1      40.552  27.598  28.830  1.00  0.00     0.074 A 
ATOM     13  C   UNL A   1      40.716  29.905  29.709  1.00  0.00     0.049 A 
ATOM     14  N   UNL A   1      41.739  27.131  29.102  1.00  0.00    -0.248 NA
ATOM     15  C   UNL A   1      39.679  26.659  28.102  1.00  0.00     0.031 C 
ATOM     16  C   UNL A   1      40.291  31.279  29.961  1.00  0.00     0.029 A 
ATOM     17  N   UNL A   1      41.991  29.858  30.217  1.00  0.00    -0.354 N 
ATOM     18  C   UNL A   1      41.747  25.842  28.586  1.00  0.00     0.074 A 
ATOM     19  C   UNL A   1      40.431  25.575  28.057  1.00  0.00     0.031 C 
ATOM     20  C   UNL A   1      41.245  31.917  30.663  1.00  0.00     0.029 A 
ATOM     21  C   UNL A   1      42.352  30.996  30.901  1.00  0.00     0.049 A 
ATOM     22  H   UNL A   1      42.590  29.085  30.102  1.00  0.00     0.167 HD
ATOM     23  C   UNL A   1      42.777  24.968  28.523  1.00  0.00     0.031 A 
ATOM     24  C   UNL A   1      43.441  31.256  31.652  1.00  0.00     0.031 A 
ATOM     25  C   UNL A   1      44.068  25.241  29.081  1.00  0.00     0.049 A 
ATOM     26  C   UNL A   1      44.536  30.227  31.700  1.00  0.00     0.074 A 
ATOM     27  C   UNL A   1      45.202  24.455  29.059  1.00  0.00     0.029 A 
ATOM     28  N   UNL A   1      44.384  26.394  29.787  1.00  0.00    -0.354 N 
ATOM     29  N   UNL A   1      44.555  29.031  31.162  1.00  0.00    -0.248 NA
ATOM     30  C   UNL A   1      45.771  30.595  32.402  1.00  0.00     0.031 C 
ATOM     31  C   UNL A   1      46.190  25.109  29.802  1.00  0.00     0.029 A 
ATOM     32  C   UNL A   1      45.692  26.333  30.226  1.00  0.00     0.049 A 
ATOM     33  H   UNL A   1      43.768  27.144  29.951  1.00  0.00     0.167 HD
ATOM     34  C   UNL A   1      45.830  28.532  31.391  1.00  0.00     0.074 A 
ATOM     35  C   UNL A   1      46.539  29.541  32.154  1.00  0.00     0.031 C 
ATOM     36  C   UNL A   1      46.374  27.362  30.975  1.00  0.00     0.031 A 
BRANCH  23  37
ATOM     37  C   UNL A   1      42.498  23.650  27.855  1.00  0.00    -0.014 A 
ATOM     38  C   UNL A   1      41.843  22.610  28.544  1.00  0.00     0.010 A 
ATOM     39  C   UNL A   1      42.968  23.417  26.552  1.00  0.00     0.010 A 
ATOM     40  C   UNL A   1      41.740  21.340  27.977  1.00  0.00     0.020 A 
ATOM     41  C   UNL A   1      42.833  22.156  25.965  1.00  0.00     0.020 A 
ATOM     42  C   UNL A   1      42.249  21.118  26.694  1.00  0.00     0.054 A 
BRANCH  42  43
ATOM     43  S   UNL A   1      42.139  19.449  25.995  1.00  0.00     0.124 S 
ATOM     44  O   UNL A   1      42.658  18.630  27.088  1.00  0.00    -0.237 OA
ATOM     45  O   UNL A   1      40.710  19.305  25.729  1.00  0.00    -0.237 OA
ATOM     46  O   UNL A   1      42.987  19.513  24.807  1.00  0.00    -0.744 OA
ENDBRANCH  42  43
ENDBRANCH  23  37
BRANCH  24  47
ATOM     47  C   UNL A   1      43.548  32.545  32.390  1.00  0.00    -0.014 A 
ATOM     48  C   UNL A   1      43.083  32.672  33.709  1.00  0.00     0.010 A 
ATOM     49  C   UNL A   1      44.164  33.651  31.776  1.00  0.00     0.010 A 
ATOM     50  C   UNL A   1      43.247  33.876  34.406  1.00  0.00     0.020 A 
ATOM     51  C   UNL A   1      44.352  34.847  32.475  1.00  0.00     0.020 A 
ATOM     52  C   UNL A   1      43.893  34.951  33.788  1.00  0.00     0.054 A 
BRANCH  52  53
ATOM     53  S   UNL A   1      44.176  36.471  34.742  1.00  0.00     0.124 S 
ATOM     54  O   UNL A   1      45.381  37.005  34.116  1.00  0.00    -0.237 OA
ATOM     55  O   UNL A   1      42.947  37.221  34.501  1.00  0.00    -0.237 OA
ATOM     56  O   UNL A   1      44.343  35.984  36.110  1.00  0.00    -0.744 OA
ENDBRANCH  52  53
ENDBRANCH  24  47
BRANCH  36  57
ATOM     57  C   UNL A   1      47.830  27.124  31.263  1.00  0.00    -0.014 A 
ATOM     58  C   UNL A   1      48.244  26.373  32.374  1.00  0.00     0.010 A 
ATOM     59  C   UNL A   1      48.782  27.547  30.316  1.00  0.00     0.010 A 
ATOM     60  C   UNL A   1      49.592  26.041  32.528  1.00  0.00     0.020 A 
ATOM     61  C   UNL A   1      50.123  27.191  30.451  1.00  0.00     0.020 A 
ATOM     62  C   UNL A   1      50.519  26.440  31.558  1.00  0.00     0.054 A 
BRANCH  62  63
ATOM     63  S   UNL A   1      52.240  25.894  31.723  1.00  0.00     0.124 S 
ATOM     64  O   UNL A   1      52.761  26.829  32.716  1.00  0.00    -0.237 OA
ATOM     65  O   UNL A   1      52.094  24.513  32.176  1.00  0.00    -0.237 OA
ATOM     66  O   UNL A   1      52.784  26.049  30.376  1.00  0.00    -0.744 OA
ENDBRANCH  62  63
ENDBRANCH  36  57
ENDBRANCH  10  11
ENDBRANCH   3   5
ENDBRANCH   2   3
ENDBRANCH   1   2
BRANCH   1  67
ATOM     67  C   UNL A   1      31.830  29.523  25.507  1.00  0.00     0.275 C 
BRANCH  67  68
ATOM     68  O   UNL A   1      31.920  28.399  24.609  1.00  0.00    -0.458 OA
BRANCH  68  69
ATOM     69  C   UNL A   1      33.164  28.125  24.121  1.00  0.00     0.338 C 
ATOM     70  O   UNL A   1      34.009  28.939  23.809  1.00  0.00    -0.246 OA
BRANCH  69  71
ATOM     71  C   UNL A   1      33.411  26.659  24.134  1.00  0.00     0.060 A 
ATOM     72  C   UNL A   1      33.796  26.053  25.331  1.00  0.00     0.019 A 
ATOM     73  C   UNL A   1      33.290  25.873  22.995  1.00  0.00     0.019 A 
ATOM     74  C   UNL A   1      33.953  24.655  25.412  1.00  0.00     0.044 A 
ATOM     75  C   UNL A   1      33.500  24.481  23.078  1.00  0.00     0.044 A 
ATOM     76  C   UNL A   1      33.761  23.826  24.302  1.00  0.00     0.103 A 
BRANCH  76  77
ATOM     77  N   UNL A   1      33.820  22.374  24.359  1.00  0.00    -0.219 N 
ATOM     78  C   UNL A   1      32.541  21.686  24.310  1.00  0.00     0.405 C 
ATOM     79  C   UNL A   1      34.969  21.589  24.637  1.00  0.00     0.297 C 
ATOM     80  N   UNL A   1      32.702  20.293  24.016  1.00  0.00    -0.274 N 
ATOM     81  N   UNL A   1      34.804  20.263  24.973  1.00  0.00    -0.236 N 
ATOM     82  S   UNL A   1      36.584  22.105  24.605  1.00  0.00    -0.005 S 
ATOM     83  C   UNL A   1      33.740  19.641  24.602  1.00  0.00     0.229 C 
ATOM     84  H   UNL A   1      32.083  19.825  23.412  1.00  0.00     0.260 HD
ATOM     85  H   UNL A   1      35.495  19.794  25.493  1.00  0.00     0.268 HD
BRANCH  83  86
ATOM     86  C   UNL A   1      33.684  18.174  24.807  1.00  0.00     0.047 A 
ATOM     87  C   UNL A   1      32.532  17.568  25.317  1.00  0.00     0.015 A 
ATOM     88  C   UNL A   1      34.833  17.418  24.558  1.00  0.00     0.015 A 
ATOM     89  C   UNL A   1      32.531  16.193  25.568  1.00  0.00     0.001 A 
ATOM     90  C   UNL A   1      34.833  16.048  24.828  1.00  0.00     0.001 A 
ATOM     91  C   UNL A   1      33.682  15.437  25.328  1.00  0.00     0.000 A 
ENDBRANCH  83  86
ENDBRANCH  76  77
ENDBRANCH  69  71
ENDBRANCH  68  69
ENDBRANCH  67  68
ENDBRANCH   1  67
TORSDOF 16
ENDMDL
MODEL 3
REMARK VINA RESULT:     -11.8      3.115      3.977
REMARK SMILES O=C(OCCOC(=O)c1ccc(N2CNC(c3ccccc3)=[NH+]C2=S)cc1)c1ccc(-c2c3nc(c(-c4ccc(S(=O)(=O)[O-])cc4)c4ccc([nH]4)c(-c4ccc(S(=O)(=O)[O-])cc4)c4nc(c(-c5ccc(S(=O)(=O)[O-])cc5)c5ccc2[nH]5)C=C4)C=C3)cc1
REMARK SMILES IDX 4 1 3 2 2 3 1 4 28 5 29 6 87 7 30 8 86 9 31 10 32 11 33 12
REMARK SMILES IDX 80 13 34 14 85 15 79 16 81 17 35 18 84 19 78 20 77 21 36 23
REMARK SMILES IDX 66 24 47 25 65 26 48 27 51 28 64 29 82 30 49 31 50 32 63 34
REMARK SMILES IDX 83 35 52 36 37 37 38 38 46 39 39 40 45 41 40 42 41 43 42 44
REMARK SMILES IDX 43 45 44 46 67 47 68 48 76 49 69 50 75 51 70 52 71 53 72 54
REMARK SMILES IDX 73 55 74 56 53 57 54 58 62 59 55 60 61 61 56 62 57 63 58 64
REMARK SMILES IDX 59 65 60 66 5 67 6 68 7 69 8 70 9 71 10 72 27 73 11 74 26 75
REMARK SMILES IDX 12 76 13 77 14 78 24 79 15 80 23 81 25 82 16 83 17 86 18 87
REMARK SMILES IDX 22 88 19 89 21 90 20 91
REMARK H PARENT 81 22 51 33 15 84 23 85
REMARK Flexibility Score: inf
ROOT
ATOM      1  C   UNL A   1      34.958  30.719  27.607  1.00  0.00     0.275 C 
ENDROOT
BRANCH   1   2
ATOM      2  O   UNL A   1      36.203  30.011  27.595  1.00  0.00    -0.458 OA
BRANCH   2   3
ATOM      3  C   UNL A   1      36.904  29.492  28.629  1.00  0.00     0.338 C 
ATOM      4  O   UNL A   1      36.310  29.317  29.694  1.00  0.00    -0.246 OA
BRANCH   3   5
ATOM      5  C   UNL A   1      38.384  29.239  28.599  1.00  0.00     0.060 A 
ATOM      6  C   UNL A   1      39.215  28.894  29.674  1.00  0.00     0.016 A 
ATOM      7  C   UNL A   1      38.979  29.327  27.334  1.00  0.00     0.016 A 
ATOM      8  C   UNL A   1      40.560  28.542  29.491  1.00  0.00     0.010 A 
ATOM      9  C   UNL A   1      40.317  28.982  27.150  1.00  0.00     0.010 A 
ATOM     10  C   UNL A   1      41.118  28.574  28.223  1.00  0.00    -0.014 A 
BRANCH  10  11
ATOM     11  C   UNL A   1      42.572  28.403  27.999  1.00  0.00     0.031 A 
ATOM     12  C   UNL A   1      43.429  29.624  28.138  1.00  0.00     0.074 A 
ATOM     13  C   UNL A   1      43.110  27.224  27.633  1.00  0.00     0.049 A 
ATOM     14  N   UNL A   1      44.696  29.781  27.874  1.00  0.00    -0.248 NA
ATOM     15  C   UNL A   1      42.761  30.832  28.659  1.00  0.00     0.031 C 
ATOM     16  C   UNL A   1      42.403  25.948  27.567  1.00  0.00     0.029 A 
ATOM     17  N   UNL A   1      44.378  26.918  27.205  1.00  0.00    -0.354 N 
ATOM     18  C   UNL A   1      44.971  31.105  28.187  1.00  0.00     0.074 A 
ATOM     19  C   UNL A   1      43.731  31.726  28.586  1.00  0.00     0.031 C 
ATOM     20  C   UNL A   1      43.214  25.018  27.032  1.00  0.00     0.029 A 
ATOM     21  C   UNL A   1      44.501  25.634  26.726  1.00  0.00     0.049 A 
ATOM     22  H   UNL A   1      45.128  27.555  27.238  1.00  0.00     0.167 HD
ATOM     23  C   UNL A   1      46.165  31.740  28.181  1.00  0.00     0.031 A 
ATOM     24  C   UNL A   1      45.529  25.031  26.094  1.00  0.00     0.031 A 
ATOM     25  C   UNL A   1      47.381  31.114  27.753  1.00  0.00     0.049 A 
ATOM     26  C   UNL A   1      46.822  25.784  25.958  1.00  0.00     0.074 A 
ATOM     27  C   UNL A   1      48.658  31.636  27.726  1.00  0.00     0.029 A 
ATOM     28  N   UNL A   1      47.457  29.821  27.252  1.00  0.00    -0.354 N 
ATOM     29  N   UNL A   1      47.087  27.021  26.308  1.00  0.00    -0.248 NA
ATOM     30  C   UNL A   1      47.967  25.055  25.399  1.00  0.00     0.031 C 
ATOM     31  C   UNL A   1      49.500  30.677  27.155  1.00  0.00     0.029 A 
ATOM     32  C   UNL A   1      48.759  29.533  26.892  1.00  0.00     0.049 A 
ATOM     33  H   UNL A   1      46.696  29.202  27.166  1.00  0.00     0.167 HD
ATOM     34  C   UNL A   1      48.447  27.195  26.086  1.00  0.00     0.074 A 
ATOM     35  C   UNL A   1      48.939  25.949  25.532  1.00  0.00     0.031 C 
ATOM     36  C   UNL A   1      49.220  28.276  26.352  1.00  0.00     0.031 A 
BRANCH  23  37
ATOM     37  C   UNL A   1      46.162  33.178  28.621  1.00  0.00    -0.014 A 
ATOM     38  C   UNL A   1      46.310  33.522  29.980  1.00  0.00     0.010 A 
ATOM     39  C   UNL A   1      45.927  34.193  27.680  1.00  0.00     0.010 A 
ATOM     40  C   UNL A   1      46.137  34.842  30.398  1.00  0.00     0.020 A 
ATOM     41  C   UNL A   1      45.791  35.522  28.090  1.00  0.00     0.020 A 
ATOM     42  C   UNL A   1      45.865  35.833  29.450  1.00  0.00     0.054 A 
BRANCH  42  43
ATOM     43  S   UNL A   1      45.605  37.533  30.023  1.00  0.00     0.124 S 
ATOM     44  O   UNL A   1      44.161  37.690  29.854  1.00  0.00    -0.237 OA
ATOM     45  O   UNL A   1      46.070  37.480  31.407  1.00  0.00    -0.237 OA
ATOM     46  O   UNL A   1      46.429  38.334  29.121  1.00  0.00    -0.744 OA
ENDBRANCH  42  43
ENDBRANCH  23  37
BRANCH  24  47
ATOM     47  C   UNL A   1      45.372  23.647  25.569  1.00  0.00    -0.014 A 
ATOM     48  C   UNL A   1      45.784  22.531  26.315  1.00  0.00     0.010 A 
ATOM     49  C   UNL A   1      44.760  23.440  24.318  1.00  0.00     0.010 A 
ATOM     50  C   UNL A   1      45.573  21.234  25.829  1.00  0.00     0.020 A 
ATOM     51  C   UNL A   1      44.525  22.148  23.839  1.00  0.00     0.020 A 
ATOM     52  C   UNL A   1      44.933  21.052  24.600  1.00  0.00     0.054 A 
BRANCH  52  53
ATOM     53  S   UNL A   1      44.587  19.361  24.032  1.00  0.00     0.124 S 
ATOM     54  O   UNL A   1      44.570  19.523  22.582  1.00  0.00    -0.237 OA
ATOM     55  O   UNL A   1      45.717  18.614  24.578  1.00  0.00    -0.237 OA
ATOM     56  O   UNL A   1      43.295  19.058  24.645  1.00  0.00    -0.744 OA
ENDBRANCH  52  53
ENDBRANCH  24  47
BRANCH  36  57
ATOM     57  C   UNL A   1      50.700  28.151  26.124  1.00  0.00    -0.014 A 
ATOM     58  C   UNL A   1      51.558  27.663  27.122  1.00  0.00     0.010 A 
ATOM     59  C   UNL A   1      51.206  28.398  24.833  1.00  0.00     0.010 A 
ATOM     60  C   UNL A   1      52.900  27.414  26.829  1.00  0.00     0.020 A 
ATOM     61  C   UNL A   1      52.539  28.123  24.529  1.00  0.00     0.020 A 
ATOM     62  C   UNL A   1      53.378  27.633  25.531  1.00  0.00     0.054 A 
BRANCH  62  63
ATOM     63  S   UNL A   1      55.094  27.190  25.149  1.00  0.00     0.124 S 
ATOM     64  O   UNL A   1      55.653  26.967  26.480  1.00  0.00    -0.237 OA
ATOM     65  O   UNL A   1      54.939  25.995  24.324  1.00  0.00    -0.237 OA
ATOM     66  O   UNL A   1      55.608  28.364  24.447  1.00  0.00    -0.744 OA
ENDBRANCH  62  63
ENDBRANCH  36  57
ENDBRANCH  10  11
ENDBRANCH   3   5
ENDBRANCH   2   3
ENDBRANCH   1   2
BRANCH   1  67
ATOM     67  C   UNL A   1      33.915  30.185  26.614  1.00  0.00     0.275 C 
BRANCH  67  68
ATOM     68  O   UNL A   1      34.013  28.773  26.341  1.00  0.00    -0.458 OA
BRANCH  68  69
ATOM     69  C   UNL A   1      33.542  28.368  25.126  1.00  0.00     0.338 C 
ATOM     70  O   UNL A   1      33.138  29.088  24.236  1.00  0.00    -0.246 OA
BRANCH  69  71
ATOM     71  C   UNL A   1      33.704  26.898  24.974  1.00  0.00     0.060 A 
ATOM     72  C   UNL A   1      33.945  26.127  26.112  1.00  0.00     0.019 A 
ATOM     73  C   UNL A   1      33.642  26.266  23.738  1.00  0.00     0.019 A 
ATOM     74  C   UNL A   1      34.016  24.722  26.028  1.00  0.00     0.044 A 
ATOM     75  C   UNL A   1      33.765  24.864  23.662  1.00  0.00     0.044 A 
ATOM     76  C   UNL A   1      33.879  24.049  24.810  1.00  0.00     0.103 A 
BRANCH  76  77
ATOM     77  N   UNL A   1      33.852  22.600  24.688  1.00  0.00    -0.219 N 
ATOM     78  C   UNL A   1      32.542  21.980  24.799  1.00  0.00     0.405 C 
ATOM     79  C   UNL A   1      34.977  21.736  24.654  1.00  0.00     0.297 C 
ATOM     80  N   UNL A   1      32.555  20.629  24.322  1.00  0.00    -0.274 N 
ATOM     81  N   UNL A   1      34.787  20.388  24.860  1.00  0.00    -0.236 N 
ATOM     82  S   UNL A   1      36.590  22.181  24.381  1.00  0.00    -0.005 S 
ATOM     83  C   UNL A   1      33.635  19.865  24.625  1.00  0.00     0.229 C 
ATOM     84  H   UNL A   1      31.807  20.268  23.795  1.00  0.00     0.260 HD
ATOM     85  H   UNL A   1      35.529  19.827  25.185  1.00  0.00     0.268 HD
BRANCH  83  86
ATOM     86  C   UNL A   1      33.520  18.387  24.667  1.00  0.00     0.047 A 
ATOM     87  C   UNL A   1      34.116  17.597  23.679  1.00  0.00     0.015 A 
ATOM     88  C   UNL A   1      32.736  17.803  25.666  1.00  0.00     0.015 A 
ATOM     89  C   UNL A   1      33.932  16.211  23.702  1.00  0.00     0.001 A 
ATOM     90  C   UNL A   1      32.540  16.421  25.673  1.00  0.00     0.001 A 
ATOM     91  C   UNL A   1      33.141  15.626  24.695  1.00  0.00     0.000 A 
ENDBRANCH  83  86
ENDBRANCH  76  77
ENDBRANCH  69  71
ENDBRANCH  68  69
ENDBRANCH  67  68
ENDBRANCH   1  67
TORSDOF 16
ENDMDL
