MODEL 1
REMARK VINA RESULT:     -10.4      0.000      0.000
REMARK SMILES CNS(=O)(=O)c1ccc(Oc2csc(C(=O)OCCOC(=O)c3ccc(-c4c5nc(c(-c6ccc(S(=O)(=O)[O-])cc6)c6ccc([nH]6)c(-c6ccc(S(=O)(=O)[O-])cc6)c6nc(c(-c7ccc(S(=O)(=O)[O-])cc7)c7ccc4[nH]7)C=C6)C=C5)cc3)c2)cc1
REMARK SMILES IDX 18 1 17 2 15 3 16 4 14 5 11 6 12 7 83 8 13 9 10 10 9 11 6 12
REMARK SMILES IDX 7 13 85 14 8 15 84 16 3 17 4 18 5 19 2 20 1 21 19 23 20 24
REMARK SMILES IDX 21 25 22 26 23 27 24 28 82 29 25 30 81 31 26 32 27 33 28 34
REMARK SMILES IDX 75 35 29 36 80 37 74 38 76 39 30 40 79 41 73 42 72 43 31 45
REMARK SMILES IDX 61 46 42 47 60 48 43 49 46 50 59 51 77 52 44 53 45 54 58 56
REMARK SMILES IDX 78 57 47 58 32 59 33 60 41 61 34 62 40 63 35 64 36 65 37 66
REMARK SMILES IDX 38 67 39 68 62 69 63 70 71 71 64 72 70 73 65 74 66 75 67 76
REMARK SMILES IDX 68 77 69 78 48 79 49 80 57 81 50 82 56 83 51 84 52 85 53 86
REMARK SMILES IDX 54 87 55 88
REMARK H PARENT 2 22 76 44 46 55
REMARK Flexibility Score: inf
ROOT
ATOM      1  C   UNL A   1      34.182  31.442  28.024  1.00  0.00     0.275 C 
ENDROOT
BRANCH   1   2
ATOM      2  O   UNL A   1      33.710  30.337  27.228  1.00  0.00    -0.458 OA
BRANCH   2   3
ATOM      3  C   UNL A   1      32.414  30.418  26.791  1.00  0.00     0.348 C 
ATOM      4  O   UNL A   1      31.783  31.460  26.725  1.00  0.00    -0.245 OA
BRANCH   3   5
ATOM      5  C   UNL A   1      31.938  29.101  26.394  1.00  0.00     0.116 A 
ATOM      6  C   UNL A   1      31.467  26.817  26.309  1.00  0.00     0.138 A 
ATOM      7  C   UNL A   1      31.029  27.212  25.066  1.00  0.00     0.112 A 
ATOM      8  C   UNL A   1      31.982  27.899  27.076  1.00  0.00     0.074 A 
ATOM      9  S   UNL A   1      31.175  28.903  24.864  1.00  0.00    -0.133 S 
BRANCH   6  10
ATOM     10  O   UNL A   1      31.325  25.572  26.809  1.00  0.00    -0.456 OA
BRANCH  10  11
ATOM     11  C   UNL A   1      31.731  24.437  26.151  1.00  0.00     0.127 A 
ATOM     12  C   UNL A   1      32.495  21.944  25.169  1.00  0.00     0.082 A 
ATOM     13  C   UNL A   1      31.276  22.075  25.834  1.00  0.00     0.025 A 
ATOM     14  C   UNL A   1      33.306  23.063  24.937  1.00  0.00     0.025 A 
ATOM     15  C   UNL A   1      30.900  23.325  26.326  1.00  0.00     0.048 A 
ATOM     16  C   UNL A   1      32.930  24.310  25.446  1.00  0.00     0.048 A 
BRANCH  12  17
ATOM     17  S   UNL A   1      33.034  20.347  24.620  1.00  0.00     0.240 S 
ATOM     18  O   UNL A   1      34.447  20.208  24.888  1.00  0.00    -0.207 OA
ATOM     19  O   UNL A   1      32.487  20.115  23.300  1.00  0.00    -0.207 OA
BRANCH  17  20
ATOM     20  N   UNL A   1      32.190  19.314  25.649  1.00  0.00    -0.214 NA
ATOM     21  C   UNL A   1      32.537  17.897  25.658  1.00  0.00     0.120 C 
ATOM     22  H   UNL A   1      32.324  19.661  26.599  1.00  0.00     0.141 HD
ENDBRANCH  17  20
ENDBRANCH  12  17
ENDBRANCH  10  11
ENDBRANCH   6  10
ENDBRANCH   3   5
ENDBRANCH   2   3
ENDBRANCH   1   2
BRANCH   1  23
ATOM     23  C   UNL A   1      35.595  31.206  28.570  1.00  0.00     0.275 C 
BRANCH  23  24
ATOM     24  O   UNL A   1      35.957  29.813  28.560  1.00  0.00    -0.458 OA
BRANCH  24  25
ATOM     25  C   UNL A   1      36.803  29.445  29.549  1.00  0.00     0.338 C 
ATOM     26  O   UNL A   1      36.539  29.345  30.737  1.00  0.00    -0.246 OA
BRANCH  25  27
ATOM     27  C   UNL A   1      38.100  29.025  28.994  1.00  0.00     0.060 A 
ATOM     28  C   UNL A   1      39.017  28.473  29.885  1.00  0.00     0.016 A 
ATOM     29  C   UNL A   1      38.472  29.295  27.678  1.00  0.00     0.016 A 
ATOM     30  C   UNL A   1      40.327  28.231  29.491  1.00  0.00     0.010 A 
ATOM     31  C   UNL A   1      39.788  29.030  27.272  1.00  0.00     0.010 A 
ATOM     32  C   UNL A   1      40.736  28.528  28.187  1.00  0.00    -0.014 A 
BRANCH  32  33
ATOM     33  C   UNL A   1      42.176  28.408  27.835  1.00  0.00     0.031 A 
ATOM     34  C   UNL A   1      43.099  29.580  28.053  1.00  0.00     0.074 A 
ATOM     35  C   UNL A   1      42.674  27.236  27.392  1.00  0.00     0.049 A 
ATOM     36  N   UNL A   1      44.371  29.696  27.769  1.00  0.00    -0.248 NA
ATOM     37  C   UNL A   1      42.511  30.780  28.670  1.00  0.00     0.031 C 
ATOM     38  C   UNL A   1      41.902  26.007  27.201  1.00  0.00     0.029 A 
ATOM     39  N   UNL A   1      43.953  26.885  27.037  1.00  0.00    -0.354 N 
ATOM     40  C   UNL A   1      44.726  30.989  28.138  1.00  0.00     0.074 A 
ATOM     41  C   UNL A   1      43.530  31.626  28.647  1.00  0.00     0.031 C 
ATOM     42  C   UNL A   1      42.727  25.031  26.788  1.00  0.00     0.029 A 
ATOM     43  C   UNL A   1      44.071  25.578  26.625  1.00  0.00     0.049 A 
ATOM     44  H   UNL A   1      44.713  27.509  27.074  1.00  0.00     0.167 HD
ATOM     45  C   UNL A   1      45.938  31.593  28.063  1.00  0.00     0.031 A 
ATOM     46  C   UNL A   1      45.133  24.901  26.148  1.00  0.00     0.031 A 
ATOM     47  C   UNL A   1      47.129  30.950  27.572  1.00  0.00     0.049 A 
ATOM     48  C   UNL A   1      46.458  25.607  26.027  1.00  0.00     0.074 A 
ATOM     49  C   UNL A   1      48.405  31.476  27.452  1.00  0.00     0.029 A 
ATOM     50  N   UNL A   1      47.197  29.638  27.128  1.00  0.00    -0.354 N 
ATOM     51  N   UNL A   1      46.767  26.841  26.346  1.00  0.00    -0.248 NA
ATOM     52  C   UNL A   1      47.577  24.824  25.487  1.00  0.00     0.031 C 
ATOM     53  C   UNL A   1      49.232  30.496  26.891  1.00  0.00     0.029 A 
ATOM     54  C   UNL A   1      48.487  29.340  26.723  1.00  0.00     0.049 A 
ATOM     55  H   UNL A   1      46.439  29.010  27.104  1.00  0.00     0.167 HD
ATOM     56  C   UNL A   1      48.125  26.973  26.079  1.00  0.00     0.074 A 
ATOM     57  C   UNL A   1      48.578  25.688  25.583  1.00  0.00     0.031 C 
ATOM     58  C   UNL A   1      48.926  28.056  26.234  1.00  0.00     0.031 A 
BRANCH  45  59
ATOM     59  C   UNL A   1      46.024  33.039  28.482  1.00  0.00    -0.014 A 
ATOM     60  C   UNL A   1      46.408  33.409  29.783  1.00  0.00     0.010 A 
ATOM     61  C   UNL A   1      45.734  34.048  27.544  1.00  0.00     0.010 A 
ATOM     62  C   UNL A   1      46.455  34.758  30.150  1.00  0.00     0.020 A 
ATOM     63  C   UNL A   1      45.809  35.397  27.898  1.00  0.00     0.020 A 
ATOM     64  C   UNL A   1      46.149  35.744  29.206  1.00  0.00     0.054 A 
BRANCH  64  65
ATOM     65  S   UNL A   1      46.221  37.485  29.708  1.00  0.00     0.124 S 
ATOM     66  O   UNL A   1      44.850  37.727  30.152  1.00  0.00    -0.237 OA
ATOM     67  O   UNL A   1      47.229  37.474  30.766  1.00  0.00    -0.237 OA
ATOM     68  O   UNL A   1      46.612  38.184  28.486  1.00  0.00    -0.744 OA
ENDBRANCH  64  65
ENDBRANCH  45  59
BRANCH  46  69
ATOM     69  C   UNL A   1      44.982  23.481  25.724  1.00  0.00    -0.014 A 
ATOM     70  C   UNL A   1      45.488  22.434  26.514  1.00  0.00     0.010 A 
ATOM     71  C   UNL A   1      44.321  23.169  24.522  1.00  0.00     0.010 A 
ATOM     72  C   UNL A   1      45.353  21.105  26.101  1.00  0.00     0.020 A 
ATOM     73  C   UNL A   1      44.155  21.839  24.121  1.00  0.00     0.020 A 
ATOM     74  C   UNL A   1      44.684  20.816  24.908  1.00  0.00     0.054 A 
BRANCH  74  75
ATOM     75  S   UNL A   1      44.476  19.082  24.415  1.00  0.00     0.124 S 
ATOM     76  O   UNL A   1      43.056  18.863  24.670  1.00  0.00    -0.237 OA
ATOM     77  O   UNL A   1      44.871  19.104  23.009  1.00  0.00    -0.237 OA
ATOM     78  O   UNL A   1      45.391  18.363  25.300  1.00  0.00    -0.744 OA
ENDBRANCH  74  75
ENDBRANCH  46  69
BRANCH  58  79
ATOM     79  C   UNL A   1      50.391  27.883  25.924  1.00  0.00    -0.014 A 
ATOM     80  C   UNL A   1      51.322  27.542  26.920  1.00  0.00     0.010 A 
ATOM     81  C   UNL A   1      50.834  28.041  24.598  1.00  0.00     0.010 A 
ATOM     82  C   UNL A   1      52.678  27.409  26.604  1.00  0.00     0.020 A 
ATOM     83  C   UNL A   1      52.183  27.878  24.272  1.00  0.00     0.020 A 
ATOM     84  C   UNL A   1      53.100  27.583  25.282  1.00  0.00     0.054 A 
BRANCH  84  85
ATOM     85  S   UNL A   1      54.860  27.390  24.892  1.00  0.00     0.124 S 
ATOM     86  O   UNL A   1      55.320  28.776  24.869  1.00  0.00    -0.237 OA
ATOM     87  O   UNL A   1      55.350  26.584  26.007  1.00  0.00    -0.237 OA
ATOM     88  O   UNL A   1      54.856  26.714  23.597  1.00  0.00    -0.744 OA
ENDBRANCH  84  85
ENDBRANCH  58  79
ENDBRANCH  32  33
ENDBRANCH  25  27
ENDBRANCH  24  25
ENDBRANCH  23  24
ENDBRANCH   1  23
TORSDOF 18
ENDMDL
MODEL 2
REMARK VINA RESULT:     -10.3      2.256      9.478
REMARK SMILES CNS(=O)(=O)c1ccc(Oc2csc(C(=O)OCCOC(=O)c3ccc(-c4c5nc(c(-c6ccc(S(=O)(=O)[O-])cc6)c6ccc([nH]6)c(-c6ccc(S(=O)(=O)[O-])cc6)c6nc(c(-c7ccc(S(=O)(=O)[O-])cc7)c7ccc4[nH]7)C=C6)C=C5)cc3)c2)cc1
REMARK SMILES IDX 18 1 17 2 15 3 16 4 14 5 11 6 12 7 83 8 13 9 10 10 9 11 6 12
REMARK SMILES IDX 7 13 85 14 8 15 84 16 3 17 4 18 5 19 2 20 1 21 19 23 20 24
REMARK SMILES IDX 21 25 22 26 23 27 24 28 82 29 25 30 81 31 26 32 27 33 28 34
REMARK SMILES IDX 75 35 29 36 80 37 74 38 76 39 30 40 79 41 73 42 72 43 31 45
REMARK SMILES IDX 61 46 42 47 60 48 43 49 46 50 59 51 77 52 44 53 45 54 58 56
REMARK SMILES IDX 78 57 47 58 32 59 33 60 41 61 34 62 40 63 35 64 36 65 37 66
REMARK SMILES IDX 38 67 39 68 62 69 63 70 71 71 64 72 70 73 65 74 66 75 67 76
REMARK SMILES IDX 68 77 69 78 48 79 49 80 57 81 50 82 56 83 51 84 52 85 53 86
REMARK SMILES IDX 54 87 55 88
REMARK H PARENT 2 22 76 44 46 55
REMARK Flexibility Score: inf
ROOT
ATOM      1  C   UNL A   1      42.528  18.632  26.577  1.00  0.00     0.275 C 
ENDROOT
BRANCH   1   2
ATOM      2  O   UNL A   1      41.906  19.904  26.310  1.00  0.00    -0.458 OA
BRANCH   2   3
ATOM      3  C   UNL A   1      40.558  19.878  26.069  1.00  0.00     0.348 C 
ATOM      4  O   UNL A   1      39.943  18.874  25.746  1.00  0.00    -0.245 OA
BRANCH   3   5
ATOM      5  C   UNL A   1      39.986  21.198  26.291  1.00  0.00     0.116 A 
ATOM      6  C   UNL A   1      38.671  23.122  26.173  1.00  0.00     0.138 A 
ATOM      7  C   UNL A   1      39.657  23.543  27.035  1.00  0.00     0.112 A 
ATOM      8  C   UNL A   1      38.852  21.776  25.751  1.00  0.00     0.074 A 
ATOM      9  S   UNL A   1      40.755  22.281  27.386  1.00  0.00    -0.133 S 
BRANCH   6  10
ATOM     10  O   UNL A   1      37.582  23.849  25.846  1.00  0.00    -0.456 OA
BRANCH  10  11
ATOM     11  C   UNL A   1      36.400  23.298  25.416  1.00  0.00     0.127 A 
ATOM     12  C   UNL A   1      34.130  21.840  24.723  1.00  0.00     0.082 A 
ATOM     13  C   UNL A   1      34.546  21.870  26.055  1.00  0.00     0.025 A 
ATOM     14  C   UNL A   1      34.804  22.584  23.747  1.00  0.00     0.025 A 
ATOM     15  C   UNL A   1      35.685  22.599  26.395  1.00  0.00     0.048 A 
ATOM     16  C   UNL A   1      35.955  23.301  24.092  1.00  0.00     0.048 A 
BRANCH  12  17
ATOM     17  S   UNL A   1      32.741  20.843  24.255  1.00  0.00     0.240 S 
ATOM     18  O   UNL A   1      33.137  19.453  24.254  1.00  0.00    -0.207 OA
ATOM     19  O   UNL A   1      32.115  21.453  23.102  1.00  0.00    -0.207 OA
BRANCH  17  20
ATOM     20  N   UNL A   1      31.675  21.093  25.537  1.00  0.00    -0.214 NA
ATOM     21  C   UNL A   1      31.101  22.421  25.720  1.00  0.00     0.120 C 
ATOM     22  H   UNL A   1      30.898  20.445  25.412  1.00  0.00     0.141 HD
ENDBRANCH  17  20
ENDBRANCH  12  17
ENDBRANCH  10  11
ENDBRANCH   6  10
ENDBRANCH   3   5
ENDBRANCH   2   3
ENDBRANCH   1   2
BRANCH   1  23
ATOM     23  C   UNL A   1      43.635  18.300  25.569  1.00  0.00     0.275 C 
BRANCH  23  24
ATOM     24  O   UNL A   1      43.707  19.264  24.503  1.00  0.00    -0.458 OA
BRANCH  24  25
ATOM     25  C   UNL A   1      44.893  19.907  24.408  1.00  0.00     0.338 C 
ATOM     26  O   UNL A   1      45.887  19.523  23.812  1.00  0.00    -0.246 OA
BRANCH  25  27
ATOM     27  C   UNL A   1      44.808  21.247  25.011  1.00  0.00     0.060 A 
ATOM     28  C   UNL A   1      44.485  22.301  24.159  1.00  0.00     0.016 A 
ATOM     29  C   UNL A   1      45.174  21.497  26.333  1.00  0.00     0.016 A 
ATOM     30  C   UNL A   1      44.574  23.616  24.598  1.00  0.00     0.010 A 
ATOM     31  C   UNL A   1      45.241  22.823  26.784  1.00  0.00     0.010 A 
ATOM     32  C   UNL A   1      44.975  23.896  25.909  1.00  0.00    -0.014 A 
BRANCH  32  33
ATOM     33  C   UNL A   1      45.213  25.308  26.308  1.00  0.00     0.031 A 
ATOM     34  C   UNL A   1      46.577  25.919  26.117  1.00  0.00     0.074 A 
ATOM     35  C   UNL A   1      44.198  26.066  26.768  1.00  0.00     0.049 A 
ATOM     36  N   UNL A   1      47.003  27.113  26.442  1.00  0.00    -0.248 NA
ATOM     37  C   UNL A   1      47.599  25.073  25.480  1.00  0.00     0.031 C 
ATOM     38  C   UNL A   1      42.814  25.616  26.935  1.00  0.00     0.029 A 
ATOM     39  N   UNL A   1      44.171  27.381  27.165  1.00  0.00    -0.354 N 
ATOM     40  C   UNL A   1      48.346  27.149  26.083  1.00  0.00     0.074 A 
ATOM     41  C   UNL A   1      48.670  25.850  25.535  1.00  0.00     0.031 C 
ATOM     42  C   UNL A   1      42.070  26.644  27.377  1.00  0.00     0.029 A 
ATOM     43  C   UNL A   1      42.932  27.805  27.583  1.00  0.00     0.049 A 
ATOM     44  H   UNL A   1      44.964  27.964  27.152  1.00  0.00     0.167 HD
ATOM     45  C   UNL A   1      49.231  28.171  26.197  1.00  0.00     0.031 A 
ATOM     46  C   UNL A   1      42.536  28.986  28.095  1.00  0.00     0.031 A 
ATOM     47  C   UNL A   1      48.899  29.468  26.727  1.00  0.00     0.049 A 
ATOM     48  C   UNL A   1      43.546  30.090  28.258  1.00  0.00     0.074 A 
ATOM     49  C   UNL A   1      49.723  30.569  26.887  1.00  0.00     0.029 A 
ATOM     50  N   UNL A   1      47.642  29.844  27.175  1.00  0.00    -0.354 N 
ATOM     51  N   UNL A   1      44.820  30.094  27.947  1.00  0.00    -0.248 NA
ATOM     52  C   UNL A   1      43.061  31.351  28.835  1.00  0.00     0.031 C 
ATOM     53  C   UNL A   1      48.975  31.594  27.477  1.00  0.00     0.029 A 
ATOM     54  C   UNL A   1      47.669  31.154  27.622  1.00  0.00     0.049 A 
ATOM     55  H   UNL A   1      46.846  29.264  27.175  1.00  0.00     0.167 HD
ATOM     56  C   UNL A   1      45.282  31.369  28.258  1.00  0.00     0.074 A 
ATOM     57  C   UNL A   1      44.146  32.110  28.771  1.00  0.00     0.031 C 
ATOM     58  C   UNL A   1      46.531  31.881  28.127  1.00  0.00     0.031 A 
BRANCH  45  59
ATOM     59  C   UNL A   1      50.656  27.909  25.779  1.00  0.00    -0.014 A 
ATOM     60  C   UNL A   1      51.085  28.110  24.454  1.00  0.00     0.010 A 
ATOM     61  C   UNL A   1      51.588  27.475  26.739  1.00  0.00     0.010 A 
ATOM     62  C   UNL A   1      52.407  27.835  24.090  1.00  0.00     0.020 A 
ATOM     63  C   UNL A   1      52.917  27.228  26.385  1.00  0.00     0.020 A 
ATOM     64  C   UNL A   1      53.314  27.390  25.057  1.00  0.00     0.054 A 
BRANCH  64  65
ATOM     65  S   UNL A   1      55.023  27.045  24.559  1.00  0.00     0.124 S 
ATOM     66  O   UNL A   1      55.319  25.833  25.318  1.00  0.00    -0.237 OA
ATOM     67  O   UNL A   1      54.906  26.866  23.113  1.00  0.00    -0.237 OA
ATOM     68  O   UNL A   1      55.756  28.237  24.979  1.00  0.00    -0.744 OA
ENDBRANCH  64  65
ENDBRANCH  45  59
BRANCH  46  69
ATOM     69  C   UNL A   1      41.119  29.177  28.516  1.00  0.00    -0.014 A 
ATOM     70  C   UNL A   1      40.750  29.088  29.870  1.00  0.00     0.010 A 
ATOM     71  C   UNL A   1      40.128  29.456  27.557  1.00  0.00     0.010 A 
ATOM     72  C   UNL A   1      39.416  29.256  30.254  1.00  0.00     0.020 A 
ATOM     73  C   UNL A   1      38.798  29.657  27.940  1.00  0.00     0.020 A 
ATOM     74  C   UNL A   1      38.449  29.542  29.286  1.00  0.00     0.054 A 
BRANCH  74  75
ATOM     75  S   UNL A   1      36.732  29.805  29.811  1.00  0.00     0.124 S 
ATOM     76  O   UNL A   1      36.654  28.982  31.014  1.00  0.00    -0.237 OA
ATOM     77  O   UNL A   1      36.686  31.249  30.028  1.00  0.00    -0.237 OA
ATOM     78  O   UNL A   1      35.949  29.328  28.673  1.00  0.00    -0.744 OA
ENDBRANCH  74  75
ENDBRANCH  46  69
BRANCH  58  79
ATOM     79  C   UNL A   1      46.724  33.333  28.484  1.00  0.00    -0.014 A 
ATOM     80  C   UNL A   1      47.106  33.731  29.777  1.00  0.00     0.010 A 
ATOM     81  C   UNL A   1      46.544  34.313  27.491  1.00  0.00     0.010 A 
ATOM     82  C   UNL A   1      47.257  35.087  30.082  1.00  0.00     0.020 A 
ATOM     83  C   UNL A   1      46.725  35.667  27.784  1.00  0.00     0.020 A 
ATOM     84  C   UNL A   1      47.060  36.047  29.085  1.00  0.00     0.054 A 
BRANCH  84  85
ATOM     85  S   UNL A   1      47.278  37.799  29.498  1.00  0.00     0.124 S 
ATOM     86  O   UNL A   1      46.799  38.458  28.287  1.00  0.00    -0.237 OA
ATOM     87  O   UNL A   1      46.431  37.958  30.678  1.00  0.00    -0.237 OA
ATOM     88  O   UNL A   1      48.712  37.921  29.748  1.00  0.00    -0.744 OA
ENDBRANCH  84  85
ENDBRANCH  58  79
ENDBRANCH  32  33
ENDBRANCH  25  27
ENDBRANCH  24  25
ENDBRANCH  23  24
ENDBRANCH   1  23
TORSDOF 18
ENDMDL
MODEL 3
REMARK VINA RESULT:     -10.1      4.997     12.561
REMARK SMILES CNS(=O)(=O)c1ccc(Oc2csc(C(=O)OCCOC(=O)c3ccc(-c4c5nc(c(-c6ccc(S(=O)(=O)[O-])cc6)c6ccc([nH]6)c(-c6ccc(S(=O)(=O)[O-])cc6)c6nc(c(-c7ccc(S(=O)(=O)[O-])cc7)c7ccc4[nH]7)C=C6)C=C5)cc3)c2)cc1
REMARK SMILES IDX 18 1 17 2 15 3 16 4 14 5 11 6 12 7 83 8 13 9 10 10 9 11 6 12
REMARK SMILES IDX 7 13 85 14 8 15 84 16 3 17 4 18 5 19 2 20 1 21 19 23 20 24
REMARK SMILES IDX 21 25 22 26 23 27 24 28 82 29 25 30 81 31 26 32 27 33 28 34
REMARK SMILES IDX 75 35 29 36 80 37 74 38 76 39 30 40 79 41 73 42 72 43 31 45
REMARK SMILES IDX 61 46 42 47 60 48 43 49 46 50 59 51 77 52 44 53 45 54 58 56
REMARK SMILES IDX 78 57 47 58 32 59 33 60 41 61 34 62 40 63 35 64 36 65 37 66
REMARK SMILES IDX 38 67 39 68 62 69 63 70 71 71 64 72 70 73 65 74 66 75 67 76
REMARK SMILES IDX 68 77 69 78 48 79 49 80 57 81 50 82 56 83 51 84 52 85 53 86
REMARK SMILES IDX 54 87 55 88
REMARK H PARENT 2 22 76 44 46 55
REMARK Flexibility Score: inf
ROOT
ATOM      1  C   UNL A   1      42.191  20.460  26.480  1.00  0.00     0.275 C 
ENDROOT
BRANCH   1   2
ATOM      2  O   UNL A   1      42.861  21.062  25.355  1.00  0.00    -0.458 OA
BRANCH   2   3
ATOM      3  C   UNL A   1      44.212  21.251  25.488  1.00  0.00     0.348 C 
ATOM      4  O   UNL A   1      45.037  20.359  25.382  1.00  0.00    -0.245 OA
BRANCH   3   5
ATOM      5  C   UNL A   1      44.497  22.657  25.733  1.00  0.00     0.116 A 
ATOM      6  C   UNL A   1      45.012  24.919  25.482  1.00  0.00     0.138 A 
ATOM      7  C   UNL A   1      45.062  24.800  26.851  1.00  0.00     0.112 A 
ATOM      8  C   UNL A   1      44.681  23.695  24.838  1.00  0.00     0.074 A 
ATOM      9  S   UNL A   1      44.633  23.223  27.353  1.00  0.00    -0.133 S 
BRANCH   6  10
ATOM     10  O   UNL A   1      45.142  26.084  24.812  1.00  0.00    -0.456 OA
BRANCH  10  11
ATOM     11  C   UNL A   1      45.118  27.316  25.416  1.00  0.00     0.127 A 
ATOM     12  C   UNL A   1      45.394  29.689  26.849  1.00  0.00     0.082 A 
ATOM     13  C   UNL A   1      46.494  29.169  26.166  1.00  0.00     0.025 A 
ATOM     14  C   UNL A   1      44.142  29.065  26.769  1.00  0.00     0.025 A 
ATOM     15  C   UNL A   1      46.350  27.979  25.453  1.00  0.00     0.048 A 
ATOM     16  C   UNL A   1      44.009  27.864  26.065  1.00  0.00     0.048 A 
BRANCH  12  17
ATOM     17  S   UNL A   1      45.580  31.149  27.837  1.00  0.00     0.240 S 
ATOM     18  O   UNL A   1      45.760  32.289  26.967  1.00  0.00    -0.207 OA
ATOM     19  O   UNL A   1      46.512  30.856  28.905  1.00  0.00    -0.207 OA
BRANCH  17  20
ATOM     20  N   UNL A   1      44.070  31.274  28.575  1.00  0.00    -0.214 NA
ATOM     21  C   UNL A   1      43.447  32.589  28.679  1.00  0.00     0.120 C 
ATOM     22  H   UNL A   1      43.429  30.680  28.049  1.00  0.00     0.141 HD
ENDBRANCH  17  20
ENDBRANCH  12  17
ENDBRANCH  10  11
ENDBRANCH   6  10
ENDBRANCH   3   5
ENDBRANCH   2   3
ENDBRANCH   1   2
BRANCH   1  23
ATOM     23  C   UNL A   1      40.830  21.107  26.762  1.00  0.00     0.275 C 
BRANCH  23  24
ATOM     24  O   UNL A   1      40.583  22.247  25.919  1.00  0.00    -0.458 OA
BRANCH  24  25
ATOM     25  C   UNL A   1      39.356  22.797  26.063  1.00  0.00     0.338 C 
ATOM     26  O   UNL A   1      38.286  22.281  25.780  1.00  0.00    -0.246 OA
BRANCH  25  27
ATOM     27  C   UNL A   1      39.445  24.090  26.760  1.00  0.00     0.060 A 
ATOM     28  C   UNL A   1      40.220  25.078  26.157  1.00  0.00     0.016 A 
ATOM     29  C   UNL A   1      38.915  24.291  28.034  1.00  0.00     0.016 A 
ATOM     30  C   UNL A   1      40.520  26.253  26.834  1.00  0.00     0.010 A 
ATOM     31  C   UNL A   1      39.197  25.487  28.709  1.00  0.00     0.010 A 
ATOM     32  C   UNL A   1      40.031  26.463  28.128  1.00  0.00    -0.014 A 
BRANCH  32  33
ATOM     33  C   UNL A   1      40.491  27.655  28.890  1.00  0.00     0.031 A 
ATOM     34  C   UNL A   1      41.890  27.689  29.450  1.00  0.00     0.074 A 
ATOM     35  C   UNL A   1      39.691  28.731  29.020  1.00  0.00     0.049 A 
ATOM     36  N   UNL A   1      42.467  28.608  30.181  1.00  0.00    -0.248 NA
ATOM     37  C   UNL A   1      42.752  26.535  29.149  1.00  0.00     0.031 C 
ATOM     38  C   UNL A   1      38.340  28.853  28.467  1.00  0.00     0.029 A 
ATOM     39  N   UNL A   1      39.905  29.936  29.644  1.00  0.00    -0.354 N 
ATOM     40  C   UNL A   1      43.743  28.129  30.457  1.00  0.00     0.074 A 
ATOM     41  C   UNL A   1      43.849  26.828  29.833  1.00  0.00     0.031 C 
ATOM     42  C   UNL A   1      37.857  30.072  28.757  1.00  0.00     0.029 A 
ATOM     43  C   UNL A   1      38.835  30.795  29.565  1.00  0.00     0.049 A 
ATOM     44  H   UNL A   1      40.745  30.162  30.104  1.00  0.00     0.167 HD
ATOM     45  C   UNL A   1      44.739  28.719  31.164  1.00  0.00     0.031 A 
ATOM     46  C   UNL A   1      38.650  32.017  30.101  1.00  0.00     0.031 A 
ATOM     47  C   UNL A   1      44.635  30.021  31.770  1.00  0.00     0.049 A 
ATOM     48  C   UNL A   1      39.751  32.631  30.924  1.00  0.00     0.074 A 
ATOM     49  C   UNL A   1      45.586  30.705  32.509  1.00  0.00     0.029 A 
ATOM     50  N   UNL A   1      43.520  30.842  31.699  1.00  0.00    -0.354 N 
ATOM     51  N   UNL A   1      40.937  32.147  31.206  1.00  0.00    -0.248 NA
ATOM     52  C   UNL A   1      39.488  33.958  31.496  1.00  0.00     0.031 C 
ATOM     53  C   UNL A   1      45.027  31.919  32.926  1.00  0.00     0.029 A 
ATOM     54  C   UNL A   1      43.752  32.019  32.390  1.00  0.00     0.049 A 
ATOM     55  H   UNL A   1      42.685  30.620  31.226  1.00  0.00     0.167 HD
ATOM     56  C   UNL A   1      41.577  33.127  31.958  1.00  0.00     0.074 A 
ATOM     57  C   UNL A   1      40.648  34.233  32.077  1.00  0.00     0.031 C 
ATOM     58  C   UNL A   1      42.821  33.115  32.497  1.00  0.00     0.031 A 
BRANCH  45  59
ATOM     59  C   UNL A   1      46.013  27.936  31.359  1.00  0.00    -0.014 A 
ATOM     60  C   UNL A   1      46.226  27.145  32.503  1.00  0.00     0.010 A 
ATOM     61  C   UNL A   1      47.007  27.976  30.364  1.00  0.00     0.010 A 
ATOM     62  C   UNL A   1      47.428  26.450  32.668  1.00  0.00     0.020 A 
ATOM     63  C   UNL A   1      48.196  27.257  30.511  1.00  0.00     0.020 A 
ATOM     64  C   UNL A   1      48.409  26.515  31.673  1.00  0.00     0.054 A 
BRANCH  64  65
ATOM     65  S   UNL A   1      49.957  25.599  31.911  1.00  0.00     0.124 S 
ATOM     66  O   UNL A   1      49.571  24.614  32.918  1.00  0.00    -0.237 OA
ATOM     67  O   UNL A   1      50.221  25.063  30.578  1.00  0.00    -0.237 OA
ATOM     68  O   UNL A   1      50.897  26.620  32.366  1.00  0.00    -0.744 OA
ENDBRANCH  64  65
ENDBRANCH  45  59
BRANCH  46  69
ATOM     69  C   UNL A   1      37.358  32.732  29.898  1.00  0.00    -0.014 A 
ATOM     70  C   UNL A   1      36.325  32.641  30.848  1.00  0.00     0.010 A 
ATOM     71  C   UNL A   1      37.157  33.515  28.746  1.00  0.00     0.010 A 
ATOM     72  C   UNL A   1      35.112  33.305  30.641  1.00  0.00     0.020 A 
ATOM     73  C   UNL A   1      35.958  34.206  28.551  1.00  0.00     0.020 A 
ATOM     74  C   UNL A   1      34.937  34.085  29.494  1.00  0.00     0.054 A 
BRANCH  74  75
ATOM     75  S   UNL A   1      33.373  34.977  29.270  1.00  0.00     0.124 S 
ATOM     76  O   UNL A   1      33.832  36.279  28.794  1.00  0.00    -0.237 OA
ATOM     77  O   UNL A   1      32.678  34.152  28.285  1.00  0.00    -0.237 OA
ATOM     78  O   UNL A   1      32.781  34.972  30.606  1.00  0.00    -0.744 OA
ENDBRANCH  74  75
ENDBRANCH  46  69
BRANCH  58  79
ATOM     79  C   UNL A   1      43.277  34.360  33.213  1.00  0.00    -0.014 A 
ATOM     80  C   UNL A   1      43.756  35.481  32.513  1.00  0.00     0.010 A 
ATOM     81  C   UNL A   1      43.196  34.412  34.617  1.00  0.00     0.010 A 
ATOM     82  C   UNL A   1      44.190  36.614  33.208  1.00  0.00     0.020 A 
ATOM     83  C   UNL A   1      43.601  35.554  35.312  1.00  0.00     0.020 A 
ATOM     84  C   UNL A   1      44.115  36.642  34.604  1.00  0.00     0.054 A 
BRANCH  84  85
ATOM     85  S   UNL A   1      44.669  38.127  35.483  1.00  0.00     0.124 S 
ATOM     86  O   UNL A   1      44.434  39.172  34.490  1.00  0.00    -0.237 OA
ATOM     87  O   UNL A   1      43.788  38.159  36.648  1.00  0.00    -0.237 OA
ATOM     88  O   UNL A   1      46.072  37.853  35.779  1.00  0.00    -0.744 OA
ENDBRANCH  84  85
ENDBRANCH  58  79
ENDBRANCH  32  33
ENDBRANCH  25  27
ENDBRANCH  24  25
ENDBRANCH  23  24
ENDBRANCH   1  23
TORSDOF 18
ENDMDL
