MODEL 1
REMARK VINA RESULT:     -12.4      0.000      0.000
REMARK SMILES CC(=O)n1cc2c3c(cccc31)C(=O)C[C@@H]2C(=O)OCCOC(=O)c1ccc(-c2c3nc(c(-c4ccc(S(=O)(=O)[O-])cc4)c4ccc([nH]4)c(-c4ccc(S(=O)(=O)[O-])cc4)c4nc(c(-c5ccc(S(=O)(=O)[O-])cc5)c5ccc2[nH]5)C=C4)C=C3)cc1
REMARK SMILES IDX 21 1 20 2 19 3 17 4 18 5 16 6 4 7 5 8 12 9 6 10 7 11 11 12
REMARK SMILES IDX 8 13 10 14 15 15 9 16 13 17 14 18 2 19 1 20 3 21 22 22 23 23
REMARK SMILES IDX 24 24 25 25 26 26 84 27 27 28 83 29 28 30 29 31 30 32 77 33
REMARK SMILES IDX 31 34 82 35 76 36 78 37 32 38 81 39 75 40 74 41 33 43 63 44
REMARK SMILES IDX 44 45 62 46 45 47 48 48 61 49 79 50 46 51 47 52 60 54 80 55
REMARK SMILES IDX 49 56 34 57 35 58 43 59 36 60 42 61 37 62 38 63 39 64 40 65
REMARK SMILES IDX 41 66 64 67 65 68 73 69 66 70 72 71 67 72 68 73 69 74 70 75
REMARK SMILES IDX 71 76 50 77 51 78 59 79 52 80 58 81 53 82 54 83 55 84 56 85
REMARK SMILES IDX 57 86
REMARK H PARENT 78 42 48 53
REMARK Flexibility Score: inf
ROOT
ATOM      1  C   UNL A   1      39.479  34.490  32.775  1.00  0.00     0.275 C 
ENDROOT
BRANCH   1   2
ATOM      2  C   UNL A   1      38.429  33.988  33.767  1.00  0.00     0.274 C 
BRANCH   2   3
ATOM      3  O   UNL A   1      37.147  34.631  33.608  1.00  0.00    -0.462 OA
BRANCH   3   4
ATOM      4  C   UNL A   1      36.079  33.989  34.165  1.00  0.00     0.314 C 
ATOM      5  O   UNL A   1      36.172  33.100  35.008  1.00  0.00    -0.252 OA
BRANCH   4   6
ATOM      6  C   UNL A   1      34.744  34.394  33.549  1.00  0.00     0.139 C 
ATOM      7  N   UNL A   1      34.963  32.927  30.128  1.00  0.00    -0.287 N 
ATOM      8  C   UNL A   1      35.194  32.819  31.498  1.00  0.00     0.100 A 
ATOM      9  C   UNL A   1      34.269  34.123  29.908  1.00  0.00     0.057 A 
ATOM     10  C   UNL A   1      34.727  33.948  32.125  1.00  0.00    -0.006 A 
ATOM     11  C   UNL A   1      34.119  34.733  31.143  1.00  0.00     0.015 A 
ATOM     12  C   UNL A   1      33.726  34.734  28.764  1.00  0.00     0.027 A 
ATOM     13  C   UNL A   1      33.439  35.938  31.292  1.00  0.00     0.027 A 
ATOM     14  C   UNL A   1      33.014  35.939  28.928  1.00  0.00     0.003 A 
ATOM     15  C   UNL A   1      34.396  35.901  33.684  1.00  0.00     0.101 C 
ATOM     16  C   UNL A   1      32.859  36.540  30.180  1.00  0.00     0.012 A 
ATOM     17  C   UNL A   1      33.392  36.468  32.669  1.00  0.00     0.164 C 
ATOM     18  O   UNL A   1      32.624  37.387  32.938  1.00  0.00    -0.294 OA
BRANCH   7  19
ATOM     19  C   UNL A   1      35.349  31.991  29.147  1.00  0.00     0.227 C 
ATOM     20  C   UNL A   1      36.829  31.882  28.920  1.00  0.00     0.115 C 
ATOM     21  O   UNL A   1      34.510  31.312  28.568  1.00  0.00    -0.274 OA
ENDBRANCH   7  19
ENDBRANCH   4   6
ENDBRANCH   3   4
ENDBRANCH   2   3
ENDBRANCH   1   2
BRANCH   1  22
ATOM     22  O   UNL A   1      39.724  33.537  31.740  1.00  0.00    -0.458 OA
BRANCH  22  23
ATOM     23  C   UNL A   1      41.032  33.447  31.411  1.00  0.00     0.338 C 
ATOM     24  O   UNL A   1      41.940  34.135  31.843  1.00  0.00    -0.246 OA
BRANCH  23  25
ATOM     25  C   UNL A   1      41.251  32.458  30.363  1.00  0.00     0.060 A 
ATOM     26  C   UNL A   1      40.317  31.417  30.277  1.00  0.00     0.016 A 
ATOM     27  C   UNL A   1      42.529  32.371  29.808  1.00  0.00     0.016 A 
ATOM     28  C   UNL A   1      40.746  30.189  29.834  1.00  0.00     0.010 A 
ATOM     29  C   UNL A   1      42.963  31.137  29.390  1.00  0.00     0.010 A 
ATOM     30  C   UNL A   1      42.092  30.051  29.496  1.00  0.00    -0.014 A 
BRANCH  30  31
ATOM     31  C   UNL A   1      42.604  28.710  29.326  1.00  0.00     0.031 A 
ATOM     32  C   UNL A   1      43.407  28.199  30.451  1.00  0.00     0.074 A 
ATOM     33  C   UNL A   1      42.224  27.952  28.282  1.00  0.00     0.049 A 
ATOM     34  N   UNL A   1      44.649  27.846  30.453  1.00  0.00    -0.248 NA
ATOM     35  C   UNL A   1      42.761  28.181  31.772  1.00  0.00     0.031 C 
ATOM     36  C   UNL A   1      41.172  28.231  27.301  1.00  0.00     0.029 A 
ATOM     37  N   UNL A   1      42.608  26.687  27.978  1.00  0.00    -0.354 N 
ATOM     38  C   UNL A   1      44.900  27.400  31.743  1.00  0.00     0.074 A 
ATOM     39  C   UNL A   1      43.763  27.776  32.547  1.00  0.00     0.031 C 
ATOM     40  C   UNL A   1      40.834  27.076  26.685  1.00  0.00     0.029 A 
ATOM     41  C   UNL A   1      41.726  26.022  27.140  1.00  0.00     0.049 A 
ATOM     42  H   UNL A   1      43.436  26.279  28.320  1.00  0.00     0.167 HD
ATOM     43  C   UNL A   1      45.910  26.545  32.047  1.00  0.00     0.031 A 
ATOM     44  C   UNL A   1      41.673  24.679  26.955  1.00  0.00     0.031 A 
ATOM     45  C   UNL A   1      46.871  26.406  30.993  1.00  0.00     0.049 A 
ATOM     46  C   UNL A   1      42.978  24.124  27.405  1.00  0.00     0.074 A 
ATOM     47  C   UNL A   1      47.737  27.267  30.350  1.00  0.00     0.029 A 
ATOM     48  N   UNL A   1      46.762  25.300  30.183  1.00  0.00    -0.354 N 
ATOM     49  N   UNL A   1      44.119  24.377  26.824  1.00  0.00    -0.248 NA
ATOM     50  C   UNL A   1      43.079  23.600  28.760  1.00  0.00     0.031 C 
ATOM     51  C   UNL A   1      47.747  26.840  28.990  1.00  0.00     0.029 A 
ATOM     52  C   UNL A   1      46.906  25.729  28.886  1.00  0.00     0.049 A 
ATOM     53  H   UNL A   1      46.610  24.373  30.477  1.00  0.00     0.167 HD
ATOM     54  C   UNL A   1      45.048  24.428  27.854  1.00  0.00     0.074 A 
ATOM     55  C   UNL A   1      44.372  23.835  29.002  1.00  0.00     0.031 C 
ATOM     56  C   UNL A   1      46.177  25.190  27.756  1.00  0.00     0.031 A 
BRANCH  43  57
ATOM     57  C   UNL A   1      45.793  25.571  33.180  1.00  0.00    -0.014 A 
ATOM     58  C   UNL A   1      46.625  25.685  34.304  1.00  0.00     0.010 A 
ATOM     59  C   UNL A   1      45.016  24.398  33.054  1.00  0.00     0.010 A 
ATOM     60  C   UNL A   1      46.672  24.664  35.261  1.00  0.00     0.020 A 
ATOM     61  C   UNL A   1      45.019  23.400  34.023  1.00  0.00     0.020 A 
ATOM     62  C   UNL A   1      45.867  23.529  35.113  1.00  0.00     0.054 A 
BRANCH  62  63
ATOM     63  S   UNL A   1      46.007  22.179  36.310  1.00  0.00     0.124 S 
ATOM     64  O   UNL A   1      45.154  21.156  35.713  1.00  0.00    -0.237 OA
ATOM     65  O   UNL A   1      47.441  21.901  36.293  1.00  0.00    -0.237 OA
ATOM     66  O   UNL A   1      45.505  22.766  37.550  1.00  0.00    -0.744 OA
ENDBRANCH  62  63
ENDBRANCH  43  57
BRANCH  44  67
ATOM     67  C   UNL A   1      40.450  23.847  26.808  1.00  0.00    -0.014 A 
ATOM     68  C   UNL A   1      39.205  24.452  26.556  1.00  0.00     0.010 A 
ATOM     69  C   UNL A   1      40.542  22.450  26.636  1.00  0.00     0.010 A 
ATOM     70  C   UNL A   1      38.119  23.701  26.074  1.00  0.00     0.020 A 
ATOM     71  C   UNL A   1      39.463  21.692  26.171  1.00  0.00     0.020 A 
ATOM     72  C   UNL A   1      38.267  22.328  25.856  1.00  0.00     0.054 A 
BRANCH  72  73
ATOM     73  S   UNL A   1      36.924  21.403  25.059  1.00  0.00     0.124 S 
ATOM     74  O   UNL A   1      36.613  22.233  23.900  1.00  0.00    -0.237 OA
ATOM     75  O   UNL A   1      37.563  20.123  24.769  1.00  0.00    -0.237 OA
ATOM     76  O   UNL A   1      35.882  21.355  26.084  1.00  0.00    -0.744 OA
ENDBRANCH  72  73
ENDBRANCH  44  67
BRANCH  56  77
ATOM     77  C   UNL A   1      46.542  25.753  26.402  1.00  0.00    -0.014 A 
ATOM     78  C   UNL A   1      46.016  26.962  25.907  1.00  0.00     0.010 A 
ATOM     79  C   UNL A   1      47.582  25.131  25.691  1.00  0.00     0.010 A 
ATOM     80  C   UNL A   1      46.517  27.533  24.727  1.00  0.00     0.020 A 
ATOM     81  C   UNL A   1      48.094  25.701  24.522  1.00  0.00     0.020 A 
ATOM     82  C   UNL A   1      47.563  26.901  24.047  1.00  0.00     0.054 A 
BRANCH  82  83
ATOM     83  S   UNL A   1      48.252  27.679  22.558  1.00  0.00     0.124 S 
ATOM     84  O   UNL A   1      49.538  28.189  23.025  1.00  0.00    -0.237 OA
ATOM     85  O   UNL A   1      48.322  26.562  21.619  1.00  0.00    -0.237 OA
ATOM     86  O   UNL A   1      47.270  28.708  22.215  1.00  0.00    -0.744 OA
ENDBRANCH  82  83
ENDBRANCH  56  77
ENDBRANCH  30  31
ENDBRANCH  23  25
ENDBRANCH  22  23
ENDBRANCH   1  22
TORSDOF 15
ENDMDL
MODEL 2
REMARK VINA RESULT:     -12.0      3.906      7.737
REMARK SMILES CC(=O)n1cc2c3c(cccc31)C(=O)C[C@@H]2C(=O)OCCOC(=O)c1ccc(-c2c3nc(c(-c4ccc(S(=O)(=O)[O-])cc4)c4ccc([nH]4)c(-c4ccc(S(=O)(=O)[O-])cc4)c4nc(c(-c5ccc(S(=O)(=O)[O-])cc5)c5ccc2[nH]5)C=C4)C=C3)cc1
REMARK SMILES IDX 21 1 20 2 19 3 17 4 18 5 16 6 4 7 5 8 12 9 6 10 7 11 11 12
REMARK SMILES IDX 8 13 10 14 15 15 9 16 13 17 14 18 2 19 1 20 3 21 22 22 23 23
REMARK SMILES IDX 24 24 25 25 26 26 84 27 27 28 83 29 28 30 29 31 30 32 77 33
REMARK SMILES IDX 31 34 82 35 76 36 78 37 32 38 81 39 75 40 74 41 33 43 63 44
REMARK SMILES IDX 44 45 62 46 45 47 48 48 61 49 79 50 46 51 47 52 60 54 80 55
REMARK SMILES IDX 49 56 34 57 35 58 43 59 36 60 42 61 37 62 38 63 39 64 40 65
REMARK SMILES IDX 41 66 64 67 65 68 73 69 66 70 72 71 67 72 68 73 69 74 70 75
REMARK SMILES IDX 71 76 50 77 51 78 59 79 52 80 58 81 53 82 54 83 55 84 56 85
REMARK SMILES IDX 57 86
REMARK H PARENT 78 42 48 53
REMARK Flexibility Score: inf
ROOT
ATOM      1  C   UNL A   1      33.698  30.493  26.690  1.00  0.00     0.275 C 
ENDROOT
BRANCH   1   2
ATOM      2  C   UNL A   1      33.081  29.100  26.563  1.00  0.00     0.274 C 
BRANCH   2   3
ATOM      3  O   UNL A   1      34.053  28.075  26.271  1.00  0.00    -0.462 OA
BRANCH   3   4
ATOM      4  C   UNL A   1      33.646  27.081  25.429  1.00  0.00     0.314 C 
ATOM      5  O   UNL A   1      33.512  27.217  24.216  1.00  0.00    -0.252 OA
BRANCH   4   6
ATOM      6  C   UNL A   1      33.248  25.800  26.156  1.00  0.00     0.139 C 
ATOM      7  N   UNL A   1      35.263  23.214  24.378  1.00  0.00    -0.287 N 
ATOM      8  C   UNL A   1      35.164  24.490  24.929  1.00  0.00     0.100 A 
ATOM      9  C   UNL A   1      34.070  22.537  24.662  1.00  0.00     0.057 A 
ATOM     10  C   UNL A   1      33.917  24.649  25.482  1.00  0.00    -0.006 A 
ATOM     11  C   UNL A   1      33.259  23.424  25.351  1.00  0.00     0.015 A 
ATOM     12  C   UNL A   1      33.616  21.230  24.416  1.00  0.00     0.027 A 
ATOM     13  C   UNL A   1      31.999  23.061  25.815  1.00  0.00     0.027 A 
ATOM     14  C   UNL A   1      32.350  20.861  24.916  1.00  0.00     0.003 A 
ATOM     15  C   UNL A   1      31.718  25.577  26.291  1.00  0.00     0.101 C 
ATOM     16  C   UNL A   1      31.544  21.761  25.619  1.00  0.00     0.012 A 
ATOM     17  C   UNL A   1      31.250  24.130  26.506  1.00  0.00     0.164 C 
ATOM     18  O   UNL A   1      30.245  23.845  27.151  1.00  0.00    -0.294 OA
BRANCH   7  19
ATOM     19  C   UNL A   1      36.372  22.699  23.676  1.00  0.00     0.227 C 
ATOM     20  C   UNL A   1      37.230  21.746  24.456  1.00  0.00     0.115 C 
ATOM     21  O   UNL A   1      36.566  23.005  22.507  1.00  0.00    -0.274 OA
ENDBRANCH   7  19
ENDBRANCH   4   6
ENDBRANCH   3   4
ENDBRANCH   2   3
ENDBRANCH   1   2
BRANCH   1  22
ATOM     22  O   UNL A   1      34.059  30.789  28.039  1.00  0.00    -0.458 OA
BRANCH  22  23
ATOM     23  C   UNL A   1      35.214  31.485  28.131  1.00  0.00     0.338 C 
ATOM     24  O   UNL A   1      35.517  32.480  27.496  1.00  0.00    -0.246 OA
BRANCH  23  25
ATOM     25  C   UNL A   1      36.152  30.842  29.042  1.00  0.00     0.060 A 
ATOM     26  C   UNL A   1      37.052  31.682  29.713  1.00  0.00     0.016 A 
ATOM     27  C   UNL A   1      36.370  29.472  28.890  1.00  0.00     0.016 A 
ATOM     28  C   UNL A   1      38.294  31.186  30.030  1.00  0.00     0.010 A 
ATOM     29  C   UNL A   1      37.620  28.986  29.185  1.00  0.00     0.010 A 
ATOM     30  C   UNL A   1      38.587  29.873  29.664  1.00  0.00    -0.014 A 
BRANCH  30  31
ATOM     31  C   UNL A   1      39.969  29.456  29.721  1.00  0.00     0.031 A 
ATOM     32  C   UNL A   1      40.500  29.234  31.078  1.00  0.00     0.074 A 
ATOM     33  C   UNL A   1      40.645  29.145  28.601  1.00  0.00     0.049 A 
ATOM     34  N   UNL A   1      41.465  29.854  31.672  1.00  0.00    -0.248 NA
ATOM     35  C   UNL A   1      39.787  28.260  31.918  1.00  0.00     0.031 C 
ATOM     36  C   UNL A   1      40.118  28.998  27.241  1.00  0.00     0.029 A 
ATOM     37  N   UNL A   1      41.935  28.741  28.482  1.00  0.00    -0.354 N 
ATOM     38  C   UNL A   1      41.592  29.233  32.907  1.00  0.00     0.074 A 
ATOM     39  C   UNL A   1      40.443  28.377  33.068  1.00  0.00     0.031 C 
ATOM     40  C   UNL A   1      41.009  28.299  26.503  1.00  0.00     0.029 A 
ATOM     41  C   UNL A   1      42.202  28.067  27.300  1.00  0.00     0.049 A 
ATOM     42  H   UNL A   1      42.618  28.912  29.170  1.00  0.00     0.167 HD
ATOM     43  C   UNL A   1      42.738  29.264  33.636  1.00  0.00     0.031 A 
ATOM     44  C   UNL A   1      43.277  27.273  27.071  1.00  0.00     0.031 A 
ATOM     45  C   UNL A   1      43.674  30.248  33.177  1.00  0.00     0.049 A 
ATOM     46  C   UNL A   1      44.310  27.631  28.080  1.00  0.00     0.074 A 
ATOM     47  C   UNL A   1      43.659  31.624  33.063  1.00  0.00     0.029 A 
ATOM     48  N   UNL A   1      44.707  29.811  32.382  1.00  0.00    -0.354 N 
ATOM     49  N   UNL A   1      44.906  28.790  28.134  1.00  0.00    -0.248 NA
ATOM     50  C   UNL A   1      44.397  26.835  29.296  1.00  0.00     0.031 C 
ATOM     51  C   UNL A   1      44.379  31.907  31.867  1.00  0.00     0.029 A 
ATOM     52  C   UNL A   1      44.814  30.691  31.333  1.00  0.00     0.049 A 
ATOM     53  H   UNL A   1      45.267  29.016  32.536  1.00  0.00     0.167 HD
ATOM     54  C   UNL A   1      45.092  29.040  29.488  1.00  0.00     0.074 A 
ATOM     55  C   UNL A   1      44.862  27.757  30.143  1.00  0.00     0.031 C 
ATOM     56  C   UNL A   1      45.148  30.315  29.974  1.00  0.00     0.031 A 
BRANCH  43  57
ATOM     57  C   UNL A   1      43.119  28.130  34.538  1.00  0.00    -0.014 A 
ATOM     58  C   UNL A   1      43.343  28.354  35.904  1.00  0.00     0.010 A 
ATOM     59  C   UNL A   1      43.480  26.870  34.010  1.00  0.00     0.010 A 
ATOM     60  C   UNL A   1      43.905  27.353  36.707  1.00  0.00     0.020 A 
ATOM     61  C   UNL A   1      43.994  25.853  34.808  1.00  0.00     0.020 A 
ATOM     62  C   UNL A   1      44.225  26.109  36.151  1.00  0.00     0.054 A 
BRANCH  62  63
ATOM     63  S   UNL A   1      45.033  24.859  37.179  1.00  0.00     0.124 S 
ATOM     64  O   UNL A   1      46.442  25.211  37.035  1.00  0.00    -0.237 OA
ATOM     65  O   UNL A   1      44.446  25.114  38.492  1.00  0.00    -0.237 OA
ATOM     66  O   UNL A   1      44.637  23.596  36.559  1.00  0.00    -0.744 OA
ENDBRANCH  62  63
ENDBRANCH  43  57
BRANCH  44  67
ATOM     67  C   UNL A   1      43.293  25.988  26.321  1.00  0.00    -0.014 A 
ATOM     68  C   UNL A   1      44.264  25.755  25.330  1.00  0.00     0.010 A 
ATOM     69  C   UNL A   1      42.536  24.884  26.766  1.00  0.00     0.010 A 
ATOM     70  C   UNL A   1      44.522  24.455  24.862  1.00  0.00     0.020 A 
ATOM     71  C   UNL A   1      42.775  23.589  26.294  1.00  0.00     0.020 A 
ATOM     72  C   UNL A   1      43.794  23.376  25.372  1.00  0.00     0.054 A 
BRANCH  72  73
ATOM     73  S   UNL A   1      44.260  21.686  24.901  1.00  0.00     0.124 S 
ATOM     74  O   UNL A   1      44.457  21.803  23.460  1.00  0.00    -0.237 OA
ATOM     75  O   UNL A   1      45.469  21.469  25.691  1.00  0.00    -0.237 OA
ATOM     76  O   UNL A   1      43.106  20.884  25.306  1.00  0.00    -0.744 OA
ENDBRANCH  72  73
ENDBRANCH  44  67
BRANCH  56  77
ATOM     77  C   UNL A   1      45.288  31.449  28.987  1.00  0.00    -0.014 A 
ATOM     78  C   UNL A   1      46.525  31.837  28.435  1.00  0.00     0.010 A 
ATOM     79  C   UNL A   1      44.112  32.017  28.467  1.00  0.00     0.010 A 
ATOM     80  C   UNL A   1      46.583  32.774  27.392  1.00  0.00     0.020 A 
ATOM     81  C   UNL A   1      44.163  32.942  27.421  1.00  0.00     0.020 A 
ATOM     82  C   UNL A   1      45.397  33.313  26.884  1.00  0.00     0.054 A 
BRANCH  82  83
ATOM     83  S   UNL A   1      45.474  34.474  25.490  1.00  0.00     0.124 S 
ATOM     84  O   UNL A   1      46.910  34.623  25.273  1.00  0.00    -0.237 OA
ATOM     85  O   UNL A   1      44.750  33.760  24.441  1.00  0.00    -0.237 OA
ATOM     86  O   UNL A   1      44.801  35.671  25.995  1.00  0.00    -0.744 OA
ENDBRANCH  82  83
ENDBRANCH  56  77
ENDBRANCH  30  31
ENDBRANCH  23  25
ENDBRANCH  22  23
ENDBRANCH   1  22
TORSDOF 15
ENDMDL
MODEL 3
REMARK VINA RESULT:     -12.0      4.518     10.967
REMARK SMILES CC(=O)n1cc2c3c(cccc31)C(=O)C[C@@H]2C(=O)OCCOC(=O)c1ccc(-c2c3nc(c(-c4ccc(S(=O)(=O)[O-])cc4)c4ccc([nH]4)c(-c4ccc(S(=O)(=O)[O-])cc4)c4nc(c(-c5ccc(S(=O)(=O)[O-])cc5)c5ccc2[nH]5)C=C4)C=C3)cc1
REMARK SMILES IDX 21 1 20 2 19 3 17 4 18 5 16 6 4 7 5 8 12 9 6 10 7 11 11 12
REMARK SMILES IDX 8 13 10 14 15 15 9 16 13 17 14 18 2 19 1 20 3 21 22 22 23 23
REMARK SMILES IDX 24 24 25 25 26 26 84 27 27 28 83 29 28 30 29 31 30 32 77 33
REMARK SMILES IDX 31 34 82 35 76 36 78 37 32 38 81 39 75 40 74 41 33 43 63 44
REMARK SMILES IDX 44 45 62 46 45 47 48 48 61 49 79 50 46 51 47 52 60 54 80 55
REMARK SMILES IDX 49 56 34 57 35 58 43 59 36 60 42 61 37 62 38 63 39 64 40 65
REMARK SMILES IDX 41 66 64 67 65 68 73 69 66 70 72 71 67 72 68 73 69 74 70 75
REMARK SMILES IDX 71 76 50 77 51 78 59 79 52 80 58 81 53 82 54 83 55 84 56 85
REMARK SMILES IDX 57 86
REMARK H PARENT 78 42 48 53
REMARK Flexibility Score: inf
ROOT
ATOM      1  C   UNL A   1      38.228  21.428  25.423  1.00  0.00     0.275 C 
ENDROOT
BRANCH   1   2
ATOM      2  C   UNL A   1      36.926  21.707  24.672  1.00  0.00     0.274 C 
BRANCH   2   3
ATOM      3  O   UNL A   1      35.771  21.744  25.535  1.00  0.00    -0.462 OA
BRANCH   3   4
ATOM      4  C   UNL A   1      35.193  22.967  25.716  1.00  0.00     0.314 C 
ATOM      5  O   UNL A   1      35.806  23.975  26.059  1.00  0.00    -0.252 OA
BRANCH   4   6
ATOM      6  C   UNL A   1      33.676  22.945  25.569  1.00  0.00     0.139 C 
ATOM      7  N   UNL A   1      33.079  25.614  23.033  1.00  0.00    -0.287 N 
ATOM      8  C   UNL A   1      33.838  24.537  23.488  1.00  0.00     0.100 A 
ATOM      9  C   UNL A   1      31.975  25.743  23.885  1.00  0.00     0.057 A 
ATOM     10  C   UNL A   1      33.276  24.042  24.639  1.00  0.00    -0.006 A 
ATOM     11  C   UNL A   1      32.101  24.765  24.858  1.00  0.00     0.015 A 
ATOM     12  C   UNL A   1      30.857  26.595  23.901  1.00  0.00     0.027 A 
ATOM     13  C   UNL A   1      31.148  24.592  25.856  1.00  0.00     0.027 A 
ATOM     14  C   UNL A   1      29.881  26.393  24.898  1.00  0.00     0.003 A 
ATOM     15  C   UNL A   1      32.891  23.012  26.907  1.00  0.00     0.101 C 
ATOM     16  C   UNL A   1      30.014  25.396  25.868  1.00  0.00     0.012 A 
ATOM     17  C   UNL A   1      31.445  23.523  26.832  1.00  0.00     0.164 C 
ATOM     18  O   UNL A   1      30.564  23.141  27.596  1.00  0.00    -0.294 OA
BRANCH   7  19
ATOM     19  C   UNL A   1      33.368  26.415  21.910  1.00  0.00     0.227 C 
ATOM     20  C   UNL A   1      33.814  27.813  22.223  1.00  0.00     0.115 C 
ATOM     21  O   UNL A   1      33.282  25.955  20.778  1.00  0.00    -0.274 OA
ENDBRANCH   7  19
ENDBRANCH   4   6
ENDBRANCH   3   4
ENDBRANCH   2   3
ENDBRANCH   1   2
BRANCH   1  22
ATOM     22  O   UNL A   1      38.498  22.433  26.401  1.00  0.00    -0.458 OA
BRANCH  22  23
ATOM     23  C   UNL A   1      39.733  22.320  26.941  1.00  0.00     0.338 C 
ATOM     24  O   UNL A   1      40.188  21.348  27.517  1.00  0.00    -0.246 OA
BRANCH  23  25
ATOM     25  C   UNL A   1      40.473  23.572  26.845  1.00  0.00     0.060 A 
ATOM     26  C   UNL A   1      41.690  23.636  27.536  1.00  0.00     0.016 A 
ATOM     27  C   UNL A   1      39.773  24.710  26.442  1.00  0.00     0.016 A 
ATOM     28  C   UNL A   1      42.095  24.851  28.034  1.00  0.00     0.010 A 
ATOM     29  C   UNL A   1      40.166  25.919  26.962  1.00  0.00     0.010 A 
ATOM     30  C   UNL A   1      41.266  25.952  27.823  1.00  0.00    -0.014 A 
BRANCH  30  31
ATOM     31  C   UNL A   1      41.531  27.146  28.592  1.00  0.00     0.031 A 
ATOM     32  C   UNL A   1      42.723  27.907  28.176  1.00  0.00     0.074 A 
ATOM     33  C   UNL A   1      40.650  27.590  29.506  1.00  0.00     0.049 A 
ATOM     34  N   UNL A   1      43.790  28.160  28.857  1.00  0.00    -0.248 NA
ATOM     35  C   UNL A   1      42.767  28.355  26.776  1.00  0.00     0.031 C 
ATOM     36  C   UNL A   1      39.287  27.109  29.753  1.00  0.00     0.029 A 
ATOM     37  N   UNL A   1      40.746  28.682  30.306  1.00  0.00    -0.354 N 
ATOM     38  C   UNL A   1      44.577  28.945  28.026  1.00  0.00     0.074 A 
ATOM     39  C   UNL A   1      43.979  28.899  26.714  1.00  0.00     0.031 C 
ATOM     40  C   UNL A   1      38.611  28.054  30.444  1.00  0.00     0.029 A 
ATOM     41  C   UNL A   1      39.526  29.132  30.786  1.00  0.00     0.049 A 
ATOM     42  H   UNL A   1      41.603  29.114  30.525  1.00  0.00     0.167 HD
ATOM     43  C   UNL A   1      45.541  29.780  28.492  1.00  0.00     0.031 A 
ATOM     44  C   UNL A   1      39.287  30.362  31.305  1.00  0.00     0.031 A 
ATOM     45  C   UNL A   1      45.885  29.538  29.862  1.00  0.00     0.049 A 
ATOM     46  C   UNL A   1      40.602  30.934  31.699  1.00  0.00     0.074 A 
ATOM     47  C   UNL A   1      46.417  28.469  30.555  1.00  0.00     0.029 A 
ATOM     48  N   UNL A   1      45.324  30.364  30.807  1.00  0.00    -0.354 N 
ATOM     49  N   UNL A   1      41.357  30.444  32.645  1.00  0.00    -0.248 NA
ATOM     50  C   UNL A   1      41.281  31.822  30.767  1.00  0.00     0.031 C 
ATOM     51  C   UNL A   1      45.759  28.479  31.818  1.00  0.00     0.029 A 
ATOM     52  C   UNL A   1      44.881  29.567  31.834  1.00  0.00     0.049 A 
ATOM     53  H   UNL A   1      45.254  31.345  30.759  1.00  0.00     0.167 HD
ATOM     54  C   UNL A   1      42.660  30.633  32.204  1.00  0.00     0.074 A 
ATOM     55  C   UNL A   1      42.552  31.581  31.100  1.00  0.00     0.031 C 
ATOM     56  C   UNL A   1      43.669  29.800  32.593  1.00  0.00     0.031 A 
BRANCH  43  57
ATOM     57  C   UNL A   1      45.888  31.048  27.773  1.00  0.00    -0.014 A 
ATOM     58  C   UNL A   1      47.185  31.253  27.281  1.00  0.00     0.010 A 
ATOM     59  C   UNL A   1      45.002  32.148  27.769  1.00  0.00     0.010 A 
ATOM     60  C   UNL A   1      47.576  32.511  26.803  1.00  0.00     0.020 A 
ATOM     61  C   UNL A   1      45.363  33.388  27.252  1.00  0.00     0.020 A 
ATOM     62  C   UNL A   1      46.660  33.569  26.792  1.00  0.00     0.054 A 
BRANCH  62  63
ATOM     63  S   UNL A   1      47.204  35.209  26.256  1.00  0.00     0.124 S 
ATOM     64  O   UNL A   1      47.840  34.914  24.976  1.00  0.00    -0.237 OA
ATOM     65  O   UNL A   1      45.943  35.943  26.186  1.00  0.00    -0.237 OA
ATOM     66  O   UNL A   1      48.109  35.635  27.321  1.00  0.00    -0.744 OA
ENDBRANCH  62  63
ENDBRANCH  43  57
BRANCH  44  67
ATOM     67  C   UNL A   1      38.074  31.197  31.096  1.00  0.00    -0.014 A 
ATOM     68  C   UNL A   1      36.798  30.682  31.389  1.00  0.00     0.010 A 
ATOM     69  C   UNL A   1      38.182  32.586  30.877  1.00  0.00     0.010 A 
ATOM     70  C   UNL A   1      35.690  31.534  31.537  1.00  0.00     0.020 A 
ATOM     71  C   UNL A   1      37.081  33.440  31.006  1.00  0.00     0.020 A 
ATOM     72  C   UNL A   1      35.848  32.913  31.373  1.00  0.00     0.054 A 
BRANCH  72  73
ATOM     73  S   UNL A   1      34.459  34.020  31.748  1.00  0.00     0.124 S 
ATOM     74  O   UNL A   1      33.708  33.259  32.741  1.00  0.00    -0.237 OA
ATOM     75  O   UNL A   1      35.140  35.211  32.245  1.00  0.00    -0.237 OA
ATOM     76  O   UNL A   1      33.790  34.184  30.457  1.00  0.00    -0.744 OA
ENDBRANCH  72  73
ENDBRANCH  44  67
BRANCH  56  77
ATOM     77  C   UNL A   1      43.405  28.843  33.732  1.00  0.00    -0.014 A 
ATOM     78  C   UNL A   1      43.706  29.146  35.074  1.00  0.00     0.010 A 
ATOM     79  C   UNL A   1      42.665  27.680  33.455  1.00  0.00     0.010 A 
ATOM     80  C   UNL A   1      43.281  28.303  36.113  1.00  0.00     0.020 A 
ATOM     81  C   UNL A   1      42.229  26.843  34.486  1.00  0.00     0.020 A 
ATOM     82  C   UNL A   1      42.534  27.161  35.810  1.00  0.00     0.054 A 
BRANCH  82  83
ATOM     83  S   UNL A   1      41.930  26.111  37.163  1.00  0.00     0.124 S 
ATOM     84  O   UNL A   1      41.833  24.797  36.533  1.00  0.00    -0.237 OA
ATOM     85  O   UNL A   1      42.982  26.251  38.168  1.00  0.00    -0.237 OA
ATOM     86  O   UNL A   1      40.649  26.715  37.528  1.00  0.00    -0.744 OA
ENDBRANCH  82  83
ENDBRANCH  56  77
ENDBRANCH  30  31
ENDBRANCH  23  25
ENDBRANCH  22  23
ENDBRANCH   1  22
TORSDOF 15
ENDMDL
