MODEL 1
REMARK VINA RESULT:     -10.9      0.000      0.000
REMARK SMILES Cc1cc(OC(F)(F)F)cc2c1O[C@H](C(F)(F)F)C(C(=O)OCCOC(=O)c1ccc(-c3c4nc(c(-c5ccc(S(=O)(=O)[O-])cc5)c5ccc([nH]5)c(-c5ccc(S(=O)(=O)[O-])cc5)c5nc(c(-c6ccc(S(=O)(=O)[O-])cc6)c6ccc3[nH]6)C=C5)C=C4)cc1)=C2
REMARK SMILES IDX 24 1 23 2 22 3 20 4 21 5 19 6 1 7 2 8 3 9 12 10 4 11 11 12
REMARK SMILES IDX 13 13 10 14 88 15 14 16 5 17 6 18 7 19 8 20 9 21 15 22 16 23
REMARK SMILES IDX 17 24 18 25 25 26 26 27 27 28 28 29 29 30 87 31 30 32 86 33
REMARK SMILES IDX 31 34 32 35 33 36 80 37 34 38 85 39 79 40 81 41 35 42 84 43
REMARK SMILES IDX 78 44 77 45 36 47 66 48 47 49 65 50 48 51 51 52 64 53 82 54
REMARK SMILES IDX 49 55 50 56 63 58 83 59 52 60 37 61 38 62 46 63 39 64 45 65
REMARK SMILES IDX 40 66 41 67 42 68 43 69 44 70 67 71 68 72 76 73 69 74 75 75
REMARK SMILES IDX 70 76 71 77 72 78 73 79 74 80 53 81 54 82 62 83 55 84 61 85
REMARK SMILES IDX 56 86 57 87 58 88 59 89 60 90
REMARK H PARENT 81 46 51 57
REMARK Flexibility Score: inf
ROOT
ATOM      1  C   UNL A   1      33.374  29.462  25.649  1.00  0.00     0.275 C 
ENDROOT
BRANCH   1   2
ATOM      2  C   UNL A   1      32.050  28.700  25.669  1.00  0.00     0.275 C 
BRANCH   2   3
ATOM      3  O   UNL A   1      32.243  27.305  25.356  1.00  0.00    -0.459 OA
BRANCH   3   4
ATOM      4  C   UNL A   1      31.521  26.434  26.104  1.00  0.00     0.338 C 
ATOM      5  O   UNL A   1      30.617  26.714  26.870  1.00  0.00    -0.246 OA
BRANCH   4   6
ATOM      6  C   UNL A   1      31.966  25.050  25.849  1.00  0.00     0.087 C 
ATOM      7  C   UNL A   1      32.497  20.199  24.164  1.00  0.00     0.048 C 
ATOM      8  C   UNL A   1      33.351  21.225  24.854  1.00  0.00    -0.005 A 
ATOM      9  C   UNL A   1      34.697  20.901  25.124  1.00  0.00     0.054 A 
ATOM     10  C   UNL A   1      32.859  22.487  25.218  1.00  0.00     0.131 A 
ATOM     11  C   UNL A   1      35.542  21.813  25.755  1.00  0.00     0.130 A 
ATOM     12  C   UNL A   1      33.709  23.407  25.832  1.00  0.00     0.021 A 
ATOM     13  O   UNL A   1      31.540  22.754  24.966  1.00  0.00    -0.475 OA
ATOM     14  C   UNL A   1      35.037  23.064  26.111  1.00  0.00     0.058 A 
ATOM     15  C   UNL A   1      33.227  24.735  26.159  1.00  0.00     0.027 C 
ATOM     16  C   UNL A   1      31.032  24.102  25.157  1.00  0.00     0.316 C 
BRANCH  11  17
ATOM     17  O   UNL A   1      36.855  21.626  26.078  1.00  0.00    -0.406 OA
BRANCH  17  18
ATOM     18  C   UNL A   1      37.833  22.321  25.324  1.00  0.00     0.573 C 
ATOM     19  F   UNL A   1      37.410  22.537  24.059  1.00  0.00    -0.132 F 
ATOM     20  F   UNL A   1      38.133  23.507  25.900  1.00  0.00    -0.132 F 
ATOM     21  F   UNL A   1      38.960  21.581  25.275  1.00  0.00    -0.132 F 
ENDBRANCH  17  18
ENDBRANCH  11  17
BRANCH  16  22
ATOM     22  C   UNL A   1      30.590  24.655  23.792  1.00  0.00     0.430 C 
ATOM     23  F   UNL A   1      29.610  25.581  23.928  1.00  0.00    -0.167 F 
ATOM     24  F   UNL A   1      31.610  25.272  23.145  1.00  0.00    -0.167 F 
ATOM     25  F   UNL A   1      30.121  23.687  22.973  1.00  0.00    -0.167 F 
ENDBRANCH  16  22
ENDBRANCH   4   6
ENDBRANCH   3   4
ENDBRANCH   2   3
ENDBRANCH   1   2
BRANCH   1  26
ATOM     26  O   UNL A   1      34.209  29.057  26.748  1.00  0.00    -0.458 OA
BRANCH  26  27
ATOM     27  C   UNL A   1      34.422  30.011  27.680  1.00  0.00     0.338 C 
ATOM     28  O   UNL A   1      33.604  30.789  28.144  1.00  0.00    -0.246 OA
BRANCH  27  29
ATOM     29  C   UNL A   1      35.817  29.972  28.138  1.00  0.00     0.060 A 
ATOM     30  C   UNL A   1      36.838  30.203  27.220  1.00  0.00     0.016 A 
ATOM     31  C   UNL A   1      36.115  29.515  29.420  1.00  0.00     0.016 A 
ATOM     32  C   UNL A   1      38.143  29.831  27.525  1.00  0.00     0.010 A 
ATOM     33  C   UNL A   1      37.445  29.267  29.767  1.00  0.00     0.010 A 
ATOM     34  C   UNL A   1      38.468  29.366  28.806  1.00  0.00    -0.014 A 
BRANCH  34  35
ATOM     35  C   UNL A   1      39.860  28.952  29.132  1.00  0.00     0.031 A 
ATOM     36  C   UNL A   1      40.786  29.905  29.844  1.00  0.00     0.074 A 
ATOM     37  C   UNL A   1      40.294  27.717  28.803  1.00  0.00     0.049 A 
ATOM     38  N   UNL A   1      42.072  29.795  30.063  1.00  0.00    -0.248 NA
ATOM     39  C   UNL A   1      40.197  31.148  30.374  1.00  0.00     0.031 C 
ATOM     40  C   UNL A   1      39.485  26.672  28.169  1.00  0.00     0.029 A 
ATOM     41  N   UNL A   1      41.524  27.128  28.965  1.00  0.00    -0.354 N 
ATOM     42  C   UNL A   1      42.451  30.967  30.708  1.00  0.00     0.074 A 
ATOM     43  C   UNL A   1      41.264  31.781  30.842  1.00  0.00     0.031 C 
ATOM     44  C   UNL A   1      40.224  25.562  28.035  1.00  0.00     0.029 A 
ATOM     45  C   UNL A   1      41.583  25.840  28.484  1.00  0.00     0.049 A 
ATOM     46  H   UNL A   1      42.289  27.582  29.384  1.00  0.00     0.167 HD
ATOM     47  C   UNL A   1      43.680  31.330  31.149  1.00  0.00     0.031 A 
ATOM     48  C   UNL A   1      42.619  24.987  28.370  1.00  0.00     0.031 A 
ATOM     49  C   UNL A   1      44.848  30.498  31.048  1.00  0.00     0.049 A 
ATOM     50  C   UNL A   1      43.984  25.434  28.806  1.00  0.00     0.074 A 
ATOM     51  C   UNL A   1      46.137  30.774  31.470  1.00  0.00     0.029 A 
ATOM     52  N   UNL A   1      44.870  29.223  30.503  1.00  0.00    -0.354 N 
ATOM     53  N   UNL A   1      44.336  26.574  29.348  1.00  0.00    -0.248 NA
ATOM     54  C   UNL A   1      45.092  24.492  28.597  1.00  0.00     0.031 C 
ATOM     55  C   UNL A   1      46.947  29.686  31.139  1.00  0.00     0.029 A 
ATOM     56  C   UNL A   1      46.152  28.709  30.561  1.00  0.00     0.049 A 
ATOM     57  H   UNL A   1      44.088  28.755  30.130  1.00  0.00     0.167 HD
ATOM     58  C   UNL A   1      45.706  26.483  29.560  1.00  0.00     0.074 A 
ATOM     59  C   UNL A   1      46.117  25.174  29.095  1.00  0.00     0.031 C 
ATOM     60  C   UNL A   1      46.544  27.403  30.094  1.00  0.00     0.031 A 
BRANCH  47  61
ATOM     61  C   UNL A   1      43.841  32.694  31.763  1.00  0.00    -0.014 A 
ATOM     62  C   UNL A   1      43.737  32.890  33.151  1.00  0.00     0.010 A 
ATOM     63  C   UNL A   1      44.194  33.783  30.941  1.00  0.00     0.010 A 
ATOM     64  C   UNL A   1      43.970  34.152  33.704  1.00  0.00     0.020 A 
ATOM     65  C   UNL A   1      44.449  35.041  31.494  1.00  0.00     0.020 A 
ATOM     66  C   UNL A   1      44.332  35.218  32.873  1.00  0.00     0.054 A 
BRANCH  66  67
ATOM     67  S   UNL A   1      44.662  36.834  33.629  1.00  0.00     0.124 S 
ATOM     68  O   UNL A   1      45.924  37.215  33.001  1.00  0.00    -0.237 OA
ATOM     69  O   UNL A   1      43.497  37.615  33.222  1.00  0.00    -0.237 OA
ATOM     70  O   UNL A   1      44.747  36.540  35.058  1.00  0.00    -0.744 OA
ENDBRANCH  66  67
ENDBRANCH  47  61
BRANCH  48  71
ATOM     71  C   UNL A   1      42.392  23.640  27.781  1.00  0.00    -0.014 A 
ATOM     72  C   UNL A   1      42.595  23.421  26.409  1.00  0.00     0.010 A 
ATOM     73  C   UNL A   1      42.046  22.553  28.606  1.00  0.00     0.010 A 
ATOM     74  C   UNL A   1      42.467  22.135  25.873  1.00  0.00     0.020 A 
ATOM     75  C   UNL A   1      41.941  21.263  28.079  1.00  0.00     0.020 A 
ATOM     76  C   UNL A   1      42.157  21.062  26.715  1.00  0.00     0.054 A 
BRANCH  76  77
ATOM     77  S   UNL A   1      42.070  19.396  26.003  1.00  0.00     0.124 S 
ATOM     78  O   UNL A   1      42.855  19.541  24.782  1.00  0.00    -0.237 OA
ATOM     79  O   UNL A   1      42.675  18.581  27.054  1.00  0.00    -0.237 OA
ATOM     80  O   UNL A   1      40.638  19.181  25.803  1.00  0.00    -0.744 OA
ENDBRANCH  76  77
ENDBRANCH  48  71
BRANCH  60  81
ATOM     81  C   UNL A   1      47.993  27.033  30.236  1.00  0.00    -0.014 A 
ATOM     82  C   UNL A   1      48.929  27.390  29.252  1.00  0.00     0.010 A 
ATOM     83  C   UNL A   1      48.436  26.425  31.425  1.00  0.00     0.010 A 
ATOM     84  C   UNL A   1      50.289  27.142  29.454  1.00  0.00     0.020 A 
ATOM     85  C   UNL A   1      49.797  26.195  31.639  1.00  0.00     0.020 A 
ATOM     86  C   UNL A   1      50.714  26.558  30.652  1.00  0.00     0.054 A 
BRANCH  86  87
ATOM     87  S   UNL A   1      52.493  26.310  30.910  1.00  0.00     0.124 S 
ATOM     88  O   UNL A   1      52.981  26.136  29.544  1.00  0.00    -0.237 OA
ATOM     89  O   UNL A   1      52.890  27.553  31.566  1.00  0.00    -0.237 OA
ATOM     90  O   UNL A   1      52.560  25.116  31.748  1.00  0.00    -0.744 OA
ENDBRANCH  86  87
ENDBRANCH  60  81
ENDBRANCH  34  35
ENDBRANCH  27  29
ENDBRANCH  26  27
ENDBRANCH   1  26
TORSDOF 17
ENDMDL
MODEL 2
REMARK VINA RESULT:     -10.8      2.481      4.690
REMARK SMILES Cc1cc(OC(F)(F)F)cc2c1O[C@H](C(F)(F)F)C(C(=O)OCCOC(=O)c1ccc(-c3c4nc(c(-c5ccc(S(=O)(=O)[O-])cc5)c5ccc([nH]5)c(-c5ccc(S(=O)(=O)[O-])cc5)c5nc(c(-c6ccc(S(=O)(=O)[O-])cc6)c6ccc3[nH]6)C=C5)C=C4)cc1)=C2
REMARK SMILES IDX 24 1 23 2 22 3 20 4 21 5 19 6 1 7 2 8 3 9 12 10 4 11 11 12
REMARK SMILES IDX 13 13 10 14 88 15 14 16 5 17 6 18 7 19 8 20 9 21 15 22 16 23
REMARK SMILES IDX 17 24 18 25 25 26 26 27 27 28 28 29 29 30 87 31 30 32 86 33
REMARK SMILES IDX 31 34 32 35 33 36 80 37 34 38 85 39 79 40 81 41 35 42 84 43
REMARK SMILES IDX 78 44 77 45 36 47 66 48 47 49 65 50 48 51 51 52 64 53 82 54
REMARK SMILES IDX 49 55 50 56 63 58 83 59 52 60 37 61 38 62 46 63 39 64 45 65
REMARK SMILES IDX 40 66 41 67 42 68 43 69 44 70 67 71 68 72 76 73 69 74 75 75
REMARK SMILES IDX 70 76 71 77 72 78 73 79 74 80 53 81 54 82 62 83 55 84 61 85
REMARK SMILES IDX 56 86 57 87 58 88 59 89 60 90
REMARK H PARENT 81 46 51 57
REMARK Flexibility Score: inf
ROOT
ATOM      1  C   UNL A   1      33.471  28.004  26.584  1.00  0.00     0.275 C 
ENDROOT
BRANCH   1   2
ATOM      2  C   UNL A   1      33.871  26.696  25.901  1.00  0.00     0.275 C 
BRANCH   2   3
ATOM      3  O   UNL A   1      33.537  26.715  24.498  1.00  0.00    -0.459 OA
BRANCH   3   4
ATOM      4  C   UNL A   1      32.648  25.773  24.098  1.00  0.00     0.338 C 
ATOM      5  O   UNL A   1      32.854  24.577  23.998  1.00  0.00    -0.246 OA
BRANCH   4   6
ATOM      6  C   UNL A   1      31.341  26.395  23.808  1.00  0.00     0.087 C 
ATOM      7  C   UNL A   1      26.373  27.799  23.755  1.00  0.00     0.048 C 
ATOM      8  C   UNL A   1      27.676  28.341  23.238  1.00  0.00    -0.005 A 
ATOM      9  C   UNL A   1      27.667  29.591  22.584  1.00  0.00     0.054 A 
ATOM     10  C   UNL A   1      28.889  27.655  23.401  1.00  0.00     0.131 A 
ATOM     11  C   UNL A   1      28.845  30.150  22.089  1.00  0.00     0.130 A 
ATOM     12  C   UNL A   1      30.070  28.224  22.923  1.00  0.00     0.021 A 
ATOM     13  O   UNL A   1      28.853  26.433  24.015  1.00  0.00    -0.475 OA
ATOM     14  C   UNL A   1      30.043  29.455  22.259  1.00  0.00     0.058 A 
ATOM     15  C   UNL A   1      31.337  27.552  23.138  1.00  0.00     0.027 C 
ATOM     16  C   UNL A   1      30.098  25.770  24.368  1.00  0.00     0.316 C 
BRANCH  11  17
ATOM     17  O   UNL A   1      28.974  31.341  21.436  1.00  0.00    -0.406 OA
BRANCH  17  18
ATOM     18  C   UNL A   1      28.340  32.479  21.992  1.00  0.00     0.573 C 
ATOM     19  F   UNL A   1      27.617  33.138  21.061  1.00  0.00    -0.132 F 
ATOM     20  F   UNL A   1      27.531  32.128  23.017  1.00  0.00    -0.132 F 
ATOM     21  F   UNL A   1      29.282  33.318  22.471  1.00  0.00    -0.132 F 
ENDBRANCH  17  18
ENDBRANCH  11  17
BRANCH  16  22
ATOM     22  C   UNL A   1      30.174  25.659  25.899  1.00  0.00     0.430 C 
ATOM     23  F   UNL A   1      28.954  25.416  26.438  1.00  0.00    -0.167 F 
ATOM     24  F   UNL A   1      30.974  24.635  26.290  1.00  0.00    -0.167 F 
ATOM     25  F   UNL A   1      30.653  26.785  26.473  1.00  0.00    -0.167 F 
ENDBRANCH  16  22
ENDBRANCH   4   6
ENDBRANCH   3   4
ENDBRANCH   2   3
ENDBRANCH   1   2
BRANCH   1  26
ATOM     26  O   UNL A   1      34.430  29.038  26.300  1.00  0.00    -0.458 OA
BRANCH  26  27
ATOM     27  C   UNL A   1      34.551  29.979  27.261  1.00  0.00     0.338 C 
ATOM     28  O   UNL A   1      33.703  30.780  27.624  1.00  0.00    -0.246 OA
BRANCH  27  29
ATOM     29  C   UNL A   1      35.874  29.894  27.894  1.00  0.00     0.060 A 
ATOM     30  C   UNL A   1      37.009  30.114  27.119  1.00  0.00     0.016 A 
ATOM     31  C   UNL A   1      35.992  29.405  29.193  1.00  0.00     0.016 A 
ATOM     32  C   UNL A   1      38.255  29.701  27.582  1.00  0.00     0.010 A 
ATOM     33  C   UNL A   1      37.260  29.114  29.703  1.00  0.00     0.010 A 
ATOM     34  C   UNL A   1      38.399  29.203  28.884  1.00  0.00    -0.014 A 
BRANCH  34  35
ATOM     35  C   UNL A   1      39.727  28.745  29.377  1.00  0.00     0.031 A 
ATOM     36  C   UNL A   1      40.541  29.627  30.291  1.00  0.00     0.074 A 
ATOM     37  C   UNL A   1      40.202  27.534  29.018  1.00  0.00     0.049 A 
ATOM     38  N   UNL A   1      41.780  29.482  30.687  1.00  0.00    -0.248 NA
ATOM     39  C   UNL A   1      39.882  30.833  30.825  1.00  0.00     0.031 C 
ATOM     40  C   UNL A   1      39.494  26.554  28.191  1.00  0.00     0.029 A 
ATOM     41  N   UNL A   1      41.393  26.917  29.312  1.00  0.00    -0.354 N 
ATOM     42  C   UNL A   1      42.062  30.595  31.472  1.00  0.00     0.074 A 
ATOM     43  C   UNL A   1      40.871  31.412  31.494  1.00  0.00     0.031 C 
ATOM     44  C   UNL A   1      40.242  25.447  28.080  1.00  0.00     0.029 A 
ATOM     45  C   UNL A   1      41.520  25.670  28.744  1.00  0.00     0.049 A 
ATOM     46  H   UNL A   1      42.090  27.326  29.874  1.00  0.00     0.167 HD
ATOM     47  C   UNL A   1      43.213  30.904  32.116  1.00  0.00     0.031 A 
ATOM     48  C   UNL A   1      42.560  24.814  28.717  1.00  0.00     0.031 A 
ATOM     49  C   UNL A   1      44.382  30.066  32.122  1.00  0.00     0.049 A 
ATOM     50  C   UNL A   1      43.846  25.206  29.382  1.00  0.00     0.074 A 
ATOM     51  C   UNL A   1      45.594  30.291  32.750  1.00  0.00     0.029 A 
ATOM     52  N   UNL A   1      44.480  28.838  31.487  1.00  0.00    -0.354 N 
ATOM     53  N   UNL A   1      44.117  26.296  30.060  1.00  0.00    -0.248 NA
ATOM     54  C   UNL A   1      44.970  24.268  29.265  1.00  0.00     0.031 C 
ATOM     55  C   UNL A   1      46.442  29.221  32.456  1.00  0.00     0.029 A 
ATOM     56  C   UNL A   1      45.739  28.303  31.692  1.00  0.00     0.049 A 
ATOM     57  H   UNL A   1      43.761  28.412  30.967  1.00  0.00     0.167 HD
ATOM     58  C   UNL A   1      45.440  26.169  30.463  1.00  0.00     0.074 A 
ATOM     59  C   UNL A   1      45.912  24.895  29.960  1.00  0.00     0.031 C 
ATOM     60  C   UNL A   1      46.192  27.032  31.185  1.00  0.00     0.031 A 
BRANCH  47  61
ATOM     61  C   UNL A   1      43.285  32.215  32.853  1.00  0.00    -0.014 A 
ATOM     62  C   UNL A   1      43.561  33.418  32.181  1.00  0.00     0.010 A 
ATOM     63  C   UNL A   1      42.981  32.251  34.228  1.00  0.00     0.010 A 
ATOM     64  C   UNL A   1      43.544  34.633  32.874  1.00  0.00     0.020 A 
ATOM     65  C   UNL A   1      42.942  33.465  34.918  1.00  0.00     0.020 A 
ATOM     66  C   UNL A   1      43.227  34.649  34.236  1.00  0.00     0.054 A 
BRANCH  66  67
ATOM     67  S   UNL A   1      43.179  36.246  35.095  1.00  0.00     0.124 S 
ATOM     68  O   UNL A   1      44.598  36.545  35.267  1.00  0.00    -0.237 OA
ATOM     69  O   UNL A   1      42.469  37.095  34.142  1.00  0.00    -0.237 OA
ATOM     70  O   UNL A   1      42.455  35.957  36.331  1.00  0.00    -0.744 OA
ENDBRANCH  66  67
ENDBRANCH  47  61
BRANCH  48  71
ATOM     71  C   UNL A   1      42.419  23.521  27.996  1.00  0.00    -0.014 A 
ATOM     72  C   UNL A   1      42.894  23.384  26.681  1.00  0.00     0.010 A 
ATOM     73  C   UNL A   1      41.877  22.398  28.650  1.00  0.00     0.010 A 
ATOM     74  C   UNL A   1      42.841  22.144  26.037  1.00  0.00     0.020 A 
ATOM     75  C   UNL A   1      41.845  21.152  28.019  1.00  0.00     0.020 A 
ATOM     76  C   UNL A   1      42.332  21.032  26.716  1.00  0.00     0.054 A 
BRANCH  76  77
ATOM     77  S   UNL A   1      42.344  19.423  25.880  1.00  0.00     0.124 S 
ATOM     78  O   UNL A   1      42.854  18.537  26.922  1.00  0.00    -0.237 OA
ATOM     79  O   UNL A   1      40.937  19.247  25.531  1.00  0.00    -0.237 OA
ATOM     80  O   UNL A   1      43.241  19.631  24.744  1.00  0.00    -0.744 OA
ENDBRANCH  76  77
ENDBRANCH  48  71
BRANCH  60  81
ATOM     81  C   UNL A   1      47.603  26.632  31.509  1.00  0.00    -0.014 A 
ATOM     82  C   UNL A   1      47.895  25.880  32.658  1.00  0.00     0.010 A 
ATOM     83  C   UNL A   1      48.630  26.916  30.589  1.00  0.00     0.010 A 
ATOM     84  C   UNL A   1      49.193  25.417  32.884  1.00  0.00     0.020 A 
ATOM     85  C   UNL A   1      49.924  26.436  30.801  1.00  0.00     0.020 A 
ATOM     86  C   UNL A   1      50.196  25.688  31.947  1.00  0.00     0.054 A 
BRANCH  86  87
ATOM     87  S   UNL A   1      51.856  25.016  32.237  1.00  0.00     0.124 S 
ATOM     88  O   UNL A   1      52.625  25.614  31.148  1.00  0.00    -0.237 OA
ATOM     89  O   UNL A   1      52.166  25.516  33.574  1.00  0.00    -0.237 OA
ATOM     90  O   UNL A   1      51.668  23.571  32.142  1.00  0.00    -0.744 OA
ENDBRANCH  86  87
ENDBRANCH  60  81
ENDBRANCH  34  35
ENDBRANCH  27  29
ENDBRANCH  26  27
ENDBRANCH   1  26
TORSDOF 17
ENDMDL
MODEL 3
REMARK VINA RESULT:     -10.8      2.723      3.547
REMARK SMILES Cc1cc(OC(F)(F)F)cc2c1O[C@H](C(F)(F)F)C(C(=O)OCCOC(=O)c1ccc(-c3c4nc(c(-c5ccc(S(=O)(=O)[O-])cc5)c5ccc([nH]5)c(-c5ccc(S(=O)(=O)[O-])cc5)c5nc(c(-c6ccc(S(=O)(=O)[O-])cc6)c6ccc3[nH]6)C=C5)C=C4)cc1)=C2
REMARK SMILES IDX 24 1 23 2 22 3 20 4 21 5 19 6 1 7 2 8 3 9 12 10 4 11 11 12
REMARK SMILES IDX 13 13 10 14 88 15 14 16 5 17 6 18 7 19 8 20 9 21 15 22 16 23
REMARK SMILES IDX 17 24 18 25 25 26 26 27 27 28 28 29 29 30 87 31 30 32 86 33
REMARK SMILES IDX 31 34 32 35 33 36 80 37 34 38 85 39 79 40 81 41 35 42 84 43
REMARK SMILES IDX 78 44 77 45 36 47 66 48 47 49 65 50 48 51 51 52 64 53 82 54
REMARK SMILES IDX 49 55 50 56 63 58 83 59 52 60 37 61 38 62 46 63 39 64 45 65
REMARK SMILES IDX 40 66 41 67 42 68 43 69 44 70 67 71 68 72 76 73 69 74 75 75
REMARK SMILES IDX 70 76 71 77 72 78 73 79 74 80 53 81 54 82 62 83 55 84 61 85
REMARK SMILES IDX 56 86 57 87 58 88 59 89 60 90
REMARK H PARENT 81 46 51 57
REMARK Flexibility Score: inf
ROOT
ATOM      1  C   UNL A   1      34.209  31.412  28.171  1.00  0.00     0.275 C 
ENDROOT
BRANCH   1   2
ATOM      2  C   UNL A   1      33.137  30.800  27.270  1.00  0.00     0.275 C 
BRANCH   2   3
ATOM      3  O   UNL A   1      33.438  29.424  26.957  1.00  0.00    -0.459 OA
BRANCH   3   4
ATOM      4  C   UNL A   1      32.367  28.597  26.879  1.00  0.00     0.338 C 
ATOM      5  O   UNL A   1      31.322  28.704  27.494  1.00  0.00    -0.246 OA
BRANCH   4   6
ATOM      6  C   UNL A   1      32.624  27.520  25.902  1.00  0.00     0.087 C 
ATOM      7  C   UNL A   1      32.789  24.499  21.720  1.00  0.00     0.048 C 
ATOM      8  C   UNL A   1      33.564  24.654  22.998  1.00  0.00    -0.005 A 
ATOM      9  C   UNL A   1      34.695  23.834  23.196  1.00  0.00     0.054 A 
ATOM     10  C   UNL A   1      33.210  25.591  23.980  1.00  0.00     0.131 A 
ATOM     11  C   UNL A   1      35.460  23.936  24.358  1.00  0.00     0.130 A 
ATOM     12  C   UNL A   1      33.986  25.706  25.133  1.00  0.00     0.021 A 
ATOM     13  O   UNL A   1      32.091  26.348  23.764  1.00  0.00    -0.475 OA
ATOM     14  C   UNL A   1      35.094  24.873  25.324  1.00  0.00     0.058 A 
ATOM     15  C   UNL A   1      33.664  26.711  26.127  1.00  0.00     0.027 C 
ATOM     16  C   UNL A   1      31.787  27.452  24.659  1.00  0.00     0.316 C 
BRANCH  11  17
ATOM     17  O   UNL A   1      36.567  23.204  24.676  1.00  0.00    -0.406 OA
BRANCH  17  18
ATOM     18  C   UNL A   1      36.403  21.817  24.917  1.00  0.00     0.573 C 
ATOM     19  F   UNL A   1      36.155  21.576  26.223  1.00  0.00    -0.132 F 
ATOM     20  F   UNL A   1      35.394  21.313  24.172  1.00  0.00    -0.132 F 
ATOM     21  F   UNL A   1      37.539  21.173  24.575  1.00  0.00    -0.132 F 
ENDBRANCH  17  18
ENDBRANCH  11  17
BRANCH  16  22
ATOM     22  C   UNL A   1      31.869  28.764  23.863  1.00  0.00     0.430 C 
ATOM     23  F   UNL A   1      33.139  29.234  23.814  1.00  0.00    -0.167 F 
ATOM     24  F   UNL A   1      31.474  28.596  22.576  1.00  0.00    -0.167 F 
ATOM     25  F   UNL A   1      31.098  29.738  24.396  1.00  0.00    -0.167 F 
ENDBRANCH  16  22
ENDBRANCH   4   6
ENDBRANCH   3   4
ENDBRANCH   2   3
ENDBRANCH   1   2
BRANCH   1  26
ATOM     26  O   UNL A   1      35.445  30.686  28.053  1.00  0.00    -0.458 OA
BRANCH  26  27
ATOM     27  C   UNL A   1      36.261  30.775  29.126  1.00  0.00     0.338 C 
ATOM     28  O   UNL A   1      36.038  31.351  30.179  1.00  0.00    -0.246 OA
BRANCH  27  29
ATOM     29  C   UNL A   1      37.494  30.013  28.892  1.00  0.00     0.060 A 
ATOM     30  C   UNL A   1      38.214  29.539  29.985  1.00  0.00     0.016 A 
ATOM     31  C   UNL A   1      38.033  29.941  27.610  1.00  0.00     0.016 A 
ATOM     32  C   UNL A   1      39.536  29.137  29.823  1.00  0.00     0.010 A 
ATOM     33  C   UNL A   1      39.315  29.413  27.434  1.00  0.00     0.010 A 
ATOM     34  C   UNL A   1      40.103  29.059  28.544  1.00  0.00    -0.014 A 
BRANCH  34  35
ATOM     35  C   UNL A   1      41.522  28.645  28.367  1.00  0.00     0.031 A 
ATOM     36  C   UNL A   1      42.632  29.651  28.539  1.00  0.00     0.074 A 
ATOM     37  C   UNL A   1      41.820  27.364  28.064  1.00  0.00     0.049 A 
ATOM     38  N   UNL A   1      43.905  29.527  28.264  1.00  0.00    -0.248 NA
ATOM     39  C   UNL A   1      42.266  30.971  29.084  1.00  0.00     0.031 C 
ATOM     40  C   UNL A   1      40.851  26.273  27.930  1.00  0.00     0.029 A 
ATOM     41  N   UNL A   1      43.029  26.760  27.822  1.00  0.00    -0.354 N 
ATOM     42  C   UNL A   1      44.480  30.760  28.555  1.00  0.00     0.074 A 
ATOM     43  C   UNL A   1      43.420  31.623  29.021  1.00  0.00     0.031 C 
ATOM     44  C   UNL A   1      41.503  25.131  27.674  1.00  0.00     0.029 A 
ATOM     45  C   UNL A   1      42.925  25.420  27.530  1.00  0.00     0.049 A 
ATOM     46  H   UNL A   1      43.889  27.238  27.853  1.00  0.00     0.167 HD
ATOM     47  C   UNL A   1      45.777  31.135  28.442  1.00  0.00     0.031 A 
ATOM     48  C   UNL A   1      43.855  24.525  27.144  1.00  0.00     0.031 A 
ATOM     49  C   UNL A   1      46.834  30.258  28.014  1.00  0.00     0.049 A 
ATOM     50  C   UNL A   1      45.273  24.978  26.964  1.00  0.00     0.074 A 
ATOM     51  C   UNL A   1      48.180  30.544  27.873  1.00  0.00     0.029 A 
ATOM     52  N   UNL A   1      46.669  28.924  27.677  1.00  0.00    -0.354 N 
ATOM     53  N   UNL A   1      45.785  26.167  27.175  1.00  0.00    -0.248 NA
ATOM     54  C   UNL A   1      46.236  23.981  26.476  1.00  0.00     0.031 C 
ATOM     55  C   UNL A   1      48.823  29.395  27.406  1.00  0.00     0.029 A 
ATOM     56  C   UNL A   1      47.886  28.378  27.309  1.00  0.00     0.049 A 
ATOM     57  H   UNL A   1      45.813  28.438  27.695  1.00  0.00     0.167 HD
ATOM     58  C   UNL A   1      47.133  26.058  26.859  1.00  0.00     0.074 A 
ATOM     59  C   UNL A   1      47.360  24.687  26.450  1.00  0.00     0.031 C 
ATOM     60  C   UNL A   1      48.094  27.011  26.906  1.00  0.00     0.031 A 
BRANCH  47  61
ATOM     61  C   UNL A   1      46.135  32.562  28.761  1.00  0.00    -0.014 A 
ATOM     62  C   UNL A   1      46.562  32.939  30.046  1.00  0.00     0.010 A 
ATOM     63  C   UNL A   1      46.131  33.521  27.729  1.00  0.00     0.010 A 
ATOM     64  C   UNL A   1      46.965  34.255  30.297  1.00  0.00     0.020 A 
ATOM     65  C   UNL A   1      46.554  34.831  27.972  1.00  0.00     0.020 A 
ATOM     66  C   UNL A   1      46.966  35.190  29.256  1.00  0.00     0.054 A 
BRANCH  66  67
ATOM     67  S   UNL A   1      47.529  36.878  29.609  1.00  0.00     0.124 S 
ATOM     68  O   UNL A   1      46.348  37.473  30.229  1.00  0.00    -0.237 OA
ATOM     69  O   UNL A   1      48.662  36.651  30.503  1.00  0.00    -0.237 OA
ATOM     70  O   UNL A   1      47.871  37.414  28.293  1.00  0.00    -0.744 OA
ENDBRANCH  66  67
ENDBRANCH  47  61
BRANCH  48  71
ATOM     71  C   UNL A   1      43.446  23.121  26.870  1.00  0.00    -0.014 A 
ATOM     72  C   UNL A   1      43.604  22.572  25.587  1.00  0.00     0.010 A 
ATOM     73  C   UNL A   1      42.966  22.305  27.912  1.00  0.00     0.010 A 
ATOM     74  C   UNL A   1      43.301  21.226  25.354  1.00  0.00     0.020 A 
ATOM     75  C   UNL A   1      42.686  20.954  27.688  1.00  0.00     0.020 A 
ATOM     76  C   UNL A   1      42.860  20.422  26.410  1.00  0.00     0.054 A 
BRANCH  76  77
ATOM     77  S   UNL A   1      42.546  18.665  26.091  1.00  0.00     0.124 S 
ATOM     78  O   UNL A   1      41.129  18.662  25.740  1.00  0.00    -0.237 OA
ATOM     79  O   UNL A   1      43.471  18.381  24.998  1.00  0.00    -0.237 OA
ATOM     80  O   UNL A   1      42.875  18.020  27.361  1.00  0.00    -0.744 OA
ENDBRANCH  76  77
ENDBRANCH  48  71
BRANCH  60  81
ATOM     81  C   UNL A   1      49.494  26.614  26.533  1.00  0.00    -0.014 A 
ATOM     82  C   UNL A   1      50.333  25.971  27.458  1.00  0.00     0.010 A 
ATOM     83  C   UNL A   1      49.930  26.786  25.206  1.00  0.00     0.010 A 
ATOM     84  C   UNL A   1      51.588  25.504  27.061  1.00  0.00     0.020 A 
ATOM     85  C   UNL A   1      51.175  26.302  24.801  1.00  0.00     0.020 A 
ATOM     86  C   UNL A   1      51.996  25.662  25.732  1.00  0.00     0.054 A 
BRANCH  86  87
ATOM     87  S   UNL A   1      53.604  24.987  25.234  1.00  0.00     0.124 S 
ATOM     88  O   UNL A   1      54.499  25.549  26.242  1.00  0.00    -0.237 OA
ATOM     89  O   UNL A   1      53.380  23.547  25.325  1.00  0.00    -0.237 OA
ATOM     90  O   UNL A   1      53.794  25.503  23.880  1.00  0.00    -0.744 OA
ENDBRANCH  86  87
ENDBRANCH  60  81
ENDBRANCH  34  35
ENDBRANCH  27  29
ENDBRANCH  26  27
ENDBRANCH   1  26
TORSDOF 17
ENDMDL
