MODEL 1
REMARK VINA RESULT:     -11.3      0.000      0.000
REMARK SMILES CC1(C)CCC[C@H]1NC(=O)N[C@@H]1COC[C@@]1(C)C(=O)OCCOC(=O)c1ccc(-c2c3nc(c(-c4ccc(S(=O)(=O)[O-])cc4)c4ccc([nH]4)c(-c4ccc(S(=O)(=O)[O-])cc4)c4nc(c(-c5ccc(S(=O)(=O)[O-])cc5)c5ccc2[nH]5)C=C4)C=C3)cc1
REMARK SMILES IDX 22 1 21 2 20 3 18 4 19 5 16 6 12 7 13 8 14 9 15 10 17 11
REMARK SMILES IDX 11 12 8 13 9 14 10 16 7 18 1 19 2 20 3 21 4 22 5 23 6 24
REMARK SMILES IDX 23 25 24 26 25 27 26 28 27 29 85 30 28 31 84 32 29 33 30 34
REMARK SMILES IDX 31 35 78 36 32 37 83 38 77 39 79 40 33 41 82 42 76 43 75 44
REMARK SMILES IDX 34 46 64 47 45 48 63 49 46 50 49 51 62 52 80 53 47 54 48 55
REMARK SMILES IDX 61 57 81 58 50 59 35 60 36 61 44 62 37 63 43 64 38 65 39 66
REMARK SMILES IDX 40 67 41 68 42 69 65 70 66 71 74 72 67 73 73 74 68 75 69 76
REMARK SMILES IDX 70 77 71 78 72 79 51 80 52 81 60 82 53 83 59 84 54 85 55 86
REMARK SMILES IDX 56 87 57 88 58 89
REMARK H PARENT 8 15 11 17 79 45 49 56
REMARK Flexibility Score: inf
ROOT
ATOM      1  C   UNL A   1      32.451  29.860  27.221  1.00  0.00     0.275 C 
ENDROOT
BRANCH   1   2
ATOM      2  C   UNL A   1      31.605  28.579  27.303  1.00  0.00     0.274 C 
BRANCH   2   3
ATOM      3  O   UNL A   1      31.276  28.129  25.970  1.00  0.00    -0.462 OA
BRANCH   3   4
ATOM      4  C   UNL A   1      32.304  27.685  25.187  1.00  0.00     0.316 C 
ATOM      5  O   UNL A   1      33.196  26.954  25.592  1.00  0.00    -0.251 OA
BRANCH   4   6
ATOM      6  C   UNL A   1      32.124  28.144  23.730  1.00  0.00     0.111 C 
ATOM      7  C   UNL A   1      31.289  27.187  22.874  1.00  0.00     0.129 C 
ATOM      8  C   UNL A   1      29.993  27.923  22.547  1.00  0.00     0.186 C 
ATOM      9  O   UNL A   1      30.261  29.309  22.709  1.00  0.00    -0.378 OA
ATOM     10  C   UNL A   1      31.270  29.423  23.718  1.00  0.00     0.181 C 
ATOM     11  C   UNL A   1      33.529  28.394  23.193  1.00  0.00     0.028 C 
BRANCH   7  12
ATOM     12  N   UNL A   1      31.918  26.569  21.687  1.00  0.00    -0.332 N 
ATOM     13  N   UNL A   1      33.339  24.668  22.044  1.00  0.00    -0.335 N 
ATOM     14  C   UNL A   1      32.746  25.601  21.305  1.00  0.00     0.315 C 
ATOM     15  H   UNL A   1      33.833  24.036  21.474  1.00  0.00     0.165 HD
ATOM     16  O   UNL A   1      32.978  25.559  20.089  1.00  0.00    -0.249 OA
ATOM     17  H   UNL A   1      31.610  27.051  20.885  1.00  0.00     0.165 HD
BRANCH  13  18
ATOM     18  C   UNL A   1      33.473  24.303  23.456  1.00  0.00     0.089 C 
ATOM     19  C   UNL A   1      30.971  23.392  23.265  1.00  0.00     0.013 C 
ATOM     20  C   UNL A   1      32.328  23.364  23.995  1.00  0.00    -0.015 C 
ATOM     21  C   UNL A   1      32.068  23.665  25.490  1.00  0.00     0.013 C 
ATOM     22  C   UNL A   1      32.935  21.963  23.829  1.00  0.00     0.008 C 
ATOM     23  C   UNL A   1      34.393  22.135  24.202  1.00  0.00     0.003 C 
ATOM     24  C   UNL A   1      34.780  23.511  23.668  1.00  0.00     0.025 C 
ENDBRANCH  13  18
ENDBRANCH   7  12
ENDBRANCH   4   6
ENDBRANCH   3   4
ENDBRANCH   2   3
ENDBRANCH   1   2
BRANCH   1  25
ATOM     25  O   UNL A   1      33.795  29.541  27.623  1.00  0.00    -0.458 OA
BRANCH  25  26
ATOM     26  C   UNL A   1      34.518  30.536  28.191  1.00  0.00     0.338 C 
ATOM     27  O   UNL A   1      34.103  31.647  28.496  1.00  0.00    -0.246 OA
BRANCH  26  28
ATOM     28  C   UNL A   1      35.914  30.070  28.390  1.00  0.00     0.060 A 
ATOM     29  C   UNL A   1      36.837  30.149  27.347  1.00  0.00     0.016 A 
ATOM     30  C   UNL A   1      36.324  29.541  29.613  1.00  0.00     0.016 A 
ATOM     31  C   UNL A   1      38.129  29.646  27.485  1.00  0.00     0.010 A 
ATOM     32  C   UNL A   1      37.665  29.165  29.795  1.00  0.00     0.010 A 
ATOM     33  C   UNL A   1      38.588  29.213  28.732  1.00  0.00    -0.014 A 
BRANCH  33  34
ATOM     34  C   UNL A   1      40.027  28.869  28.947  1.00  0.00     0.031 A 
ATOM     35  C   UNL A   1      40.995  29.921  29.421  1.00  0.00     0.074 A 
ATOM     36  C   UNL A   1      40.490  27.629  28.669  1.00  0.00     0.049 A 
ATOM     37  N   UNL A   1      42.302  29.923  29.376  1.00  0.00    -0.248 NA
ATOM     38  C   UNL A   1      40.413  31.142  30.003  1.00  0.00     0.031 C 
ATOM     39  C   UNL A   1      39.677  26.480  28.260  1.00  0.00     0.029 A 
ATOM     40  N   UNL A   1      41.773  27.129  28.676  1.00  0.00    -0.354 N 
ATOM     41  C   UNL A   1      42.698  31.169  29.852  1.00  0.00     0.074 A 
ATOM     42  C   UNL A   1      41.490  31.892  30.191  1.00  0.00     0.031 C 
ATOM     43  C   UNL A   1      40.467  25.411  28.087  1.00  0.00     0.029 A 
ATOM     44  C   UNL A   1      41.855  25.819  28.255  1.00  0.00     0.049 A 
ATOM     45  H   UNL A   1      42.555  27.656  28.956  1.00  0.00     0.167 HD
ATOM     46  C   UNL A   1      43.952  31.667  29.977  1.00  0.00     0.031 A 
ATOM     47  C   UNL A   1      42.918  25.044  27.965  1.00  0.00     0.031 A 
ATOM     48  C   UNL A   1      45.149  30.923  29.680  1.00  0.00     0.049 A 
ATOM     49  C   UNL A   1      44.298  25.627  28.068  1.00  0.00     0.074 A 
ATOM     50  C   UNL A   1      46.466  31.336  29.780  1.00  0.00     0.029 A 
ATOM     51  N   UNL A   1      45.174  29.606  29.245  1.00  0.00    -0.354 N 
ATOM     52  N   UNL A   1      44.652  26.833  28.441  1.00  0.00    -0.248 NA
ATOM     53  C   UNL A   1      45.418  24.756  27.689  1.00  0.00     0.031 C 
ATOM     54  C   UNL A   1      47.287  30.281  29.368  1.00  0.00     0.029 A 
ATOM     55  C   UNL A   1      46.483  29.195  29.063  1.00  0.00     0.049 A 
ATOM     56  H   UNL A   1      44.379  29.047  29.089  1.00  0.00     0.167 HD
ATOM     57  C   UNL A   1      46.039  26.859  28.360  1.00  0.00     0.074 A 
ATOM     58  C   UNL A   1      46.460  25.546  27.912  1.00  0.00     0.031 C 
ATOM     59  C   UNL A   1      46.886  27.880  28.631  1.00  0.00     0.031 A 
BRANCH  46  60
ATOM     60  C   UNL A   1      44.096  33.104  30.404  1.00  0.00    -0.014 A 
ATOM     61  C   UNL A   1      44.108  34.156  29.472  1.00  0.00     0.010 A 
ATOM     62  C   UNL A   1      44.182  33.407  31.778  1.00  0.00     0.010 A 
ATOM     63  C   UNL A   1      44.247  35.480  29.903  1.00  0.00     0.020 A 
ATOM     64  C   UNL A   1      44.295  34.729  32.213  1.00  0.00     0.020 A 
ATOM     65  C   UNL A   1      44.345  35.757  31.271  1.00  0.00     0.054 A 
BRANCH  65  66
ATOM     66  S   UNL A   1      44.515  37.483  31.803  1.00  0.00     0.124 S 
ATOM     67  O   UNL A   1      43.808  37.474  33.082  1.00  0.00    -0.237 OA
ATOM     68  O   UNL A   1      45.963  37.654  31.888  1.00  0.00    -0.237 OA
ATOM     69  O   UNL A   1      43.863  38.241  30.737  1.00  0.00    -0.744 OA
ENDBRANCH  65  66
ENDBRANCH  46  60
BRANCH  47  70
ATOM     70  C   UNL A   1      42.707  23.652  27.476  1.00  0.00    -0.014 A 
ATOM     71  C   UNL A   1      42.737  23.364  26.101  1.00  0.00     0.010 A 
ATOM     72  C   UNL A   1      42.508  22.600  28.390  1.00  0.00     0.010 A 
ATOM     73  C   UNL A   1      42.571  22.051  25.649  1.00  0.00     0.020 A 
ATOM     74  C   UNL A   1      42.371  21.282  27.944  1.00  0.00     0.020 A 
ATOM     75  C   UNL A   1      42.394  21.017  26.574  1.00  0.00     0.054 A 
BRANCH  75  76
ATOM     76  S   UNL A   1      42.253  19.310  25.972  1.00  0.00     0.124 S 
ATOM     77  O   UNL A   1      43.116  19.334  24.795  1.00  0.00    -0.237 OA
ATOM     78  O   UNL A   1      42.747  18.532  27.104  1.00  0.00    -0.237 OA
ATOM     79  O   UNL A   1      40.825  19.163  25.700  1.00  0.00    -0.744 OA
ENDBRANCH  75  76
ENDBRANCH  47  70
BRANCH  59  80
ATOM     80  C   UNL A   1      48.359  27.613  28.504  1.00  0.00    -0.014 A 
ATOM     81  C   UNL A   1      49.056  26.892  29.489  1.00  0.00     0.010 A 
ATOM     82  C   UNL A   1      49.035  28.023  27.341  1.00  0.00     0.010 A 
ATOM     83  C   UNL A   1      50.411  26.593  29.314  1.00  0.00     0.020 A 
ATOM     84  C   UNL A   1      50.382  27.708  27.154  1.00  0.00     0.020 A 
ATOM     85  C   UNL A   1      51.064  27.000  28.145  1.00  0.00     0.054 A 
BRANCH  85  86
ATOM     86  S   UNL A   1      52.801  26.534  27.908  1.00  0.00     0.124 S 
ATOM     87  O   UNL A   1      52.684  25.320  27.105  1.00  0.00    -0.237 OA
ATOM     88  O   UNL A   1      53.354  27.695  27.216  1.00  0.00    -0.237 OA
ATOM     89  O   UNL A   1      53.294  26.336  29.270  1.00  0.00    -0.744 OA
ENDBRANCH  85  86
ENDBRANCH  59  80
ENDBRANCH  33  34
ENDBRANCH  26  28
ENDBRANCH  25  26
ENDBRANCH   1  25
TORSDOF 16
ENDMDL
MODEL 2
REMARK VINA RESULT:     -11.2      1.364      2.275
REMARK SMILES CC1(C)CCC[C@H]1NC(=O)N[C@@H]1COC[C@@]1(C)C(=O)OCCOC(=O)c1ccc(-c2c3nc(c(-c4ccc(S(=O)(=O)[O-])cc4)c4ccc([nH]4)c(-c4ccc(S(=O)(=O)[O-])cc4)c4nc(c(-c5ccc(S(=O)(=O)[O-])cc5)c5ccc2[nH]5)C=C4)C=C3)cc1
REMARK SMILES IDX 22 1 21 2 20 3 18 4 19 5 16 6 12 7 13 8 14 9 15 10 17 11
REMARK SMILES IDX 11 12 8 13 9 14 10 16 7 18 1 19 2 20 3 21 4 22 5 23 6 24
REMARK SMILES IDX 23 25 24 26 25 27 26 28 27 29 85 30 28 31 84 32 29 33 30 34
REMARK SMILES IDX 31 35 78 36 32 37 83 38 77 39 79 40 33 41 82 42 76 43 75 44
REMARK SMILES IDX 34 46 64 47 45 48 63 49 46 50 49 51 62 52 80 53 47 54 48 55
REMARK SMILES IDX 61 57 81 58 50 59 35 60 36 61 44 62 37 63 43 64 38 65 39 66
REMARK SMILES IDX 40 67 41 68 42 69 65 70 66 71 74 72 67 73 73 74 68 75 69 76
REMARK SMILES IDX 70 77 71 78 72 79 51 80 52 81 60 82 53 83 59 84 54 85 55 86
REMARK SMILES IDX 56 87 57 88 58 89
REMARK H PARENT 8 15 11 17 79 45 49 56
REMARK Flexibility Score: inf
ROOT
ATOM      1  C   UNL A   1      33.103  30.360  26.289  1.00  0.00     0.275 C 
ENDROOT
BRANCH   1   2
ATOM      2  C   UNL A   1      32.879  29.280  25.219  1.00  0.00     0.274 C 
BRANCH   2   3
ATOM      3  O   UNL A   1      31.901  28.325  25.690  1.00  0.00    -0.462 OA
BRANCH   3   4
ATOM      4  C   UNL A   1      31.235  27.595  24.747  1.00  0.00     0.316 C 
ATOM      5  O   UNL A   1      30.533  28.092  23.878  1.00  0.00    -0.251 OA
BRANCH   4   6
ATOM      6  C   UNL A   1      31.569  26.098  24.872  1.00  0.00     0.111 C 
ATOM      7  C   UNL A   1      30.343  25.181  24.829  1.00  0.00     0.129 C 
ATOM      8  C   UNL A   1      30.441  24.394  23.526  1.00  0.00     0.186 C 
ATOM      9  O   UNL A   1      31.806  24.431  23.131  1.00  0.00    -0.378 OA
ATOM     10  C   UNL A   1      32.348  25.661  23.620  1.00  0.00     0.181 C 
ATOM     11  C   UNL A   1      32.406  25.960  26.139  1.00  0.00     0.028 C 
BRANCH   7  12
ATOM     12  N   UNL A   1      30.061  24.325  26.001  1.00  0.00    -0.332 N 
ATOM     13  N   UNL A   1      31.421  22.371  26.304  1.00  0.00    -0.335 N 
ATOM     14  C   UNL A   1      30.432  23.203  26.613  1.00  0.00     0.315 C 
ATOM     15  H   UNL A   1      31.508  21.667  26.987  1.00  0.00     0.165 HD
ATOM     16  O   UNL A   1      29.770  22.911  27.618  1.00  0.00    -0.249 OA
ATOM     17  H   UNL A   1      29.330  24.736  26.519  1.00  0.00     0.165 HD
BRANCH  13  18
ATOM     18  C   UNL A   1      32.421  22.193  25.249  1.00  0.00     0.089 C 
ATOM     19  C   UNL A   1      34.207  22.994  27.063  1.00  0.00     0.013 C 
ATOM     20  C   UNL A   1      33.912  22.237  25.754  1.00  0.00    -0.015 C 
ATOM     21  C   UNL A   1      34.819  22.830  24.649  1.00  0.00     0.013 C 
ATOM     22  C   UNL A   1      34.238  20.752  25.973  1.00  0.00     0.008 C 
ATOM     23  C   UNL A   1      33.556  20.039  24.823  1.00  0.00     0.003 C 
ATOM     24  C   UNL A   1      32.253  20.802  24.601  1.00  0.00     0.025 C 
ENDBRANCH  13  18
ENDBRANCH   7  12
ENDBRANCH   4   6
ENDBRANCH   3   4
ENDBRANCH   2   3
ENDBRANCH   1   2
BRANCH   1  25
ATOM     25  O   UNL A   1      33.874  29.784  27.358  1.00  0.00    -0.458 OA
BRANCH  25  26
ATOM     26  C   UNL A   1      34.496  30.646  28.199  1.00  0.00     0.338 C 
ATOM     27  O   UNL A   1      34.001  31.644  28.707  1.00  0.00    -0.246 OA
BRANCH  26  28
ATOM     28  C   UNL A   1      35.893  30.190  28.418  1.00  0.00     0.060 A 
ATOM     29  C   UNL A   1      36.817  30.233  27.374  1.00  0.00     0.016 A 
ATOM     30  C   UNL A   1      36.302  29.707  29.660  1.00  0.00     0.016 A 
ATOM     31  C   UNL A   1      38.110  29.738  27.532  1.00  0.00     0.010 A 
ATOM     32  C   UNL A   1      37.643  29.340  29.856  1.00  0.00     0.010 A 
ATOM     33  C   UNL A   1      38.568  29.351  28.794  1.00  0.00    -0.014 A 
BRANCH  33  34
ATOM     34  C   UNL A   1      40.007  29.018  29.023  1.00  0.00     0.031 A 
ATOM     35  C   UNL A   1      40.964  30.080  29.498  1.00  0.00     0.074 A 
ATOM     36  C   UNL A   1      40.480  27.779  28.757  1.00  0.00     0.049 A 
ATOM     37  N   UNL A   1      42.271  30.090  29.464  1.00  0.00    -0.248 NA
ATOM     38  C   UNL A   1      40.369  31.300  30.067  1.00  0.00     0.031 C 
ATOM     39  C   UNL A   1      39.678  26.622  28.349  1.00  0.00     0.029 A 
ATOM     40  N   UNL A   1      41.766  27.287  28.779  1.00  0.00    -0.354 N 
ATOM     41  C   UNL A   1      42.655  31.342  29.935  1.00  0.00     0.074 A 
ATOM     42  C   UNL A   1      41.440  32.059  30.259  1.00  0.00     0.031 C 
ATOM     43  C   UNL A   1      40.476  25.558  28.190  1.00  0.00     0.029 A 
ATOM     44  C   UNL A   1      41.860  25.976  28.367  1.00  0.00     0.049 A 
ATOM     45  H   UNL A   1      42.542  27.821  29.062  1.00  0.00     0.167 HD
ATOM     46  C   UNL A   1      43.904  31.848  30.067  1.00  0.00     0.031 A 
ATOM     47  C   UNL A   1      42.930  25.206  28.090  1.00  0.00     0.031 A 
ATOM     48  C   UNL A   1      45.109  31.110  29.785  1.00  0.00     0.049 A 
ATOM     49  C   UNL A   1      44.305  25.798  28.201  1.00  0.00     0.074 A 
ATOM     50  C   UNL A   1      46.422  31.533  29.893  1.00  0.00     0.029 A 
ATOM     51  N   UNL A   1      45.146  29.791  29.359  1.00  0.00    -0.354 N 
ATOM     52  N   UNL A   1      44.649  27.009  28.569  1.00  0.00    -0.248 NA
ATOM     53  C   UNL A   1      45.435  24.932  27.838  1.00  0.00     0.031 C 
ATOM     54  C   UNL A   1      47.254  30.480  29.495  1.00  0.00     0.029 A 
ATOM     55  C   UNL A   1      46.460  29.387  29.191  1.00  0.00     0.049 A 
ATOM     56  H   UNL A   1      44.356  29.226  29.200  1.00  0.00     0.167 HD
ATOM     57  C   UNL A   1      46.036  27.044  28.500  1.00  0.00     0.074 A 
ATOM     58  C   UNL A   1      46.469  25.730  28.065  1.00  0.00     0.031 C 
ATOM     59  C   UNL A   1      46.874  28.072  28.771  1.00  0.00     0.031 A 
BRANCH  46  60
ATOM     60  C   UNL A   1      44.036  33.289  30.486  1.00  0.00    -0.014 A 
ATOM     61  C   UNL A   1      44.156  33.660  31.837  1.00  0.00     0.010 A 
ATOM     62  C   UNL A   1      44.080  34.291  29.496  1.00  0.00     0.010 A 
ATOM     63  C   UNL A   1      44.274  35.008  32.192  1.00  0.00     0.020 A 
ATOM     64  C   UNL A   1      44.223  35.636  29.846  1.00  0.00     0.020 A 
ATOM     65  C   UNL A   1      44.300  35.988  31.193  1.00  0.00     0.054 A 
BRANCH  65  66
ATOM     66  S   UNL A   1      44.463  37.728  31.680  1.00  0.00     0.124 S 
ATOM     67  O   UNL A   1      43.820  38.414  30.562  1.00  0.00    -0.237 OA
ATOM     68  O   UNL A   1      43.738  37.777  32.947  1.00  0.00    -0.237 OA
ATOM     69  O   UNL A   1      45.907  37.926  31.784  1.00  0.00    -0.744 OA
ENDBRANCH  65  66
ENDBRANCH  46  60
BRANCH  47  70
ATOM     70  C   UNL A   1      42.733  23.809  27.609  1.00  0.00    -0.014 A 
ATOM     71  C   UNL A   1      42.584  22.751  28.521  1.00  0.00     0.010 A 
ATOM     72  C   UNL A   1      42.660  23.536  26.229  1.00  0.00     0.010 A 
ATOM     73  C   UNL A   1      42.366  21.448  28.065  1.00  0.00     0.020 A 
ATOM     74  C   UNL A   1      42.413  22.239  25.770  1.00  0.00     0.020 A 
ATOM     75  C   UNL A   1      42.277  21.200  26.691  1.00  0.00     0.054 A 
BRANCH  75  76
ATOM     76  S   UNL A   1      41.923  19.514  26.120  1.00  0.00     0.124 S 
ATOM     77  O   UNL A   1      42.321  18.715  27.274  1.00  0.00    -0.237 OA
ATOM     78  O   UNL A   1      40.488  19.565  25.850  1.00  0.00    -0.237 OA
ATOM     79  O   UNL A   1      42.767  19.371  24.936  1.00  0.00    -0.744 OA
ENDBRANCH  75  76
ENDBRANCH  47  70
BRANCH  59  80
ATOM     80  C   UNL A   1      48.350  27.813  28.658  1.00  0.00    -0.014 A 
ATOM     81  C   UNL A   1      49.058  27.169  29.687  1.00  0.00     0.010 A 
ATOM     82  C   UNL A   1      49.019  28.152  27.468  1.00  0.00     0.010 A 
ATOM     83  C   UNL A   1      50.415  26.874  29.530  1.00  0.00     0.020 A 
ATOM     84  C   UNL A   1      50.369  27.840  27.299  1.00  0.00     0.020 A 
ATOM     85  C   UNL A   1      51.061  27.208  28.334  1.00  0.00     0.054 A 
BRANCH  85  86
ATOM     86  S   UNL A   1      52.803  26.748  28.124  1.00  0.00     0.124 S 
ATOM     87  O   UNL A   1      52.706  25.583  27.247  1.00  0.00    -0.237 OA
ATOM     88  O   UNL A   1      53.381  27.944  27.518  1.00  0.00    -0.237 OA
ATOM     89  O   UNL A   1      53.252  26.467  29.486  1.00  0.00    -0.744 OA
ENDBRANCH  85  86
ENDBRANCH  59  80
ENDBRANCH  33  34
ENDBRANCH  26  28
ENDBRANCH  25  26
ENDBRANCH   1  25
TORSDOF 16
ENDMDL
MODEL 3
REMARK VINA RESULT:     -11.0      2.808      7.764
REMARK SMILES CC1(C)CCC[C@H]1NC(=O)N[C@@H]1COC[C@@]1(C)C(=O)OCCOC(=O)c1ccc(-c2c3nc(c(-c4ccc(S(=O)(=O)[O-])cc4)c4ccc([nH]4)c(-c4ccc(S(=O)(=O)[O-])cc4)c4nc(c(-c5ccc(S(=O)(=O)[O-])cc5)c5ccc2[nH]5)C=C4)C=C3)cc1
REMARK SMILES IDX 22 1 21 2 20 3 18 4 19 5 16 6 12 7 13 8 14 9 15 10 17 11
REMARK SMILES IDX 11 12 8 13 9 14 10 16 7 18 1 19 2 20 3 21 4 22 5 23 6 24
REMARK SMILES IDX 23 25 24 26 25 27 26 28 27 29 85 30 28 31 84 32 29 33 30 34
REMARK SMILES IDX 31 35 78 36 32 37 83 38 77 39 79 40 33 41 82 42 76 43 75 44
REMARK SMILES IDX 34 46 64 47 45 48 63 49 46 50 49 51 62 52 80 53 47 54 48 55
REMARK SMILES IDX 61 57 81 58 50 59 35 60 36 61 44 62 37 63 43 64 38 65 39 66
REMARK SMILES IDX 40 67 41 68 42 69 65 70 66 71 74 72 67 73 73 74 68 75 69 76
REMARK SMILES IDX 70 77 71 78 72 79 51 80 52 81 60 82 53 83 59 84 54 85 55 86
REMARK SMILES IDX 56 87 57 88 58 89
REMARK H PARENT 8 15 11 17 79 45 49 56
REMARK Flexibility Score: inf
ROOT
ATOM      1  C   UNL A   1      37.544  21.729  24.721  1.00  0.00     0.275 C 
ENDROOT
BRANCH   1   2
ATOM      2  C   UNL A   1      36.620  22.645  23.903  1.00  0.00     0.274 C 
BRANCH   2   3
ATOM      3  O   UNL A   1      35.240  22.336  24.202  1.00  0.00    -0.462 OA
BRANCH   3   4
ATOM      4  C   UNL A   1      34.706  22.888  25.332  1.00  0.00     0.316 C 
ATOM      5  O   UNL A   1      34.927  24.035  25.695  1.00  0.00    -0.251 OA
BRANCH   4   6
ATOM      6  C   UNL A   1      33.727  21.915  26.010  1.00  0.00     0.111 C 
ATOM      7  C   UNL A   1      32.321  21.923  25.404  1.00  0.00     0.129 C 
ATOM      8  C   UNL A   1      32.134  20.566  24.732  1.00  0.00     0.186 C 
ATOM      9  O   UNL A   1      33.071  19.683  25.334  1.00  0.00    -0.378 OA
ATOM     10  C   UNL A   1      34.193  20.475  25.735  1.00  0.00     0.181 C 
ATOM     11  C   UNL A   1      33.766  22.250  27.498  1.00  0.00     0.028 C 
BRANCH   7  12
ATOM     12  N   UNL A   1      31.182  22.301  26.268  1.00  0.00    -0.332 N 
ATOM     13  N   UNL A   1      30.779  24.641  26.617  1.00  0.00    -0.335 N 
ATOM     14  C   UNL A   1      30.548  23.345  26.797  1.00  0.00     0.315 C 
ATOM     15  H   UNL A   1      30.096  25.182  27.076  1.00  0.00     0.165 HD
ATOM     16  O   UNL A   1      29.603  23.060  27.546  1.00  0.00    -0.249 OA
ATOM     17  H   UNL A   1      30.724  21.479  26.559  1.00  0.00     0.165 HD
BRANCH  13  18
ATOM     18  C   UNL A   1      31.749  25.503  25.938  1.00  0.00     0.089 C 
ATOM     19  C   UNL A   1      30.535  24.770  23.676  1.00  0.00     0.013 C 
ATOM     20  C   UNL A   1      31.413  25.790  24.426  1.00  0.00    -0.015 C 
ATOM     21  C   UNL A   1      32.726  25.963  23.625  1.00  0.00     0.013 C 
ATOM     22  C   UNL A   1      30.651  27.121  24.496  1.00  0.00     0.008 C 
ATOM     23  C   UNL A   1      31.373  27.917  25.565  1.00  0.00     0.003 C 
ATOM     24  C   UNL A   1      31.781  26.889  26.616  1.00  0.00     0.025 C 
ENDBRANCH  13  18
ENDBRANCH   7  12
ENDBRANCH   4   6
ENDBRANCH   3   4
ENDBRANCH   2   3
ENDBRANCH   1   2
BRANCH   1  25
ATOM     25  O   UNL A   1      38.012  22.464  25.866  1.00  0.00    -0.458 OA
BRANCH  25  26
ATOM     26  C   UNL A   1      39.250  22.160  26.325  1.00  0.00     0.338 C 
ATOM     27  O   UNL A   1      39.779  21.056  26.302  1.00  0.00    -0.246 OA
BRANCH  26  28
ATOM     28  C   UNL A   1      39.882  23.389  26.871  1.00  0.00     0.060 A 
ATOM     29  C   UNL A   1      40.885  23.294  27.836  1.00  0.00     0.016 A 
ATOM     30  C   UNL A   1      39.481  24.652  26.438  1.00  0.00     0.016 A 
ATOM     31  C   UNL A   1      41.436  24.433  28.420  1.00  0.00     0.010 A 
ATOM     32  C   UNL A   1      40.137  25.794  26.924  1.00  0.00     0.010 A 
ATOM     33  C   UNL A   1      41.125  25.701  27.923  1.00  0.00    -0.014 A 
BRANCH  33  34
ATOM     34  C   UNL A   1      41.861  26.915  28.392  1.00  0.00     0.031 A 
ATOM     35  C   UNL A   1      41.107  28.077  28.984  1.00  0.00     0.074 A 
ATOM     36  C   UNL A   1      43.202  27.010  28.244  1.00  0.00     0.049 A 
ATOM     37  N   UNL A   1      41.498  29.312  29.163  1.00  0.00    -0.248 NA
ATOM     38  C   UNL A   1      39.723  27.818  29.412  1.00  0.00     0.031 C 
ATOM     39  C   UNL A   1      44.088  25.954  27.746  1.00  0.00     0.029 A 
ATOM     40  N   UNL A   1      44.059  28.060  28.489  1.00  0.00    -0.354 N 
ATOM     41  C   UNL A   1      40.389  29.996  29.652  1.00  0.00     0.074 A 
ATOM     42  C   UNL A   1      39.312  29.033  29.752  1.00  0.00     0.031 C 
ATOM     43  C   UNL A   1      45.355  26.393  27.752  1.00  0.00     0.029 A 
ATOM     44  C   UNL A   1      45.365  27.797  28.138  1.00  0.00     0.049 A 
ATOM     45  H   UNL A   1      43.766  28.915  28.878  1.00  0.00     0.167 HD
ATOM     46  C   UNL A   1      40.278  31.308  29.970  1.00  0.00     0.031 A 
ATOM     47  C   UNL A   1      46.444  28.601  28.062  1.00  0.00     0.031 A 
ATOM     48  C   UNL A   1      41.367  32.248  29.909  1.00  0.00     0.049 A 
ATOM     49  C   UNL A   1      46.291  30.061  28.377  1.00  0.00     0.074 A 
ATOM     50  C   UNL A   1      41.358  33.597  30.216  1.00  0.00     0.029 A 
ATOM     51  N   UNL A   1      42.665  31.932  29.535  1.00  0.00    -0.354 N 
ATOM     52  N   UNL A   1      45.217  30.709  28.759  1.00  0.00    -0.248 NA
ATOM     53  C   UNL A   1      47.486  30.903  28.228  1.00  0.00     0.031 C 
ATOM     54  C   UNL A   1      42.641  34.106  29.991  1.00  0.00     0.029 A 
ATOM     55  C   UNL A   1      43.461  33.063  29.594  1.00  0.00     0.049 A 
ATOM     56  H   UNL A   1      42.974  31.037  29.267  1.00  0.00     0.167 HD
ATOM     57  C   UNL A   1      45.612  32.032  28.915  1.00  0.00     0.074 A 
ATOM     58  C   UNL A   1      47.024  32.091  28.595  1.00  0.00     0.031 C 
ATOM     59  C   UNL A   1      44.869  33.101  29.287  1.00  0.00     0.031 A 
BRANCH  46  60
ATOM     60  C   UNL A   1      38.917  31.821  30.361  1.00  0.00    -0.014 A 
ATOM     61  C   UNL A   1      38.506  31.883  31.704  1.00  0.00     0.010 A 
ATOM     62  C   UNL A   1      38.046  32.291  29.358  1.00  0.00     0.010 A 
ATOM     63  C   UNL A   1      37.234  32.363  32.032  1.00  0.00     0.020 A 
ATOM     64  C   UNL A   1      36.785  32.795  29.684  1.00  0.00     0.020 A 
ATOM     65  C   UNL A   1      36.379  32.810  31.019  1.00  0.00     0.054 A 
BRANCH  65  66
ATOM     66  S   UNL A   1      34.738  33.436  31.473  1.00  0.00     0.124 S 
ATOM     67  O   UNL A   1      35.067  34.714  32.101  1.00  0.00    -0.237 OA
ATOM     68  O   UNL A   1      34.059  33.528  30.183  1.00  0.00    -0.237 OA
ATOM     69  O   UNL A   1      34.215  32.415  32.377  1.00  0.00    -0.744 OA
ENDBRANCH  65  66
ENDBRANCH  46  60
BRANCH  47  70
ATOM     70  C   UNL A   1      47.747  28.048  27.598  1.00  0.00    -0.014 A 
ATOM     71  C   UNL A   1      48.659  27.498  28.513  1.00  0.00     0.010 A 
ATOM     72  C   UNL A   1      48.068  28.041  26.226  1.00  0.00     0.010 A 
ATOM     73  C   UNL A   1      49.867  26.951  28.069  1.00  0.00     0.020 A 
ATOM     74  C   UNL A   1      49.261  27.469  25.775  1.00  0.00     0.020 A 
ATOM     75  C   UNL A   1      50.159  26.936  26.701  1.00  0.00     0.054 A 
BRANCH  75  76
ATOM     76  S   UNL A   1      51.698  26.157  26.137  1.00  0.00     0.124 S 
ATOM     77  O   UNL A   1      52.709  26.965  26.811  1.00  0.00    -0.237 OA
ATOM     78  O   UNL A   1      51.556  24.786  26.621  1.00  0.00    -0.237 OA
ATOM     79  O   UNL A   1      51.642  26.305  24.684  1.00  0.00    -0.744 OA
ENDBRANCH  75  76
ENDBRANCH  47  70
BRANCH  59  80
ATOM     80  C   UNL A   1      45.573  34.422  29.424  1.00  0.00    -0.014 A 
ATOM     81  C   UNL A   1      45.628  35.332  28.354  1.00  0.00     0.010 A 
ATOM     82  C   UNL A   1      46.117  34.786  30.669  1.00  0.00     0.010 A 
ATOM     83  C   UNL A   1      46.225  36.584  28.527  1.00  0.00     0.020 A 
ATOM     84  C   UNL A   1      46.695  36.044  30.850  1.00  0.00     0.020 A 
ATOM     85  C   UNL A   1      46.751  36.933  29.776  1.00  0.00     0.054 A 
BRANCH  85  86
ATOM     86  S   UNL A   1      47.452  38.592  29.996  1.00  0.00     0.124 S 
ATOM     87  O   UNL A   1      48.705  38.494  29.252  1.00  0.00    -0.237 OA
ATOM     88  O   UNL A   1      46.434  39.453  29.402  1.00  0.00    -0.237 OA
ATOM     89  O   UNL A   1      47.596  38.716  31.446  1.00  0.00    -0.744 OA
ENDBRANCH  85  86
ENDBRANCH  59  80
ENDBRANCH  33  34
ENDBRANCH  26  28
ENDBRANCH  25  26
ENDBRANCH   1  25
TORSDOF 16
ENDMDL
