MODEL 1
REMARK VINA RESULT:     -10.7      0.000      0.000
REMARK SMILES O=C(CSc1nc2cccnc2n1CC(F)(F)F)OCCOC(=O)c1ccc(-c2c3nc(c(-c4ccc(S(=O)(=O)[O-])cc4)c4ccc([nH]4)c(-c4ccc(S(=O)(=O)[O-])cc4)c4nc(c(-c5ccc(S(=O)(=O)[O-])cc5)c5ccc2[nH]5)C=C4)C=C3)cc1
REMARK SMILES IDX 20 1 19 2 2 3 1 4 3 5 4 6 5 7 6 8 13 9 7 10 12 11 8 12 11 13
REMARK SMILES IDX 9 14 10 15 14 16 15 17 16 18 17 19 18 20 21 21 22 22 23 23
REMARK SMILES IDX 24 24 25 25 26 26 84 27 27 28 83 29 28 30 29 31 30 32 77 33
REMARK SMILES IDX 31 34 82 35 76 36 78 37 32 38 81 39 75 40 74 41 33 43 63 44
REMARK SMILES IDX 44 45 62 46 45 47 48 48 61 49 79 50 46 51 47 52 60 54 80 55
REMARK SMILES IDX 49 56 34 57 35 58 43 59 36 60 42 61 37 62 38 63 39 64 40 65
REMARK SMILES IDX 41 66 64 67 65 68 73 69 66 70 72 71 67 72 68 73 69 74 70 75
REMARK SMILES IDX 71 76 50 77 51 78 59 79 52 80 58 81 53 82 54 83 55 84 56 85
REMARK SMILES IDX 57 86
REMARK H PARENT 78 42 48 53
REMARK Flexibility Score: inf
ROOT
ATOM      1  C   UNL A   1      36.520  22.713  25.133  1.00  0.00     0.274 C 
ENDROOT
BRANCH   1   2
ATOM      2  O   UNL A   1      35.344  22.139  25.743  1.00  0.00    -0.461 OA
BRANCH   2   3
ATOM      3  C   UNL A   1      34.407  22.915  26.345  1.00  0.00     0.316 C 
ATOM      4  O   UNL A   1      34.361  22.984  27.571  1.00  0.00    -0.251 OA
BRANCH   3   5
ATOM      5  C   UNL A   1      33.527  23.792  25.486  1.00  0.00     0.200 C 
BRANCH   5   6
ATOM      6  S   UNL A   1      34.008  25.509  25.707  1.00  0.00    -0.076 SA
BRANCH   6   7
ATOM      7  C   UNL A   1      32.566  26.443  25.488  1.00  0.00     0.171 A 
ATOM      8  N   UNL A   1      31.431  25.825  25.222  1.00  0.00    -0.221 NA
ATOM      9  N   UNL A   1      32.485  27.789  25.215  1.00  0.00    -0.294 N 
ATOM     10  C   UNL A   1      30.662  26.753  24.581  1.00  0.00     0.109 A 
ATOM     11  C   UNL A   1      31.308  27.977  24.537  1.00  0.00     0.160 A 
ATOM     12  C   UNL A   1      29.424  26.648  23.943  1.00  0.00     0.034 A 
ATOM     13  N   UNL A   1      30.901  29.108  23.932  1.00  0.00    -0.237 NA
ATOM     14  C   UNL A   1      28.960  27.783  23.273  1.00  0.00     0.022 A 
ATOM     15  C   UNL A   1      29.719  28.951  23.298  1.00  0.00     0.113 A 
BRANCH   9  16
ATOM     16  C   UNL A   1      33.389  28.887  25.469  1.00  0.00     0.241 C 
BRANCH  16  17
ATOM     17  C   UNL A   1      33.328  29.340  26.916  1.00  0.00     0.406 C 
ATOM     18  F   UNL A   1      32.083  29.240  27.431  1.00  0.00    -0.169 F 
ATOM     19  F   UNL A   1      34.165  28.613  27.690  1.00  0.00    -0.169 F 
ATOM     20  F   UNL A   1      33.705  30.633  27.048  1.00  0.00    -0.169 F 
ENDBRANCH  16  17
ENDBRANCH   9  16
ENDBRANCH   6   7
ENDBRANCH   5   6
ENDBRANCH   3   5
ENDBRANCH   2   3
ENDBRANCH   1   2
BRANCH   1  21
ATOM     21  C   UNL A   1      37.763  21.929  25.525  1.00  0.00     0.275 C 
BRANCH  21  22
ATOM     22  O   UNL A   1      38.587  22.792  26.301  1.00  0.00    -0.458 OA
BRANCH  22  23
ATOM     23  C   UNL A   1      39.771  22.284  26.719  1.00  0.00     0.338 C 
ATOM     24  O   UNL A   1      40.015  21.133  27.013  1.00  0.00    -0.246 OA
BRANCH  23  25
ATOM     25  C   UNL A   1      40.714  23.407  26.809  1.00  0.00     0.060 A 
ATOM     26  C   UNL A   1      41.653  23.399  27.845  1.00  0.00     0.016 A 
ATOM     27  C   UNL A   1      40.384  24.568  26.105  1.00  0.00     0.016 A 
ATOM     28  C   UNL A   1      42.031  24.612  28.379  1.00  0.00     0.010 A 
ATOM     29  C   UNL A   1      40.694  25.763  26.681  1.00  0.00     0.010 A 
ATOM     30  C   UNL A   1      41.427  25.761  27.866  1.00  0.00    -0.014 A 
BRANCH  30  31
ATOM     31  C   UNL A   1      41.462  26.993  28.620  1.00  0.00     0.031 A 
ATOM     32  C   UNL A   1      42.648  27.827  28.332  1.00  0.00     0.074 A 
ATOM     33  C   UNL A   1      40.379  27.383  29.321  1.00  0.00     0.049 A 
ATOM     34  N   UNL A   1      43.665  28.040  29.100  1.00  0.00    -0.248 NA
ATOM     35  C   UNL A   1      42.825  28.317  26.951  1.00  0.00     0.031 C 
ATOM     36  C   UNL A   1      39.047  26.762  29.363  1.00  0.00     0.029 A 
ATOM     37  N   UNL A   1      40.198  28.510  30.053  1.00  0.00    -0.354 N 
ATOM     38  C   UNL A   1      44.493  28.878  28.364  1.00  0.00     0.074 A 
ATOM     39  C   UNL A   1      44.074  28.774  26.992  1.00  0.00     0.031 C 
ATOM     40  C   UNL A   1      38.156  27.650  29.867  1.00  0.00     0.029 A 
ATOM     41  C   UNL A   1      38.868  28.845  30.288  1.00  0.00     0.049 A 
ATOM     42  H   UNL A   1      40.949  29.049  30.390  1.00  0.00     0.167 HD
ATOM     43  C   UNL A   1      45.227  29.862  28.948  1.00  0.00     0.031 A 
ATOM     44  C   UNL A   1      38.413  30.058  30.704  1.00  0.00     0.031 A 
ATOM     45  C   UNL A   1      45.306  29.708  30.373  1.00  0.00     0.049 A 
ATOM     46  C   UNL A   1      39.589  30.776  31.271  1.00  0.00     0.074 A 
ATOM     47  C   UNL A   1      45.776  28.717  31.211  1.00  0.00     0.029 A 
ATOM     48  N   UNL A   1      44.454  30.479  31.129  1.00  0.00    -0.354 N 
ATOM     49  N   UNL A   1      40.230  30.381  32.336  1.00  0.00    -0.248 NA
ATOM     50  C   UNL A   1      40.341  31.648  30.379  1.00  0.00     0.031 C 
ATOM     51  C   UNL A   1      44.839  28.663  32.281  1.00  0.00     0.029 A 
ATOM     52  C   UNL A   1      43.887  29.667  32.080  1.00  0.00     0.049 A 
ATOM     53  H   UNL A   1      44.283  31.442  31.012  1.00  0.00     0.167 HD
ATOM     54  C   UNL A   1      41.572  30.599  32.049  1.00  0.00     0.074 A 
ATOM     55  C   UNL A   1      41.572  31.453  30.862  1.00  0.00     0.031 C 
ATOM     56  C   UNL A   1      42.552  29.837  32.616  1.00  0.00     0.031 A 
BRANCH  43  57
ATOM     57  C   UNL A   1      45.493  31.170  28.253  1.00  0.00    -0.014 A 
ATOM     58  C   UNL A   1      44.417  31.989  27.878  1.00  0.00     0.010 A 
ATOM     59  C   UNL A   1      46.770  31.507  27.749  1.00  0.00     0.010 A 
ATOM     60  C   UNL A   1      44.615  33.088  27.031  1.00  0.00     0.020 A 
ATOM     61  C   UNL A   1      46.987  32.627  26.952  1.00  0.00     0.020 A 
ATOM     62  C   UNL A   1      45.900  33.399  26.578  1.00  0.00     0.054 A 
BRANCH  62  63
ATOM     63  S   UNL A   1      46.129  34.767  25.417  1.00  0.00     0.124 S 
ATOM     64  O   UNL A   1      45.776  35.922  26.237  1.00  0.00    -0.237 OA
ATOM     65  O   UNL A   1      47.542  34.639  25.072  1.00  0.00    -0.237 OA
ATOM     66  O   UNL A   1      45.196  34.460  24.335  1.00  0.00    -0.744 OA
ENDBRANCH  62  63
ENDBRANCH  43  57
BRANCH  44  67
ATOM     67  C   UNL A   1      37.179  30.777  30.266  1.00  0.00    -0.014 A 
ATOM     68  C   UNL A   1      36.259  31.270  31.217  1.00  0.00     0.010 A 
ATOM     69  C   UNL A   1      37.046  31.244  28.943  1.00  0.00     0.010 A 
ATOM     70  C   UNL A   1      35.312  32.255  30.877  1.00  0.00     0.020 A 
ATOM     71  C   UNL A   1      36.100  32.217  28.593  1.00  0.00     0.020 A 
ATOM     72  C   UNL A   1      35.263  32.747  29.572  1.00  0.00     0.054 A 
BRANCH  72  73
ATOM     73  S   UNL A   1      34.178  34.156  29.183  1.00  0.00     0.124 S 
ATOM     74  O   UNL A   1      35.125  35.171  28.734  1.00  0.00    -0.237 OA
ATOM     75  O   UNL A   1      33.308  33.600  28.150  1.00  0.00    -0.237 OA
ATOM     76  O   UNL A   1      33.519  34.444  30.456  1.00  0.00    -0.744 OA
ENDBRANCH  72  73
ENDBRANCH  44  67
BRANCH  56  77
ATOM     77  C   UNL A   1      42.182  28.922  33.761  1.00  0.00    -0.014 A 
ATOM     78  C   UNL A   1      41.587  27.653  33.593  1.00  0.00     0.010 A 
ATOM     79  C   UNL A   1      42.637  29.286  35.038  1.00  0.00     0.010 A 
ATOM     80  C   UNL A   1      41.457  26.775  34.683  1.00  0.00     0.020 A 
ATOM     81  C   UNL A   1      42.523  28.412  36.121  1.00  0.00     0.020 A 
ATOM     82  C   UNL A   1      41.938  27.158  35.940  1.00  0.00     0.054 A 
BRANCH  82  83
ATOM     83  S   UNL A   1      41.826  26.001  37.336  1.00  0.00     0.124 S 
ATOM     84  O   UNL A   1      42.087  24.710  36.707  1.00  0.00    -0.237 OA
ATOM     85  O   UNL A   1      42.871  26.485  38.235  1.00  0.00    -0.237 OA
ATOM     86  O   UNL A   1      40.461  26.181  37.829  1.00  0.00    -0.744 OA
ENDBRANCH  82  83
ENDBRANCH  56  77
ENDBRANCH  30  31
ENDBRANCH  23  25
ENDBRANCH  22  23
ENDBRANCH  21  22
ENDBRANCH   1  21
TORSDOF 18
ENDMDL
MODEL 2
REMARK VINA RESULT:     -10.6      2.583      7.748
REMARK SMILES O=C(CSc1nc2cccnc2n1CC(F)(F)F)OCCOC(=O)c1ccc(-c2c3nc(c(-c4ccc(S(=O)(=O)[O-])cc4)c4ccc([nH]4)c(-c4ccc(S(=O)(=O)[O-])cc4)c4nc(c(-c5ccc(S(=O)(=O)[O-])cc5)c5ccc2[nH]5)C=C4)C=C3)cc1
REMARK SMILES IDX 20 1 19 2 2 3 1 4 3 5 4 6 5 7 6 8 13 9 7 10 12 11 8 12 11 13
REMARK SMILES IDX 9 14 10 15 14 16 15 17 16 18 17 19 18 20 21 21 22 22 23 23
REMARK SMILES IDX 24 24 25 25 26 26 84 27 27 28 83 29 28 30 29 31 30 32 77 33
REMARK SMILES IDX 31 34 82 35 76 36 78 37 32 38 81 39 75 40 74 41 33 43 63 44
REMARK SMILES IDX 44 45 62 46 45 47 48 48 61 49 79 50 46 51 47 52 60 54 80 55
REMARK SMILES IDX 49 56 34 57 35 58 43 59 36 60 42 61 37 62 38 63 39 64 40 65
REMARK SMILES IDX 41 66 64 67 65 68 73 69 66 70 72 71 67 72 68 73 69 74 70 75
REMARK SMILES IDX 71 76 50 77 51 78 59 79 52 80 58 81 53 82 54 83 55 84 56 85
REMARK SMILES IDX 57 86
REMARK H PARENT 78 42 48 53
REMARK Flexibility Score: inf
ROOT
ATOM      1  C   UNL A   1      36.227  21.319  25.390  1.00  0.00     0.274 C 
ENDROOT
BRANCH   1   2
ATOM      2  O   UNL A   1      35.671  22.640  25.223  1.00  0.00    -0.461 OA
BRANCH   2   3
ATOM      3  C   UNL A   1      34.374  22.824  24.865  1.00  0.00     0.316 C 
ATOM      4  O   UNL A   1      33.555  21.924  25.035  1.00  0.00    -0.251 OA
BRANCH   3   5
ATOM      5  C   UNL A   1      33.936  24.191  24.394  1.00  0.00     0.200 C 
BRANCH   5   6
ATOM      6  S   UNL A   1      33.600  25.229  25.821  1.00  0.00    -0.076 SA
BRANCH   6   7
ATOM      7  C   UNL A   1      32.254  26.225  25.384  1.00  0.00     0.171 A 
ATOM      8  N   UNL A   1      31.552  25.927  24.307  1.00  0.00    -0.221 NA
ATOM      9  N   UNL A   1      31.997  27.507  25.814  1.00  0.00    -0.294 N 
ATOM     10  C   UNL A   1      30.977  27.102  23.919  1.00  0.00     0.109 A 
ATOM     11  C   UNL A   1      31.264  28.109  24.824  1.00  0.00     0.160 A 
ATOM     12  C   UNL A   1      30.242  27.441  22.781  1.00  0.00     0.034 A 
ATOM     13  N   UNL A   1      30.934  29.411  24.748  1.00  0.00    -0.237 NA
ATOM     14  C   UNL A   1      29.893  28.786  22.631  1.00  0.00     0.022 A 
ATOM     15  C   UNL A   1      30.256  29.701  23.615  1.00  0.00     0.113 A 
BRANCH   9  16
ATOM     16  C   UNL A   1      32.395  28.231  27.000  1.00  0.00     0.241 C 
BRANCH  16  17
ATOM     17  C   UNL A   1      33.695  28.984  26.787  1.00  0.00     0.406 C 
ATOM     18  F   UNL A   1      33.497  30.311  26.628  1.00  0.00    -0.169 F 
ATOM     19  F   UNL A   1      34.540  28.804  27.826  1.00  0.00    -0.169 F 
ATOM     20  F   UNL A   1      34.344  28.549  25.682  1.00  0.00    -0.169 F 
ENDBRANCH  16  17
ENDBRANCH   9  16
ENDBRANCH   6   7
ENDBRANCH   5   6
ENDBRANCH   3   5
ENDBRANCH   2   3
ENDBRANCH   1   2
BRANCH   1  21
ATOM     21  C   UNL A   1      37.575  21.214  24.694  1.00  0.00     0.275 C 
BRANCH  21  22
ATOM     22  O   UNL A   1      38.584  21.352  25.689  1.00  0.00    -0.458 OA
BRANCH  22  23
ATOM     23  C   UNL A   1      39.514  20.368  25.749  1.00  0.00     0.338 C 
ATOM     24  O   UNL A   1      39.392  19.218  25.387  1.00  0.00    -0.246 OA
BRANCH  23  25
ATOM     25  C   UNL A   1      40.703  20.940  26.395  1.00  0.00     0.060 A 
ATOM     26  C   UNL A   1      40.799  20.863  27.788  1.00  0.00     0.016 A 
ATOM     27  C   UNL A   1      41.466  21.834  25.640  1.00  0.00     0.016 A 
ATOM     28  C   UNL A   1      41.431  21.895  28.447  1.00  0.00     0.010 A 
ATOM     29  C   UNL A   1      42.022  22.894  26.291  1.00  0.00     0.010 A 
ATOM     30  C   UNL A   1      41.906  22.958  27.678  1.00  0.00    -0.014 A 
BRANCH  30  31
ATOM     31  C   UNL A   1      42.205  24.224  28.305  1.00  0.00     0.031 A 
ATOM     32  C   UNL A   1      41.187  25.265  28.048  1.00  0.00     0.074 A 
ATOM     33  C   UNL A   1      43.206  24.309  29.205  1.00  0.00     0.049 A 
ATOM     34  N   UNL A   1      41.299  26.305  27.291  1.00  0.00    -0.248 NA
ATOM     35  C   UNL A   1      39.812  25.014  28.524  1.00  0.00     0.031 C 
ATOM     36  C   UNL A   1      44.030  23.226  29.757  1.00  0.00     0.029 A 
ATOM     37  N   UNL A   1      43.615  25.383  29.925  1.00  0.00    -0.354 N 
ATOM     38  C   UNL A   1      40.071  26.947  27.390  1.00  0.00     0.074 A 
ATOM     39  C   UNL A   1      39.139  25.981  27.908  1.00  0.00     0.031 C 
ATOM     40  C   UNL A   1      44.644  23.661  30.884  1.00  0.00     0.029 A 
ATOM     41  C   UNL A   1      44.354  25.074  31.063  1.00  0.00     0.049 A 
ATOM     42  H   UNL A   1      43.405  26.308  29.663  1.00  0.00     0.167 HD
ATOM     43  C   UNL A   1      39.962  28.303  27.381  1.00  0.00     0.031 A 
ATOM     44  C   UNL A   1      44.604  25.915  32.104  1.00  0.00     0.031 A 
ATOM     45  C   UNL A   1      41.165  28.941  26.930  1.00  0.00     0.049 A 
ATOM     46  C   UNL A   1      44.341  27.293  31.603  1.00  0.00     0.074 A 
ATOM     47  C   UNL A   1      41.907  28.890  25.767  1.00  0.00     0.029 A 
ATOM     48  N   UNL A   1      42.004  29.440  27.900  1.00  0.00    -0.354 N 
ATOM     49  N   UNL A   1      45.039  27.863  30.660  1.00  0.00    -0.248 NA
ATOM     50  C   UNL A   1      43.009  27.843  31.811  1.00  0.00     0.031 C 
ATOM     51  C   UNL A   1      43.265  28.917  26.194  1.00  0.00     0.029 A 
ATOM     52  C   UNL A   1      43.284  29.054  27.585  1.00  0.00     0.049 A 
ATOM     53  H   UNL A   1      41.736  29.978  28.680  1.00  0.00     0.167 HD
ATOM     54  C   UNL A   1      44.107  28.544  29.886  1.00  0.00     0.074 A 
ATOM     55  C   UNL A   1      42.885  28.560  30.689  1.00  0.00     0.031 C 
ATOM     56  C   UNL A   1      44.321  28.775  28.557  1.00  0.00     0.031 A 
BRANCH  43  57
ATOM     57  C   UNL A   1      38.911  29.017  28.187  1.00  0.00    -0.014 A 
ATOM     58  C   UNL A   1      37.891  29.722  27.531  1.00  0.00     0.010 A 
ATOM     59  C   UNL A   1      39.036  29.206  29.583  1.00  0.00     0.010 A 
ATOM     60  C   UNL A   1      37.043  30.582  28.243  1.00  0.00     0.020 A 
ATOM     61  C   UNL A   1      38.165  30.014  30.308  1.00  0.00     0.020 A 
ATOM     62  C   UNL A   1      37.186  30.718  29.627  1.00  0.00     0.054 A 
BRANCH  62  63
ATOM     63  S   UNL A   1      36.142  31.894  30.520  1.00  0.00     0.124 S 
ATOM     64  O   UNL A   1      35.019  32.059  29.603  1.00  0.00    -0.237 OA
ATOM     65  O   UNL A   1      35.856  31.170  31.755  1.00  0.00    -0.237 OA
ATOM     66  O   UNL A   1      37.001  33.067  30.674  1.00  0.00    -0.744 OA
ENDBRANCH  62  63
ENDBRANCH  43  57
BRANCH  44  67
ATOM     67  C   UNL A   1      44.630  25.591  33.562  1.00  0.00    -0.014 A 
ATOM     68  C   UNL A   1      45.787  25.838  34.331  1.00  0.00     0.010 A 
ATOM     69  C   UNL A   1      43.438  25.322  34.263  1.00  0.00     0.010 A 
ATOM     70  C   UNL A   1      45.730  25.906  35.737  1.00  0.00     0.020 A 
ATOM     71  C   UNL A   1      43.374  25.378  35.663  1.00  0.00     0.020 A 
ATOM     72  C   UNL A   1      44.513  25.708  36.392  1.00  0.00     0.054 A 
BRANCH  72  73
ATOM     73  S   UNL A   1      44.402  25.992  38.186  1.00  0.00     0.124 S 
ATOM     74  O   UNL A   1      44.796  24.699  38.736  1.00  0.00    -0.237 OA
ATOM     75  O   UNL A   1      45.352  27.082  38.386  1.00  0.00    -0.237 OA
ATOM     76  O   UNL A   1      42.999  26.349  38.391  1.00  0.00    -0.744 OA
ENDBRANCH  72  73
ENDBRANCH  44  67
BRANCH  56  77
ATOM     77  C   UNL A   1      45.698  28.511  27.992  1.00  0.00    -0.014 A 
ATOM     78  C   UNL A   1      46.135  27.246  27.546  1.00  0.00     0.010 A 
ATOM     79  C   UNL A   1      46.501  29.631  27.726  1.00  0.00     0.010 A 
ATOM     80  C   UNL A   1      47.348  27.114  26.848  1.00  0.00     0.020 A 
ATOM     81  C   UNL A   1      47.700  29.508  27.021  1.00  0.00     0.020 A 
ATOM     82  C   UNL A   1      48.118  28.252  26.581  1.00  0.00     0.054 A 
BRANCH  82  83
ATOM     83  S   UNL A   1      49.655  28.093  25.626  1.00  0.00     0.124 S 
ATOM     84  O   UNL A   1      50.309  26.949  26.254  1.00  0.00    -0.237 OA
ATOM     85  O   UNL A   1      49.165  27.870  24.267  1.00  0.00    -0.237 OA
ATOM     86  O   UNL A   1      50.328  29.375  25.832  1.00  0.00    -0.744 OA
ENDBRANCH  82  83
ENDBRANCH  56  77
ENDBRANCH  30  31
ENDBRANCH  23  25
ENDBRANCH  22  23
ENDBRANCH  21  22
ENDBRANCH   1  21
TORSDOF 18
ENDMDL
MODEL 3
REMARK VINA RESULT:     -10.6      2.985      8.219
REMARK SMILES O=C(CSc1nc2cccnc2n1CC(F)(F)F)OCCOC(=O)c1ccc(-c2c3nc(c(-c4ccc(S(=O)(=O)[O-])cc4)c4ccc([nH]4)c(-c4ccc(S(=O)(=O)[O-])cc4)c4nc(c(-c5ccc(S(=O)(=O)[O-])cc5)c5ccc2[nH]5)C=C4)C=C3)cc1
REMARK SMILES IDX 20 1 19 2 2 3 1 4 3 5 4 6 5 7 6 8 13 9 7 10 12 11 8 12 11 13
REMARK SMILES IDX 9 14 10 15 14 16 15 17 16 18 17 19 18 20 21 21 22 22 23 23
REMARK SMILES IDX 24 24 25 25 26 26 84 27 27 28 83 29 28 30 29 31 30 32 77 33
REMARK SMILES IDX 31 34 82 35 76 36 78 37 32 38 81 39 75 40 74 41 33 43 63 44
REMARK SMILES IDX 44 45 62 46 45 47 48 48 61 49 79 50 46 51 47 52 60 54 80 55
REMARK SMILES IDX 49 56 34 57 35 58 43 59 36 60 42 61 37 62 38 63 39 64 40 65
REMARK SMILES IDX 41 66 64 67 65 68 73 69 66 70 72 71 67 72 68 73 69 74 70 75
REMARK SMILES IDX 71 76 50 77 51 78 59 79 52 80 58 81 53 82 54 83 55 84 56 85
REMARK SMILES IDX 57 86
REMARK H PARENT 78 42 48 53
REMARK Flexibility Score: inf
ROOT
ATOM      1  C   UNL A   1      36.593  22.369  24.837  1.00  0.00     0.274 C 
ENDROOT
BRANCH   1   2
ATOM      2  O   UNL A   1      35.442  22.206  23.982  1.00  0.00    -0.461 OA
BRANCH   2   3
ATOM      3  C   UNL A   1      34.191  22.074  24.493  1.00  0.00     0.316 C 
ATOM      4  O   UNL A   1      33.881  21.057  25.108  1.00  0.00    -0.251 OA
BRANCH   3   5
ATOM      5  C   UNL A   1      33.247  23.251  24.417  1.00  0.00     0.200 C 
BRANCH   5   6
ATOM      6  S   UNL A   1      32.994  23.915  26.067  1.00  0.00    -0.076 SA
BRANCH   6   7
ATOM      7  C   UNL A   1      32.906  25.634  25.885  1.00  0.00     0.171 A 
ATOM      8  N   UNL A   1      34.018  26.343  25.900  1.00  0.00    -0.221 NA
ATOM      9  N   UNL A   1      31.798  26.431  26.062  1.00  0.00    -0.294 N 
ATOM     10  C   UNL A   1      33.638  27.595  26.289  1.00  0.00     0.109 A 
ATOM     11  C   UNL A   1      32.263  27.668  26.426  1.00  0.00     0.160 A 
ATOM     12  C   UNL A   1      34.385  28.730  26.615  1.00  0.00     0.034 A 
ATOM     13  N   UNL A   1      31.526  28.708  26.857  1.00  0.00    -0.237 NA
ATOM     14  C   UNL A   1      33.678  29.835  27.096  1.00  0.00     0.022 A 
ATOM     15  C   UNL A   1      32.290  29.770  27.195  1.00  0.00     0.113 A 
BRANCH   9  16
ATOM     16  C   UNL A   1      30.381  26.155  25.978  1.00  0.00     0.241 C 
BRANCH  16  17
ATOM     17  C   UNL A   1      29.871  26.271  24.553  1.00  0.00     0.406 C 
ATOM     18  F   UNL A   1      30.354  25.291  23.757  1.00  0.00    -0.169 F 
ATOM     19  F   UNL A   1      28.522  26.222  24.512  1.00  0.00    -0.169 F 
ATOM     20  F   UNL A   1      30.233  27.447  23.991  1.00  0.00    -0.169 F 
ENDBRANCH  16  17
ENDBRANCH   9  16
ENDBRANCH   6   7
ENDBRANCH   5   6
ENDBRANCH   3   5
ENDBRANCH   2   3
ENDBRANCH   1   2
BRANCH   1  21
ATOM     21  C   UNL A   1      37.441  21.108  24.840  1.00  0.00     0.275 C 
BRANCH  21  22
ATOM     22  O   UNL A   1      38.595  21.369  25.632  1.00  0.00    -0.458 OA
BRANCH  22  23
ATOM     23  C   UNL A   1      39.510  20.373  25.716  1.00  0.00     0.338 C 
ATOM     24  O   UNL A   1      39.372  19.217  25.378  1.00  0.00    -0.246 OA
BRANCH  23  25
ATOM     25  C   UNL A   1      40.706  20.939  26.355  1.00  0.00     0.060 A 
ATOM     26  C   UNL A   1      40.821  20.840  27.745  1.00  0.00     0.016 A 
ATOM     27  C   UNL A   1      41.453  21.849  25.604  1.00  0.00     0.016 A 
ATOM     28  C   UNL A   1      41.457  21.864  28.412  1.00  0.00     0.010 A 
ATOM     29  C   UNL A   1      42.014  22.901  26.264  1.00  0.00     0.010 A 
ATOM     30  C   UNL A   1      41.917  22.942  27.654  1.00  0.00    -0.014 A 
BRANCH  30  31
ATOM     31  C   UNL A   1      42.219  24.200  28.297  1.00  0.00     0.031 A 
ATOM     32  C   UNL A   1      41.202  25.246  28.055  1.00  0.00     0.074 A 
ATOM     33  C   UNL A   1      43.220  24.271  29.197  1.00  0.00     0.049 A 
ATOM     34  N   UNL A   1      41.316  26.295  27.312  1.00  0.00    -0.248 NA
ATOM     35  C   UNL A   1      39.827  24.990  28.529  1.00  0.00     0.031 C 
ATOM     36  C   UNL A   1      44.043  23.179  29.735  1.00  0.00     0.029 A 
ATOM     37  N   UNL A   1      43.632  25.334  29.931  1.00  0.00    -0.354 N 
ATOM     38  C   UNL A   1      40.089  26.938  27.419  1.00  0.00     0.074 A 
ATOM     39  C   UNL A   1      39.156  25.967  27.925  1.00  0.00     0.031 C 
ATOM     40  C   UNL A   1      44.659  23.598  30.866  1.00  0.00     0.029 A 
ATOM     41  C   UNL A   1      44.371  25.009  31.064  1.00  0.00     0.049 A 
ATOM     42  H   UNL A   1      43.424  26.263  29.682  1.00  0.00     0.167 HD
ATOM     43  C   UNL A   1      39.982  28.294  27.428  1.00  0.00     0.031 A 
ATOM     44  C   UNL A   1      44.624  25.836  32.116  1.00  0.00     0.031 A 
ATOM     45  C   UNL A   1      41.187  28.936  26.985  1.00  0.00     0.049 A 
ATOM     46  C   UNL A   1      44.363  27.221  31.633  1.00  0.00     0.074 A 
ATOM     47  C   UNL A   1      41.928  28.898  25.821  1.00  0.00     0.029 A 
ATOM     48  N   UNL A   1      42.028  29.420  27.960  1.00  0.00    -0.354 N 
ATOM     49  N   UNL A   1      45.061  27.802  30.697  1.00  0.00    -0.248 NA
ATOM     50  C   UNL A   1      43.032  27.771  31.849  1.00  0.00     0.031 C 
ATOM     51  C   UNL A   1      43.286  28.917  26.247  1.00  0.00     0.029 A 
ATOM     52  C   UNL A   1      43.306  29.036  27.639  1.00  0.00     0.049 A 
ATOM     53  H   UNL A   1      41.761  29.949  28.747  1.00  0.00     0.167 HD
ATOM     54  C   UNL A   1      44.130  28.495  29.933  1.00  0.00     0.074 A 
ATOM     55  C   UNL A   1      42.909  28.502  30.737  1.00  0.00     0.031 C 
ATOM     56  C   UNL A   1      44.343  28.742  28.607  1.00  0.00     0.031 A 
BRANCH  43  57
ATOM     57  C   UNL A   1      38.934  28.999  28.245  1.00  0.00    -0.014 A 
ATOM     58  C   UNL A   1      37.948  29.761  27.601  1.00  0.00     0.010 A 
ATOM     59  C   UNL A   1      39.033  29.122  29.650  1.00  0.00     0.010 A 
ATOM     60  C   UNL A   1      37.107  30.611  28.334  1.00  0.00     0.020 A 
ATOM     61  C   UNL A   1      38.169  29.920  30.393  1.00  0.00     0.020 A 
ATOM     62  C   UNL A   1      37.223  30.680  29.725  1.00  0.00     0.054 A 
BRANCH  62  63
ATOM     63  S   UNL A   1      36.192  31.843  30.650  1.00  0.00     0.124 S 
ATOM     64  O   UNL A   1      36.201  31.259  31.986  1.00  0.00    -0.237 OA
ATOM     65  O   UNL A   1      36.930  33.093  30.495  1.00  0.00    -0.237 OA
ATOM     66  O   UNL A   1      34.908  31.791  29.953  1.00  0.00    -0.744 OA
ENDBRANCH  62  63
ENDBRANCH  43  57
BRANCH  44  67
ATOM     67  C   UNL A   1      44.651  25.493  33.570  1.00  0.00    -0.014 A 
ATOM     68  C   UNL A   1      43.975  24.352  34.051  1.00  0.00     0.010 A 
ATOM     69  C   UNL A   1      45.576  26.106  34.439  1.00  0.00     0.010 A 
ATOM     70  C   UNL A   1      44.282  23.795  35.308  1.00  0.00     0.020 A 
ATOM     71  C   UNL A   1      45.881  25.565  35.696  1.00  0.00     0.020 A 
ATOM     72  C   UNL A   1      45.260  24.389  36.108  1.00  0.00     0.054 A 
BRANCH  72  73
ATOM     73  S   UNL A   1      45.795  23.560  37.637  1.00  0.00     0.124 S 
ATOM     74  O   UNL A   1      44.908  24.141  38.640  1.00  0.00    -0.237 OA
ATOM     75  O   UNL A   1      45.561  22.153  37.324  1.00  0.00    -0.237 OA
ATOM     76  O   UNL A   1      47.201  23.939  37.761  1.00  0.00    -0.744 OA
ENDBRANCH  72  73
ENDBRANCH  44  67
BRANCH  56  77
ATOM     77  C   UNL A   1      45.720  28.483  28.038  1.00  0.00    -0.014 A 
ATOM     78  C   UNL A   1      46.162  27.219  27.594  1.00  0.00     0.010 A 
ATOM     79  C   UNL A   1      46.516  29.606  27.764  1.00  0.00     0.010 A 
ATOM     80  C   UNL A   1      47.372  27.090  26.891  1.00  0.00     0.020 A 
ATOM     81  C   UNL A   1      47.713  29.487  27.055  1.00  0.00     0.020 A 
ATOM     82  C   UNL A   1      48.135  28.231  26.617  1.00  0.00     0.054 A 
BRANCH  82  83
ATOM     83  S   UNL A   1      49.669  28.077  25.657  1.00  0.00     0.124 S 
ATOM     84  O   UNL A   1      50.348  29.341  25.925  1.00  0.00    -0.237 OA
ATOM     85  O   UNL A   1      50.294  26.892  26.242  1.00  0.00    -0.237 OA
ATOM     86  O   UNL A   1      49.205  27.908  24.281  1.00  0.00    -0.744 OA
ENDBRANCH  82  83
ENDBRANCH  56  77
ENDBRANCH  30  31
ENDBRANCH  23  25
ENDBRANCH  22  23
ENDBRANCH  21  22
ENDBRANCH   1  21
TORSDOF 18
ENDMDL
