MODEL 1
REMARK VINA RESULT:     -12.7      0.000      0.000
REMARK SMILES CCn1c(N2CCC(C(=O)OCCOC(=O)c3ccc(-c4c5nc(c(-c6ccc(S(=O)(=O)[O-])cc6)c6ccc([nH]6)c(-c6ccc(S(=O)(=O)[O-])cc6)c6nc(c(-c7ccc(S(=O)(=O)[O-])cc7)c7ccc4[nH]7)C=C6)C=C5)cc3)CC2)nc2cc(C)ccc21
REMARK SMILES IDX 13 1 12 2 11 3 9 4 10 5 8 6 5 7 6 8 78 9 7 10 77 11 4 12
REMARK SMILES IDX 3 13 86 14 79 15 80 16 85 17 81 18 84 19 82 20 83 21 2 22
REMARK SMILES IDX 1 23 14 24 15 25 16 26 17 27 18 28 76 29 19 30 75 31 20 32
REMARK SMILES IDX 21 33 22 34 69 35 23 36 74 37 68 38 70 39 24 40 73 41 67 42
REMARK SMILES IDX 66 43 25 45 55 46 36 47 54 48 37 49 40 50 53 51 71 52 38 53
REMARK SMILES IDX 39 54 52 56 72 57 41 58 26 59 27 60 35 61 28 62 34 63 29 64
REMARK SMILES IDX 30 65 31 66 32 67 33 68 56 69 57 70 65 71 58 72 64 73 59 74
REMARK SMILES IDX 60 75 61 76 62 77 63 78 42 79 43 80 51 81 44 82 50 83 45 84
REMARK SMILES IDX 46 85 47 86 48 87 49 88
REMARK H PARENT 70 44 40 55
REMARK Flexibility Score: inf
ROOT
ATOM      1  C   UNL A   1      35.170  20.607  24.996  1.00  0.00     0.275 C 
ENDROOT
BRANCH   1   2
ATOM      2  C   UNL A   1      33.998  21.577  24.823  1.00  0.00     0.274 C 
BRANCH   2   3
ATOM      3  O   UNL A   1      33.877  21.952  23.435  1.00  0.00    -0.462 OA
BRANCH   3   4
ATOM      4  C   UNL A   1      32.620  21.950  22.928  1.00  0.00     0.309 C 
ATOM      5  O   UNL A   1      32.013  20.945  22.580  1.00  0.00    -0.252 OA
BRANCH   4   6
ATOM      6  C   UNL A   1      31.988  23.320  22.897  1.00  0.00     0.103 C 
ATOM      7  N   UNL A   1      31.275  26.059  23.227  1.00  0.00    -0.342 N 
ATOM      8  C   UNL A   1      30.343  25.030  23.701  1.00  0.00     0.120 C 
ATOM      9  C   UNL A   1      32.213  25.656  22.174  1.00  0.00     0.120 C 
ATOM     10  C   UNL A   1      31.058  23.715  24.043  1.00  0.00     0.037 C 
ATOM     11  C   UNL A   1      32.995  24.432  22.648  1.00  0.00     0.037 C 
BRANCH   7  12
ATOM     12  C   UNL A   1      31.728  26.966  24.126  1.00  0.00     0.206 A 
ATOM     13  N   UNL A   1      31.159  28.228  24.240  1.00  0.00    -0.310 N 
ATOM     14  C   UNL A   1      31.930  28.938  25.136  1.00  0.00     0.070 A 
ATOM     15  N   UNL A   1      32.712  26.797  24.974  1.00  0.00    -0.213 NA
ATOM     16  C   UNL A   1      32.871  28.010  25.581  1.00  0.00     0.091 A 
ATOM     17  C   UNL A   1      31.920  30.252  25.621  1.00  0.00     0.029 A 
ATOM     18  C   UNL A   1      33.824  28.380  26.543  1.00  0.00     0.034 A 
ATOM     19  C   UNL A   1      32.869  30.602  26.589  1.00  0.00     0.006 A 
ATOM     20  C   UNL A   1      33.812  29.684  27.059  1.00  0.00    -0.049 A 
ATOM     21  C   UNL A   1      34.815  30.075  28.100  1.00  0.00     0.044 C 
BRANCH  13  22
ATOM     22  C   UNL A   1      29.910  28.589  23.590  1.00  0.00     0.122 C 
ATOM     23  C   UNL A   1      29.953  29.364  22.287  1.00  0.00     0.028 C 
ENDBRANCH  13  22
ENDBRANCH   7  12
ENDBRANCH   4   6
ENDBRANCH   3   4
ENDBRANCH   2   3
ENDBRANCH   1   2
BRANCH   1  24
ATOM     24  O   UNL A   1      36.358  21.357  25.290  1.00  0.00    -0.458 OA
BRANCH  24  25
ATOM     25  C   UNL A   1      37.529  20.677  25.272  1.00  0.00     0.338 C 
ATOM     26  O   UNL A   1      37.736  19.578  24.776  1.00  0.00    -0.246 OA
BRANCH  25  27
ATOM     27  C   UNL A   1      38.583  21.649  25.626  1.00  0.00     0.060 A 
ATOM     28  C   UNL A   1      39.845  21.229  26.066  1.00  0.00     0.016 A 
ATOM     29  C   UNL A   1      38.181  22.976  25.784  1.00  0.00     0.016 A 
ATOM     30  C   UNL A   1      40.621  22.090  26.837  1.00  0.00     0.010 A 
ATOM     31  C   UNL A   1      38.955  23.826  26.565  1.00  0.00     0.010 A 
ATOM     32  C   UNL A   1      40.128  23.356  27.165  1.00  0.00    -0.014 A 
BRANCH  32  33
ATOM     33  C   UNL A   1      40.951  24.268  27.960  1.00  0.00     0.031 A 
ATOM     34  C   UNL A   1      40.303  25.582  28.151  1.00  0.00     0.074 A 
ATOM     35  C   UNL A   1      42.130  24.018  28.569  1.00  0.00     0.049 A 
ATOM     36  N   UNL A   1      40.667  26.689  27.600  1.00  0.00    -0.248 NA
ATOM     37  C   UNL A   1      39.031  25.650  28.882  1.00  0.00     0.031 C 
ATOM     38  C   UNL A   1      42.868  22.767  28.667  1.00  0.00     0.029 A 
ATOM     39  N   UNL A   1      42.886  24.857  29.336  1.00  0.00    -0.354 N 
ATOM     40  C   UNL A   1      39.765  27.640  28.046  1.00  0.00     0.074 A 
ATOM     41  C   UNL A   1      38.680  26.915  28.656  1.00  0.00     0.031 C 
ATOM     42  C   UNL A   1      43.787  22.850  29.662  1.00  0.00     0.029 A 
ATOM     43  C   UNL A   1      43.830  24.224  30.141  1.00  0.00     0.049 A 
ATOM     44  H   UNL A   1      42.774  25.835  29.322  1.00  0.00     0.167 HD
ATOM     45  C   UNL A   1      40.077  28.962  28.079  1.00  0.00     0.031 A 
ATOM     46  C   UNL A   1      44.587  24.786  31.123  1.00  0.00     0.031 A 
ATOM     47  C   UNL A   1      41.254  29.259  27.305  1.00  0.00     0.049 A 
ATOM     48  C   UNL A   1      44.668  26.234  30.819  1.00  0.00     0.074 A 
ATOM     49  C   UNL A   1      41.598  29.079  25.978  1.00  0.00     0.029 A 
ATOM     50  N   UNL A   1      42.438  29.444  27.981  1.00  0.00    -0.354 N 
ATOM     51  N   UNL A   1      45.325  26.710  29.799  1.00  0.00    -0.248 NA
ATOM     52  C   UNL A   1      43.650  27.109  31.381  1.00  0.00     0.031 C 
ATOM     53  C   UNL A   1      42.961  28.671  26.004  1.00  0.00     0.029 A 
ATOM     54  C   UNL A   1      43.394  28.705  27.330  1.00  0.00     0.049 A 
ATOM     55  H   UNL A   1      42.574  30.002  28.780  1.00  0.00     0.167 HD
ATOM     56  C   UNL A   1      44.511  27.717  29.308  1.00  0.00     0.074 A 
ATOM     57  C   UNL A   1      43.537  27.975  30.370  1.00  0.00     0.031 C 
ATOM     58  C   UNL A   1      44.511  28.055  27.985  1.00  0.00     0.031 A 
BRANCH  45  59
ATOM     59  C   UNL A   1      39.484  29.913  29.077  1.00  0.00    -0.014 A 
ATOM     60  C   UNL A   1      38.365  30.723  28.794  1.00  0.00     0.010 A 
ATOM     61  C   UNL A   1      39.914  29.861  30.415  1.00  0.00     0.010 A 
ATOM     62  C   UNL A   1      37.735  31.488  29.773  1.00  0.00     0.020 A 
ATOM     63  C   UNL A   1      39.256  30.582  31.418  1.00  0.00     0.020 A 
ATOM     64  C   UNL A   1      38.180  31.405  31.085  1.00  0.00     0.054 A 
BRANCH  64  65
ATOM     65  S   UNL A   1      37.281  32.340  32.340  1.00  0.00     0.124 S 
ATOM     66  O   UNL A   1      36.360  31.333  32.861  1.00  0.00    -0.237 OA
ATOM     67  O   UNL A   1      38.348  32.748  33.250  1.00  0.00    -0.237 OA
ATOM     68  O   UNL A   1      36.661  33.423  31.581  1.00  0.00    -0.744 OA
ENDBRANCH  64  65
ENDBRANCH  45  59
BRANCH  46  69
ATOM     69  C   UNL A   1      44.776  24.287  32.519  1.00  0.00    -0.014 A 
ATOM     70  C   UNL A   1      45.963  24.579  33.212  1.00  0.00     0.010 A 
ATOM     71  C   UNL A   1      43.964  23.245  33.026  1.00  0.00     0.010 A 
ATOM     72  C   UNL A   1      46.387  23.778  34.276  1.00  0.00     0.020 A 
ATOM     73  C   UNL A   1      44.389  22.437  34.098  1.00  0.00     0.020 A 
ATOM     74  C   UNL A   1      45.629  22.682  34.680  1.00  0.00     0.054 A 
BRANCH  74  75
ATOM     75  S   UNL A   1      46.373  21.537  35.880  1.00  0.00     0.124 S 
ATOM     76  O   UNL A   1      46.093  20.241  35.269  1.00  0.00    -0.237 OA
ATOM     77  O   UNL A   1      47.778  21.938  35.866  1.00  0.00    -0.237 OA
ATOM     78  O   UNL A   1      45.656  21.817  37.121  1.00  0.00    -0.744 OA
ENDBRANCH  74  75
ENDBRANCH  46  69
BRANCH  58  79
ATOM     79  C   UNL A   1      45.589  27.508  27.069  1.00  0.00    -0.014 A 
ATOM     80  C   UNL A   1      46.720  28.319  26.862  1.00  0.00     0.010 A 
ATOM     81  C   UNL A   1      45.433  26.364  26.261  1.00  0.00     0.010 A 
ATOM     82  C   UNL A   1      47.638  28.036  25.850  1.00  0.00     0.020 A 
ATOM     83  C   UNL A   1      46.370  26.055  25.259  1.00  0.00     0.020 A 
ATOM     84  C   UNL A   1      47.452  26.914  25.043  1.00  0.00     0.054 A 
BRANCH  84  85
ATOM     85  S   UNL A   1      48.633  26.632  23.695  1.00  0.00     0.124 S 
ATOM     86  O   UNL A   1      48.150  25.379  23.117  1.00  0.00    -0.237 OA
ATOM     87  O   UNL A   1      48.449  27.814  22.855  1.00  0.00    -0.237 OA
ATOM     88  O   UNL A   1      49.927  26.548  24.367  1.00  0.00    -0.744 OA
ENDBRANCH  84  85
ENDBRANCH  58  79
ENDBRANCH  32  33
ENDBRANCH  25  27
ENDBRANCH  24  25
ENDBRANCH   1  24
TORSDOF 16
ENDMDL
MODEL 2
REMARK VINA RESULT:     -12.7      3.956      8.719
REMARK SMILES CCn1c(N2CCC(C(=O)OCCOC(=O)c3ccc(-c4c5nc(c(-c6ccc(S(=O)(=O)[O-])cc6)c6ccc([nH]6)c(-c6ccc(S(=O)(=O)[O-])cc6)c6nc(c(-c7ccc(S(=O)(=O)[O-])cc7)c7ccc4[nH]7)C=C6)C=C5)cc3)CC2)nc2cc(C)ccc21
REMARK SMILES IDX 13 1 12 2 11 3 9 4 10 5 8 6 5 7 6 8 78 9 7 10 77 11 4 12
REMARK SMILES IDX 3 13 86 14 79 15 80 16 85 17 81 18 84 19 82 20 83 21 2 22
REMARK SMILES IDX 1 23 14 24 15 25 16 26 17 27 18 28 76 29 19 30 75 31 20 32
REMARK SMILES IDX 21 33 22 34 69 35 23 36 74 37 68 38 70 39 24 40 73 41 67 42
REMARK SMILES IDX 66 43 25 45 55 46 36 47 54 48 37 49 40 50 53 51 71 52 38 53
REMARK SMILES IDX 39 54 52 56 72 57 41 58 26 59 27 60 35 61 28 62 34 63 29 64
REMARK SMILES IDX 30 65 31 66 32 67 33 68 56 69 57 70 65 71 58 72 64 73 59 74
REMARK SMILES IDX 60 75 61 76 62 77 63 78 42 79 43 80 51 81 44 82 50 83 45 84
REMARK SMILES IDX 46 85 47 86 48 87 49 88
REMARK H PARENT 70 44 40 55
REMARK Flexibility Score: inf
ROOT
ATOM      1  C   UNL A   1      40.929  21.627  25.841  1.00  0.00     0.275 C 
ENDROOT
BRANCH   1   2
ATOM      2  C   UNL A   1      39.605  21.990  26.520  1.00  0.00     0.274 C 
BRANCH   2   3
ATOM      3  O   UNL A   1      38.631  22.360  25.522  1.00  0.00    -0.462 OA
BRANCH   3   4
ATOM      4  C   UNL A   1      37.796  21.372  25.115  1.00  0.00     0.309 C 
ATOM      5  O   UNL A   1      38.049  20.176  25.179  1.00  0.00    -0.252 OA
BRANCH   4   6
ATOM      6  C   UNL A   1      36.460  21.883  24.632  1.00  0.00     0.103 C 
ATOM      7  N   UNL A   1      34.141  23.399  23.968  1.00  0.00    -0.342 N 
ATOM      8  C   UNL A   1      33.999  22.272  24.896  1.00  0.00     0.120 C 
ATOM      9  C   UNL A   1      35.287  23.354  23.055  1.00  0.00     0.120 C 
ATOM     10  C   UNL A   1      35.309  21.962  25.634  1.00  0.00     0.037 C 
ATOM     11  C   UNL A   1      36.568  23.196  23.872  1.00  0.00     0.037 C 
BRANCH   7  12
ATOM     12  C   UNL A   1      33.759  24.626  24.399  1.00  0.00     0.206 A 
ATOM     13  N   UNL A   1      32.943  25.448  23.633  1.00  0.00    -0.310 N 
ATOM     14  C   UNL A   1      32.859  26.658  24.289  1.00  0.00     0.070 A 
ATOM     15  N   UNL A   1      34.082  25.186  25.538  1.00  0.00    -0.213 NA
ATOM     16  C   UNL A   1      33.563  26.448  25.474  1.00  0.00     0.091 A 
ATOM     17  C   UNL A   1      32.254  27.890  24.012  1.00  0.00     0.029 A 
ATOM     18  C   UNL A   1      33.666  27.476  26.423  1.00  0.00     0.034 A 
ATOM     19  C   UNL A   1      32.355  28.902  24.974  1.00  0.00     0.006 A 
ATOM     20  C   UNL A   1      33.044  28.708  26.174  1.00  0.00    -0.049 A 
ATOM     21  C   UNL A   1      33.135  29.801  27.195  1.00  0.00     0.044 C 
BRANCH  13  22
ATOM     22  C   UNL A   1      32.253  24.981  22.441  1.00  0.00     0.122 C 
ATOM     23  C   UNL A   1      32.637  25.557  21.092  1.00  0.00     0.028 C 
ENDBRANCH  13  22
ENDBRANCH   7  12
ENDBRANCH   4   6
ENDBRANCH   3   4
ENDBRANCH   2   3
ENDBRANCH   1   2
BRANCH   1  24
ATOM     24  O   UNL A   1      41.980  22.421  26.410  1.00  0.00    -0.458 OA
BRANCH  24  25
ATOM     25  C   UNL A   1      42.746  23.130  25.547  1.00  0.00     0.338 C 
ATOM     26  O   UNL A   1      43.144  22.768  24.448  1.00  0.00    -0.246 OA
BRANCH  25  27
ATOM     27  C   UNL A   1      42.702  24.534  26.003  1.00  0.00     0.060 A 
ATOM     28  C   UNL A   1      43.518  24.987  27.047  1.00  0.00     0.016 A 
ATOM     29  C   UNL A   1      41.625  25.302  25.559  1.00  0.00     0.016 A 
ATOM     30  C   UNL A   1      43.137  26.112  27.772  1.00  0.00     0.010 A 
ATOM     31  C   UNL A   1      41.244  26.417  26.295  1.00  0.00     0.010 A 
ATOM     32  C   UNL A   1      41.946  26.769  27.452  1.00  0.00    -0.014 A 
BRANCH  32  33
ATOM     33  C   UNL A   1      41.555  27.963  28.202  1.00  0.00     0.031 A 
ATOM     34  C   UNL A   1      42.502  29.079  28.010  1.00  0.00     0.074 A 
ATOM     35  C   UNL A   1      40.440  28.162  28.938  1.00  0.00     0.049 A 
ATOM     36  N   UNL A   1      43.330  29.526  28.892  1.00  0.00    -0.248 NA
ATOM     37  C   UNL A   1      42.676  29.643  26.664  1.00  0.00     0.031 C 
ATOM     38  C   UNL A   1      39.295  27.284  29.131  1.00  0.00     0.029 A 
ATOM     39  N   UNL A   1      40.057  29.284  29.616  1.00  0.00    -0.354 N 
ATOM     40  C   UNL A   1      44.023  30.548  28.266  1.00  0.00     0.074 A 
ATOM     41  C   UNL A   1      43.727  30.438  26.861  1.00  0.00     0.031 C 
ATOM     42  C   UNL A   1      38.246  27.994  29.618  1.00  0.00     0.029 A 
ATOM     43  C   UNL A   1      38.706  29.334  29.949  1.00  0.00     0.049 A 
ATOM     44  H   UNL A   1      40.687  30.003  29.851  1.00  0.00     0.167 HD
ATOM     45  C   UNL A   1      44.616  31.546  28.972  1.00  0.00     0.031 A 
ATOM     46  C   UNL A   1      38.021  30.394  30.460  1.00  0.00     0.031 A 
ATOM     47  C   UNL A   1      44.729  31.227  30.371  1.00  0.00     0.049 A 
ATOM     48  C   UNL A   1      39.020  31.265  31.123  1.00  0.00     0.074 A 
ATOM     49  C   UNL A   1      45.330  30.199  31.073  1.00  0.00     0.029 A 
ATOM     50  N   UNL A   1      43.820  31.794  31.234  1.00  0.00    -0.354 N 
ATOM     51  N   UNL A   1      39.648  30.923  32.212  1.00  0.00    -0.248 NA
ATOM     52  C   UNL A   1      39.649  32.310  30.330  1.00  0.00     0.031 C 
ATOM     53  C   UNL A   1      44.418  29.887  32.120  1.00  0.00     0.029 A 
ATOM     54  C   UNL A   1      43.357  30.790  32.050  1.00  0.00     0.049 A 
ATOM     55  H   UNL A   1      43.552  32.740  31.263  1.00  0.00     0.167 HD
ATOM     56  C   UNL A   1      40.947  31.359  32.008  1.00  0.00     0.074 A 
ATOM     57  C   UNL A   1      40.869  32.280  30.873  1.00  0.00     0.031 C 
ATOM     58  C   UNL A   1      42.011  30.725  32.581  1.00  0.00     0.031 A 
BRANCH  45  59
ATOM     59  C   UNL A   1      44.798  32.932  28.425  1.00  0.00    -0.014 A 
ATOM     60  C   UNL A   1      43.739  33.856  28.305  1.00  0.00     0.010 A 
ATOM     61  C   UNL A   1      46.099  33.421  28.213  1.00  0.00     0.010 A 
ATOM     62  C   UNL A   1      43.948  35.183  27.938  1.00  0.00     0.020 A 
ATOM     63  C   UNL A   1      46.328  34.766  27.897  1.00  0.00     0.020 A 
ATOM     64  C   UNL A   1      45.247  35.633  27.745  1.00  0.00     0.054 A 
BRANCH  64  65
ATOM     65  S   UNL A   1      45.483  37.381  27.360  1.00  0.00     0.124 S 
ATOM     66  O   UNL A   1      45.924  37.914  28.647  1.00  0.00    -0.237 OA
ATOM     67  O   UNL A   1      46.502  37.335  26.315  1.00  0.00    -0.237 OA
ATOM     68  O   UNL A   1      44.160  37.817  26.923  1.00  0.00    -0.744 OA
ENDBRANCH  64  65
ENDBRANCH  45  59
BRANCH  46  69
ATOM     69  C   UNL A   1      36.724  30.954  29.972  1.00  0.00    -0.014 A 
ATOM     70  C   UNL A   1      36.580  31.316  28.623  1.00  0.00     0.010 A 
ATOM     71  C   UNL A   1      35.769  31.457  30.888  1.00  0.00     0.010 A 
ATOM     72  C   UNL A   1      35.614  32.246  28.228  1.00  0.00     0.020 A 
ATOM     73  C   UNL A   1      34.795  32.394  30.493  1.00  0.00     0.020 A 
ATOM     74  C   UNL A   1      34.763  32.821  29.168  1.00  0.00     0.054 A 
BRANCH  74  75
ATOM     75  S   UNL A   1      33.726  34.213  28.629  1.00  0.00     0.124 S 
ATOM     76  O   UNL A   1      33.150  34.663  29.894  1.00  0.00    -0.237 OA
ATOM     77  O   UNL A   1      34.705  35.122  28.036  1.00  0.00    -0.237 OA
ATOM     78  O   UNL A   1      32.788  33.606  27.690  1.00  0.00    -0.744 OA
ENDBRANCH  74  75
ENDBRANCH  46  69
BRANCH  58  79
ATOM     79  C   UNL A   1      41.775  29.685  33.660  1.00  0.00    -0.014 A 
ATOM     80  C   UNL A   1      42.172  30.023  34.967  1.00  0.00     0.010 A 
ATOM     81  C   UNL A   1      41.397  28.352  33.403  1.00  0.00     0.010 A 
ATOM     82  C   UNL A   1      42.242  29.059  35.974  1.00  0.00     0.020 A 
ATOM     83  C   UNL A   1      41.436  27.381  34.420  1.00  0.00     0.020 A 
ATOM     84  C   UNL A   1      41.888  27.740  35.693  1.00  0.00     0.054 A 
BRANCH  84  85
ATOM     85  S   UNL A   1      42.068  26.512  37.016  1.00  0.00     0.124 S 
ATOM     86  O   UNL A   1      43.165  27.067  37.807  1.00  0.00    -0.237 OA
ATOM     87  O   UNL A   1      40.758  26.542  37.663  1.00  0.00    -0.237 OA
ATOM     88  O   UNL A   1      42.378  25.271  36.311  1.00  0.00    -0.744 OA
ENDBRANCH  84  85
ENDBRANCH  58  79
ENDBRANCH  32  33
ENDBRANCH  25  27
ENDBRANCH  24  25
ENDBRANCH   1  24
TORSDOF 16
ENDMDL
MODEL 3
REMARK VINA RESULT:     -12.6      3.689      7.468
REMARK SMILES CCn1c(N2CCC(C(=O)OCCOC(=O)c3ccc(-c4c5nc(c(-c6ccc(S(=O)(=O)[O-])cc6)c6ccc([nH]6)c(-c6ccc(S(=O)(=O)[O-])cc6)c6nc(c(-c7ccc(S(=O)(=O)[O-])cc7)c7ccc4[nH]7)C=C6)C=C5)cc3)CC2)nc2cc(C)ccc21
REMARK SMILES IDX 13 1 12 2 11 3 9 4 10 5 8 6 5 7 6 8 78 9 7 10 77 11 4 12
REMARK SMILES IDX 3 13 86 14 79 15 80 16 85 17 81 18 84 19 82 20 83 21 2 22
REMARK SMILES IDX 1 23 14 24 15 25 16 26 17 27 18 28 76 29 19 30 75 31 20 32
REMARK SMILES IDX 21 33 22 34 69 35 23 36 74 37 68 38 70 39 24 40 73 41 67 42
REMARK SMILES IDX 66 43 25 45 55 46 36 47 54 48 37 49 40 50 53 51 71 52 38 53
REMARK SMILES IDX 39 54 52 56 72 57 41 58 26 59 27 60 35 61 28 62 34 63 29 64
REMARK SMILES IDX 30 65 31 66 32 67 33 68 56 69 57 70 65 71 58 72 64 73 59 74
REMARK SMILES IDX 60 75 61 76 62 77 63 78 42 79 43 80 51 81 44 82 50 83 45 84
REMARK SMILES IDX 46 85 47 86 48 87 49 88
REMARK H PARENT 70 44 40 55
REMARK Flexibility Score: inf
ROOT
ATOM      1  C   UNL A   1      32.373  31.506  27.081  1.00  0.00     0.275 C 
ENDROOT
BRANCH   1   2
ATOM      2  C   UNL A   1      31.772  30.409  26.197  1.00  0.00     0.274 C 
BRANCH   2   3
ATOM      3  O   UNL A   1      32.587  29.220  26.274  1.00  0.00    -0.462 OA
BRANCH   3   4
ATOM      4  C   UNL A   1      31.971  28.109  26.745  1.00  0.00     0.309 C 
ATOM      5  O   UNL A   1      31.224  28.085  27.714  1.00  0.00    -0.252 OA
BRANCH   4   6
ATOM      6  C   UNL A   1      32.233  26.881  25.905  1.00  0.00     0.103 C 
ATOM      7  N   UNL A   1      33.229  24.496  24.707  1.00  0.00    -0.342 N 
ATOM      8  C   UNL A   1      33.183  25.719  23.900  1.00  0.00     0.120 C 
ATOM      9  C   UNL A   1      32.304  24.428  25.843  1.00  0.00     0.120 C 
ATOM     10  C   UNL A   1      33.245  26.986  24.764  1.00  0.00     0.037 C 
ATOM     11  C   UNL A   1      32.528  25.645  26.740  1.00  0.00     0.037 C 
BRANCH   7  12
ATOM     12  C   UNL A   1      34.428  23.886  24.867  1.00  0.00     0.206 A 
ATOM     13  N   UNL A   1      34.641  22.576  24.457  1.00  0.00    -0.310 N 
ATOM     14  C   UNL A   1      35.904  22.221  24.882  1.00  0.00     0.070 A 
ATOM     15  N   UNL A   1      35.504  24.411  25.397  1.00  0.00    -0.213 NA
ATOM     16  C   UNL A   1      36.412  23.392  25.444  1.00  0.00     0.091 A 
ATOM     17  C   UNL A   1      36.666  21.047  24.836  1.00  0.00     0.029 A 
ATOM     18  C   UNL A   1      37.714  23.414  25.966  1.00  0.00     0.034 A 
ATOM     19  C   UNL A   1      37.968  21.089  25.350  1.00  0.00     0.006 A 
ATOM     20  C   UNL A   1      38.501  22.255  25.905  1.00  0.00    -0.049 A 
ATOM     21  C   UNL A   1      39.899  22.282  26.443  1.00  0.00     0.044 C 
BRANCH  13  22
ATOM     22  C   UNL A   1      33.694  21.846  23.630  1.00  0.00     0.122 C 
ATOM     23  C   UNL A   1      32.541  21.118  24.294  1.00  0.00     0.028 C 
ENDBRANCH  13  22
ENDBRANCH   7  12
ENDBRANCH   4   6
ENDBRANCH   3   4
ENDBRANCH   2   3
ENDBRANCH   1   2
BRANCH   1  24
ATOM     24  O   UNL A   1      33.626  31.046  27.609  1.00  0.00    -0.458 OA
BRANCH  24  25
ATOM     25  C   UNL A   1      34.612  31.966  27.730  1.00  0.00     0.338 C 
ATOM     26  O   UNL A   1      34.505  33.180  27.619  1.00  0.00    -0.246 OA
BRANCH  25  27
ATOM     27  C   UNL A   1      35.749  31.280  28.376  1.00  0.00     0.060 A 
ATOM     28  C   UNL A   1      36.771  31.999  29.008  1.00  0.00     0.016 A 
ATOM     29  C   UNL A   1      35.911  29.926  28.081  1.00  0.00     0.016 A 
ATOM     30  C   UNL A   1      38.023  31.411  29.165  1.00  0.00     0.010 A 
ATOM     31  C   UNL A   1      37.166  29.350  28.228  1.00  0.00     0.010 A 
ATOM     32  C   UNL A   1      38.243  30.117  28.685  1.00  0.00    -0.014 A 
BRANCH  32  33
ATOM     33  C   UNL A   1      39.554  29.492  28.866  1.00  0.00     0.031 A 
ATOM     34  C   UNL A   1      39.942  29.411  30.288  1.00  0.00     0.074 A 
ATOM     35  C   UNL A   1      40.355  28.941  27.929  1.00  0.00     0.049 A 
ATOM     36  N   UNL A   1      40.862  30.111  30.859  1.00  0.00    -0.248 NA
ATOM     37  C   UNL A   1      39.124  28.607  31.206  1.00  0.00     0.031 C 
ATOM     38  C   UNL A   1      40.112  28.749  26.507  1.00  0.00     0.029 A 
ATOM     39  N   UNL A   1      41.565  28.331  28.097  1.00  0.00    -0.354 N 
ATOM     40  C   UNL A   1      40.857  29.717  32.187  1.00  0.00     0.074 A 
ATOM     41  C   UNL A   1      39.651  28.954  32.379  1.00  0.00     0.031 C 
ATOM     42  C   UNL A   1      40.984  27.837  26.008  1.00  0.00     0.029 A 
ATOM     43  C   UNL A   1      41.967  27.525  27.035  1.00  0.00     0.049 A 
ATOM     44  H   UNL A   1      42.112  28.451  28.907  1.00  0.00     0.167 HD
ATOM     45  C   UNL A   1      41.952  29.860  32.979  1.00  0.00     0.031 A 
ATOM     46  C   UNL A   1      43.026  26.670  27.003  1.00  0.00     0.031 A 
ATOM     47  C   UNL A   1      42.929  30.743  32.398  1.00  0.00     0.049 A 
ATOM     48  C   UNL A   1      43.986  27.145  28.028  1.00  0.00     0.074 A 
ATOM     49  C   UNL A   1      42.900  32.060  31.980  1.00  0.00     0.029 A 
ATOM     50  N   UNL A   1      44.025  30.176  31.788  1.00  0.00    -0.354 N 
ATOM     51  N   UNL A   1      44.656  28.256  27.911  1.00  0.00    -0.248 NA
ATOM     52  C   UNL A   1      43.859  26.620  29.378  1.00  0.00     0.031 C 
ATOM     53  C   UNL A   1      43.663  32.081  30.779  1.00  0.00     0.029 A 
ATOM     54  C   UNL A   1      44.181  30.801  30.575  1.00  0.00     0.049 A 
ATOM     55  H   UNL A   1      44.591  29.458  32.153  1.00  0.00     0.167 HD
ATOM     56  C   UNL A   1      44.634  28.803  29.183  1.00  0.00     0.074 A 
ATOM     57  C   UNL A   1      44.206  27.714  30.062  1.00  0.00     0.031 C 
ATOM     58  C   UNL A   1      44.683  30.153  29.381  1.00  0.00     0.031 A 
BRANCH  45  59
ATOM     59  C   UNL A   1      42.251  28.941  34.127  1.00  0.00    -0.014 A 
ATOM     60  C   UNL A   1      41.748  29.149  35.429  1.00  0.00     0.010 A 
ATOM     61  C   UNL A   1      42.880  27.709  33.875  1.00  0.00     0.010 A 
ATOM     62  C   UNL A   1      41.909  28.213  36.446  1.00  0.00     0.020 A 
ATOM     63  C   UNL A   1      43.000  26.736  34.874  1.00  0.00     0.020 A 
ATOM     64  C   UNL A   1      42.527  27.003  36.159  1.00  0.00     0.054 A 
BRANCH  64  65
ATOM     65  S   UNL A   1      42.635  25.778  37.481  1.00  0.00     0.124 S 
ATOM     66  O   UNL A   1      41.226  25.531  37.775  1.00  0.00    -0.237 OA
ATOM     67  O   UNL A   1      43.345  24.680  36.830  1.00  0.00    -0.237 OA
ATOM     68  O   UNL A   1      43.382  26.469  38.528  1.00  0.00    -0.744 OA
ENDBRANCH  64  65
ENDBRANCH  45  59
BRANCH  46  69
ATOM     69  C   UNL A   1      43.024  25.241  26.563  1.00  0.00    -0.014 A 
ATOM     70  C   UNL A   1      43.460  24.237  27.442  1.00  0.00     0.010 A 
ATOM     71  C   UNL A   1      42.938  24.913  25.189  1.00  0.00     0.010 A 
ATOM     72  C   UNL A   1      43.920  23.009  26.958  1.00  0.00     0.020 A 
ATOM     73  C   UNL A   1      43.401  23.677  24.698  1.00  0.00     0.020 A 
ATOM     74  C   UNL A   1      43.940  22.754  25.589  1.00  0.00     0.054 A 
BRANCH  74  75
ATOM     75  S   UNL A   1      44.800  21.256  25.022  1.00  0.00     0.124 S 
ATOM     76  O   UNL A   1      43.998  20.202  25.637  1.00  0.00    -0.237 OA
ATOM     77  O   UNL A   1      44.679  21.358  23.569  1.00  0.00    -0.237 OA
ATOM     78  O   UNL A   1      46.152  21.409  25.548  1.00  0.00    -0.744 OA
ENDBRANCH  74  75
ENDBRANCH  46  69
BRANCH  58  79
ATOM     79  C   UNL A   1      45.021  31.071  28.222  1.00  0.00    -0.014 A 
ATOM     80  C   UNL A   1      46.262  31.732  28.275  1.00  0.00     0.010 A 
ATOM     81  C   UNL A   1      44.099  31.464  27.230  1.00  0.00     0.010 A 
ATOM     82  C   UNL A   1      46.560  32.785  27.407  1.00  0.00     0.020 A 
ATOM     83  C   UNL A   1      44.403  32.503  26.333  1.00  0.00     0.020 A 
ATOM     84  C   UNL A   1      45.623  33.175  26.450  1.00  0.00     0.054 A 
BRANCH  84  85
ATOM     85  S   UNL A   1      46.029  34.596  25.397  1.00  0.00     0.124 S 
ATOM     86  O   UNL A   1      45.210  34.347  24.211  1.00  0.00    -0.237 OA
ATOM     87  O   UNL A   1      45.609  35.732  26.215  1.00  0.00    -0.237 OA
ATOM     88  O   UNL A   1      47.471  34.485  25.189  1.00  0.00    -0.744 OA
ENDBRANCH  84  85
ENDBRANCH  58  79
ENDBRANCH  32  33
ENDBRANCH  25  27
ENDBRANCH  24  25
ENDBRANCH   1  24
TORSDOF 16
ENDMDL
