MODEL 1
REMARK VINA RESULT:     -10.3      0.000      0.000
REMARK SMILES C[C@H](C(=O)OCCOC(=O)c1ccc(-c2c3nc(c(-c4ccc(S(=O)(=O)[O-])cc4)c4ccc([nH]4)c(-c4ccc(S(=O)(=O)[O-])cc4)c4nc(c(-c5ccc(S(=O)(=O)[O-])cc5)c5ccc2[nH]5)C=C4)C=C3)cc1)[C@@H](C)Nc1ccccc1Oc1ccccc1
REMARK SMILES IDX 6 1 5 2 3 3 4 4 2 5 1 6 71 7 72 8 73 9 74 11 75 12 79 13
REMARK SMILES IDX 76 14 78 15 77 16 80 17 81 18 82 19 86 20 83 21 85 22 84 23
REMARK SMILES IDX 7 24 8 25 9 26 10 27 11 28 12 29 70 30 13 31 69 32 14 33
REMARK SMILES IDX 15 34 16 35 63 36 17 37 68 38 62 39 64 40 18 41 67 42 61 43
REMARK SMILES IDX 60 44 19 46 49 47 30 48 48 49 31 50 34 51 47 52 65 53 32 54
REMARK SMILES IDX 33 55 46 57 66 58 35 59 20 60 21 61 29 62 22 63 28 64 23 65
REMARK SMILES IDX 24 66 25 67 26 68 27 69 50 70 51 71 59 72 52 73 58 74 53 75
REMARK SMILES IDX 54 76 55 77 56 78 57 79 36 80 37 81 45 82 38 83 44 84 39 85
REMARK SMILES IDX 40 86 41 87 42 88 43 89
REMARK H PARENT 73 10 64 45 34 56
REMARK Flexibility Score: inf
ROOT
ATOM      1  C   UNL A   1      32.462  27.993  25.800  1.00  0.00     0.274 C 
ENDROOT
BRANCH   1   2
ATOM      2  O   UNL A   1      32.596  27.042  24.727  1.00  0.00    -0.462 OA
BRANCH   2   3
ATOM      3  C   UNL A   1      31.630  26.085  24.686  1.00  0.00     0.310 C 
ATOM      4  O   UNL A   1      31.133  25.642  23.655  1.00  0.00    -0.252 OA
BRANCH   3   5
ATOM      5  C   UNL A   1      31.180  25.633  26.062  1.00  0.00     0.118 C 
ATOM      6  C   UNL A   1      29.676  25.350  26.103  1.00  0.00     0.022 C 
BRANCH   5   7
ATOM      7  C   UNL A   1      32.048  24.430  26.442  1.00  0.00     0.090 C 
ATOM      8  C   UNL A   1      31.196  23.182  26.731  1.00  0.00     0.031 C 
BRANCH   7   9
ATOM      9  N   UNL A   1      32.968  24.070  25.375  1.00  0.00    -0.379 N 
ATOM     10  H   UNL A   1      32.663  24.288  24.464  1.00  0.00     0.160 HD
BRANCH   9  11
ATOM     11  C   UNL A   1      34.210  23.468  25.457  1.00  0.00     0.078 A 
ATOM     12  C   UNL A   1      35.292  24.385  25.504  1.00  0.00     0.029 A 
ATOM     13  C   UNL A   1      34.539  22.103  25.587  1.00  0.00     0.150 A 
ATOM     14  C   UNL A   1      36.620  23.994  25.687  1.00  0.00     0.002 A 
ATOM     15  C   UNL A   1      35.889  21.718  25.754  1.00  0.00     0.049 A 
ATOM     16  C   UNL A   1      36.921  22.650  25.806  1.00  0.00     0.004 A 
BRANCH  13  17
ATOM     17  O   UNL A   1      33.706  21.014  25.733  1.00  0.00    -0.455 OA
BRANCH  17  18
ATOM     18  C   UNL A   1      33.266  20.245  24.691  1.00  0.00     0.127 A 
ATOM     19  C   UNL A   1      33.380  18.865  24.924  1.00  0.00     0.047 A 
ATOM     20  C   UNL A   1      32.691  20.701  23.509  1.00  0.00     0.047 A 
ATOM     21  C   UNL A   1      32.826  17.946  24.037  1.00  0.00     0.004 A 
ATOM     22  C   UNL A   1      32.149  19.775  22.610  1.00  0.00     0.004 A 
ATOM     23  C   UNL A   1      32.195  18.403  22.884  1.00  0.00     0.000 A 
ENDBRANCH  17  18
ENDBRANCH  13  17
ENDBRANCH   9  11
ENDBRANCH   7   9
ENDBRANCH   5   7
ENDBRANCH   3   5
ENDBRANCH   2   3
ENDBRANCH   1   2
BRANCH   1  24
ATOM     24  C   UNL A   1      33.833  28.330  26.386  1.00  0.00     0.275 C 
BRANCH  24  25
ATOM     25  O   UNL A   1      33.665  28.942  27.676  1.00  0.00    -0.458 OA
BRANCH  25  26
ATOM     26  C   UNL A   1      34.269  30.143  27.846  1.00  0.00     0.338 C 
ATOM     27  O   UNL A   1      33.730  31.235  27.811  1.00  0.00    -0.246 OA
BRANCH  26  28
ATOM     28  C   UNL A   1      35.712  29.958  28.141  1.00  0.00     0.060 A 
ATOM     29  C   UNL A   1      36.688  30.187  27.169  1.00  0.00     0.016 A 
ATOM     30  C   UNL A   1      36.092  29.441  29.379  1.00  0.00     0.016 A 
ATOM     31  C   UNL A   1      38.010  29.806  27.385  1.00  0.00     0.010 A 
ATOM     32  C   UNL A   1      37.441  29.172  29.637  1.00  0.00     0.010 A 
ATOM     33  C   UNL A   1      38.415  29.322  28.633  1.00  0.00    -0.014 A 
BRANCH  33  34
ATOM     34  C   UNL A   1      39.833  28.951  28.896  1.00  0.00     0.031 A 
ATOM     35  C   UNL A   1      40.778  29.973  29.473  1.00  0.00     0.074 A 
ATOM     36  C   UNL A   1      40.294  27.717  28.602  1.00  0.00     0.049 A 
ATOM     37  N   UNL A   1      42.086  29.967  29.502  1.00  0.00    -0.248 NA
ATOM     38  C   UNL A   1      40.171  31.171  30.077  1.00  0.00     0.031 C 
ATOM     39  C   UNL A   1      39.490  26.598  28.103  1.00  0.00     0.029 A 
ATOM     40  N   UNL A   1      41.563  27.197  28.682  1.00  0.00    -0.354 N 
ATOM     41  C   UNL A   1      42.459  31.193  30.041  1.00  0.00     0.074 A 
ATOM     42  C   UNL A   1      41.239  31.908  30.349  1.00  0.00     0.031 C 
ATOM     43  C   UNL A   1      40.273  25.518  27.962  1.00  0.00     0.029 A 
ATOM     44  C   UNL A   1      41.651  25.894  28.251  1.00  0.00     0.049 A 
ATOM     45  H   UNL A   1      42.336  27.707  29.017  1.00  0.00     0.167 HD
ATOM     46  C   UNL A   1      43.706  31.682  30.241  1.00  0.00     0.031 A 
ATOM     47  C   UNL A   1      42.721  25.101  28.046  1.00  0.00     0.031 A 
ATOM     48  C   UNL A   1      44.911  30.938  29.987  1.00  0.00     0.049 A 
ATOM     49  C   UNL A   1      44.096  25.665  28.262  1.00  0.00     0.074 A 
ATOM     50  C   UNL A   1      46.226  31.339  30.157  1.00  0.00     0.029 A 
ATOM     51  N   UNL A   1      44.948  29.628  29.534  1.00  0.00    -0.354 N 
ATOM     52  N   UNL A   1      44.438  26.864  28.670  1.00  0.00    -0.248 NA
ATOM     53  C   UNL A   1      45.228  24.780  27.958  1.00  0.00     0.031 C 
ATOM     54  C   UNL A   1      47.057  30.278  29.779  1.00  0.00     0.029 A 
ATOM     55  C   UNL A   1      46.261  29.205  29.415  1.00  0.00     0.049 A 
ATOM     56  H   UNL A   1      44.157  29.079  29.328  1.00  0.00     0.167 HD
ATOM     57  C   UNL A   1      45.827  26.877  28.673  1.00  0.00     0.074 A 
ATOM     58  C   UNL A   1      46.261  25.562  28.249  1.00  0.00     0.031 C 
ATOM     59  C   UNL A   1      46.668  27.892  28.988  1.00  0.00     0.031 A 
BRANCH  46  60
ATOM     60  C   UNL A   1      43.830  33.109  30.703  1.00  0.00    -0.014 A 
ATOM     61  C   UNL A   1      43.882  34.180  29.795  1.00  0.00     0.010 A 
ATOM     62  C   UNL A   1      43.862  33.381  32.085  1.00  0.00     0.010 A 
ATOM     63  C   UNL A   1      44.003  35.494  30.260  1.00  0.00     0.020 A 
ATOM     64  C   UNL A   1      43.961  34.694  32.553  1.00  0.00     0.020 A 
ATOM     65  C   UNL A   1      44.049  35.742  31.635  1.00  0.00     0.054 A 
BRANCH  65  66
ATOM     66  S   UNL A   1      44.189  37.456  32.216  1.00  0.00     0.124 S 
ATOM     67  O   UNL A   1      45.602  37.536  32.577  1.00  0.00    -0.237 OA
ATOM     68  O   UNL A   1      43.798  38.229  31.040  1.00  0.00    -0.237 OA
ATOM     69  O   UNL A   1      43.254  37.518  33.337  1.00  0.00    -0.744 OA
ENDBRANCH  65  66
ENDBRANCH  46  60
BRANCH  47  70
ATOM     70  C   UNL A   1      42.530  23.714  27.545  1.00  0.00    -0.014 A 
ATOM     71  C   UNL A   1      42.541  23.446  26.166  1.00  0.00     0.010 A 
ATOM     72  C   UNL A   1      42.373  22.646  28.449  1.00  0.00     0.010 A 
ATOM     73  C   UNL A   1      42.403  22.135  25.698  1.00  0.00     0.020 A 
ATOM     74  C   UNL A   1      42.262  21.332  27.987  1.00  0.00     0.020 A 
ATOM     75  C   UNL A   1      42.270  21.086  26.613  1.00  0.00     0.054 A 
BRANCH  75  76
ATOM     76  S   UNL A   1      42.178  19.382  25.994  1.00  0.00     0.124 S 
ATOM     77  O   UNL A   1      40.750  19.228  25.743  1.00  0.00    -0.237 OA
ATOM     78  O   UNL A   1      43.028  19.426  24.806  1.00  0.00    -0.237 OA
ATOM     79  O   UNL A   1      42.711  18.591  27.101  1.00  0.00    -0.744 OA
ENDBRANCH  75  76
ENDBRANCH  47  70
BRANCH  59  80
ATOM     80  C   UNL A   1      48.140  27.604  28.912  1.00  0.00    -0.014 A 
ATOM     81  C   UNL A   1      48.859  27.827  27.725  1.00  0.00     0.010 A 
ATOM     82  C   UNL A   1      48.816  27.139  30.053  1.00  0.00     0.010 A 
ATOM     83  C   UNL A   1      50.229  27.560  27.672  1.00  0.00     0.020 A 
ATOM     84  C   UNL A   1      50.189  26.889  30.009  1.00  0.00     0.020 A 
ATOM     85  C   UNL A   1      50.885  27.089  28.814  1.00  0.00     0.054 A 
BRANCH  85  86
ATOM     86  S   UNL A   1      52.670  26.779  28.735  1.00  0.00     0.124 S 
ATOM     87  O   UNL A   1      52.772  25.882  27.588  1.00  0.00    -0.237 OA
ATOM     88  O   UNL A   1      53.222  28.117  28.538  1.00  0.00    -0.237 OA
ATOM     89  O   UNL A   1      52.971  26.174  30.030  1.00  0.00    -0.744 OA
ENDBRANCH  85  86
ENDBRANCH  59  80
ENDBRANCH  33  34
ENDBRANCH  26  28
ENDBRANCH  25  26
ENDBRANCH  24  25
ENDBRANCH   1  24
TORSDOF 19
ENDMDL
MODEL 2
REMARK VINA RESULT:      -9.9      2.007      3.249
REMARK SMILES C[C@H](C(=O)OCCOC(=O)c1ccc(-c2c3nc(c(-c4ccc(S(=O)(=O)[O-])cc4)c4ccc([nH]4)c(-c4ccc(S(=O)(=O)[O-])cc4)c4nc(c(-c5ccc(S(=O)(=O)[O-])cc5)c5ccc2[nH]5)C=C4)C=C3)cc1)[C@@H](C)Nc1ccccc1Oc1ccccc1
REMARK SMILES IDX 6 1 5 2 3 3 4 4 2 5 1 6 71 7 72 8 73 9 74 11 75 12 79 13
REMARK SMILES IDX 76 14 78 15 77 16 80 17 81 18 82 19 86 20 83 21 85 22 84 23
REMARK SMILES IDX 7 24 8 25 9 26 10 27 11 28 12 29 70 30 13 31 69 32 14 33
REMARK SMILES IDX 15 34 16 35 63 36 17 37 68 38 62 39 64 40 18 41 67 42 61 43
REMARK SMILES IDX 60 44 19 46 49 47 30 48 48 49 31 50 34 51 47 52 65 53 32 54
REMARK SMILES IDX 33 55 46 57 66 58 35 59 20 60 21 61 29 62 22 63 28 64 23 65
REMARK SMILES IDX 24 66 25 67 26 68 27 69 50 70 51 71 59 72 52 73 58 74 53 75
REMARK SMILES IDX 54 76 55 77 56 78 57 79 36 80 37 81 45 82 38 83 44 84 39 85
REMARK SMILES IDX 40 86 41 87 42 88 43 89
REMARK H PARENT 73 10 64 45 34 56
REMARK Flexibility Score: inf
ROOT
ATOM      1  C   UNL A   1      33.232  30.136  26.478  1.00  0.00     0.274 C 
ENDROOT
BRANCH   1   2
ATOM      2  O   UNL A   1      32.557  28.944  26.922  1.00  0.00    -0.462 OA
BRANCH   2   3
ATOM      3  C   UNL A   1      31.974  28.213  25.933  1.00  0.00     0.310 C 
ATOM      4  O   UNL A   1      31.534  28.684  24.888  1.00  0.00    -0.252 OA
BRANCH   3   5
ATOM      5  C   UNL A   1      31.875  26.736  26.262  1.00  0.00     0.118 C 
ATOM      6  C   UNL A   1      30.426  26.243  26.231  1.00  0.00     0.022 C 
BRANCH   5   7
ATOM      7  C   UNL A   1      32.802  26.000  25.291  1.00  0.00     0.090 C 
ATOM      8  C   UNL A   1      33.980  26.884  24.847  1.00  0.00     0.031 C 
BRANCH   7   9
ATOM      9  N   UNL A   1      33.378  24.809  25.894  1.00  0.00    -0.379 N 
ATOM     10  H   UNL A   1      33.971  24.970  26.664  1.00  0.00     0.160 HD
BRANCH   9  11
ATOM     11  C   UNL A   1      33.212  23.482  25.541  1.00  0.00     0.078 A 
ATOM     12  C   UNL A   1      31.914  22.974  25.808  1.00  0.00     0.029 A 
ATOM     13  C   UNL A   1      34.104  22.608  24.886  1.00  0.00     0.150 A 
ATOM     14  C   UNL A   1      31.502  21.692  25.440  1.00  0.00     0.002 A 
ATOM     15  C   UNL A   1      33.682  21.306  24.534  1.00  0.00     0.049 A 
ATOM     16  C   UNL A   1      32.395  20.849  24.804  1.00  0.00     0.004 A 
BRANCH  13  17
ATOM     17  O   UNL A   1      35.354  22.866  24.366  1.00  0.00    -0.455 OA
BRANCH  17  18
ATOM     18  C   UNL A   1      36.503  22.880  25.110  1.00  0.00     0.127 A 
ATOM     19  C   UNL A   1      37.235  21.684  25.034  1.00  0.00     0.047 A 
ATOM     20  C   UNL A   1      37.000  23.950  25.847  1.00  0.00     0.047 A 
ATOM     21  C   UNL A   1      38.506  21.593  25.595  1.00  0.00     0.004 A 
ATOM     22  C   UNL A   1      38.272  23.850  26.424  1.00  0.00     0.004 A 
ATOM     23  C   UNL A   1      39.031  22.684  26.279  1.00  0.00     0.000 A 
ENDBRANCH  17  18
ENDBRANCH  13  17
ENDBRANCH   9  11
ENDBRANCH   7   9
ENDBRANCH   5   7
ENDBRANCH   3   5
ENDBRANCH   2   3
ENDBRANCH   1   2
BRANCH   1  24
ATOM     24  C   UNL A   1      34.023  30.758  27.628  1.00  0.00     0.275 C 
BRANCH  24  25
ATOM     25  O   UNL A   1      35.295  30.098  27.746  1.00  0.00    -0.458 OA
BRANCH  25  26
ATOM     26  C   UNL A   1      36.052  30.455  28.812  1.00  0.00     0.338 C 
ATOM     27  O   UNL A   1      35.699  31.147  29.751  1.00  0.00    -0.246 OA
BRANCH  26  28
ATOM     28  C   UNL A   1      37.398  29.837  28.720  1.00  0.00     0.060 A 
ATOM     29  C   UNL A   1      38.095  29.438  29.862  1.00  0.00     0.016 A 
ATOM     30  C   UNL A   1      38.025  29.755  27.477  1.00  0.00     0.016 A 
ATOM     31  C   UNL A   1      39.434  29.063  29.784  1.00  0.00     0.010 A 
ATOM     32  C   UNL A   1      39.332  29.263  27.387  1.00  0.00     0.010 A 
ATOM     33  C   UNL A   1      40.066  28.939  28.543  1.00  0.00    -0.014 A 
BRANCH  33  34
ATOM     34  C   UNL A   1      41.484  28.497  28.437  1.00  0.00     0.031 A 
ATOM     35  C   UNL A   1      42.595  29.497  28.632  1.00  0.00     0.074 A 
ATOM     36  C   UNL A   1      41.792  27.216  28.145  1.00  0.00     0.049 A 
ATOM     37  N   UNL A   1      43.857  29.407  28.298  1.00  0.00    -0.248 NA
ATOM     38  C   UNL A   1      42.232  30.776  29.264  1.00  0.00     0.031 C 
ATOM     39  C   UNL A   1      40.834  26.117  27.995  1.00  0.00     0.029 A 
ATOM     40  N   UNL A   1      43.010  26.621  27.919  1.00  0.00    -0.354 N 
ATOM     41  C   UNL A   1      44.416  30.644  28.595  1.00  0.00     0.074 A 
ATOM     42  C   UNL A   1      43.363  31.460  29.160  1.00  0.00     0.031 C 
ATOM     43  C   UNL A   1      41.501  24.980  27.745  1.00  0.00     0.029 A 
ATOM     44  C   UNL A   1      42.919  25.285  27.605  1.00  0.00     0.049 A 
ATOM     45  H   UNL A   1      43.866  27.104  27.977  1.00  0.00     0.167 HD
ATOM     46  C   UNL A   1      45.688  31.064  28.396  1.00  0.00     0.031 A 
ATOM     47  C   UNL A   1      43.855  24.410  27.188  1.00  0.00     0.031 A 
ATOM     48  C   UNL A   1      46.741  30.224  27.889  1.00  0.00     0.049 A 
ATOM     49  C   UNL A   1      45.257  24.898  26.961  1.00  0.00     0.074 A 
ATOM     50  C   UNL A   1      48.066  30.549  27.650  1.00  0.00     0.029 A 
ATOM     51  N   UNL A   1      46.595  28.883  27.569  1.00  0.00    -0.354 N 
ATOM     52  N   UNL A   1      45.749  26.099  27.144  1.00  0.00    -0.248 NA
ATOM     53  C   UNL A   1      46.220  23.918  26.440  1.00  0.00     0.031 C 
ATOM     54  C   UNL A   1      48.714  29.410  27.159  1.00  0.00     0.029 A 
ATOM     55  C   UNL A   1      47.803  28.366  27.132  1.00  0.00     0.049 A 
ATOM     56  H   UNL A   1      45.757  28.373  27.642  1.00  0.00     0.167 HD
ATOM     57  C   UNL A   1      47.082  26.021  26.761  1.00  0.00     0.074 A 
ATOM     58  C   UNL A   1      47.324  24.650  26.359  1.00  0.00     0.031 C 
ATOM     59  C   UNL A   1      48.019  26.999  26.735  1.00  0.00     0.031 A 
BRANCH  46  60
ATOM     60  C   UNL A   1      45.996  32.512  28.669  1.00  0.00    -0.014 A 
ATOM     61  C   UNL A   1      45.815  33.505  27.691  1.00  0.00     0.010 A 
ATOM     62  C   UNL A   1      46.448  32.885  29.949  1.00  0.00     0.010 A 
ATOM     63  C   UNL A   1      46.117  34.841  27.978  1.00  0.00     0.020 A 
ATOM     64  C   UNL A   1      46.729  34.222  30.247  1.00  0.00     0.020 A 
ATOM     65  C   UNL A   1      46.579  35.189  29.252  1.00  0.00     0.054 A 
BRANCH  65  66
ATOM     66  S   UNL A   1      46.948  36.930  29.607  1.00  0.00     0.124 S 
ATOM     67  O   UNL A   1      47.520  37.380  28.340  1.00  0.00    -0.237 OA
ATOM     68  O   UNL A   1      45.634  37.480  29.932  1.00  0.00    -0.237 OA
ATOM     69  O   UNL A   1      47.886  36.863  30.725  1.00  0.00    -0.744 OA
ENDBRANCH  65  66
ENDBRANCH  46  60
BRANCH  47  70
ATOM     70  C   UNL A   1      43.473  23.003  26.892  1.00  0.00    -0.014 A 
ATOM     71  C   UNL A   1      43.974  22.353  25.752  1.00  0.00     0.010 A 
ATOM     72  C   UNL A   1      42.633  22.293  27.772  1.00  0.00     0.010 A 
ATOM     73  C   UNL A   1      43.647  21.017  25.499  1.00  0.00     0.020 A 
ATOM     74  C   UNL A   1      42.327  20.951  27.537  1.00  0.00     0.020 A 
ATOM     75  C   UNL A   1      42.830  20.323  26.396  1.00  0.00     0.054 A 
BRANCH  75  76
ATOM     76  S   UNL A   1      42.485  18.566  26.099  1.00  0.00     0.124 S 
ATOM     77  O   UNL A   1      41.064  18.588  25.772  1.00  0.00    -0.237 OA
ATOM     78  O   UNL A   1      43.384  18.245  24.993  1.00  0.00    -0.237 OA
ATOM     79  O   UNL A   1      42.828  17.934  27.371  1.00  0.00    -0.744 OA
ENDBRANCH  75  76
ENDBRANCH  47  70
BRANCH  59  80
ATOM     80  C   UNL A   1      49.396  26.610  26.282  1.00  0.00    -0.014 A 
ATOM     81  C   UNL A   1      49.786  26.764  24.940  1.00  0.00     0.010 A 
ATOM     82  C   UNL A   1      50.322  26.118  27.218  1.00  0.00     0.010 A 
ATOM     83  C   UNL A   1      51.074  26.403  24.536  1.00  0.00     0.020 A 
ATOM     84  C   UNL A   1      51.616  25.774  26.822  1.00  0.00     0.020 A 
ATOM     85  C   UNL A   1      51.979  25.906  25.479  1.00  0.00     0.054 A 
BRANCH  85  86
ATOM     86  S   UNL A   1      53.657  25.473  24.942  1.00  0.00     0.124 S 
ATOM     87  O   UNL A   1      53.809  26.288  23.740  1.00  0.00    -0.237 OA
ATOM     88  O   UNL A   1      54.476  25.876  26.082  1.00  0.00    -0.237 OA
ATOM     89  O   UNL A   1      53.584  24.032  24.713  1.00  0.00    -0.744 OA
ENDBRANCH  85  86
ENDBRANCH  59  80
ENDBRANCH  33  34
ENDBRANCH  26  28
ENDBRANCH  25  26
ENDBRANCH  24  25
ENDBRANCH   1  24
TORSDOF 19
ENDMDL
MODEL 3
REMARK VINA RESULT:      -9.8      5.088      9.956
REMARK SMILES C[C@H](C(=O)OCCOC(=O)c1ccc(-c2c3nc(c(-c4ccc(S(=O)(=O)[O-])cc4)c4ccc([nH]4)c(-c4ccc(S(=O)(=O)[O-])cc4)c4nc(c(-c5ccc(S(=O)(=O)[O-])cc5)c5ccc2[nH]5)C=C4)C=C3)cc1)[C@@H](C)Nc1ccccc1Oc1ccccc1
REMARK SMILES IDX 6 1 5 2 3 3 4 4 2 5 1 6 71 7 72 8 73 9 74 11 75 12 79 13
REMARK SMILES IDX 76 14 78 15 77 16 80 17 81 18 82 19 86 20 83 21 85 22 84 23
REMARK SMILES IDX 7 24 8 25 9 26 10 27 11 28 12 29 70 30 13 31 69 32 14 33
REMARK SMILES IDX 15 34 16 35 63 36 17 37 68 38 62 39 64 40 18 41 67 42 61 43
REMARK SMILES IDX 60 44 19 46 49 47 30 48 48 49 31 50 34 51 47 52 65 53 32 54
REMARK SMILES IDX 33 55 46 57 66 58 35 59 20 60 21 61 29 62 22 63 28 64 23 65
REMARK SMILES IDX 24 66 25 67 26 68 27 69 50 70 51 71 59 72 52 73 58 74 53 75
REMARK SMILES IDX 54 76 55 77 56 78 57 79 36 80 37 81 45 82 38 83 44 84 39 85
REMARK SMILES IDX 40 86 41 87 42 88 43 89
REMARK H PARENT 73 10 64 45 34 56
REMARK Flexibility Score: inf
ROOT
ATOM      1  C   UNL A   1      31.469  31.518  26.483  1.00  0.00     0.274 C 
ENDROOT
BRANCH   1   2
ATOM      2  O   UNL A   1      32.380  30.517  26.976  1.00  0.00    -0.462 OA
BRANCH   2   3
ATOM      3  C   UNL A   1      32.048  29.236  26.660  1.00  0.00     0.310 C 
ATOM      4  O   UNL A   1      31.916  28.330  27.478  1.00  0.00    -0.252 OA
BRANCH   3   5
ATOM      5  C   UNL A   1      31.895  29.010  25.168  1.00  0.00     0.118 C 
ATOM      6  C   UNL A   1      33.250  28.975  24.457  1.00  0.00     0.022 C 
BRANCH   5   7
ATOM      7  C   UNL A   1      31.070  27.732  24.993  1.00  0.00     0.090 C 
ATOM      8  C   UNL A   1      30.244  27.761  23.696  1.00  0.00     0.031 C 
BRANCH   7   9
ATOM      9  N   UNL A   1      31.914  26.550  24.926  1.00  0.00    -0.379 N 
ATOM     10  H   UNL A   1      32.811  26.693  24.546  1.00  0.00     0.160 HD
BRANCH   9  11
ATOM     11  C   UNL A   1      31.636  25.253  25.320  1.00  0.00     0.078 A 
ATOM     12  C   UNL A   1      30.494  25.138  26.154  1.00  0.00     0.029 A 
ATOM     13  C   UNL A   1      32.263  24.048  24.945  1.00  0.00     0.150 A 
ATOM     14  C   UNL A   1      29.980  23.913  26.584  1.00  0.00     0.002 A 
ATOM     15  C   UNL A   1      31.744  22.814  25.400  1.00  0.00     0.049 A 
ATOM     16  C   UNL A   1      30.614  22.743  26.210  1.00  0.00     0.004 A 
BRANCH  13  17
ATOM     17  O   UNL A   1      33.277  23.837  24.035  1.00  0.00    -0.455 OA
BRANCH  17  18
ATOM     18  C   UNL A   1      34.580  23.605  24.384  1.00  0.00     0.127 A 
ATOM     19  C   UNL A   1      35.316  22.937  23.393  1.00  0.00     0.047 A 
ATOM     20  C   UNL A   1      35.208  24.012  25.556  1.00  0.00     0.047 A 
ATOM     21  C   UNL A   1      36.693  22.774  23.519  1.00  0.00     0.004 A 
ATOM     22  C   UNL A   1      36.591  23.832  25.689  1.00  0.00     0.004 A 
ATOM     23  C   UNL A   1      37.334  23.236  24.664  1.00  0.00     0.000 A 
ENDBRANCH  17  18
ENDBRANCH  13  17
ENDBRANCH   9  11
ENDBRANCH   7   9
ENDBRANCH   5   7
ENDBRANCH   3   5
ENDBRANCH   2   3
ENDBRANCH   1   2
BRANCH   1  24
ATOM     24  C   UNL A   1      31.961  32.916  26.861  1.00  0.00     0.275 C 
BRANCH  24  25
ATOM     25  O   UNL A   1      33.103  32.803  27.727  1.00  0.00    -0.458 OA
BRANCH  25  26
ATOM     26  C   UNL A   1      33.376  33.887  28.493  1.00  0.00     0.338 C 
ATOM     27  O   UNL A   1      32.730  34.919  28.541  1.00  0.00    -0.246 OA
BRANCH  26  28
ATOM     28  C   UNL A   1      34.572  33.637  29.335  1.00  0.00     0.060 A 
ATOM     29  C   UNL A   1      35.792  34.261  29.069  1.00  0.00     0.016 A 
ATOM     30  C   UNL A   1      34.504  32.676  30.343  1.00  0.00     0.016 A 
ATOM     31  C   UNL A   1      36.955  33.860  29.723  1.00  0.00     0.010 A 
ATOM     32  C   UNL A   1      35.650  32.361  31.083  1.00  0.00     0.010 A 
ATOM     33  C   UNL A   1      36.898  32.926  30.762  1.00  0.00    -0.014 A 
BRANCH  33  34
ATOM     34  C   UNL A   1      38.124  32.517  31.502  1.00  0.00     0.031 A 
ATOM     35  C   UNL A   1      39.026  31.457  30.926  1.00  0.00     0.074 A 
ATOM     36  C   UNL A   1      38.430  33.067  32.696  1.00  0.00     0.049 A 
ATOM     37  N   UNL A   1      39.954  30.749  31.519  1.00  0.00    -0.248 NA
ATOM     38  C   UNL A   1      38.843  31.132  29.502  1.00  0.00     0.031 C 
ATOM     39  C   UNL A   1      37.696  34.152  33.354  1.00  0.00     0.029 A 
ATOM     40  N   UNL A   1      39.447  32.783  33.575  1.00  0.00    -0.354 N 
ATOM     41  C   UNL A   1      40.400  29.838  30.568  1.00  0.00     0.074 A 
ATOM     42  C   UNL A   1      39.660  30.098  29.352  1.00  0.00     0.031 C 
ATOM     43  C   UNL A   1      38.308  34.468  34.504  1.00  0.00     0.029 A 
ATOM     44  C   UNL A   1      39.408  33.537  34.724  1.00  0.00     0.049 A 
ATOM     45  H   UNL A   1      40.138  32.104  33.399  1.00  0.00     0.167 HD
ATOM     46  C   UNL A   1      41.329  28.862  30.706  1.00  0.00     0.031 A 
ATOM     47  C   UNL A   1      40.130  33.456  35.859  1.00  0.00     0.031 A 
ATOM     48  C   UNL A   1      42.101  28.652  31.902  1.00  0.00     0.049 A 
ATOM     49  C   UNL A   1      41.146  32.360  35.998  1.00  0.00     0.074 A 
ATOM     50  C   UNL A   1      43.070  27.693  32.147  1.00  0.00     0.029 A 
ATOM     51  N   UNL A   1      42.013  29.432  33.045  1.00  0.00    -0.354 N 
ATOM     52  N   UNL A   1      41.484  31.437  35.130  1.00  0.00    -0.248 NA
ATOM     53  C   UNL A   1      41.855  32.276  37.281  1.00  0.00     0.031 C 
ATOM     54  C   UNL A   1      43.547  27.877  33.450  1.00  0.00     0.029 A 
ATOM     55  C   UNL A   1      42.906  28.976  34.000  1.00  0.00     0.049 A 
ATOM     56  H   UNL A   1      41.406  30.197  33.161  1.00  0.00     0.167 HD
ATOM     57  C   UNL A   1      42.446  30.661  35.762  1.00  0.00     0.074 A 
ATOM     58  C   UNL A   1      42.654  31.236  37.075  1.00  0.00     0.031 C 
ATOM     59  C   UNL A   1      43.093  29.563  35.301  1.00  0.00     0.031 A 
BRANCH  46  60
ATOM     60  C   UNL A   1      41.517  27.910  29.556  1.00  0.00    -0.014 A 
ATOM     61  C   UNL A   1      42.606  28.018  28.674  1.00  0.00     0.010 A 
ATOM     62  C   UNL A   1      40.593  26.862  29.378  1.00  0.00     0.010 A 
ATOM     63  C   UNL A   1      42.746  27.118  27.612  1.00  0.00     0.020 A 
ATOM     64  C   UNL A   1      40.742  25.947  28.331  1.00  0.00     0.020 A 
ATOM     65  C   UNL A   1      41.809  26.093  27.444  1.00  0.00     0.054 A 
BRANCH  65  66
ATOM     66  S   UNL A   1      42.021  24.927  26.069  1.00  0.00     0.124 S 
ATOM     67  O   UNL A   1      43.384  24.449  26.287  1.00  0.00    -0.237 OA
ATOM     68  O   UNL A   1      40.966  23.946  26.312  1.00  0.00    -0.237 OA
ATOM     69  O   UNL A   1      41.834  25.757  24.881  1.00  0.00    -0.744 OA
ENDBRANCH  65  66
ENDBRANCH  46  60
BRANCH  47  70
ATOM     70  C   UNL A   1      39.861  34.402  36.976  1.00  0.00    -0.014 A 
ATOM     71  C   UNL A   1      39.000  34.039  38.025  1.00  0.00     0.010 A 
ATOM     72  C   UNL A   1      40.496  35.658  37.014  1.00  0.00     0.010 A 
ATOM     73  C   UNL A   1      38.782  34.912  39.095  1.00  0.00     0.020 A 
ATOM     74  C   UNL A   1      40.302  36.521  38.094  1.00  0.00     0.020 A 
ATOM     75  C   UNL A   1      39.439  36.146  39.125  1.00  0.00     0.054 A 
BRANCH  75  76
ATOM     76  S   UNL A   1      39.213  37.232  40.562  1.00  0.00     0.124 S 
ATOM     77  O   UNL A   1      38.646  36.317  41.546  1.00  0.00    -0.237 OA
ATOM     78  O   UNL A   1      40.574  37.692  40.834  1.00  0.00    -0.237 OA
ATOM     79  O   UNL A   1      38.305  38.264  40.066  1.00  0.00    -0.744 OA
ENDBRANCH  75  76
ENDBRANCH  47  70
BRANCH  59  80
ATOM     80  C   UNL A   1      44.104  28.935  36.216  1.00  0.00    -0.014 A 
ATOM     81  C   UNL A   1      45.408  29.450  36.314  1.00  0.00     0.010 A 
ATOM     82  C   UNL A   1      43.732  27.838  37.012  1.00  0.00     0.010 A 
ATOM     83  C   UNL A   1      46.335  28.858  37.175  1.00  0.00     0.020 A 
ATOM     84  C   UNL A   1      44.651  27.255  37.888  1.00  0.00     0.020 A 
ATOM     85  C   UNL A   1      45.951  27.761  37.954  1.00  0.00     0.054 A 
BRANCH  85  86
ATOM     86  S   UNL A   1      47.159  27.027  39.090  1.00  0.00     0.124 S 
ATOM     87  O   UNL A   1      46.815  25.609  39.023  1.00  0.00    -0.237 OA
ATOM     88  O   UNL A   1      48.438  27.392  38.485  1.00  0.00    -0.237 OA
ATOM     89  O   UNL A   1      46.872  27.679  40.365  1.00  0.00    -0.744 OA
ENDBRANCH  85  86
ENDBRANCH  59  80
ENDBRANCH  33  34
ENDBRANCH  26  28
ENDBRANCH  25  26
ENDBRANCH  24  25
ENDBRANCH   1  24
TORSDOF 19
ENDMDL
