MODEL 1
REMARK VINA RESULT:     -11.6      0.000      0.000
REMARK SMILES NS(=O)(=O)c1ccc(-n2nc(C(F)(F)F)cc2-c2ccc(CC(=O)OCCOC(=O)c3ccc(-c4c5nc(c(-c6ccc(S(=O)(=O)[O-])cc6)c6ccc([nH]6)c(-c6ccc(S(=O)(=O)[O-])cc6)c6nc(c(-c7ccc(S(=O)(=O)[O-])cc7)c7ccc4[nH]7)C=C6)C=C5)cc3)cc2)cc1
REMARK SMILES IDX 26 1 25 2 23 3 24 4 22 5 21 6 18 7 19 8 92 9 20 10 91 11
REMARK SMILES IDX 17 12 9 13 10 14 11 15 16 16 8 17 5 18 6 19 94 20 7 21 93 22
REMARK SMILES IDX 2 23 3 24 4 25 1 26 12 29 13 30 14 31 15 32 27 33 28 34
REMARK SMILES IDX 29 35 30 36 31 37 32 38 90 39 33 40 89 41 34 42 35 43 36 44
REMARK SMILES IDX 83 45 37 46 88 47 82 48 84 49 38 50 87 51 81 52 80 53 39 55
REMARK SMILES IDX 69 56 50 57 68 58 51 59 54 60 67 61 85 62 52 63 53 64 66 66
REMARK SMILES IDX 86 67 55 68 40 69 41 70 49 71 42 72 48 73 43 74 44 75 45 76
REMARK SMILES IDX 46 77 47 78 70 79 71 80 79 81 72 82 78 83 73 84 74 85 75 86
REMARK SMILES IDX 76 87 77 88 56 89 57 90 65 91 58 92 64 93 59 94 60 95 61 96
REMARK SMILES IDX 62 97 63 98
REMARK H PARENT 1 27 1 28 84 54 54 65
REMARK Flexibility Score: inf
ROOT
ATOM      1  C   UNL A   1      41.080  21.884  27.305  1.00  0.00     0.274 C 
ENDROOT
BRANCH   1   2
ATOM      2  O   UNL A   1      39.806  21.205  27.221  1.00  0.00    -0.462 OA
BRANCH   2   3
ATOM      3  C   UNL A   1      39.051  21.497  26.126  1.00  0.00     0.310 C 
ATOM      4  O   UNL A   1      38.641  20.650  25.334  1.00  0.00    -0.252 OA
BRANCH   3   5
ATOM      5  C   UNL A   1      38.831  22.974  25.876  1.00  0.00     0.158 C 
BRANCH   5   6
ATOM      6  C   UNL A   1      37.443  23.466  25.537  1.00  0.00    -0.037 A 
ATOM      7  C   UNL A   1      34.854  24.359  24.850  1.00  0.00     0.000 A 
ATOM      8  C   UNL A   1      35.685  23.810  23.877  1.00  0.00     0.010 A 
ATOM      9  C   UNL A   1      35.339  24.514  26.153  1.00  0.00     0.010 A 
ATOM     10  C   UNL A   1      36.973  23.403  24.220  1.00  0.00     0.005 A 
ATOM     11  C   UNL A   1      36.615  24.047  26.499  1.00  0.00     0.005 A 
BRANCH   7  12
ATOM     12  C   UNL A   1      33.495  24.755  24.501  1.00  0.00     0.075 A 
ATOM     13  N   UNL A   1      32.522  23.910  23.977  1.00  0.00    -0.233 N 
ATOM     14  N   UNL A   1      31.431  24.603  23.552  1.00  0.00    -0.163 NA
ATOM     15  C   UNL A   1      31.658  25.880  23.915  1.00  0.00     0.167 A 
ATOM     16  C   UNL A   1      32.950  26.021  24.476  1.00  0.00     0.064 A 
BRANCH  13  17
ATOM     17  C   UNL A   1      32.524  22.490  23.927  1.00  0.00     0.065 A 
ATOM     18  C   UNL A   1      32.571  19.703  23.817  1.00  0.00     0.082 A 
ATOM     19  C   UNL A   1      32.898  20.350  25.010  1.00  0.00     0.024 A 
ATOM     20  C   UNL A   1      32.210  20.436  22.682  1.00  0.00     0.024 A 
ATOM     21  C   UNL A   1      32.886  21.744  25.060  1.00  0.00     0.030 A 
ATOM     22  C   UNL A   1      32.155  21.833  22.745  1.00  0.00     0.030 A 
BRANCH  18  23
ATOM     23  S   UNL A   1      32.631  17.940  23.734  1.00  0.00     0.238 S 
ATOM     24  O   UNL A   1      31.750  17.374  24.717  1.00  0.00    -0.207 OA
ATOM     25  O   UNL A   1      34.018  17.538  23.591  1.00  0.00    -0.207 OA
BRANCH  23  26
ATOM     26  N   UNL A   1      31.911  17.580  22.251  1.00  0.00    -0.225 NA
ATOM     27  H   UNL A   1      31.484  18.423  21.867  1.00  0.00     0.137 HD
ATOM     28  H   UNL A   1      31.194  16.867  22.385  1.00  0.00     0.137 HD
ENDBRANCH  23  26
ENDBRANCH  18  23
ENDBRANCH  13  17
BRANCH  15  29
ATOM     29  C   UNL A   1      30.646  26.982  23.749  1.00  0.00     0.435 C 
ATOM     30  F   UNL A   1      30.302  27.222  22.461  1.00  0.00    -0.164 F 
ATOM     31  F   UNL A   1      29.497  26.720  24.432  1.00  0.00    -0.164 F 
ATOM     32  F   UNL A   1      31.110  28.162  24.252  1.00  0.00    -0.164 F 
ENDBRANCH  15  29
ENDBRANCH   7  12
ENDBRANCH   5   6
ENDBRANCH   3   5
ENDBRANCH   2   3
ENDBRANCH   1   2
BRANCH   1  33
ATOM     33  C   UNL A   1      42.226  21.115  26.652  1.00  0.00     0.275 C 
BRANCH  33  34
ATOM     34  O   UNL A   1      42.500  21.577  25.330  1.00  0.00    -0.458 OA
BRANCH  34  35
ATOM     35  C   UNL A   1      43.811  21.837  25.136  1.00  0.00     0.338 C 
ATOM     36  O   UNL A   1      44.689  21.017  24.927  1.00  0.00    -0.246 OA
BRANCH  35  37
ATOM     37  C   UNL A   1      44.131  23.224  25.455  1.00  0.00     0.060 A 
ATOM     38  C   UNL A   1      45.073  23.451  26.465  1.00  0.00     0.016 A 
ATOM     39  C   UNL A   1      43.178  24.178  25.097  1.00  0.00     0.016 A 
ATOM     40  C   UNL A   1      44.904  24.534  27.293  1.00  0.00     0.010 A 
ATOM     41  C   UNL A   1      43.011  25.260  25.921  1.00  0.00     0.010 A 
ATOM     42  C   UNL A   1      43.813  25.368  27.059  1.00  0.00    -0.014 A 
BRANCH  42  43
ATOM     43  C   UNL A   1      43.593  26.481  27.953  1.00  0.00     0.031 A 
ATOM     44  C   UNL A   1      44.648  27.510  27.805  1.00  0.00     0.074 A 
ATOM     45  C   UNL A   1      42.455  26.594  28.663  1.00  0.00     0.049 A 
ATOM     46  N   UNL A   1      45.551  27.841  28.664  1.00  0.00    -0.248 NA
ATOM     47  C   UNL A   1      44.875  28.066  26.455  1.00  0.00     0.031 C 
ATOM     48  C   UNL A   1      41.274  25.727  28.628  1.00  0.00     0.029 A 
ATOM     49  N   UNL A   1      42.048  27.606  29.467  1.00  0.00    -0.354 N 
ATOM     50  C   UNL A   1      46.292  28.837  28.043  1.00  0.00     0.074 A 
ATOM     51  C   UNL A   1      46.014  28.732  26.636  1.00  0.00     0.031 C 
ATOM     52  C   UNL A   1      40.215  26.404  29.129  1.00  0.00     0.029 A 
ATOM     53  C   UNL A   1      40.669  27.700  29.610  1.00  0.00     0.049 A 
ATOM     54  H   UNL A   1      42.675  28.221  29.913  1.00  0.00     0.167 HD
ATOM     55  C   UNL A   1      46.804  29.881  28.749  1.00  0.00     0.031 A 
ATOM     56  C   UNL A   1      39.965  28.808  29.977  1.00  0.00     0.031 A 
ATOM     57  C   UNL A   1      46.799  29.614  30.164  1.00  0.00     0.049 A 
ATOM     58  C   UNL A   1      40.938  29.738  30.620  1.00  0.00     0.074 A 
ATOM     59  C   UNL A   1      47.340  28.620  30.957  1.00  0.00     0.029 A 
ATOM     60  N   UNL A   1      45.794  30.194  30.906  1.00  0.00    -0.354 N 
ATOM     61  N   UNL A   1      41.545  29.462  31.745  1.00  0.00    -0.248 NA
ATOM     62  C   UNL A   1      41.632  30.692  29.763  1.00  0.00     0.031 C 
ATOM     63  C   UNL A   1      46.327  28.329  31.914  1.00  0.00     0.029 A 
ATOM     64  C   UNL A   1      45.272  29.224  31.723  1.00  0.00     0.049 A 
ATOM     65  H   UNL A   1      45.504  31.133  30.859  1.00  0.00     0.167 HD
ATOM     66  C   UNL A   1      42.866  29.838  31.540  1.00  0.00     0.074 A 
ATOM     67  C   UNL A   1      42.845  30.657  30.326  1.00  0.00     0.031 C 
ATOM     68  C   UNL A   1      43.897  29.203  32.176  1.00  0.00     0.031 A 
BRANCH  55  69
ATOM     69  C   UNL A   1      46.870  31.283  28.197  1.00  0.00    -0.014 A 
ATOM     70  C   UNL A   1      45.681  32.029  28.110  1.00  0.00     0.010 A 
ATOM     71  C   UNL A   1      47.997  31.790  27.512  1.00  0.00     0.010 A 
ATOM     72  C   UNL A   1      45.610  33.187  27.326  1.00  0.00     0.020 A 
ATOM     73  C   UNL A   1      47.950  32.965  26.766  1.00  0.00     0.020 A 
ATOM     74  C   UNL A   1      46.745  33.641  26.652  1.00  0.00     0.054 A 
BRANCH  74  75
ATOM     75  S   UNL A   1      46.620  35.085  25.575  1.00  0.00     0.124 S 
ATOM     76  O   UNL A   1      48.010  35.284  25.177  1.00  0.00    -0.237 OA
ATOM     77  O   UNL A   1      45.720  34.609  24.529  1.00  0.00    -0.237 OA
ATOM     78  O   UNL A   1      46.063  36.116  26.448  1.00  0.00    -0.744 OA
ENDBRANCH  74  75
ENDBRANCH  55  69
BRANCH  56  79
ATOM     79  C   UNL A   1      38.647  29.250  29.428  1.00  0.00    -0.014 A 
ATOM     80  C   UNL A   1      37.498  29.367  30.237  1.00  0.00     0.010 A 
ATOM     81  C   UNL A   1      38.571  29.804  28.133  1.00  0.00     0.010 A 
ATOM     82  C   UNL A   1      36.351  30.058  29.786  1.00  0.00     0.020 A 
ATOM     83  C   UNL A   1      37.436  30.481  27.672  1.00  0.00     0.020 A 
ATOM     84  C   UNL A   1      36.337  30.629  28.510  1.00  0.00     0.054 A 
BRANCH  84  85
ATOM     85  S   UNL A   1      34.941  31.673  27.987  1.00  0.00     0.124 S 
ATOM     86  O   UNL A   1      34.235  31.909  29.243  1.00  0.00    -0.237 OA
ATOM     87  O   UNL A   1      35.610  32.834  27.408  1.00  0.00    -0.237 OA
ATOM     88  O   UNL A   1      34.227  30.834  27.024  1.00  0.00    -0.744 OA
ENDBRANCH  84  85
ENDBRANCH  56  79
BRANCH  68  89
ATOM     89  C   UNL A   1      43.588  28.233  33.296  1.00  0.00    -0.014 A 
ATOM     90  C   UNL A   1      43.151  28.617  34.581  1.00  0.00     0.010 A 
ATOM     91  C   UNL A   1      43.559  26.868  32.964  1.00  0.00     0.010 A 
ATOM     92  C   UNL A   1      42.725  27.653  35.511  1.00  0.00     0.020 A 
ATOM     93  C   UNL A   1      43.119  25.908  33.875  1.00  0.00     0.020 A 
ATOM     94  C   UNL A   1      42.714  26.302  35.149  1.00  0.00     0.054 A 
BRANCH  94  95
ATOM     95  S   UNL A   1      42.136  25.056  36.335  1.00  0.00     0.124 S 
ATOM     96  O   UNL A   1      40.796  25.534  36.667  1.00  0.00    -0.237 OA
ATOM     97  O   UNL A   1      42.190  23.819  35.559  1.00  0.00    -0.237 OA
ATOM     98  O   UNL A   1      43.106  25.136  37.426  1.00  0.00    -0.744 OA
ENDBRANCH  94  95
ENDBRANCH  68  89
ENDBRANCH  42  43
ENDBRANCH  35  37
ENDBRANCH  34  35
ENDBRANCH  33  34
ENDBRANCH   1  33
TORSDOF 20
ENDMDL
MODEL 2
REMARK VINA RESULT:     -11.3      3.023      9.478
REMARK SMILES NS(=O)(=O)c1ccc(-n2nc(C(F)(F)F)cc2-c2ccc(CC(=O)OCCOC(=O)c3ccc(-c4c5nc(c(-c6ccc(S(=O)(=O)[O-])cc6)c6ccc([nH]6)c(-c6ccc(S(=O)(=O)[O-])cc6)c6nc(c(-c7ccc(S(=O)(=O)[O-])cc7)c7ccc4[nH]7)C=C6)C=C5)cc3)cc2)cc1
REMARK SMILES IDX 26 1 25 2 23 3 24 4 22 5 21 6 18 7 19 8 92 9 20 10 91 11
REMARK SMILES IDX 17 12 9 13 10 14 11 15 16 16 8 17 5 18 6 19 94 20 7 21 93 22
REMARK SMILES IDX 2 23 3 24 4 25 1 26 12 29 13 30 14 31 15 32 27 33 28 34
REMARK SMILES IDX 29 35 30 36 31 37 32 38 90 39 33 40 89 41 34 42 35 43 36 44
REMARK SMILES IDX 83 45 37 46 88 47 82 48 84 49 38 50 87 51 81 52 80 53 39 55
REMARK SMILES IDX 69 56 50 57 68 58 51 59 54 60 67 61 85 62 52 63 53 64 66 66
REMARK SMILES IDX 86 67 55 68 40 69 41 70 49 71 42 72 48 73 43 74 44 75 45 76
REMARK SMILES IDX 46 77 47 78 70 79 71 80 79 81 72 82 78 83 73 84 74 85 75 86
REMARK SMILES IDX 76 87 77 88 56 89 57 90 65 91 58 92 64 93 59 94 60 95 61 96
REMARK SMILES IDX 62 97 63 98
REMARK H PARENT 1 27 1 28 84 54 54 65
REMARK Flexibility Score: inf
ROOT
ATOM      1  C   UNL A   1      35.966  33.363  28.656  1.00  0.00     0.274 C 
ENDROOT
BRANCH   1   2
ATOM      2  O   UNL A   1      35.566  32.376  27.677  1.00  0.00    -0.462 OA
BRANCH   2   3
ATOM      3  C   UNL A   1      35.230  31.154  28.175  1.00  0.00     0.310 C 
ATOM      4  O   UNL A   1      36.043  30.369  28.663  1.00  0.00    -0.252 OA
BRANCH   3   5
ATOM      5  C   UNL A   1      33.778  30.765  27.993  1.00  0.00     0.158 C 
BRANCH   5   6
ATOM      6  C   UNL A   1      33.440  29.530  27.190  1.00  0.00    -0.037 A 
ATOM      7  C   UNL A   1      32.755  27.222  25.716  1.00  0.00     0.000 A 
ATOM      8  C   UNL A   1      31.958  27.633  26.781  1.00  0.00     0.010 A 
ATOM      9  C   UNL A   1      33.924  27.932  25.425  1.00  0.00     0.010 A 
ATOM     10  C   UNL A   1      32.323  28.755  27.523  1.00  0.00     0.005 A 
ATOM     11  C   UNL A   1      34.250  29.093  26.140  1.00  0.00     0.005 A 
BRANCH   7  12
ATOM     12  C   UNL A   1      32.357  26.068  24.918  1.00  0.00     0.075 A 
ATOM     13  N   UNL A   1      31.289  26.037  24.028  1.00  0.00    -0.233 N 
ATOM     14  N   UNL A   1      31.031  24.773  23.596  1.00  0.00    -0.163 NA
ATOM     15  C   UNL A   1      32.012  24.013  24.118  1.00  0.00     0.167 A 
ATOM     16  C   UNL A   1      32.837  24.777  24.978  1.00  0.00     0.064 A 
BRANCH  13  17
ATOM     17  C   UNL A   1      30.551  27.132  23.500  1.00  0.00     0.065 A 
ATOM     18  C   UNL A   1      29.108  29.300  22.502  1.00  0.00     0.082 A 
ATOM     19  C   UNL A   1      30.497  29.278  22.369  1.00  0.00     0.024 A 
ATOM     20  C   UNL A   1      28.432  28.242  23.120  1.00  0.00     0.024 A 
ATOM     21  C   UNL A   1      31.219  28.199  22.879  1.00  0.00     0.030 A 
ATOM     22  C   UNL A   1      29.153  27.139  23.593  1.00  0.00     0.030 A 
BRANCH  18  23
ATOM     23  S   UNL A   1      28.194  30.687  21.901  1.00  0.00     0.238 S 
ATOM     24  O   UNL A   1      27.189  31.061  22.856  1.00  0.00    -0.207 OA
ATOM     25  O   UNL A   1      27.906  30.467  20.496  1.00  0.00    -0.207 OA
BRANCH  23  26
ATOM     26  N   UNL A   1      29.310  31.951  21.932  1.00  0.00    -0.225 NA
ATOM     27  H   UNL A   1      30.185  31.643  21.508  1.00  0.00     0.137 HD
ATOM     28  H   UNL A   1      29.481  32.231  22.898  1.00  0.00     0.137 HD
ENDBRANCH  23  26
ENDBRANCH  18  23
ENDBRANCH  13  17
BRANCH  15  29
ATOM     29  C   UNL A   1      32.191  22.553  23.796  1.00  0.00     0.435 C 
ATOM     30  F   UNL A   1      31.397  22.111  22.791  1.00  0.00    -0.164 F 
ATOM     31  F   UNL A   1      33.477  22.265  23.451  1.00  0.00    -0.164 F 
ATOM     32  F   UNL A   1      31.917  21.768  24.878  1.00  0.00    -0.164 F 
ENDBRANCH  15  29
ENDBRANCH   7  12
ENDBRANCH   5   6
ENDBRANCH   3   5
ENDBRANCH   2   3
ENDBRANCH   1   2
BRANCH   1  33
ATOM     33  C   UNL A   1      34.871  33.698  29.667  1.00  0.00     0.275 C 
BRANCH  33  34
ATOM     34  O   UNL A   1      35.382  33.814  30.994  1.00  0.00    -0.458 OA
BRANCH  34  35
ATOM     35  C   UNL A   1      35.111  32.727  31.748  1.00  0.00     0.338 C 
ATOM     36  O   UNL A   1      34.020  32.403  32.185  1.00  0.00    -0.246 OA
BRANCH  35  37
ATOM     37  C   UNL A   1      36.335  32.083  32.212  1.00  0.00     0.060 A 
ATOM     38  C   UNL A   1      37.468  32.890  32.365  1.00  0.00     0.016 A 
ATOM     39  C   UNL A   1      36.422  30.705  32.016  1.00  0.00     0.016 A 
ATOM     40  C   UNL A   1      38.700  32.359  32.070  1.00  0.00     0.010 A 
ATOM     41  C   UNL A   1      37.652  30.175  31.724  1.00  0.00     0.010 A 
ATOM     42  C   UNL A   1      38.754  31.029  31.660  1.00  0.00    -0.014 A 
BRANCH  42  43
ATOM     43  C   UNL A   1      40.036  30.473  31.296  1.00  0.00     0.031 A 
ATOM     44  C   UNL A   1      40.902  30.286  32.483  1.00  0.00     0.074 A 
ATOM     45  C   UNL A   1      40.277  30.026  30.049  1.00  0.00     0.049 A 
ATOM     46  N   UNL A   1      41.989  30.918  32.771  1.00  0.00    -0.248 NA
ATOM     47  C   UNL A   1      40.369  29.475  33.597  1.00  0.00     0.031 C 
ATOM     48  C   UNL A   1      39.348  29.950  28.918  1.00  0.00     0.029 A 
ATOM     49  N   UNL A   1      41.376  29.397  29.565  1.00  0.00    -0.354 N 
ATOM     50  C   UNL A   1      42.406  30.383  33.984  1.00  0.00     0.074 A 
ATOM     51  C   UNL A   1      41.260  29.728  34.553  1.00  0.00     0.031 C 
ATOM     52  C   UNL A   1      39.825  29.062  28.015  1.00  0.00     0.029 A 
ATOM     53  C   UNL A   1      41.130  28.596  28.456  1.00  0.00     0.049 A 
ATOM     54  H   UNL A   1      42.270  29.500  29.963  1.00  0.00     0.167 HD
ATOM     55  C   UNL A   1      43.726  30.219  34.267  1.00  0.00     0.031 A 
ATOM     56  C   UNL A   1      41.894  27.552  28.026  1.00  0.00     0.031 A 
ATOM     57  C   UNL A   1      44.557  30.979  33.369  1.00  0.00     0.049 A 
ATOM     58  C   UNL A   1      43.232  27.709  28.665  1.00  0.00     0.074 A 
ATOM     59  C   UNL A   1      44.641  32.318  33.038  1.00  0.00     0.029 A 
ATOM     60  N   UNL A   1      45.158  30.290  32.339  1.00  0.00    -0.354 N 
ATOM     61  N   UNL A   1      44.031  28.709  28.399  1.00  0.00    -0.248 NA
ATOM     62  C   UNL A   1      43.440  27.082  29.965  1.00  0.00     0.031 C 
ATOM     63  C   UNL A   1      44.835  32.331  31.627  1.00  0.00     0.029 A 
ATOM     64  C   UNL A   1      44.961  31.010  31.190  1.00  0.00     0.049 A 
ATOM     65  H   UNL A   1      45.641  29.435  32.415  1.00  0.00     0.167 HD
ATOM     66  C   UNL A   1      44.516  29.118  29.635  1.00  0.00     0.074 A 
ATOM     67  C   UNL A   1      44.174  28.031  30.556  1.00  0.00     0.031 C 
ATOM     68  C   UNL A   1      44.863  30.419  29.872  1.00  0.00     0.031 A 
BRANCH  55  69
ATOM     69  C   UNL A   1      44.253  29.037  35.040  1.00  0.00    -0.014 A 
ATOM     70  C   UNL A   1      44.825  27.968  34.328  1.00  0.00     0.010 A 
ATOM     71  C   UNL A   1      43.962  28.816  36.405  1.00  0.00     0.010 A 
ATOM     72  C   UNL A   1      45.033  26.724  34.936  1.00  0.00     0.020 A 
ATOM     73  C   UNL A   1      44.208  27.597  37.032  1.00  0.00     0.020 A 
ATOM     74  C   UNL A   1      44.714  26.546  36.283  1.00  0.00     0.054 A 
BRANCH  74  75
ATOM     75  S   UNL A   1      44.906  24.914  37.034  1.00  0.00     0.124 S 
ATOM     76  O   UNL A   1      46.220  25.024  37.658  1.00  0.00    -0.237 OA
ATOM     77  O   UNL A   1      43.769  24.863  37.948  1.00  0.00    -0.237 OA
ATOM     78  O   UNL A   1      44.826  24.003  35.895  1.00  0.00    -0.744 OA
ENDBRANCH  74  75
ENDBRANCH  55  69
BRANCH  56  79
ATOM     79  C   UNL A   1      41.399  26.258  27.463  1.00  0.00    -0.014 A 
ATOM     80  C   UNL A   1      42.153  25.502  26.543  1.00  0.00     0.010 A 
ATOM     81  C   UNL A   1      40.270  25.628  28.028  1.00  0.00     0.010 A 
ATOM     82  C   UNL A   1      41.821  24.160  26.249  1.00  0.00     0.020 A 
ATOM     83  C   UNL A   1      39.926  24.303  27.737  1.00  0.00     0.020 A 
ATOM     84  C   UNL A   1      40.718  23.563  26.866  1.00  0.00     0.054 A 
BRANCH  84  85
ATOM     85  S   UNL A   1      40.387  21.788  26.637  1.00  0.00     0.124 S 
ATOM     86  O   UNL A   1      39.052  21.790  26.047  1.00  0.00    -0.237 OA
ATOM     87  O   UNL A   1      41.471  21.374  25.751  1.00  0.00    -0.237 OA
ATOM     88  O   UNL A   1      40.464  21.246  27.994  1.00  0.00    -0.744 OA
ENDBRANCH  84  85
ENDBRANCH  56  79
BRANCH  68  89
ATOM     89  C   UNL A   1      44.945  31.384  28.709  1.00  0.00    -0.014 A 
ATOM     90  C   UNL A   1      43.824  31.918  28.039  1.00  0.00     0.010 A 
ATOM     91  C   UNL A   1      46.212  31.915  28.413  1.00  0.00     0.010 A 
ATOM     92  C   UNL A   1      43.979  32.935  27.081  1.00  0.00     0.020 A 
ATOM     93  C   UNL A   1      46.371  32.938  27.477  1.00  0.00     0.020 A 
ATOM     94  C   UNL A   1      45.256  33.436  26.807  1.00  0.00     0.054 A 
BRANCH  94  95
ATOM     95  S   UNL A   1      45.457  34.771  25.593  1.00  0.00     0.124 S 
ATOM     96  O   UNL A   1      44.389  34.492  24.637  1.00  0.00    -0.237 OA
ATOM     97  O   UNL A   1      45.282  35.975  26.403  1.00  0.00    -0.237 OA
ATOM     98  O   UNL A   1      46.812  34.573  25.079  1.00  0.00    -0.744 OA
ENDBRANCH  94  95
ENDBRANCH  68  89
ENDBRANCH  42  43
ENDBRANCH  35  37
ENDBRANCH  34  35
ENDBRANCH  33  34
ENDBRANCH   1  33
TORSDOF 20
ENDMDL
MODEL 3
REMARK VINA RESULT:     -11.0      2.915      3.684
REMARK SMILES NS(=O)(=O)c1ccc(-n2nc(C(F)(F)F)cc2-c2ccc(CC(=O)OCCOC(=O)c3ccc(-c4c5nc(c(-c6ccc(S(=O)(=O)[O-])cc6)c6ccc([nH]6)c(-c6ccc(S(=O)(=O)[O-])cc6)c6nc(c(-c7ccc(S(=O)(=O)[O-])cc7)c7ccc4[nH]7)C=C6)C=C5)cc3)cc2)cc1
REMARK SMILES IDX 26 1 25 2 23 3 24 4 22 5 21 6 18 7 19 8 92 9 20 10 91 11
REMARK SMILES IDX 17 12 9 13 10 14 11 15 16 16 8 17 5 18 6 19 94 20 7 21 93 22
REMARK SMILES IDX 2 23 3 24 4 25 1 26 12 29 13 30 14 31 15 32 27 33 28 34
REMARK SMILES IDX 29 35 30 36 31 37 32 38 90 39 33 40 89 41 34 42 35 43 36 44
REMARK SMILES IDX 83 45 37 46 88 47 82 48 84 49 38 50 87 51 81 52 80 53 39 55
REMARK SMILES IDX 69 56 50 57 68 58 51 59 54 60 67 61 85 62 52 63 53 64 66 66
REMARK SMILES IDX 86 67 55 68 40 69 41 70 49 71 42 72 48 73 43 74 44 75 45 76
REMARK SMILES IDX 46 77 47 78 70 79 71 80 79 81 72 82 78 83 73 84 74 85 75 86
REMARK SMILES IDX 76 87 77 88 56 89 57 90 65 91 58 92 64 93 59 94 60 95 61 96
REMARK SMILES IDX 62 97 63 98
REMARK H PARENT 1 27 1 28 84 54 54 65
REMARK Flexibility Score: inf
ROOT
ATOM      1  C   UNL A   1      41.215  22.417  27.153  1.00  0.00     0.274 C 
ENDROOT
BRANCH   1   2
ATOM      2  O   UNL A   1      40.659  23.596  26.528  1.00  0.00    -0.462 OA
BRANCH   2   3
ATOM      3  C   UNL A   1      39.505  24.068  27.076  1.00  0.00     0.310 C 
ATOM      4  O   UNL A   1      39.308  24.145  28.288  1.00  0.00    -0.252 OA
BRANCH   3   5
ATOM      5  C   UNL A   1      38.413  24.401  26.082  1.00  0.00     0.158 C 
BRANCH   5   6
ATOM      6  C   UNL A   1      37.335  23.381  25.801  1.00  0.00    -0.037 A 
ATOM      7  C   UNL A   1      35.346  21.461  25.225  1.00  0.00     0.000 A 
ATOM      8  C   UNL A   1      36.239  21.860  24.235  1.00  0.00     0.010 A 
ATOM      9  C   UNL A   1      35.411  22.064  26.486  1.00  0.00     0.010 A 
ATOM     10  C   UNL A   1      37.196  22.833  24.521  1.00  0.00     0.005 A 
ATOM     11  C   UNL A   1      36.414  22.998  26.779  1.00  0.00     0.005 A 
BRANCH   7  12
ATOM     12  C   UNL A   1      34.365  20.421  24.939  1.00  0.00     0.075 A 
ATOM     13  N   UNL A   1      32.987  20.557  25.074  1.00  0.00    -0.233 N 
ATOM     14  N   UNL A   1      32.349  19.363  24.944  1.00  0.00    -0.163 NA
ATOM     15  C   UNL A   1      33.310  18.482  24.606  1.00  0.00     0.167 A 
ATOM     16  C   UNL A   1      34.585  19.096  24.628  1.00  0.00     0.064 A 
BRANCH  13  17
ATOM     17  C   UNL A   1      32.233  21.751  25.237  1.00  0.00     0.065 A 
ATOM     18  C   UNL A   1      30.790  24.116  25.559  1.00  0.00     0.082 A 
ATOM     19  C   UNL A   1      31.073  23.652  24.273  1.00  0.00     0.024 A 
ATOM     20  C   UNL A   1      31.212  23.403  26.686  1.00  0.00     0.024 A 
ATOM     21  C   UNL A   1      31.805  22.476  24.114  1.00  0.00     0.030 A 
ATOM     22  C   UNL A   1      31.909  22.200  26.525  1.00  0.00     0.030 A 
BRANCH  18  23
ATOM     23  S   UNL A   1      29.905  25.631  25.766  1.00  0.00     0.238 S 
ATOM     24  O   UNL A   1      29.336  26.040  24.513  1.00  0.00    -0.207 OA
ATOM     25  O   UNL A   1      30.702  26.513  26.598  1.00  0.00    -0.207 OA
BRANCH  23  26
ATOM     26  N   UNL A   1      28.582  25.198  26.719  1.00  0.00    -0.225 NA
ATOM     27  H   UNL A   1      27.853  24.799  26.128  1.00  0.00     0.137 HD
ATOM     28  H   UNL A   1      28.219  26.025  27.194  1.00  0.00     0.137 HD
ENDBRANCH  23  26
ENDBRANCH  18  23
ENDBRANCH  13  17
BRANCH  15  29
ATOM     29  C   UNL A   1      33.030  17.049  24.240  1.00  0.00     0.435 C 
ATOM     30  F   UNL A   1      34.071  16.211  24.465  1.00  0.00    -0.164 F 
ATOM     31  F   UNL A   1      31.959  16.553  24.920  1.00  0.00    -0.164 F 
ATOM     32  F   UNL A   1      32.714  16.926  22.918  1.00  0.00    -0.164 F 
ENDBRANCH  15  29
ENDBRANCH   7  12
ENDBRANCH   5   6
ENDBRANCH   3   5
ENDBRANCH   2   3
ENDBRANCH   1   2
BRANCH   1  33
ATOM     33  C   UNL A   1      42.080  21.578  26.214  1.00  0.00     0.275 C 
BRANCH  33  34
ATOM     34  O   UNL A   1      43.411  22.083  26.115  1.00  0.00    -0.458 OA
BRANCH  34  35
ATOM     35  C   UNL A   1      43.565  22.929  25.075  1.00  0.00     0.338 C 
ATOM     36  O   UNL A   1      43.567  22.630  23.892  1.00  0.00    -0.246 OA
BRANCH  35  37
ATOM     37  C   UNL A   1      43.990  24.251  25.522  1.00  0.00     0.060 A 
ATOM     38  C   UNL A   1      44.804  24.314  26.659  1.00  0.00     0.016 A 
ATOM     39  C   UNL A   1      43.207  25.327  25.105  1.00  0.00     0.016 A 
ATOM     40  C   UNL A   1      44.645  25.367  27.526  1.00  0.00     0.010 A 
ATOM     41  C   UNL A   1      43.050  26.379  25.970  1.00  0.00     0.010 A 
ATOM     42  C   UNL A   1      43.696  26.335  27.207  1.00  0.00    -0.014 A 
BRANCH  42  43
ATOM     43  C   UNL A   1      43.480  27.420  28.135  1.00  0.00     0.031 A 
ATOM     44  C   UNL A   1      44.621  28.363  28.140  1.00  0.00     0.074 A 
ATOM     45  C   UNL A   1      42.292  27.595  28.744  1.00  0.00     0.049 A 
ATOM     46  N   UNL A   1      45.462  28.577  29.094  1.00  0.00    -0.248 NA
ATOM     47  C   UNL A   1      45.019  28.960  26.848  1.00  0.00     0.031 C 
ATOM     48  C   UNL A   1      41.055  26.832  28.555  1.00  0.00     0.029 A 
ATOM     49  N   UNL A   1      41.891  28.600  29.560  1.00  0.00    -0.354 N 
ATOM     50  C   UNL A   1      46.336  29.536  28.597  1.00  0.00     0.074 A 
ATOM     51  C   UNL A   1      46.185  29.519  27.168  1.00  0.00     0.031 C 
ATOM     52  C   UNL A   1      40.009  27.572  28.992  1.00  0.00     0.029 A 
ATOM     53  C   UNL A   1      40.516  28.802  29.581  1.00  0.00     0.049 A 
ATOM     54  H   UNL A   1      42.519  29.139  30.093  1.00  0.00     0.167 HD
ATOM     55  C   UNL A   1      46.858  30.500  29.402  1.00  0.00     0.031 A 
ATOM     56  C   UNL A   1      39.871  29.947  29.942  1.00  0.00     0.031 A 
ATOM     57  C   UNL A   1      46.698  30.170  30.794  1.00  0.00     0.049 A 
ATOM     58  C   UNL A   1      40.848  30.762  30.719  1.00  0.00     0.074 A 
ATOM     59  C   UNL A   1      47.081  29.099  31.579  1.00  0.00     0.029 A 
ATOM     60  N   UNL A   1      45.675  30.797  31.471  1.00  0.00    -0.354 N 
ATOM     61  N   UNL A   1      41.321  30.385  31.878  1.00  0.00    -0.248 NA
ATOM     62  C   UNL A   1      41.694  31.693  29.981  1.00  0.00     0.031 C 
ATOM     63  C   UNL A   1      45.961  28.850  32.423  1.00  0.00     0.029 A 
ATOM     64  C   UNL A   1      45.003  29.838  32.184  1.00  0.00     0.049 A 
ATOM     65  H   UNL A   1      45.466  31.759  31.448  1.00  0.00     0.167 HD
ATOM     66  C   UNL A   1      42.682  30.658  31.815  1.00  0.00     0.074 A 
ATOM     67  C   UNL A   1      42.841  31.531  30.650  1.00  0.00     0.031 C 
ATOM     68  C   UNL A   1      43.594  29.911  32.508  1.00  0.00     0.031 A 
BRANCH  55  69
ATOM     69  C   UNL A   1      47.088  31.915  28.934  1.00  0.00    -0.014 A 
ATOM     70  C   UNL A   1      45.970  32.739  28.708  1.00  0.00     0.010 A 
ATOM     71  C   UNL A   1      48.332  32.375  28.448  1.00  0.00     0.010 A 
ATOM     72  C   UNL A   1      46.085  33.928  27.978  1.00  0.00     0.020 A 
ATOM     73  C   UNL A   1      48.465  33.579  27.761  1.00  0.00     0.020 A 
ATOM     74  C   UNL A   1      47.332  34.334  27.503  1.00  0.00     0.054 A 
BRANCH  74  75
ATOM     75  S   UNL A   1      47.454  35.825  26.490  1.00  0.00     0.124 S 
ATOM     76  O   UNL A   1      48.080  36.765  27.413  1.00  0.00    -0.237 OA
ATOM     77  O   UNL A   1      48.287  35.372  25.379  1.00  0.00    -0.237 OA
ATOM     78  O   UNL A   1      46.066  36.117  26.142  1.00  0.00    -0.744 OA
ENDBRANCH  74  75
ENDBRANCH  55  69
BRANCH  56  79
ATOM     79  C   UNL A   1      38.649  30.522  29.299  1.00  0.00    -0.014 A 
ATOM     80  C   UNL A   1      37.564  29.718  28.894  1.00  0.00     0.010 A 
ATOM     81  C   UNL A   1      38.437  31.917  29.306  1.00  0.00     0.010 A 
ATOM     82  C   UNL A   1      36.312  30.285  28.568  1.00  0.00     0.020 A 
ATOM     83  C   UNL A   1      37.204  32.490  28.975  1.00  0.00     0.020 A 
ATOM     84  C   UNL A   1      36.136  31.670  28.631  1.00  0.00     0.054 A 
BRANCH  84  85
ATOM     85  S   UNL A   1      34.485  32.398  28.391  1.00  0.00     0.124 S 
ATOM     86  O   UNL A   1      34.031  32.610  29.762  1.00  0.00    -0.237 OA
ATOM     87  O   UNL A   1      34.776  33.606  27.626  1.00  0.00    -0.237 OA
ATOM     88  O   UNL A   1      33.758  31.365  27.652  1.00  0.00    -0.744 OA
ENDBRANCH  84  85
ENDBRANCH  56  79
BRANCH  68  89
ATOM     89  C   UNL A   1      43.103  28.920  33.542  1.00  0.00    -0.014 A 
ATOM     90  C   UNL A   1      42.908  27.545  33.295  1.00  0.00     0.010 A 
ATOM     91  C   UNL A   1      43.021  29.377  34.868  1.00  0.00     0.010 A 
ATOM     92  C   UNL A   1      42.612  26.663  34.349  1.00  0.00     0.020 A 
ATOM     93  C   UNL A   1      42.747  28.503  35.921  1.00  0.00     0.020 A 
ATOM     94  C   UNL A   1      42.533  27.152  35.657  1.00  0.00     0.054 A 
BRANCH  94  95
ATOM     95  S   UNL A   1      42.182  26.012  37.025  1.00  0.00     0.124 S 
ATOM     96  O   UNL A   1      43.091  26.480  38.068  1.00  0.00    -0.237 OA
ATOM     97  O   UNL A   1      40.761  26.237  37.278  1.00  0.00    -0.237 OA
ATOM     98  O   UNL A   1      42.503  24.696  36.473  1.00  0.00    -0.744 OA
ENDBRANCH  94  95
ENDBRANCH  68  89
ENDBRANCH  42  43
ENDBRANCH  35  37
ENDBRANCH  34  35
ENDBRANCH  33  34
ENDBRANCH   1  33
TORSDOF 20
ENDMDL
