MODEL 1
REMARK VINA RESULT:     -11.9      0.000      0.000
REMARK SMILES Cc1cc(S(F)(F)(F)(F)F)cc2c1O[C@H](C(F)(F)F)C(C(=O)OCCOC(=O)c1ccc(-c3c4nc(c(-c5ccc(S(=O)(=O)[O-])cc5)c5ccc([nH]5)c(-c5ccc(S(=O)(=O)[O-])cc5)c5nc(c(-c6ccc(S(=O)(=O)[O-])cc6)c6ccc3[nH]6)C=C5)C=C4)cc1)=C2
REMARK SMILES IDX 25 1 24 2 23 3 21 4 22 5 20 6 1 7 2 8 3 9 13 10 4 11 12 12
REMARK SMILES IDX 14 13 11 14 89 15 15 16 5 17 6 18 7 19 8 20 9 21 10 22 16 23
REMARK SMILES IDX 17 24 18 25 19 26 26 27 27 28 28 29 29 30 30 31 88 32 31 33
REMARK SMILES IDX 87 34 32 35 33 36 34 37 81 38 35 39 86 40 80 41 82 42 36 43
REMARK SMILES IDX 85 44 79 45 78 46 37 48 67 49 48 50 66 51 49 52 52 53 65 54
REMARK SMILES IDX 83 55 50 56 51 57 64 59 84 60 53 61 38 62 39 63 47 64 40 65
REMARK SMILES IDX 46 66 41 67 42 68 43 69 44 70 45 71 68 72 69 73 77 74 70 75
REMARK SMILES IDX 76 76 71 77 72 78 73 79 74 80 75 81 54 82 55 83 63 84 56 85
REMARK SMILES IDX 62 86 57 87 58 88 59 89 60 90 61 91
REMARK H PARENT 82 47 52 58
REMARK Flexibility Score: inf
ROOT
ATOM      1  C   UNL A   1      37.280  21.674  24.664  1.00  0.00     0.275 C 
ENDROOT
BRANCH   1   2
ATOM      2  C   UNL A   1      36.079  20.945  25.244  1.00  0.00     0.275 C 
BRANCH   2   3
ATOM      3  O   UNL A   1      34.911  21.311  24.524  1.00  0.00    -0.459 OA
BRANCH   3   4
ATOM      4  C   UNL A   1      33.970  22.203  25.104  1.00  0.00     0.338 C 
ATOM      5  O   UNL A   1      33.159  21.785  25.988  1.00  0.00    -0.246 OA
BRANCH   4   6
ATOM      6  C   UNL A   1      33.933  23.659  24.666  1.00  0.00     0.087 C 
ATOM      7  C   UNL A   1      33.883  28.030  21.947  1.00  0.00     0.048 C 
ATOM      8  C   UNL A   1      33.839  27.652  23.418  1.00  0.00    -0.007 A 
ATOM      9  C   UNL A   1      33.690  28.636  24.371  1.00  0.00     0.031 A 
ATOM     10  C   UNL A   1      33.871  26.316  23.815  1.00  0.00     0.130 A 
ATOM     11  C   UNL A   1      33.579  28.311  25.716  1.00  0.00     0.108 A 
ATOM     12  C   UNL A   1      33.753  25.989  25.185  1.00  0.00     0.019 A 
ATOM     13  O   UNL A   1      34.028  25.220  22.849  1.00  0.00    -0.475 OA
ATOM     14  C   UNL A   1      33.603  27.008  26.127  1.00  0.00     0.036 A 
ATOM     15  C   UNL A   1      33.792  24.579  25.573  1.00  0.00     0.027 C 
ATOM     16  C   UNL A   1      34.052  23.951  23.307  1.00  0.00     0.316 C 
BRANCH  11  17
ATOM     17  S   UNL A   1      33.401  29.631  26.942  1.00  0.00     0.310 S 
ATOM     18  F   UNL A   1      32.712  28.672  28.002  1.00  0.00    -0.094 F 
ATOM     19  F   UNL A   1      31.958  29.943  26.390  1.00  0.00    -0.094 F 
ATOM     20  F   UNL A   1      33.278  30.774  27.988  1.00  0.00    -0.094 F 
ATOM     21  F   UNL A   1      34.787  29.212  27.573  1.00  0.00    -0.094 F 
ATOM     22  F   UNL A   1      33.491  28.395  25.960  1.00  0.00    -0.094 F 
ENDBRANCH  11  17
BRANCH  16  23
ATOM     23  C   UNL A   1      32.764  23.378  22.739  1.00  0.00     0.430 C 
ATOM     24  F   UNL A   1      32.431  24.044  21.637  1.00  0.00    -0.167 F 
ATOM     25  F   UNL A   1      32.943  22.093  22.443  1.00  0.00    -0.167 F 
ATOM     26  F   UNL A   1      31.792  23.495  23.638  1.00  0.00    -0.167 F 
ENDBRANCH  16  23
ENDBRANCH   4   6
ENDBRANCH   3   4
ENDBRANCH   2   3
ENDBRANCH   1   2
BRANCH   1  27
ATOM     27  O   UNL A   1      37.615  22.774  25.498  1.00  0.00    -0.458 OA
BRANCH  27  28
ATOM     28  C   UNL A   1      38.866  22.800  26.169  1.00  0.00     0.338 C 
ATOM     29  O   UNL A   1      39.571  21.746  26.239  1.00  0.00    -0.246 OA
BRANCH  28  30
ATOM     30  C   UNL A   1      39.362  24.091  26.801  1.00  0.00     0.060 A 
ATOM     31  C   UNL A   1      40.304  24.902  26.179  1.00  0.00     0.016 A 
ATOM     32  C   UNL A   1      38.902  24.455  27.979  1.00  0.00     0.016 A 
ATOM     33  C   UNL A   1      40.326  26.259  26.573  1.00  0.00     0.010 A 
ATOM     34  C   UNL A   1      39.357  25.627  28.593  1.00  0.00     0.010 A 
ATOM     35  C   UNL A   1      40.052  26.517  27.915  1.00  0.00    -0.014 A 
BRANCH  35  36
ATOM     36  C   UNL A   1      40.543  27.792  28.580  1.00  0.00     0.031 A 
ATOM     37  C   UNL A   1      39.649  28.855  28.724  1.00  0.00     0.074 A 
ATOM     38  C   UNL A   1      41.875  27.846  28.953  1.00  0.00     0.049 A 
ATOM     39  N   UNL A   1      39.890  30.055  29.254  1.00  0.00    -0.248 NA
ATOM     40  C   UNL A   1      38.242  28.812  28.297  1.00  0.00     0.031 C 
ATOM     41  C   UNL A   1      42.781  26.776  28.819  1.00  0.00     0.029 A 
ATOM     42  N   UNL A   1      42.556  28.908  29.505  1.00  0.00    -0.354 N 
ATOM     43  C   UNL A   1      38.782  30.798  29.235  1.00  0.00     0.074 A 
ATOM     44  C   UNL A   1      37.708  30.012  28.614  1.00  0.00     0.031 C 
ATOM     45  C   UNL A   1      43.993  27.190  29.272  1.00  0.00     0.029 A 
ATOM     46  C   UNL A   1      43.866  28.526  29.698  1.00  0.00     0.049 A 
ATOM     47  H   UNL A   1      42.174  29.789  29.723  1.00  0.00     0.167 HD
ATOM     48  C   UNL A   1      38.624  32.100  29.713  1.00  0.00     0.031 A 
ATOM     49  C   UNL A   1      44.904  29.285  30.214  1.00  0.00     0.031 A 
ATOM     50  C   UNL A   1      39.652  32.844  30.268  1.00  0.00     0.049 A 
ATOM     51  C   UNL A   1      44.760  30.608  30.638  1.00  0.00     0.074 A 
ATOM     52  C   UNL A   1      39.509  34.156  30.762  1.00  0.00     0.029 A 
ATOM     53  N   UNL A   1      40.968  32.471  30.440  1.00  0.00    -0.354 N 
ATOM     54  N   UNL A   1      43.644  31.337  30.655  1.00  0.00    -0.248 NA
ATOM     55  C   UNL A   1      45.860  31.432  31.156  1.00  0.00     0.031 C 
ATOM     56  C   UNL A   1      40.723  34.570  31.217  1.00  0.00     0.029 A 
ATOM     57  C   UNL A   1      41.644  33.526  31.012  1.00  0.00     0.049 A 
ATOM     58  H   UNL A   1      41.357  31.600  30.195  1.00  0.00     0.167 HD
ATOM     59  C   UNL A   1      43.895  32.552  31.148  1.00  0.00     0.074 A 
ATOM     60  C   UNL A   1      45.327  32.633  31.471  1.00  0.00     0.031 C 
ATOM     61  C   UNL A   1      42.987  33.594  31.346  1.00  0.00     0.031 A 
BRANCH  48  62
ATOM     62  C   UNL A   1      37.247  32.737  29.620  1.00  0.00    -0.014 A 
ATOM     63  C   UNL A   1      36.356  32.729  30.687  1.00  0.00     0.010 A 
ATOM     64  C   UNL A   1      36.899  33.369  28.520  1.00  0.00     0.010 A 
ATOM     65  C   UNL A   1      35.408  33.775  30.725  1.00  0.00     0.020 A 
ATOM     66  C   UNL A   1      35.658  34.008  28.423  1.00  0.00     0.020 A 
ATOM     67  C   UNL A   1      34.922  34.214  29.495  1.00  0.00     0.054 A 
BRANCH  67  68
ATOM     68  S   UNL A   1      33.319  35.045  29.373  1.00  0.00     0.124 S 
ATOM     69  O   UNL A   1      33.531  36.506  28.966  1.00  0.00    -0.237 OA
ATOM     70  O   UNL A   1      32.458  34.343  28.321  1.00  0.00    -0.237 OA
ATOM     71  O   UNL A   1      32.528  34.985  30.889  1.00  0.00    -0.744 OA
ENDBRANCH  67  68
ENDBRANCH  48  62
BRANCH  49  72
ATOM     72  C   UNL A   1      46.277  28.642  30.322  1.00  0.00    -0.014 A 
ATOM     73  C   UNL A   1      47.187  28.678  29.272  1.00  0.00     0.010 A 
ATOM     74  C   UNL A   1      46.604  27.980  31.411  1.00  0.00     0.010 A 
ATOM     75  C   UNL A   1      48.543  28.462  29.605  1.00  0.00     0.020 A 
ATOM     76  C   UNL A   1      47.835  27.321  31.505  1.00  0.00     0.020 A 
ATOM     77  C   UNL A   1      48.790  27.549  30.629  1.00  0.00     0.054 A 
BRANCH  77  78
ATOM     78  S   UNL A   1      50.384  26.702  30.751  1.00  0.00     0.124 S 
ATOM     79  O   UNL A   1      50.871  26.737  32.202  1.00  0.00    -0.237 OA
ATOM     80  O   UNL A   1      50.225  25.247  30.302  1.00  0.00    -0.237 OA
ATOM     81  O   UNL A   1      51.525  27.486  29.748  1.00  0.00    -0.744 OA
ENDBRANCH  77  78
ENDBRANCH  49  72
BRANCH  61  82
ATOM     82  C   UNL A   1      43.505  34.883  31.964  1.00  0.00    -0.014 A 
ATOM     83  C   UNL A   1      44.091  35.904  31.224  1.00  0.00     0.010 A 
ATOM     84  C   UNL A   1      43.426  35.023  33.270  1.00  0.00     0.010 A 
ATOM     85  C   UNL A   1      44.098  37.187  31.814  1.00  0.00     0.020 A 
ATOM     86  C   UNL A   1      43.931  36.166  33.899  1.00  0.00     0.020 A 
ATOM     87  C   UNL A   1      44.261  37.230  33.198  1.00  0.00     0.054 A 
BRANCH  87  88
ATOM     88  S   UNL A   1      44.909  38.712  34.009  1.00  0.00     0.124 S 
ATOM     89  O   UNL A   1      43.775  39.422  34.755  1.00  0.00    -0.237 OA
ATOM     90  O   UNL A   1      46.002  38.314  35.002  1.00  0.00    -0.237 OA
ATOM     91  O   UNL A   1      45.564  39.766  32.832  1.00  0.00    -0.744 OA
ENDBRANCH  87  88
ENDBRANCH  61  82
ENDBRANCH  35  36
ENDBRANCH  28  30
ENDBRANCH  27  28
ENDBRANCH   1  27
TORSDOF 16
ENDMDL
MODEL 2
REMARK VINA RESULT:     -11.8      3.103      9.231
REMARK SMILES Cc1cc(S(F)(F)(F)(F)F)cc2c1O[C@H](C(F)(F)F)C(C(=O)OCCOC(=O)c1ccc(-c3c4nc(c(-c5ccc(S(=O)(=O)[O-])cc5)c5ccc([nH]5)c(-c5ccc(S(=O)(=O)[O-])cc5)c5nc(c(-c6ccc(S(=O)(=O)[O-])cc6)c6ccc3[nH]6)C=C5)C=C4)cc1)=C2
REMARK SMILES IDX 25 1 24 2 23 3 21 4 22 5 20 6 1 7 2 8 3 9 13 10 4 11 12 12
REMARK SMILES IDX 14 13 11 14 89 15 15 16 5 17 6 18 7 19 8 20 9 21 10 22 16 23
REMARK SMILES IDX 17 24 18 25 19 26 26 27 27 28 28 29 29 30 30 31 88 32 31 33
REMARK SMILES IDX 87 34 32 35 33 36 34 37 81 38 35 39 86 40 80 41 82 42 36 43
REMARK SMILES IDX 85 44 79 45 78 46 37 48 67 49 48 50 66 51 49 52 52 53 65 54
REMARK SMILES IDX 83 55 50 56 51 57 64 59 84 60 53 61 38 62 39 63 47 64 40 65
REMARK SMILES IDX 46 66 41 67 42 68 43 69 44 70 45 71 68 72 69 73 77 74 70 75
REMARK SMILES IDX 76 76 71 77 72 78 73 79 74 80 75 81 54 82 55 83 63 84 56 85
REMARK SMILES IDX 62 86 57 87 58 88 59 89 60 90 61 91
REMARK H PARENT 82 47 52 58
REMARK Flexibility Score: inf
ROOT
ATOM      1  C   UNL A   1      32.982  29.998  26.020  1.00  0.00     0.275 C 
ENDROOT
BRANCH   1   2
ATOM      2  C   UNL A   1      31.663  29.262  25.852  1.00  0.00     0.275 C 
BRANCH   2   3
ATOM      3  O   UNL A   1      31.911  27.953  25.358  1.00  0.00    -0.459 OA
BRANCH   3   4
ATOM      4  C   UNL A   1      31.497  26.820  26.109  1.00  0.00     0.338 C 
ATOM      5  O   UNL A   1      30.702  26.964  27.090  1.00  0.00    -0.246 OA
BRANCH   4   6
ATOM      6  C   UNL A   1      32.006  25.437  25.739  1.00  0.00     0.087 C 
ATOM      7  C   UNL A   1      32.420  20.543  24.194  1.00  0.00     0.048 C 
ATOM      8  C   UNL A   1      33.365  21.613  24.716  1.00  0.00    -0.007 A 
ATOM      9  C   UNL A   1      34.716  21.352  24.790  1.00  0.00     0.031 A 
ATOM     10  C   UNL A   1      32.894  22.881  25.052  1.00  0.00     0.130 A 
ATOM     11  C   UNL A   1      35.607  22.335  25.200  1.00  0.00     0.108 A 
ATOM     12  C   UNL A   1      33.804  23.880  25.465  1.00  0.00     0.019 A 
ATOM     13  O   UNL A   1      31.466  23.223  24.995  1.00  0.00    -0.475 OA
ATOM     14  C   UNL A   1      35.168  23.586  25.529  1.00  0.00     0.036 A 
ATOM     15  C   UNL A   1      33.282  25.202  25.813  1.00  0.00     0.027 C 
ATOM     16  C   UNL A   1      31.083  24.471  25.336  1.00  0.00     0.316 C 
BRANCH  11  17
ATOM     17  S   UNL A   1      37.373  21.954  25.301  1.00  0.00     0.310 S 
ATOM     18  F   UNL A   1      37.508  21.752  23.734  1.00  0.00    -0.094 F 
ATOM     19  F   UNL A   1      37.032  20.418  25.399  1.00  0.00    -0.094 F 
ATOM     20  F   UNL A   1      38.894  21.651  25.409  1.00  0.00    -0.094 F 
ATOM     21  F   UNL A   1      37.702  23.480  25.061  1.00  0.00    -0.094 F 
ATOM     22  F   UNL A   1      35.839  22.264  25.077  1.00  0.00    -0.094 F 
ENDBRANCH  11  17
BRANCH  16  23
ATOM     23  C   UNL A   1      30.588  25.030  24.013  1.00  0.00     0.430 C 
ATOM     24  F   UNL A   1      30.097  24.041  23.270  1.00  0.00    -0.167 F 
ATOM     25  F   UNL A   1      29.633  25.928  24.241  1.00  0.00    -0.167 F 
ATOM     26  F   UNL A   1      31.597  25.608  23.370  1.00  0.00    -0.167 F 
ENDBRANCH  16  23
ENDBRANCH   4   6
ENDBRANCH   3   4
ENDBRANCH   2   3
ENDBRANCH   1   2
BRANCH   1  27
ATOM     27  O   UNL A   1      33.562  29.654  27.270  1.00  0.00    -0.458 OA
BRANCH  27  28
ATOM     28  C   UNL A   1      34.428  30.569  27.926  1.00  0.00     0.338 C 
ATOM     29  O   UNL A   1      34.008  31.726  28.242  1.00  0.00    -0.246 OA
BRANCH  28  30
ATOM     30  C   UNL A   1      35.856  30.162  28.253  1.00  0.00     0.060 A 
ATOM     31  C   UNL A   1      36.266  29.887  29.552  1.00  0.00     0.016 A 
ATOM     32  C   UNL A   1      36.743  30.076  27.285  1.00  0.00     0.016 A 
ATOM     33  C   UNL A   1      37.409  29.068  29.693  1.00  0.00     0.010 A 
ATOM     34  C   UNL A   1      38.069  29.723  27.559  1.00  0.00     0.010 A 
ATOM     35  C   UNL A   1      38.405  29.228  28.732  1.00  0.00    -0.014 A 
BRANCH  35  36
ATOM     36  C   UNL A   1      39.845  28.842  29.030  1.00  0.00     0.031 A 
ATOM     37  C   UNL A   1      40.278  27.563  28.676  1.00  0.00     0.074 A 
ATOM     38  C   UNL A   1      40.631  29.769  29.694  1.00  0.00     0.049 A 
ATOM     39  N   UNL A   1      41.485  27.030  28.871  1.00  0.00    -0.248 NA
ATOM     40  C   UNL A   1      39.434  26.565  28.001  1.00  0.00     0.031 C 
ATOM     41  C   UNL A   1      40.204  31.064  30.047  1.00  0.00     0.029 A 
ATOM     42  N   UNL A   1      41.929  29.621  30.126  1.00  0.00    -0.354 N 
ATOM     43  C   UNL A   1      41.526  25.790  28.379  1.00  0.00     0.074 A 
ATOM     44  C   UNL A   1      40.206  25.471  27.818  1.00  0.00     0.031 C 
ATOM     45  C   UNL A   1      41.226  31.683  30.694  1.00  0.00     0.029 A 
ATOM     46  C   UNL A   1      42.310  30.786  30.754  1.00  0.00     0.049 A 
ATOM     47  H   UNL A   1      42.490  28.819  30.008  1.00  0.00     0.167 HD
ATOM     48  C   UNL A   1      42.612  24.913  28.375  1.00  0.00     0.031 A 
ATOM     49  C   UNL A   1      43.527  31.070  31.354  1.00  0.00     0.031 A 
ATOM     50  C   UNL A   1      43.843  25.212  28.935  1.00  0.00     0.049 A 
ATOM     51  C   UNL A   1      44.595  30.171  31.401  1.00  0.00     0.074 A 
ATOM     52  C   UNL A   1      44.951  24.343  28.933  1.00  0.00     0.029 A 
ATOM     53  N   UNL A   1      44.216  26.369  29.584  1.00  0.00    -0.354 N 
ATOM     54  N   UNL A   1      44.649  28.947  30.874  1.00  0.00    -0.248 NA
ATOM     55  C   UNL A   1      45.877  30.448  32.061  1.00  0.00     0.031 C 
ATOM     56  C   UNL A   1      45.975  24.964  29.579  1.00  0.00     0.029 A 
ATOM     57  C   UNL A   1      45.523  26.229  29.998  1.00  0.00     0.049 A 
ATOM     58  H   UNL A   1      43.646  27.159  29.729  1.00  0.00     0.167 HD
ATOM     59  C   UNL A   1      45.843  28.398  31.106  1.00  0.00     0.074 A 
ATOM     60  C   UNL A   1      46.649  29.353  31.880  1.00  0.00     0.031 C 
ATOM     61  C   UNL A   1      46.295  27.140  30.700  1.00  0.00     0.031 A 
BRANCH  48  62
ATOM     62  C   UNL A   1      42.435  23.555  27.716  1.00  0.00    -0.014 A 
ATOM     63  C   UNL A   1      42.861  23.302  26.417  1.00  0.00     0.010 A 
ATOM     64  C   UNL A   1      41.917  22.562  28.408  1.00  0.00     0.010 A 
ATOM     65  C   UNL A   1      43.181  21.962  26.107  1.00  0.00     0.020 A 
ATOM     66  C   UNL A   1      41.788  21.288  27.846  1.00  0.00     0.020 A 
ATOM     67  C   UNL A   1      42.403  20.983  26.722  1.00  0.00     0.054 A 
BRANCH  67  68
ATOM     68  S   UNL A   1      42.243  19.333  25.996  1.00  0.00     0.124 S 
ATOM     69  O   UNL A   1      42.752  18.285  26.990  1.00  0.00    -0.237 OA
ATOM     70  O   UNL A   1      40.772  19.058  25.674  1.00  0.00    -0.237 OA
ATOM     71  O   UNL A   1      43.166  19.250  24.559  1.00  0.00    -0.744 OA
ENDBRANCH  67  68
ENDBRANCH  48  62
BRANCH  49  72
ATOM     72  C   UNL A   1      43.709  32.434  31.996  1.00  0.00    -0.014 A 
ATOM     73  C   UNL A   1      43.375  32.668  33.326  1.00  0.00     0.010 A 
ATOM     74  C   UNL A   1      44.137  33.446  31.273  1.00  0.00     0.010 A 
ATOM     75  C   UNL A   1      43.973  33.791  33.939  1.00  0.00     0.020 A 
ATOM     76  C   UNL A   1      44.246  34.726  31.826  1.00  0.00     0.020 A 
ATOM     77  C   UNL A   1      44.168  34.907  33.127  1.00  0.00     0.054 A 
BRANCH  77  78
ATOM     78  S   UNL A   1      44.312  36.562  33.845  1.00  0.00     0.124 S 
ATOM     79  O   UNL A   1      45.054  36.477  35.181  1.00  0.00    -0.237 OA
ATOM     80  O   UNL A   1      45.090  37.469  32.887  1.00  0.00    -0.237 OA
ATOM     81  O   UNL A   1      42.751  37.210  34.101  1.00  0.00    -0.744 OA
ENDBRANCH  77  78
ENDBRANCH  49  72
BRANCH  61  82
ATOM     82  C   UNL A   1      47.721  26.747  31.052  1.00  0.00    -0.014 A 
ATOM     83  C   UNL A   1      48.811  27.016  30.232  1.00  0.00     0.010 A 
ATOM     84  C   UNL A   1      47.927  26.086  32.171  1.00  0.00     0.010 A 
ATOM     85  C   UNL A   1      50.080  27.028  30.854  1.00  0.00     0.020 A 
ATOM     86  C   UNL A   1      49.211  25.656  32.522  1.00  0.00     0.020 A 
ATOM     87  C   UNL A   1      50.271  26.111  31.886  1.00  0.00     0.054 A 
BRANCH  87  88
ATOM     88  S   UNL A   1      51.933  25.560  32.342  1.00  0.00     0.124 S 
ATOM     89  O   UNL A   1      51.898  24.070  32.695  1.00  0.00    -0.237 OA
ATOM     90  O   UNL A   1      52.886  25.784  31.167  1.00  0.00    -0.237 OA
ATOM     91  O   UNL A   1      52.478  26.453  33.696  1.00  0.00    -0.744 OA
ENDBRANCH  87  88
ENDBRANCH  61  82
ENDBRANCH  35  36
ENDBRANCH  28  30
ENDBRANCH  27  28
ENDBRANCH   1  27
TORSDOF 16
ENDMDL
MODEL 3
REMARK VINA RESULT:     -11.8      0.796      8.090
REMARK SMILES Cc1cc(S(F)(F)(F)(F)F)cc2c1O[C@H](C(F)(F)F)C(C(=O)OCCOC(=O)c1ccc(-c3c4nc(c(-c5ccc(S(=O)(=O)[O-])cc5)c5ccc([nH]5)c(-c5ccc(S(=O)(=O)[O-])cc5)c5nc(c(-c6ccc(S(=O)(=O)[O-])cc6)c6ccc3[nH]6)C=C5)C=C4)cc1)=C2
REMARK SMILES IDX 25 1 24 2 23 3 21 4 22 5 20 6 1 7 2 8 3 9 13 10 4 11 12 12
REMARK SMILES IDX 14 13 11 14 89 15 15 16 5 17 6 18 7 19 8 20 9 21 10 22 16 23
REMARK SMILES IDX 17 24 18 25 19 26 26 27 27 28 28 29 29 30 30 31 88 32 31 33
REMARK SMILES IDX 87 34 32 35 33 36 34 37 81 38 35 39 86 40 80 41 82 42 36 43
REMARK SMILES IDX 85 44 79 45 78 46 37 48 67 49 48 50 66 51 49 52 52 53 65 54
REMARK SMILES IDX 83 55 50 56 51 57 64 59 84 60 53 61 38 62 39 63 47 64 40 65
REMARK SMILES IDX 46 66 41 67 42 68 43 69 44 70 45 71 68 72 69 73 77 74 70 75
REMARK SMILES IDX 76 76 71 77 72 78 73 79 74 80 75 81 54 82 55 83 63 84 56 85
REMARK SMILES IDX 62 86 57 87 58 88 59 89 60 90 61 91
REMARK H PARENT 82 47 52 58
REMARK Flexibility Score: inf
ROOT
ATOM      1  C   UNL A   1      37.112  21.968  24.523  1.00  0.00     0.275 C 
ENDROOT
BRANCH   1   2
ATOM      2  C   UNL A   1      36.043  21.190  25.272  1.00  0.00     0.275 C 
BRANCH   2   3
ATOM      3  O   UNL A   1      34.800  21.325  24.599  1.00  0.00    -0.459 OA
BRANCH   3   4
ATOM      4  C   UNL A   1      33.819  22.226  25.094  1.00  0.00     0.338 C 
ATOM      5  O   UNL A   1      32.932  21.815  25.905  1.00  0.00    -0.246 OA
BRANCH   4   6
ATOM      6  C   UNL A   1      33.831  23.680  24.653  1.00  0.00     0.087 C 
ATOM      7  C   UNL A   1      33.961  28.045  21.926  1.00  0.00     0.048 C 
ATOM      8  C   UNL A   1      33.874  27.672  23.396  1.00  0.00    -0.007 A 
ATOM      9  C   UNL A   1      33.730  28.662  24.344  1.00  0.00     0.031 A 
ATOM     10  C   UNL A   1      33.861  26.336  23.796  1.00  0.00     0.130 A 
ATOM     11  C   UNL A   1      33.579  28.343  25.687  1.00  0.00     0.108 A 
ATOM     12  C   UNL A   1      33.703  26.015  25.163  1.00  0.00     0.019 A 
ATOM     13  O   UNL A   1      34.010  25.234  22.836  1.00  0.00    -0.475 OA
ATOM     14  C   UNL A   1      33.559  27.041  26.100  1.00  0.00     0.036 A 
ATOM     15  C   UNL A   1      33.695  24.606  25.554  1.00  0.00     0.027 C 
ATOM     16  C   UNL A   1      33.989  23.966  23.296  1.00  0.00     0.316 C 
BRANCH  11  17
ATOM     17  S   UNL A   1      33.409  29.670  26.906  1.00  0.00     0.310 S 
ATOM     18  F   UNL A   1      32.499  28.791  27.863  1.00  0.00    -0.094 F 
ATOM     19  F   UNL A   1      32.085  30.145  26.197  1.00  0.00    -0.094 F 
ATOM     20  F   UNL A   1      33.295  30.816  27.951  1.00  0.00    -0.094 F 
ATOM     21  F   UNL A   1      34.657  29.095  27.685  1.00  0.00    -0.094 F 
ATOM     22  F   UNL A   1      33.474  28.435  25.920  1.00  0.00    -0.094 F 
ENDBRANCH  11  17
BRANCH  16  23
ATOM     23  C   UNL A   1      32.699  23.427  22.700  1.00  0.00     0.430 C 
ATOM     24  F   UNL A   1      32.414  24.093  21.585  1.00  0.00    -0.167 F 
ATOM     25  F   UNL A   1      32.848  22.135  22.419  1.00  0.00    -0.167 F 
ATOM     26  F   UNL A   1      31.709  23.580  23.574  1.00  0.00    -0.167 F 
ENDBRANCH  16  23
ENDBRANCH   4   6
ENDBRANCH   3   4
ENDBRANCH   2   3
ENDBRANCH   1   2
BRANCH   1  27
ATOM     27  O   UNL A   1      37.542  23.066  25.315  1.00  0.00    -0.458 OA
BRANCH  27  28
ATOM     28  C   UNL A   1      38.751  22.977  26.056  1.00  0.00     0.338 C 
ATOM     29  O   UNL A   1      39.382  21.876  26.110  1.00  0.00    -0.246 OA
BRANCH  28  30
ATOM     30  C   UNL A   1      39.290  24.200  26.779  1.00  0.00     0.060 A 
ATOM     31  C   UNL A   1      40.261  25.021  26.217  1.00  0.00     0.016 A 
ATOM     32  C   UNL A   1      38.840  24.494  27.980  1.00  0.00     0.016 A 
ATOM     33  C   UNL A   1      40.329  26.344  26.709  1.00  0.00     0.010 A 
ATOM     34  C   UNL A   1      39.334  25.602  28.678  1.00  0.00     0.010 A 
ATOM     35  C   UNL A   1      40.061  26.514  28.066  1.00  0.00    -0.014 A 
BRANCH  35  36
ATOM     36  C   UNL A   1      40.595  27.719  28.821  1.00  0.00     0.031 A 
ATOM     37  C   UNL A   1      41.872  27.644  29.378  1.00  0.00     0.074 A 
ATOM     38  C   UNL A   1      39.751  28.809  28.963  1.00  0.00     0.049 A 
ATOM     39  N   UNL A   1      42.505  28.577  30.091  1.00  0.00    -0.248 NA
ATOM     40  C   UNL A   1      42.757  26.475  29.257  1.00  0.00     0.031 C 
ATOM     41  C   UNL A   1      38.465  28.896  28.398  1.00  0.00     0.029 A 
ATOM     42  N   UNL A   1      39.987  29.975  29.656  1.00  0.00    -0.354 N 
ATOM     43  C   UNL A   1      43.721  28.148  30.436  1.00  0.00     0.074 A 
ATOM     44  C   UNL A   1      43.898  26.788  29.910  1.00  0.00     0.031 C 
ATOM     45  C   UNL A   1      37.927  30.092  28.754  1.00  0.00     0.029 A 
ATOM     46  C   UNL A   1      38.869  30.773  29.548  1.00  0.00     0.049 A 
ATOM     47  H   UNL A   1      40.811  30.199  30.146  1.00  0.00     0.167 HD
ATOM     48  C   UNL A   1      44.689  28.837  31.168  1.00  0.00     0.031 A 
ATOM     49  C   UNL A   1      38.663  32.026  30.104  1.00  0.00     0.031 A 
ATOM     50  C   UNL A   1      44.500  30.108  31.687  1.00  0.00     0.049 A 
ATOM     51  C   UNL A   1      39.611  32.692  30.885  1.00  0.00     0.074 A 
ATOM     52  C   UNL A   1      45.469  30.821  32.420  1.00  0.00     0.029 A 
ATOM     53  N   UNL A   1      43.374  30.896  31.598  1.00  0.00    -0.354 N 
ATOM     54  N   UNL A   1      40.840  32.279  31.196  1.00  0.00    -0.248 NA
ATOM     55  C   UNL A   1      39.392  34.005  31.505  1.00  0.00     0.031 C 
ATOM     56  C   UNL A   1      44.931  32.019  32.776  1.00  0.00     0.029 A 
ATOM     57  C   UNL A   1      43.617  32.072  32.273  1.00  0.00     0.049 A 
ATOM     58  H   UNL A   1      42.539  30.660  31.134  1.00  0.00     0.167 HD
ATOM     59  C   UNL A   1      41.457  33.195  31.945  1.00  0.00     0.074 A 
ATOM     60  C   UNL A   1      40.532  34.316  32.160  1.00  0.00     0.031 C 
ATOM     61  C   UNL A   1      42.757  33.144  32.452  1.00  0.00     0.031 A 
BRANCH  48  62
ATOM     62  C   UNL A   1      46.027  28.157  31.407  1.00  0.00    -0.014 A 
ATOM     63  C   UNL A   1      46.242  27.307  32.487  1.00  0.00     0.010 A 
ATOM     64  C   UNL A   1      47.003  28.323  30.540  1.00  0.00     0.010 A 
ATOM     65  C   UNL A   1      47.240  26.321  32.325  1.00  0.00     0.020 A 
ATOM     66  C   UNL A   1      48.229  27.669  30.706  1.00  0.00     0.020 A 
ATOM     67  C   UNL A   1      48.355  26.688  31.575  1.00  0.00     0.054 A 
BRANCH  67  68
ATOM     68  S   UNL A   1      49.938  25.837  31.787  1.00  0.00     0.124 S 
ATOM     69  O   UNL A   1      51.048  26.869  32.006  1.00  0.00    -0.237 OA
ATOM     70  O   UNL A   1      49.859  24.908  33.001  1.00  0.00    -0.237 OA
ATOM     71  O   UNL A   1      50.284  24.917  30.387  1.00  0.00    -0.744 OA
ENDBRANCH  67  68
ENDBRANCH  48  62
BRANCH  49  72
ATOM     72  C   UNL A   1      37.332  32.713  29.850  1.00  0.00    -0.014 A 
ATOM     73  C   UNL A   1      36.253  32.562  30.714  1.00  0.00     0.010 A 
ATOM     74  C   UNL A   1      37.162  33.425  28.757  1.00  0.00     0.010 A 
ATOM     75  C   UNL A   1      35.248  33.551  30.647  1.00  0.00     0.020 A 
ATOM     76  C   UNL A   1      35.923  34.008  28.468  1.00  0.00     0.020 A 
ATOM     77  C   UNL A   1      34.981  34.077  29.384  1.00  0.00     0.054 A 
BRANCH  77  78
ATOM     78  S   UNL A   1      33.380  34.835  29.014  1.00  0.00     0.124 S 
ATOM     79  O   UNL A   1      33.599  36.232  28.429  1.00  0.00    -0.237 OA
ATOM     80  O   UNL A   1      32.627  33.969  28.000  1.00  0.00    -0.237 OA
ATOM     81  O   UNL A   1      32.462  34.957  30.451  1.00  0.00    -0.744 OA
ENDBRANCH  77  78
ENDBRANCH  49  72
BRANCH  61  82
ATOM     82  C   UNL A   1      43.259  34.337  33.251  1.00  0.00    -0.014 A 
ATOM     83  C   UNL A   1      43.931  35.411  32.679  1.00  0.00     0.010 A 
ATOM     84  C   UNL A   1      43.079  34.333  34.555  1.00  0.00     0.010 A 
ATOM     85  C   UNL A   1      43.926  36.620  33.410  1.00  0.00     0.020 A 
ATOM     86  C   UNL A   1      43.562  35.380  35.346  1.00  0.00     0.020 A 
ATOM     87  C   UNL A   1      43.977  36.503  34.798  1.00  0.00     0.054 A 
BRANCH  87  88
ATOM     88  S   UNL A   1      44.598  37.861  35.821  1.00  0.00     0.124 S 
ATOM     89  O   UNL A   1      46.125  37.783  35.900  1.00  0.00    -0.237 OA
ATOM     90  O   UNL A   1      44.186  39.197  35.200  1.00  0.00    -0.237 OA
ATOM     91  O   UNL A   1      43.938  37.736  37.395  1.00  0.00    -0.744 OA
ENDBRANCH  87  88
ENDBRANCH  61  82
ENDBRANCH  35  36
ENDBRANCH  28  30
ENDBRANCH  27  28
ENDBRANCH   1  27
TORSDOF 16
ENDMDL
