MODEL 1
REMARK VINA RESULT:     -11.8      0.000      0.000
REMARK SMILES Nn1c(S[C@@H](C(=O)OCCOC(=O)c2ccc(-c3c4nc(c(-c5ccc(S(=O)(=O)[O-])cc5)c5ccc([nH]5)c(-c5ccc(S(=O)(=O)[O-])cc5)c5nc(c(-c6ccc(S(=O)(=O)[O-])cc6)c6ccc3[nH]6)C=C5)C=C4)cc2)c2ccccc2)nc2ccc(Br)cc2c1=O
REMARK SMILES IDX 9 1 8 2 6 3 7 4 5 5 4 6 3 7 2 8 88 9 80 10 87 11 89 12 81 13
REMARK SMILES IDX 86 14 82 15 84 16 83 17 85 18 1 19 74 22 75 23 79 24 76 25
REMARK SMILES IDX 78 26 77 27 10 28 11 29 12 30 13 31 14 32 15 33 73 34 16 35
REMARK SMILES IDX 72 36 17 37 18 38 19 39 66 40 20 41 71 42 65 43 67 44 21 45
REMARK SMILES IDX 70 46 64 47 63 48 22 50 52 51 33 52 51 53 34 54 37 55 50 56
REMARK SMILES IDX 68 57 35 58 36 59 49 61 69 62 38 63 23 64 24 65 32 66 25 67
REMARK SMILES IDX 31 68 26 69 27 70 28 71 29 72 30 73 53 74 54 75 62 76 55 77
REMARK SMILES IDX 61 78 56 79 57 80 58 81 59 82 60 83 39 84 40 85 48 86 41 87
REMARK SMILES IDX 47 88 42 89 43 90 44 91 45 92 46 93
REMARK H PARENT 1 20 1 21 67 49 37 60
REMARK Flexibility Score: inf
ROOT
ATOM      1  C   UNL A   1      31.961  29.322  25.845  1.00  0.00     0.274 C 
ENDROOT
BRANCH   1   2
ATOM      2  O   UNL A   1      32.696  29.501  24.612  1.00  0.00    -0.461 OA
BRANCH   2   3
ATOM      3  C   UNL A   1      32.121  29.000  23.476  1.00  0.00     0.324 C 
ATOM      4  O   UNL A   1      32.748  28.857  22.427  1.00  0.00    -0.251 OA
BRANCH   3   5
ATOM      5  C   UNL A   1      30.597  28.836  23.578  1.00  0.00     0.194 C 
BRANCH   5   6
ATOM      6  S   UNL A   1      29.944  27.155  23.446  1.00  0.00    -0.066 SA
BRANCH   6   7
ATOM      7  C   UNL A   1      31.161  25.902  23.377  1.00  0.00     0.191 A 
ATOM      8  N   UNL A   1      31.854  25.511  22.239  1.00  0.00    -0.202 N 
ATOM      9  C   UNL A   1      32.841  24.519  22.259  1.00  0.00     0.280 A 
ATOM     10  N   UNL A   1      31.388  25.351  24.532  1.00  0.00    -0.222 NA
ATOM     11  C   UNL A   1      33.105  23.895  23.556  1.00  0.00     0.069 A 
ATOM     12  O   UNL A   1      33.473  24.177  21.260  1.00  0.00    -0.267 OA
ATOM     13  C   UNL A   1      32.352  24.339  24.640  1.00  0.00     0.079 A 
ATOM     14  C   UNL A   1      34.075  22.895  23.685  1.00  0.00     0.031 A 
ATOM     15  C   UNL A   1      32.576  23.748  25.885  1.00  0.00     0.030 A 
ATOM     16  C   UNL A   1      34.285  22.324  24.934  1.00  0.00     0.018 A 
ATOM     17  C   UNL A   1      33.538  22.741  26.035  1.00  0.00     0.018 A 
ATOM     18  Br  UNL A   1      35.593  20.976  25.143  1.00  0.00    -0.051 Br
BRANCH   8  19
ATOM     19  N   UNL A   1      31.646  26.084  20.982  1.00  0.00    -0.334 N 
ATOM     20  H   UNL A   1      30.741  26.359  20.709  1.00  0.00     0.178 HD
ATOM     21  H   UNL A   1      32.406  26.213  20.368  1.00  0.00     0.178 HD
ENDBRANCH   8  19
ENDBRANCH   6   7
ENDBRANCH   5   6
BRANCH   5  22
ATOM     22  C   UNL A   1      29.700  29.943  23.007  1.00  0.00    -0.023 A 
ATOM     23  C   UNL A   1      29.171  30.933  23.856  1.00  0.00     0.005 A 
ATOM     24  C   UNL A   1      29.398  30.053  21.641  1.00  0.00     0.005 A 
ATOM     25  C   UNL A   1      28.345  31.948  23.360  1.00  0.00     0.000 A 
ATOM     26  C   UNL A   1      28.545  31.043  21.145  1.00  0.00     0.000 A 
ATOM     27  C   UNL A   1      28.016  31.991  22.008  1.00  0.00     0.000 A 
ENDBRANCH   5  22
ENDBRANCH   3   5
ENDBRANCH   2   3
ENDBRANCH   1   2
BRANCH   1  28
ATOM     28  C   UNL A   1      32.097  30.536  26.762  1.00  0.00     0.275 C 
BRANCH  28  29
ATOM     29  O   UNL A   1      33.251  30.358  27.597  1.00  0.00    -0.458 OA
BRANCH  29  30
ATOM     30  C   UNL A   1      34.041  31.439  27.785  1.00  0.00     0.338 C 
ATOM     31  O   UNL A   1      33.684  32.608  27.729  1.00  0.00    -0.246 OA
BRANCH  30  32
ATOM     32  C   UNL A   1      35.397  31.005  28.221  1.00  0.00     0.060 A 
ATOM     33  C   UNL A   1      36.439  31.933  28.271  1.00  0.00     0.016 A 
ATOM     34  C   UNL A   1      35.601  29.736  28.767  1.00  0.00     0.016 A 
ATOM     35  C   UNL A   1      37.673  31.577  28.840  1.00  0.00     0.010 A 
ATOM     36  C   UNL A   1      36.784  29.439  29.447  1.00  0.00     0.010 A 
ATOM     37  C   UNL A   1      37.861  30.331  29.466  1.00  0.00    -0.014 A 
BRANCH  37  38
ATOM     38  C   UNL A   1      39.169  29.956  30.100  1.00  0.00     0.031 A 
ATOM     39  C   UNL A   1      39.612  30.574  31.413  1.00  0.00     0.074 A 
ATOM     40  C   UNL A   1      39.994  29.063  29.507  1.00  0.00     0.049 A 
ATOM     41  N   UNL A   1      40.677  30.304  32.131  1.00  0.00    -0.248 NA
ATOM     42  C   UNL A   1      38.801  31.670  31.967  1.00  0.00     0.031 C 
ATOM     43  C   UNL A   1      39.800  28.467  28.183  1.00  0.00     0.029 A 
ATOM     44  N   UNL A   1      41.154  28.473  29.963  1.00  0.00    -0.354 N 
ATOM     45  C   UNL A   1      40.666  31.208  33.188  1.00  0.00     0.074 A 
ATOM     46  C   UNL A   1      39.558  32.105  32.962  1.00  0.00     0.031 C 
ATOM     47  C   UNL A   1      40.740  27.530  27.979  1.00  0.00     0.029 A 
ATOM     48  C   UNL A   1      41.622  27.470  29.143  1.00  0.00     0.049 A 
ATOM     49  H   UNL A   1      41.604  28.744  30.796  1.00  0.00     0.167 HD
ATOM     50  C   UNL A   1      41.446  31.258  34.293  1.00  0.00     0.031 A 
ATOM     51  C   UNL A   1      42.611  26.568  29.319  1.00  0.00     0.031 A 
ATOM     52  C   UNL A   1      42.487  30.315  34.591  1.00  0.00     0.049 A 
ATOM     53  C   UNL A   1      43.401  26.556  30.602  1.00  0.00     0.074 A 
ATOM     54  C   UNL A   1      43.255  30.223  35.738  1.00  0.00     0.029 A 
ATOM     55  N   UNL A   1      42.879  29.283  33.758  1.00  0.00    -0.354 N 
ATOM     56  N   UNL A   1      43.298  27.352  31.638  1.00  0.00    -0.248 NA
ATOM     57  C   UNL A   1      44.426  25.509  30.750  1.00  0.00     0.031 C 
ATOM     58  C   UNL A   1      44.130  29.145  35.590  1.00  0.00     0.029 A 
ATOM     59  C   UNL A   1      43.875  28.543  34.368  1.00  0.00     0.049 A 
ATOM     60  H   UNL A   1      42.506  29.101  32.865  1.00  0.00     0.167 HD
ATOM     61  C   UNL A   1      44.221  26.885  32.569  1.00  0.00     0.074 A 
ATOM     62  C   UNL A   1      44.869  25.733  31.982  1.00  0.00     0.031 C 
ATOM     63  C   UNL A   1      44.501  27.377  33.799  1.00  0.00     0.031 A 
BRANCH  50  64
ATOM     64  C   UNL A   1      41.141  32.318  35.320  1.00  0.00    -0.014 A 
ATOM     65  C   UNL A   1      40.191  32.082  36.329  1.00  0.00     0.010 A 
ATOM     66  C   UNL A   1      41.758  33.581  35.241  1.00  0.00     0.010 A 
ATOM     67  C   UNL A   1      39.866  33.089  37.244  1.00  0.00     0.020 A 
ATOM     68  C   UNL A   1      41.464  34.576  36.173  1.00  0.00     0.020 A 
ATOM     69  C   UNL A   1      40.507  34.329  37.160  1.00  0.00     0.054 A 
BRANCH  69  70
ATOM     70  S   UNL A   1      40.114  35.618  38.374  1.00  0.00     0.124 S 
ATOM     71  O   UNL A   1      41.328  35.661  39.180  1.00  0.00    -0.237 OA
ATOM     72  O   UNL A   1      39.868  36.790  37.536  1.00  0.00    -0.237 OA
ATOM     73  O   UNL A   1      38.930  35.092  39.051  1.00  0.00    -0.744 OA
ENDBRANCH  69  70
ENDBRANCH  50  64
BRANCH  51  74
ATOM     74  C   UNL A   1      42.828  25.514  28.291  1.00  0.00    -0.014 A 
ATOM     75  C   UNL A   1      42.116  24.301  28.332  1.00  0.00     0.010 A 
ATOM     76  C   UNL A   1      43.792  25.706  27.284  1.00  0.00     0.010 A 
ATOM     77  C   UNL A   1      42.385  23.291  27.404  1.00  0.00     0.020 A 
ATOM     78  C   UNL A   1      44.048  24.707  26.341  1.00  0.00     0.020 A 
ATOM     79  C   UNL A   1      43.358  23.496  26.421  1.00  0.00     0.054 A 
BRANCH  79  80
ATOM     80  S   UNL A   1      43.708  22.163  25.241  1.00  0.00     0.124 S 
ATOM     81  O   UNL A   1      43.506  22.837  23.961  1.00  0.00    -0.237 OA
ATOM     82  O   UNL A   1      45.089  21.809  25.556  1.00  0.00    -0.237 OA
ATOM     83  O   UNL A   1      42.716  21.142  25.573  1.00  0.00    -0.744 OA
ENDBRANCH  79  80
ENDBRANCH  51  74
BRANCH  63  84
ATOM     84  C   UNL A   1      45.538  26.686  34.644  1.00  0.00    -0.014 A 
ATOM     85  C   UNL A   1      46.900  26.997  34.459  1.00  0.00     0.010 A 
ATOM     86  C   UNL A   1      45.186  25.611  35.476  1.00  0.00     0.010 A 
ATOM     87  C   UNL A   1      47.892  26.212  35.052  1.00  0.00     0.020 A 
ATOM     88  C   UNL A   1      46.177  24.836  36.087  1.00  0.00     0.020 A 
ATOM     89  C   UNL A   1      47.523  25.122  35.846  1.00  0.00     0.054 A 
BRANCH  89  90
ATOM     90  S   UNL A   1      48.822  24.066  36.544  1.00  0.00     0.124 S 
ATOM     91  O   UNL A   1      48.125  23.411  37.647  1.00  0.00    -0.237 OA
ATOM     92  O   UNL A   1      49.177  23.202  35.421  1.00  0.00    -0.237 OA
ATOM     93  O   UNL A   1      49.860  25.017  36.939  1.00  0.00    -0.744 OA
ENDBRANCH  89  90
ENDBRANCH  63  84
ENDBRANCH  37  38
ENDBRANCH  30  32
ENDBRANCH  29  30
ENDBRANCH  28  29
ENDBRANCH   1  28
TORSDOF 18
ENDMDL
MODEL 2
REMARK VINA RESULT:     -11.4      5.105     10.805
REMARK SMILES Nn1c(S[C@@H](C(=O)OCCOC(=O)c2ccc(-c3c4nc(c(-c5ccc(S(=O)(=O)[O-])cc5)c5ccc([nH]5)c(-c5ccc(S(=O)(=O)[O-])cc5)c5nc(c(-c6ccc(S(=O)(=O)[O-])cc6)c6ccc3[nH]6)C=C5)C=C4)cc2)c2ccccc2)nc2ccc(Br)cc2c1=O
REMARK SMILES IDX 9 1 8 2 6 3 7 4 5 5 4 6 3 7 2 8 88 9 80 10 87 11 89 12 81 13
REMARK SMILES IDX 86 14 82 15 84 16 83 17 85 18 1 19 74 22 75 23 79 24 76 25
REMARK SMILES IDX 78 26 77 27 10 28 11 29 12 30 13 31 14 32 15 33 73 34 16 35
REMARK SMILES IDX 72 36 17 37 18 38 19 39 66 40 20 41 71 42 65 43 67 44 21 45
REMARK SMILES IDX 70 46 64 47 63 48 22 50 52 51 33 52 51 53 34 54 37 55 50 56
REMARK SMILES IDX 68 57 35 58 36 59 49 61 69 62 38 63 23 64 24 65 32 66 25 67
REMARK SMILES IDX 31 68 26 69 27 70 28 71 29 72 30 73 53 74 54 75 62 76 55 77
REMARK SMILES IDX 61 78 56 79 57 80 58 81 59 82 60 83 39 84 40 85 48 86 41 87
REMARK SMILES IDX 47 88 42 89 43 90 44 91 45 92 46 93
REMARK H PARENT 1 20 1 21 67 49 37 60
REMARK Flexibility Score: inf
ROOT
ATOM      1  C   UNL A   1      36.105  21.656  24.817  1.00  0.00     0.274 C 
ENDROOT
BRANCH   1   2
ATOM      2  O   UNL A   1      35.528  21.322  26.101  1.00  0.00    -0.461 OA
BRANCH   2   3
ATOM      3  C   UNL A   1      34.180  21.087  26.126  1.00  0.00     0.324 C 
ATOM      4  O   UNL A   1      33.495  21.284  27.128  1.00  0.00    -0.251 OA
BRANCH   3   5
ATOM      5  C   UNL A   1      33.656  20.370  24.872  1.00  0.00     0.194 C 
BRANCH   5   6
ATOM      6  S   UNL A   1      32.371  21.216  23.922  1.00  0.00    -0.066 SA
BRANCH   6   7
ATOM      7  C   UNL A   1      31.984  22.824  24.488  1.00  0.00     0.191 A 
ATOM      8  N   UNL A   1      31.084  23.129  25.501  1.00  0.00    -0.202 N 
ATOM      9  C   UNL A   1      30.843  24.440  25.927  1.00  0.00     0.280 A 
ATOM     10  N   UNL A   1      32.648  23.754  23.868  1.00  0.00    -0.222 NA
ATOM     11  C   UNL A   1      31.588  25.492  25.237  1.00  0.00     0.069 A 
ATOM     12  O   UNL A   1      30.060  24.719  26.836  1.00  0.00    -0.267 OA
ATOM     13  C   UNL A   1      32.456  25.096  24.224  1.00  0.00     0.079 A 
ATOM     14  C   UNL A   1      31.422  26.836  25.590  1.00  0.00     0.031 A 
ATOM     15  C   UNL A   1      33.168  26.085  23.541  1.00  0.00     0.030 A 
ATOM     16  C   UNL A   1      32.142  27.803  24.901  1.00  0.00     0.018 A 
ATOM     17  C   UNL A   1      33.012  27.436  23.874  1.00  0.00     0.018 A 
ATOM     18  Br  UNL A   1      31.946  29.627  25.358  1.00  0.00    -0.051 Br
BRANCH   8  19
ATOM     19  N   UNL A   1      30.358  22.159  26.197  1.00  0.00    -0.334 N 
ATOM     20  H   UNL A   1      29.380  22.240  26.278  1.00  0.00     0.178 HD
ATOM     21  H   UNL A   1      30.825  21.395  26.607  1.00  0.00     0.178 HD
ENDBRANCH   8  19
ENDBRANCH   6   7
ENDBRANCH   5   6
BRANCH   5  22
ATOM     22  C   UNL A   1      33.571  18.837  24.885  1.00  0.00    -0.023 A 
ATOM     23  C   UNL A   1      34.566  18.069  24.252  1.00  0.00     0.005 A 
ATOM     24  C   UNL A   1      32.552  18.134  25.543  1.00  0.00     0.005 A 
ATOM     25  C   UNL A   1      34.507  16.671  24.243  1.00  0.00     0.000 A 
ATOM     26  C   UNL A   1      32.467  16.739  25.508  1.00  0.00     0.000 A 
ATOM     27  C   UNL A   1      33.447  16.007  24.854  1.00  0.00     0.000 A 
ENDBRANCH   5  22
ENDBRANCH   3   5
ENDBRANCH   2   3
ENDBRANCH   1   2
BRANCH   1  28
ATOM     28  C   UNL A   1      37.631  21.594  24.854  1.00  0.00     0.275 C 
BRANCH  28  29
ATOM     29  O   UNL A   1      38.108  22.531  25.831  1.00  0.00    -0.458 OA
BRANCH  29  30
ATOM     30  C   UNL A   1      39.226  22.189  26.510  1.00  0.00     0.338 C 
ATOM     31  O   UNL A   1      39.623  21.049  26.714  1.00  0.00    -0.246 OA
BRANCH  30  32
ATOM     32  C   UNL A   1      40.001  23.411  26.858  1.00  0.00     0.060 A 
ATOM     33  C   UNL A   1      39.699  24.624  26.236  1.00  0.00     0.016 A 
ATOM     34  C   UNL A   1      40.891  23.412  27.934  1.00  0.00     0.016 A 
ATOM     35  C   UNL A   1      40.304  25.813  26.677  1.00  0.00     0.010 A 
ATOM     36  C   UNL A   1      41.382  24.615  28.447  1.00  0.00     0.010 A 
ATOM     37  C   UNL A   1      41.137  25.836  27.811  1.00  0.00    -0.014 A 
BRANCH  37  38
ATOM     38  C   UNL A   1      41.764  27.107  28.304  1.00  0.00     0.031 A 
ATOM     39  C   UNL A   1      43.244  27.381  28.109  1.00  0.00     0.074 A 
ATOM     40  C   UNL A   1      41.025  28.037  28.950  1.00  0.00     0.049 A 
ATOM     41  N   UNL A   1      43.927  28.461  28.410  1.00  0.00    -0.248 NA
ATOM     42  C   UNL A   1      44.080  26.298  27.566  1.00  0.00     0.031 C 
ATOM     43  C   UNL A   1      39.623  27.892  29.346  1.00  0.00     0.029 A 
ATOM     44  N   UNL A   1      41.348  29.314  29.359  1.00  0.00    -0.354 N 
ATOM     45  C   UNL A   1      45.255  28.168  28.116  1.00  0.00     0.074 A 
ATOM     46  C   UNL A   1      45.302  26.781  27.722  1.00  0.00     0.031 C 
ATOM     47  C   UNL A   1      39.181  29.059  29.843  1.00  0.00     0.029 A 
ATOM     48  C   UNL A   1      40.271  30.033  29.827  1.00  0.00     0.049 A 
ATOM     49  H   UNL A   1      42.263  29.676  29.320  1.00  0.00     0.167 HD
ATOM     50  C   UNL A   1      46.337  28.982  28.095  1.00  0.00     0.031 A 
ATOM     51  C   UNL A   1      40.148  31.336  30.158  1.00  0.00     0.031 A 
ATOM     52  C   UNL A   1      46.296  30.388  28.383  1.00  0.00     0.049 A 
ATOM     53  C   UNL A   1      41.329  32.262  30.023  1.00  0.00     0.074 A 
ATOM     54  C   UNL A   1      47.321  31.312  28.280  1.00  0.00     0.029 A 
ATOM     55  N   UNL A   1      45.169  31.078  28.791  1.00  0.00    -0.354 N 
ATOM     56  N   UNL A   1      42.550  31.986  29.635  1.00  0.00    -0.248 NA
ATOM     57  C   UNL A   1      41.110  33.682  30.347  1.00  0.00     0.031 C 
ATOM     58  C   UNL A   1      46.818  32.561  28.647  1.00  0.00     0.029 A 
ATOM     59  C   UNL A   1      45.471  32.420  28.938  1.00  0.00     0.049 A 
ATOM     60  H   UNL A   1      44.285  30.676  28.952  1.00  0.00     0.167 HD
ATOM     61  C   UNL A   1      43.234  33.199  29.641  1.00  0.00     0.074 A 
ATOM     62  C   UNL A   1      42.293  34.213  30.061  1.00  0.00     0.031 C 
ATOM     63  C   UNL A   1      44.529  33.438  29.327  1.00  0.00     0.031 A 
BRANCH  50  64
ATOM     64  C   UNL A   1      47.650  28.391  27.653  1.00  0.00    -0.014 A 
ATOM     65  C   UNL A   1      48.544  27.852  28.595  1.00  0.00     0.010 A 
ATOM     66  C   UNL A   1      48.027  28.432  26.297  1.00  0.00     0.010 A 
ATOM     67  C   UNL A   1      49.788  27.359  28.188  1.00  0.00     0.020 A 
ATOM     68  C   UNL A   1      49.252  27.910  25.883  1.00  0.00     0.020 A 
ATOM     69  C   UNL A   1      50.133  27.391  26.833  1.00  0.00     0.054 A 
BRANCH  69  70
ATOM     70  S   UNL A   1      51.730  26.713  26.306  1.00  0.00     0.124 S 
ATOM     71  O   UNL A   1      52.668  27.711  26.808  1.00  0.00    -0.237 OA
ATOM     72  O   UNL A   1      51.769  25.414  26.975  1.00  0.00    -0.237 OA
ATOM     73  O   UNL A   1      51.604  26.646  24.851  1.00  0.00    -0.744 OA
ENDBRANCH  69  70
ENDBRANCH  50  64
BRANCH  51  74
ATOM     74  C   UNL A   1      38.811  31.870  30.537  1.00  0.00    -0.014 A 
ATOM     75  C   UNL A   1      37.891  32.286  29.559  1.00  0.00     0.010 A 
ATOM     76  C   UNL A   1      38.473  32.007  31.896  1.00  0.00     0.010 A 
ATOM     77  C   UNL A   1      36.670  32.855  29.932  1.00  0.00     0.020 A 
ATOM     78  C   UNL A   1      37.244  32.555  32.274  1.00  0.00     0.020 A 
ATOM     79  C   UNL A   1      36.359  32.997  31.287  1.00  0.00     0.054 A 
BRANCH  79  80
ATOM     80  S   UNL A   1      34.779  33.759  31.751  1.00  0.00     0.124 S 
ATOM     81  O   UNL A   1      35.192  34.692  32.796  1.00  0.00    -0.237 OA
ATOM     82  O   UNL A   1      34.337  34.370  30.499  1.00  0.00    -0.237 OA
ATOM     83  O   UNL A   1      33.973  32.628  32.205  1.00  0.00    -0.744 OA
ENDBRANCH  79  80
ENDBRANCH  51  74
BRANCH  63  84
ATOM     84  C   UNL A   1      45.047  34.849  29.390  1.00  0.00    -0.014 A 
ATOM     85  C   UNL A   1      45.426  35.393  30.633  1.00  0.00     0.010 A 
ATOM     86  C   UNL A   1      44.984  35.688  28.265  1.00  0.00     0.010 A 
ATOM     87  C   UNL A   1      45.683  36.761  30.760  1.00  0.00     0.020 A 
ATOM     88  C   UNL A   1      45.261  37.054  28.384  1.00  0.00     0.020 A 
ATOM     89  C   UNL A   1      45.578  37.586  29.637  1.00  0.00     0.054 A 
BRANCH  89  90
ATOM     90  S   UNL A   1      45.837  39.371  29.833  1.00  0.00     0.124 S 
ATOM     91  O   UNL A   1      44.622  39.924  29.242  1.00  0.00    -0.237 OA
ATOM     92  O   UNL A   1      45.959  39.524  31.281  1.00  0.00    -0.237 OA
ATOM     93  O   UNL A   1      47.066  39.622  29.083  1.00  0.00    -0.744 OA
ENDBRANCH  89  90
ENDBRANCH  63  84
ENDBRANCH  37  38
ENDBRANCH  30  32
ENDBRANCH  29  30
ENDBRANCH  28  29
ENDBRANCH   1  28
TORSDOF 18
ENDMDL
MODEL 3
REMARK VINA RESULT:     -11.2      3.730      9.944
REMARK SMILES Nn1c(S[C@@H](C(=O)OCCOC(=O)c2ccc(-c3c4nc(c(-c5ccc(S(=O)(=O)[O-])cc5)c5ccc([nH]5)c(-c5ccc(S(=O)(=O)[O-])cc5)c5nc(c(-c6ccc(S(=O)(=O)[O-])cc6)c6ccc3[nH]6)C=C5)C=C4)cc2)c2ccccc2)nc2ccc(Br)cc2c1=O
REMARK SMILES IDX 9 1 8 2 6 3 7 4 5 5 4 6 3 7 2 8 88 9 80 10 87 11 89 12 81 13
REMARK SMILES IDX 86 14 82 15 84 16 83 17 85 18 1 19 74 22 75 23 79 24 76 25
REMARK SMILES IDX 78 26 77 27 10 28 11 29 12 30 13 31 14 32 15 33 73 34 16 35
REMARK SMILES IDX 72 36 17 37 18 38 19 39 66 40 20 41 71 42 65 43 67 44 21 45
REMARK SMILES IDX 70 46 64 47 63 48 22 50 52 51 33 52 51 53 34 54 37 55 50 56
REMARK SMILES IDX 68 57 35 58 36 59 49 61 69 62 38 63 23 64 24 65 32 66 25 67
REMARK SMILES IDX 31 68 26 69 27 70 28 71 29 72 30 73 53 74 54 75 62 76 55 77
REMARK SMILES IDX 61 78 56 79 57 80 58 81 59 82 60 83 39 84 40 85 48 86 41 87
REMARK SMILES IDX 47 88 42 89 43 90 44 91 45 92 46 93
REMARK H PARENT 1 20 1 21 67 49 37 60
REMARK Flexibility Score: inf
ROOT
ATOM      1  C   UNL A   1      37.062  23.436  25.572  1.00  0.00     0.274 C 
ENDROOT
BRANCH   1   2
ATOM      2  O   UNL A   1      36.275  22.375  26.162  1.00  0.00    -0.461 OA
BRANCH   2   3
ATOM      3  C   UNL A   1      35.992  21.302  25.361  1.00  0.00     0.324 C 
ATOM      4  O   UNL A   1      36.847  20.759  24.661  1.00  0.00    -0.251 OA
BRANCH   3   5
ATOM      5  C   UNL A   1      34.493  20.983  25.264  1.00  0.00     0.194 C 
BRANCH   5   6
ATOM      6  S   UNL A   1      33.454  21.503  26.650  1.00  0.00    -0.066 SA
BRANCH   6   7
ATOM      7  C   UNL A   1      32.708  23.070  26.455  1.00  0.00     0.191 A 
ATOM      8  N   UNL A   1      31.350  23.338  26.572  1.00  0.00    -0.202 N 
ATOM      9  C   UNL A   1      30.819  24.626  26.434  1.00  0.00     0.280 A 
ATOM     10  N   UNL A   1      33.564  24.013  26.196  1.00  0.00    -0.222 NA
ATOM     11  C   UNL A   1      31.777  25.693  26.145  1.00  0.00     0.069 A 
ATOM     12  O   UNL A   1      29.620  24.877  26.553  1.00  0.00    -0.267 OA
ATOM     13  C   UNL A   1      33.116  25.331  26.029  1.00  0.00     0.079 A 
ATOM     14  C   UNL A   1      31.350  27.016  25.992  1.00  0.00     0.031 A 
ATOM     15  C   UNL A   1      34.047  26.330  25.740  1.00  0.00     0.030 A 
ATOM     16  C   UNL A   1      32.293  27.996  25.708  1.00  0.00     0.018 A 
ATOM     17  C   UNL A   1      33.641  27.660  25.576  1.00  0.00     0.018 A 
ATOM     18  Br  UNL A   1      31.750  29.794  25.502  1.00  0.00    -0.051 Br
BRANCH   8  19
ATOM     19  N   UNL A   1      30.397  22.356  26.858  1.00  0.00    -0.334 N 
ATOM     20  H   UNL A   1      29.454  22.609  26.988  1.00  0.00     0.178 HD
ATOM     21  H   UNL A   1      30.669  21.413  26.929  1.00  0.00     0.178 HD
ENDBRANCH   8  19
ENDBRANCH   6   7
ENDBRANCH   5   6
BRANCH   5  22
ATOM     22  C   UNL A   1      34.063  19.687  24.562  1.00  0.00    -0.023 A 
ATOM     23  C   UNL A   1      32.892  19.661  23.783  1.00  0.00     0.005 A 
ATOM     24  C   UNL A   1      34.811  18.502  24.621  1.00  0.00     0.005 A 
ATOM     25  C   UNL A   1      32.474  18.490  23.139  1.00  0.00     0.000 A 
ATOM     26  C   UNL A   1      34.381  17.320  24.011  1.00  0.00     0.000 A 
ATOM     27  C   UNL A   1      33.209  17.314  23.270  1.00  0.00     0.000 A 
ENDBRANCH   5  22
ENDBRANCH   3   5
ENDBRANCH   2   3
ENDBRANCH   1   2
BRANCH   1  28
ATOM     28  C   UNL A   1      38.405  23.601  26.281  1.00  0.00     0.275 C 
BRANCH  28  29
ATOM     29  O   UNL A   1      38.447  24.898  26.895  1.00  0.00    -0.458 OA
BRANCH  29  30
ATOM     30  C   UNL A   1      39.654  25.502  26.961  1.00  0.00     0.338 C 
ATOM     31  O   UNL A   1      40.472  25.576  26.053  1.00  0.00    -0.246 OA
BRANCH  30  32
ATOM     32  C   UNL A   1      39.797  26.206  28.265  1.00  0.00     0.060 A 
ATOM     33  C   UNL A   1      40.617  27.332  28.359  1.00  0.00     0.016 A 
ATOM     34  C   UNL A   1      38.978  25.879  29.347  1.00  0.00     0.016 A 
ATOM     35  C   UNL A   1      40.627  28.101  29.536  1.00  0.00     0.010 A 
ATOM     36  C   UNL A   1      38.898  26.724  30.457  1.00  0.00     0.010 A 
ATOM     37  C   UNL A   1      39.746  27.828  30.598  1.00  0.00    -0.014 A 
BRANCH  37  38
ATOM     38  C   UNL A   1      39.732  28.662  31.846  1.00  0.00     0.031 A 
ATOM     39  C   UNL A   1      40.818  28.525  32.896  1.00  0.00     0.074 A 
ATOM     40  C   UNL A   1      38.737  29.551  32.072  1.00  0.00     0.049 A 
ATOM     41  N   UNL A   1      40.994  29.223  33.994  1.00  0.00    -0.248 NA
ATOM     42  C   UNL A   1      41.800  27.440  32.734  1.00  0.00     0.031 C 
ATOM     43  C   UNL A   1      37.541  29.725  31.245  1.00  0.00     0.029 A 
ATOM     44  N   UNL A   1      38.593  30.504  33.058  1.00  0.00    -0.354 N 
ATOM     45  C   UNL A   1      42.075  28.641  34.649  1.00  0.00     0.074 A 
ATOM     46  C   UNL A   1      42.446  27.472  33.888  1.00  0.00     0.031 C 
ATOM     47  C   UNL A   1      36.845  30.783  31.694  1.00  0.00     0.029 A 
ATOM     48  C   UNL A   1      37.526  31.350  32.856  1.00  0.00     0.049 A 
ATOM     49  H   UNL A   1      39.197  30.572  33.833  1.00  0.00     0.167 HD
ATOM     50  C   UNL A   1      42.759  29.067  35.736  1.00  0.00     0.031 A 
ATOM     51  C   UNL A   1      37.157  32.483  33.491  1.00  0.00     0.031 A 
ATOM     52  C   UNL A   1      42.473  30.281  36.447  1.00  0.00     0.049 A 
ATOM     53  C   UNL A   1      37.989  33.013  34.630  1.00  0.00     0.074 A 
ATOM     54  C   UNL A   1      43.181  30.847  37.493  1.00  0.00     0.029 A 
ATOM     55  N   UNL A   1      41.420  31.133  36.164  1.00  0.00    -0.354 N 
ATOM     56  N   UNL A   1      39.074  32.506  35.161  1.00  0.00    -0.248 NA
ATOM     57  C   UNL A   1      37.561  34.283  35.240  1.00  0.00     0.031 C 
ATOM     58  C   UNL A   1      42.543  32.034  37.857  1.00  0.00     0.029 A 
ATOM     59  C   UNL A   1      41.463  32.225  37.010  1.00  0.00     0.049 A 
ATOM     60  H   UNL A   1      40.743  30.985  35.465  1.00  0.00     0.167 HD
ATOM     61  C   UNL A   1      39.473  33.406  36.145  1.00  0.00     0.074 A 
ATOM     62  C   UNL A   1      38.521  34.495  36.133  1.00  0.00     0.031 C 
ATOM     63  C   UNL A   1      40.535  33.326  36.981  1.00  0.00     0.031 A 
BRANCH  50  64
ATOM     64  C   UNL A   1      43.954  28.260  36.173  1.00  0.00    -0.014 A 
ATOM     65  C   UNL A   1      45.229  28.527  35.643  1.00  0.00     0.010 A 
ATOM     66  C   UNL A   1      43.797  27.186  37.069  1.00  0.00     0.010 A 
ATOM     67  C   UNL A   1      46.325  27.738  36.005  1.00  0.00     0.020 A 
ATOM     68  C   UNL A   1      44.894  26.418  37.460  1.00  0.00     0.020 A 
ATOM     69  C   UNL A   1      46.149  26.689  36.913  1.00  0.00     0.054 A 
BRANCH  69  70
ATOM     70  S   UNL A   1      47.582  25.694  37.411  1.00  0.00     0.124 S 
ATOM     71  O   UNL A   1      46.950  24.541  38.042  1.00  0.00    -0.237 OA
ATOM     72  O   UNL A   1      48.253  25.431  36.140  1.00  0.00    -0.237 OA
ATOM     73  O   UNL A   1      48.311  26.583  38.314  1.00  0.00    -0.744 OA
ENDBRANCH  69  70
ENDBRANCH  50  64
BRANCH  51  74
ATOM     74  C   UNL A   1      35.997  33.263  32.979  1.00  0.00    -0.014 A 
ATOM     75  C   UNL A   1      36.136  34.140  31.889  1.00  0.00     0.010 A 
ATOM     76  C   UNL A   1      34.748  33.160  33.618  1.00  0.00     0.010 A 
ATOM     77  C   UNL A   1      35.057  34.922  31.467  1.00  0.00     0.020 A 
ATOM     78  C   UNL A   1      33.660  33.924  33.186  1.00  0.00     0.020 A 
ATOM     79  C   UNL A   1      33.828  34.817  32.125  1.00  0.00     0.054 A 
BRANCH  79  80
ATOM     80  S   UNL A   1      32.446  35.857  31.577  1.00  0.00     0.124 S 
ATOM     81  O   UNL A   1      31.383  35.448  32.490  1.00  0.00    -0.237 OA
ATOM     82  O   UNL A   1      32.963  37.209  31.776  1.00  0.00    -0.237 OA
ATOM     83  O   UNL A   1      32.257  35.467  30.181  1.00  0.00    -0.744 OA
ENDBRANCH  79  80
ENDBRANCH  51  74
BRANCH  63  84
ATOM     84  C   UNL A   1      40.778  34.442  37.962  1.00  0.00    -0.014 A 
ATOM     85  C   UNL A   1      41.659  35.486  37.618  1.00  0.00     0.010 A 
ATOM     86  C   UNL A   1      40.290  34.362  39.276  1.00  0.00     0.010 A 
ATOM     87  C   UNL A   1      42.086  36.400  38.584  1.00  0.00     0.020 A 
ATOM     88  C   UNL A   1      40.698  35.288  40.241  1.00  0.00     0.020 A 
ATOM     89  C   UNL A   1      41.618  36.282  39.895  1.00  0.00     0.054 A 
BRANCH  89  90
ATOM     90  S   UNL A   1      42.243  37.428  41.156  1.00  0.00     0.124 S 
ATOM     91  O   UNL A   1      43.302  36.644  41.784  1.00  0.00    -0.237 OA
ATOM     92  O   UNL A   1      42.690  38.570  40.363  1.00  0.00    -0.237 OA
ATOM     93  O   UNL A   1      41.073  37.683  41.994  1.00  0.00    -0.744 OA
ENDBRANCH  89  90
ENDBRANCH  63  84
ENDBRANCH  37  38
ENDBRANCH  30  32
ENDBRANCH  29  30
ENDBRANCH  28  29
ENDBRANCH   1  28
TORSDOF 18
ENDMDL
