MODEL 1
REMARK VINA RESULT:     -10.8      0.000      0.000
REMARK SMILES C[C@@H](C(=O)OCCOC(=O)c1ccc(-c2c3nc(c(-c4ccc(S(=O)(=O)[O-])cc4)c4ccc([nH]4)c(-c4ccc(S(=O)(=O)[O-])cc4)c4nc(c(-c5ccc(S(=O)(=O)[O-])cc5)c5ccc2[nH]5)C=C4)C=C3)cc1)c1ccc(C[C@H]2CCC[C@H]2O)cc1
REMARK SMILES IDX 6 1 5 2 3 3 4 4 2 5 1 6 71 7 72 8 83 9 73 10 82 11 74 12
REMARK SMILES IDX 75 13 76 14 77 15 80 16 78 17 79 18 81 19 7 21 8 22 9 23
REMARK SMILES IDX 10 24 11 25 12 26 70 27 13 28 69 29 14 30 15 31 16 32 63 33
REMARK SMILES IDX 17 34 68 35 62 36 64 37 18 38 67 39 61 40 60 41 19 43 49 44
REMARK SMILES IDX 30 45 48 46 31 47 34 48 47 49 65 50 32 51 33 52 46 54 66 55
REMARK SMILES IDX 35 56 20 57 21 58 29 59 22 60 28 61 23 62 24 63 25 64 26 65
REMARK SMILES IDX 27 66 50 67 51 68 59 69 52 70 58 71 53 72 54 73 55 74 56 75
REMARK SMILES IDX 57 76 36 77 37 78 45 79 38 80 44 81 39 82 40 83 41 84 42 85
REMARK SMILES IDX 43 86
REMARK H PARENT 81 20 64 42 34 53
REMARK Flexibility Score: inf
ROOT
ATOM      1  C   UNL A   1      33.336  30.749  26.927  1.00  0.00     0.274 C 
ENDROOT
BRANCH   1   2
ATOM      2  O   UNL A   1      32.994  29.384  27.240  1.00  0.00    -0.462 OA
BRANCH   2   3
ATOM      3  C   UNL A   1      33.426  28.431  26.366  1.00  0.00     0.313 C 
ATOM      4  O   UNL A   1      34.482  28.501  25.745  1.00  0.00    -0.252 OA
BRANCH   3   5
ATOM      5  C   UNL A   1      32.419  27.288  26.199  1.00  0.00     0.126 C 
ATOM      6  C   UNL A   1      33.072  25.919  25.971  1.00  0.00     0.025 C 
BRANCH   5   7
ATOM      7  C   UNL A   1      31.369  27.621  25.146  1.00  0.00    -0.034 A 
ATOM      8  C   UNL A   1      30.244  26.793  25.006  1.00  0.00     0.005 A 
ATOM      9  C   UNL A   1      31.443  28.769  24.346  1.00  0.00     0.005 A 
ATOM     10  C   UNL A   1      29.230  27.105  24.096  1.00  0.00     0.004 A 
ATOM     11  C   UNL A   1      30.425  29.078  23.436  1.00  0.00     0.004 A 
ATOM     12  C   UNL A   1      29.304  28.253  23.297  1.00  0.00    -0.048 A 
BRANCH  12  13
ATOM     13  C   UNL A   1      28.152  28.614  22.385  1.00  0.00     0.041 C 
BRANCH  13  14
ATOM     14  C   UNL A   1      27.679  30.073  22.303  1.00  0.00     0.022 C 
ATOM     15  C   UNL A   1      27.807  30.899  23.598  1.00  0.00     0.007 C 
ATOM     16  C   UNL A   1      28.238  30.960  21.175  1.00  0.00     0.117 C 
ATOM     17  C   UNL A   1      28.482  32.205  23.199  1.00  0.00     0.003 C 
ATOM     18  C   UNL A   1      28.124  32.377  21.730  1.00  0.00     0.032 C 
BRANCH  16  19
ATOM     19  O   UNL A   1      29.593  30.709  20.834  1.00  0.00    -0.393 OA
ATOM     20  H   UNL A   1      29.772  31.051  19.945  1.00  0.00     0.210 HD
ENDBRANCH  16  19
ENDBRANCH  13  14
ENDBRANCH  12  13
ENDBRANCH   5   7
ENDBRANCH   3   5
ENDBRANCH   2   3
ENDBRANCH   1   2
BRANCH   1  21
ATOM     21  C   UNL A   1      34.128  31.363  28.077  1.00  0.00     0.275 C 
BRANCH  21  22
ATOM     22  O   UNL A   1      35.511  30.992  27.946  1.00  0.00    -0.458 OA
BRANCH  22  23
ATOM     23  C   UNL A   1      35.964  30.062  28.818  1.00  0.00     0.338 C 
ATOM     24  O   UNL A   1      35.302  29.418  29.614  1.00  0.00    -0.246 OA
BRANCH  23  25
ATOM     25  C   UNL A   1      37.429  29.922  28.685  1.00  0.00     0.060 A 
ATOM     26  C   UNL A   1      38.027  29.891  27.428  1.00  0.00     0.016 A 
ATOM     27  C   UNL A   1      38.202  29.701  29.826  1.00  0.00     0.016 A 
ATOM     28  C   UNL A   1      39.373  29.536  27.312  1.00  0.00     0.010 A 
ATOM     29  C   UNL A   1      39.572  29.433  29.706  1.00  0.00     0.010 A 
ATOM     30  C   UNL A   1      40.170  29.290  28.443  1.00  0.00    -0.014 A 
BRANCH  30  31
ATOM     31  C   UNL A   1      41.583  28.811  28.305  1.00  0.00     0.031 A 
ATOM     32  C   UNL A   1      42.744  29.742  28.592  1.00  0.00     0.074 A 
ATOM     33  C   UNL A   1      41.864  27.533  27.976  1.00  0.00     0.049 A 
ATOM     34  N   UNL A   1      44.019  29.576  28.340  1.00  0.00    -0.248 NA
ATOM     35  C   UNL A   1      42.430  31.027  29.239  1.00  0.00     0.031 C 
ATOM     36  C   UNL A   1      40.880  26.478  27.733  1.00  0.00     0.029 A 
ATOM     37  N   UNL A   1      43.073  26.894  27.816  1.00  0.00    -0.354 N 
ATOM     38  C   UNL A   1      44.642  30.764  28.709  1.00  0.00     0.074 A 
ATOM     39  C   UNL A   1      43.609  31.634  29.230  1.00  0.00     0.031 C 
ATOM     40  C   UNL A   1      41.518  25.314  27.534  1.00  0.00     0.029 A 
ATOM     41  C   UNL A   1      42.955  25.557  27.517  1.00  0.00     0.049 A 
ATOM     42  H   UNL A   1      43.939  27.352  27.906  1.00  0.00     0.167 HD
ATOM     43  C   UNL A   1      45.950  31.108  28.609  1.00  0.00     0.031 A 
ATOM     44  C   UNL A   1      43.885  24.629  27.215  1.00  0.00     0.031 A 
ATOM     45  C   UNL A   1      46.997  30.227  28.160  1.00  0.00     0.049 A 
ATOM     46  C   UNL A   1      45.328  25.024  27.112  1.00  0.00     0.074 A 
ATOM     47  C   UNL A   1      48.348  30.498  28.015  1.00  0.00     0.029 A 
ATOM     48  N   UNL A   1      46.820  28.897  27.818  1.00  0.00    -0.354 N 
ATOM     49  N   UNL A   1      45.877  26.194  27.333  1.00  0.00    -0.248 NA
ATOM     50  C   UNL A   1      46.272  23.982  26.683  1.00  0.00     0.031 C 
ATOM     51  C   UNL A   1      48.984  29.336  27.563  1.00  0.00     0.029 A 
ATOM     52  C   UNL A   1      48.035  28.333  27.464  1.00  0.00     0.049 A 
ATOM     53  H   UNL A   1      45.958  28.422  27.826  1.00  0.00     0.167 HD
ATOM     54  C   UNL A   1      47.229  26.033  27.049  1.00  0.00     0.074 A 
ATOM     55  C   UNL A   1      47.421  24.646  26.679  1.00  0.00     0.031 C 
ATOM     56  C   UNL A   1      48.217  26.959  27.077  1.00  0.00     0.031 A 
BRANCH  43  57
ATOM     57  C   UNL A   1      46.325  32.529  28.939  1.00  0.00    -0.014 A 
ATOM     58  C   UNL A   1      46.765  32.899  30.222  1.00  0.00     0.010 A 
ATOM     59  C   UNL A   1      46.284  33.501  27.921  1.00  0.00     0.010 A 
ATOM     60  C   UNL A   1      47.126  34.223  30.488  1.00  0.00     0.020 A 
ATOM     61  C   UNL A   1      46.665  34.820  28.178  1.00  0.00     0.020 A 
ATOM     62  C   UNL A   1      47.068  35.177  29.465  1.00  0.00     0.054 A 
BRANCH  62  63
ATOM     63  S   UNL A   1      47.566  36.885  29.825  1.00  0.00     0.124 S 
ATOM     64  O   UNL A   1      47.293  37.550  28.553  1.00  0.00    -0.237 OA
ATOM     65  O   UNL A   1      46.682  37.255  30.928  1.00  0.00    -0.237 OA
ATOM     66  O   UNL A   1      48.978  36.766  30.177  1.00  0.00    -0.744 OA
ENDBRANCH  62  63
ENDBRANCH  43  57
BRANCH  44  67
ATOM     67  C   UNL A   1      43.454  23.236  26.915  1.00  0.00    -0.014 A 
ATOM     68  C   UNL A   1      43.775  22.640  25.683  1.00  0.00     0.010 A 
ATOM     69  C   UNL A   1      42.763  22.486  27.882  1.00  0.00     0.010 A 
ATOM     70  C   UNL A   1      43.424  21.310  25.431  1.00  0.00     0.020 A 
ATOM     71  C   UNL A   1      42.436  21.149  27.645  1.00  0.00     0.020 A 
ATOM     72  C   UNL A   1      42.764  20.571  26.418  1.00  0.00     0.054 A 
BRANCH  72  73
ATOM     73  S   UNL A   1      42.412  18.815  26.127  1.00  0.00     0.124 S 
ATOM     74  O   UNL A   1      42.667  18.234  27.441  1.00  0.00    -0.237 OA
ATOM     75  O   UNL A   1      41.014  18.830  25.703  1.00  0.00    -0.237 OA
ATOM     76  O   UNL A   1      43.365  18.451  25.081  1.00  0.00    -0.744 OA
ENDBRANCH  72  73
ENDBRANCH  44  67
BRANCH  56  77
ATOM     77  C   UNL A   1      49.597  26.504  26.693  1.00  0.00    -0.014 A 
ATOM     78  C   UNL A   1      50.027  26.569  25.355  1.00  0.00     0.010 A 
ATOM     79  C   UNL A   1      50.481  26.032  27.679  1.00  0.00     0.010 A 
ATOM     80  C   UNL A   1      51.311  26.139  25.005  1.00  0.00     0.020 A 
ATOM     81  C   UNL A   1      51.771  25.619  27.334  1.00  0.00     0.020 A 
ATOM     82  C   UNL A   1      52.172  25.661  25.997  1.00  0.00     0.054 A 
BRANCH  82  83
ATOM     83  S   UNL A   1      53.843  25.130  25.526  1.00  0.00     0.124 S 
ATOM     84  O   UNL A   1      53.569  23.931  24.738  1.00  0.00    -0.237 OA
ATOM     85  O   UNL A   1      54.347  26.275  24.773  1.00  0.00    -0.237 OA
ATOM     86  O   UNL A   1      54.504  24.896  26.808  1.00  0.00    -0.744 OA
ENDBRANCH  82  83
ENDBRANCH  56  77
ENDBRANCH  30  31
ENDBRANCH  23  25
ENDBRANCH  22  23
ENDBRANCH  21  22
ENDBRANCH   1  21
TORSDOF 18
ENDMDL
MODEL 2
REMARK VINA RESULT:     -10.8      2.023      4.273
REMARK SMILES C[C@@H](C(=O)OCCOC(=O)c1ccc(-c2c3nc(c(-c4ccc(S(=O)(=O)[O-])cc4)c4ccc([nH]4)c(-c4ccc(S(=O)(=O)[O-])cc4)c4nc(c(-c5ccc(S(=O)(=O)[O-])cc5)c5ccc2[nH]5)C=C4)C=C3)cc1)c1ccc(C[C@H]2CCC[C@H]2O)cc1
REMARK SMILES IDX 6 1 5 2 3 3 4 4 2 5 1 6 71 7 72 8 83 9 73 10 82 11 74 12
REMARK SMILES IDX 75 13 76 14 77 15 80 16 78 17 79 18 81 19 7 21 8 22 9 23
REMARK SMILES IDX 10 24 11 25 12 26 70 27 13 28 69 29 14 30 15 31 16 32 63 33
REMARK SMILES IDX 17 34 68 35 62 36 64 37 18 38 67 39 61 40 60 41 19 43 49 44
REMARK SMILES IDX 30 45 48 46 31 47 34 48 47 49 65 50 32 51 33 52 46 54 66 55
REMARK SMILES IDX 35 56 20 57 21 58 29 59 22 60 28 61 23 62 24 63 25 64 26 65
REMARK SMILES IDX 27 66 50 67 51 68 59 69 52 70 58 71 53 72 54 73 55 74 56 75
REMARK SMILES IDX 57 76 36 77 37 78 45 79 38 80 44 81 39 82 40 83 41 84 42 85
REMARK SMILES IDX 43 86
REMARK H PARENT 81 20 64 42 34 53
REMARK Flexibility Score: inf
ROOT
ATOM      1  C   UNL A   1      33.909  30.250  26.877  1.00  0.00     0.274 C 
ENDROOT
BRANCH   1   2
ATOM      2  O   UNL A   1      33.574  29.710  25.583  1.00  0.00    -0.462 OA
BRANCH   2   3
ATOM      3  C   UNL A   1      32.252  29.694  25.252  1.00  0.00     0.313 C 
ATOM      4  O   UNL A   1      31.415  30.447  25.740  1.00  0.00    -0.252 OA
BRANCH   3   5
ATOM      5  C   UNL A   1      31.912  28.590  24.244  1.00  0.00     0.126 C 
ATOM      6  C   UNL A   1      30.417  28.494  23.915  1.00  0.00     0.025 C 
BRANCH   5   7
ATOM      7  C   UNL A   1      32.509  27.252  24.662  1.00  0.00    -0.034 A 
ATOM      8  C   UNL A   1      33.599  26.729  23.948  1.00  0.00     0.005 A 
ATOM      9  C   UNL A   1      32.057  26.541  25.781  1.00  0.00     0.005 A 
ATOM     10  C   UNL A   1      34.213  25.537  24.343  1.00  0.00     0.004 A 
ATOM     11  C   UNL A   1      32.674  25.348  26.174  1.00  0.00     0.004 A 
ATOM     12  C   UNL A   1      33.761  24.828  25.463  1.00  0.00    -0.048 A 
BRANCH  12  13
ATOM     13  C   UNL A   1      34.498  23.589  25.922  1.00  0.00     0.041 C 
BRANCH  13  14
ATOM     14  C   UNL A   1      35.648  23.033  25.069  1.00  0.00     0.022 C 
ATOM     15  C   UNL A   1      37.064  23.505  25.452  1.00  0.00     0.007 C 
ATOM     16  C   UNL A   1      35.745  21.507  24.879  1.00  0.00     0.117 C 
ATOM     17  C   UNL A   1      37.921  22.248  25.529  1.00  0.00     0.003 C 
ATOM     18  C   UNL A   1      37.225  21.265  24.599  1.00  0.00     0.032 C 
BRANCH  16  19
ATOM     19  O   UNL A   1      35.360  20.739  26.009  1.00  0.00    -0.393 OA
ATOM     20  H   UNL A   1      34.631  20.148  25.765  1.00  0.00     0.210 HD
ENDBRANCH  16  19
ENDBRANCH  13  14
ENDBRANCH  12  13
ENDBRANCH   5   7
ENDBRANCH   3   5
ENDBRANCH   2   3
ENDBRANCH   1   2
BRANCH   1  21
ATOM     21  C   UNL A   1      34.827  29.284  27.620  1.00  0.00     0.275 C 
BRANCH  21  22
ATOM     22  O   UNL A   1      36.017  29.982  28.023  1.00  0.00    -0.458 OA
BRANCH  22  23
ATOM     23  C   UNL A   1      36.667  29.482  29.099  1.00  0.00     0.338 C 
ATOM     24  O   UNL A   1      36.242  29.399  30.239  1.00  0.00    -0.246 OA
BRANCH  23  25
ATOM     25  C   UNL A   1      38.019  29.036  28.706  1.00  0.00     0.060 A 
ATOM     26  C   UNL A   1      38.775  28.228  29.551  1.00  0.00     0.016 A 
ATOM     27  C   UNL A   1      38.587  29.529  27.529  1.00  0.00     0.016 A 
ATOM     28  C   UNL A   1      40.124  28.003  29.269  1.00  0.00     0.010 A 
ATOM     29  C   UNL A   1      39.916  29.224  27.209  1.00  0.00     0.010 A 
ATOM     30  C   UNL A   1      40.725  28.502  28.101  1.00  0.00    -0.014 A 
BRANCH  30  31
ATOM     31  C   UNL A   1      42.195  28.341  27.858  1.00  0.00     0.031 A 
ATOM     32  C   UNL A   1      43.166  29.433  28.259  1.00  0.00     0.074 A 
ATOM     33  C   UNL A   1      42.701  27.206  27.331  1.00  0.00     0.049 A 
ATOM     34  N   UNL A   1      44.434  29.565  27.955  1.00  0.00    -0.248 NA
ATOM     35  C   UNL A   1      42.643  30.521  29.102  1.00  0.00     0.031 C 
ATOM     36  C   UNL A   1      41.930  26.022  26.952  1.00  0.00     0.029 A 
ATOM     37  N   UNL A   1      44.001  26.853  27.047  1.00  0.00    -0.354 N 
ATOM     38  C   UNL A   1      44.833  30.787  28.487  1.00  0.00     0.074 A 
ATOM     39  C   UNL A   1      43.680  31.346  29.159  1.00  0.00     0.031 C 
ATOM     40  C   UNL A   1      42.770  25.052  26.562  1.00  0.00     0.029 A 
ATOM     41  C   UNL A   1      44.130  25.578  26.550  1.00  0.00     0.049 A 
ATOM     42  H   UNL A   1      44.766  27.457  27.187  1.00  0.00     0.167 HD
ATOM     43  C   UNL A   1      46.042  31.397  28.411  1.00  0.00     0.031 A 
ATOM     44  C   UNL A   1      45.205  24.908  26.087  1.00  0.00     0.031 A 
ATOM     45  C   UNL A   1      47.215  30.818  27.809  1.00  0.00     0.049 A 
ATOM     46  C   UNL A   1      46.537  25.596  26.014  1.00  0.00     0.074 A 
ATOM     47  C   UNL A   1      48.478  31.372  27.676  1.00  0.00     0.029 A 
ATOM     48  N   UNL A   1      47.281  29.544  27.270  1.00  0.00    -0.354 N 
ATOM     49  N   UNL A   1      46.859  26.807  26.398  1.00  0.00    -0.248 NA
ATOM     50  C   UNL A   1      47.641  24.838  25.408  1.00  0.00     0.031 C 
ATOM     51  C   UNL A   1      49.303  30.440  27.036  1.00  0.00     0.029 A 
ATOM     52  C   UNL A   1      48.563  29.292  26.806  1.00  0.00     0.049 A 
ATOM     53  H   UNL A   1      46.531  28.910  27.225  1.00  0.00     0.167 HD
ATOM     54  C   UNL A   1      48.199  26.963  26.062  1.00  0.00     0.074 A 
ATOM     55  C   UNL A   1      48.637  25.711  25.480  1.00  0.00     0.031 C 
ATOM     56  C   UNL A   1      48.988  28.054  26.209  1.00  0.00     0.031 A 
BRANCH  43  57
ATOM     57  C   UNL A   1      46.150  32.800  28.946  1.00  0.00    -0.014 A 
ATOM     58  C   UNL A   1      46.570  33.059  30.263  1.00  0.00     0.010 A 
ATOM     59  C   UNL A   1      45.875  33.882  28.088  1.00  0.00     0.010 A 
ATOM     60  C   UNL A   1      46.680  34.376  30.720  1.00  0.00     0.020 A 
ATOM     61  C   UNL A   1      46.006  35.199  28.536  1.00  0.00     0.020 A 
ATOM     62  C   UNL A   1      46.391  35.437  29.855  1.00  0.00     0.054 A 
BRANCH  62  63
ATOM     63  S   UNL A   1      46.566  37.139  30.461  1.00  0.00     0.124 S 
ATOM     64  O   UNL A   1      46.570  37.901  29.215  1.00  0.00    -0.237 OA
ATOM     65  O   UNL A   1      45.379  37.310  31.296  1.00  0.00    -0.237 OA
ATOM     66  O   UNL A   1      47.834  37.120  31.185  1.00  0.00    -0.744 OA
ENDBRANCH  62  63
ENDBRANCH  43  57
BRANCH  44  67
ATOM     67  C   UNL A   1      45.038  23.517  25.587  1.00  0.00    -0.014 A 
ATOM     68  C   UNL A   1      44.670  23.278  24.252  1.00  0.00     0.010 A 
ATOM     69  C   UNL A   1      45.296  22.425  26.435  1.00  0.00     0.010 A 
ATOM     70  C   UNL A   1      44.577  21.969  23.770  1.00  0.00     0.020 A 
ATOM     71  C   UNL A   1      45.232  21.118  25.949  1.00  0.00     0.020 A 
ATOM     72  C   UNL A   1      44.868  20.897  24.620  1.00  0.00     0.054 A 
BRANCH  72  73
ATOM     73  S   UNL A   1      44.854  19.208  23.958  1.00  0.00     0.124 S 
ATOM     74  O   UNL A   1      44.410  19.425  22.585  1.00  0.00    -0.237 OA
ATOM     75  O   UNL A   1      46.244  18.787  24.114  1.00  0.00    -0.237 OA
ATOM     76  O   UNL A   1      43.903  18.516  24.825  1.00  0.00    -0.744 OA
ENDBRANCH  72  73
ENDBRANCH  44  67
BRANCH  56  77
ATOM     77  C   UNL A   1      50.407  27.945  25.727  1.00  0.00    -0.014 A 
ATOM     78  C   UNL A   1      51.425  27.494  26.587  1.00  0.00     0.010 A 
ATOM     79  C   UNL A   1      50.724  28.270  24.396  1.00  0.00     0.010 A 
ATOM     80  C   UNL A   1      52.743  27.400  26.133  1.00  0.00     0.020 A 
ATOM     81  C   UNL A   1      52.039  28.160  23.934  1.00  0.00     0.020 A 
ATOM     82  C   UNL A   1      53.043  27.740  24.810  1.00  0.00     0.054 A 
BRANCH  82  83
ATOM     83  S   UNL A   1      54.757  27.589  24.232  1.00  0.00     0.124 S 
ATOM     84  O   UNL A   1      54.624  27.892  22.810  1.00  0.00    -0.237 OA
ATOM     85  O   UNL A   1      55.456  28.595  25.027  1.00  0.00    -0.237 OA
ATOM     86  O   UNL A   1      55.105  26.205  24.546  1.00  0.00    -0.744 OA
ENDBRANCH  82  83
ENDBRANCH  56  77
ENDBRANCH  30  31
ENDBRANCH  23  25
ENDBRANCH  22  23
ENDBRANCH  21  22
ENDBRANCH   1  21
TORSDOF 18
ENDMDL
MODEL 3
REMARK VINA RESULT:     -10.7      5.252     12.200
REMARK SMILES C[C@@H](C(=O)OCCOC(=O)c1ccc(-c2c3nc(c(-c4ccc(S(=O)(=O)[O-])cc4)c4ccc([nH]4)c(-c4ccc(S(=O)(=O)[O-])cc4)c4nc(c(-c5ccc(S(=O)(=O)[O-])cc5)c5ccc2[nH]5)C=C4)C=C3)cc1)c1ccc(C[C@H]2CCC[C@H]2O)cc1
REMARK SMILES IDX 6 1 5 2 3 3 4 4 2 5 1 6 71 7 72 8 83 9 73 10 82 11 74 12
REMARK SMILES IDX 75 13 76 14 77 15 80 16 78 17 79 18 81 19 7 21 8 22 9 23
REMARK SMILES IDX 10 24 11 25 12 26 70 27 13 28 69 29 14 30 15 31 16 32 63 33
REMARK SMILES IDX 17 34 68 35 62 36 64 37 18 38 67 39 61 40 60 41 19 43 49 44
REMARK SMILES IDX 30 45 48 46 31 47 34 48 47 49 65 50 32 51 33 52 46 54 66 55
REMARK SMILES IDX 35 56 20 57 21 58 29 59 22 60 28 61 23 62 24 63 25 64 26 65
REMARK SMILES IDX 27 66 50 67 51 68 59 69 52 70 58 71 53 72 54 73 55 74 56 75
REMARK SMILES IDX 57 76 36 77 37 78 45 79 38 80 44 81 39 82 40 83 41 84 42 85
REMARK SMILES IDX 43 86
REMARK H PARENT 81 20 64 42 34 53
REMARK Flexibility Score: inf
ROOT
ATOM      1  C   UNL A   1      41.642  19.813  26.473  1.00  0.00     0.274 C 
ENDROOT
BRANCH   1   2
ATOM      2  O   UNL A   1      42.454  20.159  25.334  1.00  0.00    -0.462 OA
BRANCH   2   3
ATOM      3  C   UNL A   1      43.537  20.952  25.574  1.00  0.00     0.313 C 
ATOM      4  O   UNL A   1      44.682  20.528  25.693  1.00  0.00    -0.252 OA
BRANCH   3   5
ATOM      5  C   UNL A   1      43.158  22.428  25.737  1.00  0.00     0.126 C 
ATOM      6  C   UNL A   1      43.584  23.309  24.556  1.00  0.00     0.025 C 
BRANCH   5   7
ATOM      7  C   UNL A   1      43.626  22.977  27.080  1.00  0.00    -0.034 A 
ATOM      8  C   UNL A   1      44.975  23.329  27.250  1.00  0.00     0.005 A 
ATOM      9  C   UNL A   1      42.748  23.211  28.146  1.00  0.00     0.005 A 
ATOM     10  C   UNL A   1      45.425  23.895  28.446  1.00  0.00     0.004 A 
ATOM     11  C   UNL A   1      43.202  23.779  29.341  1.00  0.00     0.004 A 
ATOM     12  C   UNL A   1      44.546  24.130  29.510  1.00  0.00    -0.048 A 
BRANCH  12  13
ATOM     13  C   UNL A   1      45.040  24.825  30.760  1.00  0.00     0.041 C 
BRANCH  13  14
ATOM     14  C   UNL A   1      44.247  24.690  32.068  1.00  0.00     0.022 C 
ATOM     15  C   UNL A   1      44.199  23.278  32.686  1.00  0.00     0.007 C 
ATOM     16  C   UNL A   1      44.576  25.651  33.225  1.00  0.00     0.117 C 
ATOM     17  C   UNL A   1      44.554  23.451  34.157  1.00  0.00     0.003 C 
ATOM     18  C   UNL A   1      44.149  24.884  34.473  1.00  0.00     0.032 C 
BRANCH  16  19
ATOM     19  O   UNL A   1      45.949  25.994  33.345  1.00  0.00    -0.393 OA
ATOM     20  H   UNL A   1      46.486  25.350  32.859  1.00  0.00     0.210 HD
ENDBRANCH  16  19
ENDBRANCH  13  14
ENDBRANCH  12  13
ENDBRANCH   5   7
ENDBRANCH   3   5
ENDBRANCH   2   3
ENDBRANCH   1   2
BRANCH   1  21
ATOM     21  C   UNL A   1      40.199  20.245  26.233  1.00  0.00     0.275 C 
BRANCH  21  22
ATOM     22  O   UNL A   1      39.961  21.490  26.910  1.00  0.00    -0.458 OA
BRANCH  22  23
ATOM     23  C   UNL A   1      39.126  22.357  26.291  1.00  0.00     0.338 C 
ATOM     24  O   UNL A   1      38.239  22.084  25.500  1.00  0.00    -0.246 OA
BRANCH  23  25
ATOM     25  C   UNL A   1      39.444  23.739  26.705  1.00  0.00     0.060 A 
ATOM     26  C   UNL A   1      40.045  24.626  25.816  1.00  0.00     0.016 A 
ATOM     27  C   UNL A   1      39.246  24.118  28.035  1.00  0.00     0.016 A 
ATOM     28  C   UNL A   1      40.540  25.845  26.285  1.00  0.00     0.010 A 
ATOM     29  C   UNL A   1      39.665  25.380  28.476  1.00  0.00     0.010 A 
ATOM     30  C   UNL A   1      40.370  26.244  27.622  1.00  0.00    -0.014 A 
BRANCH  30  31
ATOM     31  C   UNL A   1      40.992  27.506  28.138  1.00  0.00     0.031 A 
ATOM     32  C   UNL A   1      42.488  27.726  28.034  1.00  0.00     0.074 A 
ATOM     33  C   UNL A   1      40.241  28.500  28.657  1.00  0.00     0.049 A 
ATOM     34  N   UNL A   1      43.229  28.651  28.594  1.00  0.00    -0.248 NA
ATOM     35  C   UNL A   1      43.250  26.782  27.200  1.00  0.00     0.031 C 
ATOM     36  C   UNL A   1      38.782  28.497  28.772  1.00  0.00     0.029 A 
ATOM     37  N   UNL A   1      40.606  29.727  29.163  1.00  0.00    -0.354 N 
ATOM     38  C   UNL A   1      44.544  28.346  28.259  1.00  0.00     0.074 A 
ATOM     39  C   UNL A   1      44.499  27.166  27.421  1.00  0.00     0.031 C 
ATOM     40  C   UNL A   1      38.372  29.686  29.237  1.00  0.00     0.029 A 
ATOM     41  C   UNL A   1      39.539  30.497  29.565  1.00  0.00     0.049 A 
ATOM     42  H   UNL A   1      41.541  30.025  29.230  1.00  0.00     0.167 HD
ATOM     43  C   UNL A   1      45.687  28.978  28.626  1.00  0.00     0.031 A 
ATOM     44  C   UNL A   1      39.490  31.698  30.174  1.00  0.00     0.031 A 
ATOM     45  C   UNL A   1      45.740  30.192  29.398  1.00  0.00     0.049 A 
ATOM     46  C   UNL A   1      40.763  32.387  30.569  1.00  0.00     0.074 A 
ATOM     47  C   UNL A   1      46.855  30.893  29.827  1.00  0.00     0.029 A 
ATOM     48  N   UNL A   1      44.633  30.905  29.828  1.00  0.00    -0.354 N 
ATOM     49  N   UNL A   1      42.001  32.009  30.362  1.00  0.00    -0.248 NA
ATOM     50  C   UNL A   1      40.631  33.646  31.316  1.00  0.00     0.031 C 
ATOM     51  C   UNL A   1      46.422  32.019  30.536  1.00  0.00     0.029 A 
ATOM     52  C   UNL A   1      45.038  32.039  30.515  1.00  0.00     0.049 A 
ATOM     53  H   UNL A   1      43.697  30.646  29.669  1.00  0.00     0.167 HD
ATOM     54  C   UNL A   1      42.795  32.974  30.970  1.00  0.00     0.074 A 
ATOM     55  C   UNL A   1      41.901  33.972  31.519  1.00  0.00     0.031 C 
ATOM     56  C   UNL A   1      44.145  33.017  31.077  1.00  0.00     0.031 A 
BRANCH  43  57
ATOM     57  C   UNL A   1      46.993  28.334  28.244  1.00  0.00    -0.014 A 
ATOM     58  C   UNL A   1      47.726  28.756  27.121  1.00  0.00     0.010 A 
ATOM     59  C   UNL A   1      47.521  27.319  29.066  1.00  0.00     0.010 A 
ATOM     60  C   UNL A   1      48.947  28.149  26.809  1.00  0.00     0.020 A 
ATOM     61  C   UNL A   1      48.751  26.727  28.769  1.00  0.00     0.020 A 
ATOM     62  C   UNL A   1      49.448  27.135  27.632  1.00  0.00     0.054 A 
BRANCH  62  63
ATOM     63  S   UNL A   1      51.048  26.380  27.223  1.00  0.00     0.124 S 
ATOM     64  O   UNL A   1      51.916  26.942  28.255  1.00  0.00    -0.237 OA
ATOM     65  O   UNL A   1      50.772  24.951  27.346  1.00  0.00    -0.237 OA
ATOM     66  O   UNL A   1      51.312  26.844  25.864  1.00  0.00    -0.744 OA
ENDBRANCH  62  63
ENDBRANCH  43  57
BRANCH  44  67
ATOM     67  C   UNL A   1      38.168  32.292  30.510  1.00  0.00    -0.014 A 
ATOM     68  C   UNL A   1      37.529  31.972  31.721  1.00  0.00     0.010 A 
ATOM     69  C   UNL A   1      37.566  33.218  29.640  1.00  0.00     0.010 A 
ATOM     70  C   UNL A   1      36.317  32.582  32.061  1.00  0.00     0.020 A 
ATOM     71  C   UNL A   1      36.371  33.850  29.989  1.00  0.00     0.020 A 
ATOM     72  C   UNL A   1      35.751  33.524  31.196  1.00  0.00     0.054 A 
BRANCH  72  73
ATOM     73  S   UNL A   1      34.238  34.392  31.695  1.00  0.00     0.124 S 
ATOM     74  O   UNL A   1      34.772  35.613  32.289  1.00  0.00    -0.237 OA
ATOM     75  O   UNL A   1      33.529  34.562  30.429  1.00  0.00    -0.237 OA
ATOM     76  O   UNL A   1      33.610  33.461  32.629  1.00  0.00    -0.744 OA
ENDBRANCH  72  73
ENDBRANCH  44  67
BRANCH  56  77
ATOM     77  C   UNL A   1      44.738  34.180  31.821  1.00  0.00    -0.014 A 
ATOM     78  C   UNL A   1      45.056  35.375  31.149  1.00  0.00     0.010 A 
ATOM     79  C   UNL A   1      44.955  34.090  33.207  1.00  0.00     0.010 A 
ATOM     80  C   UNL A   1      45.612  36.450  31.848  1.00  0.00     0.020 A 
ATOM     81  C   UNL A   1      45.495  35.171  33.911  1.00  0.00     0.020 A 
ATOM     82  C   UNL A   1      45.834  36.339  33.223  1.00  0.00     0.054 A 
BRANCH  82  83
ATOM     83  S   UNL A   1      46.535  37.755  34.117  1.00  0.00     0.124 S 
ATOM     84  O   UNL A   1      46.294  38.852  33.182  1.00  0.00    -0.237 OA
ATOM     85  O   UNL A   1      45.742  37.789  35.343  1.00  0.00    -0.237 OA
ATOM     86  O   UNL A   1      47.937  37.387  34.299  1.00  0.00    -0.744 OA
ENDBRANCH  82  83
ENDBRANCH  56  77
ENDBRANCH  30  31
ENDBRANCH  23  25
ENDBRANCH  22  23
ENDBRANCH  21  22
ENDBRANCH   1  21
TORSDOF 18
ENDMDL
