MODEL 1
REMARK VINA RESULT:     -11.1      0.000      0.000
REMARK SMILES CCCc1cc(OC(F)(F)F)cc2c1O[C@H](C(F)(F)F)C(C(=O)OCCOC(=O)c1ccc(-c3c4nc(c(-c5ccc(S(=O)(=O)[O-])cc5)c5ccc([nH]5)c(-c5ccc(S(=O)(=O)[O-])cc5)c5nc(c(-c6ccc(S(=O)(=O)[O-])cc6)c6ccc3[nH]6)C=C5)C=C4)cc1)=C2
REMARK SMILES IDX 26 1 25 2 24 3 22 4 23 5 21 6 4 7 5 8 14 9 6 10 13 11 15 12
REMARK SMILES IDX 12 13 90 14 16 15 3 16 2 17 1 18 7 19 8 20 9 21 10 22 11 23
REMARK SMILES IDX 17 24 18 25 19 26 20 27 27 28 28 29 29 30 30 31 31 32 89 33
REMARK SMILES IDX 32 34 88 35 33 36 34 37 35 38 82 39 36 40 87 41 81 42 83 43
REMARK SMILES IDX 37 44 86 45 80 46 79 47 38 49 68 50 49 51 67 52 50 53 53 54
REMARK SMILES IDX 66 55 84 56 51 57 52 58 65 60 85 61 54 62 39 63 40 64 48 65
REMARK SMILES IDX 41 66 47 67 42 68 43 69 44 70 45 71 46 72 69 73 70 74 78 75
REMARK SMILES IDX 71 76 77 77 72 78 73 79 74 80 75 81 76 82 55 83 56 84 64 85
REMARK SMILES IDX 57 86 63 87 58 88 59 89 60 90 61 91 62 92
REMARK H PARENT 83 48 53 59
REMARK Flexibility Score: inf
ROOT
ATOM      1  C   UNL A   1      34.414  29.213  27.565  1.00  0.00     0.275 C 
ENDROOT
BRANCH   1   2
ATOM      2  C   UNL A   1      33.035  29.617  27.041  1.00  0.00     0.275 C 
BRANCH   2   3
ATOM      3  O   UNL A   1      32.606  28.734  25.982  1.00  0.00    -0.459 OA
BRANCH   3   4
ATOM      4  C   UNL A   1      32.193  27.514  26.402  1.00  0.00     0.338 C 
ATOM      5  O   UNL A   1      31.415  27.288  27.316  1.00  0.00    -0.246 OA
BRANCH   4   6
ATOM      6  C   UNL A   1      32.748  26.430  25.579  1.00  0.00     0.087 C 
ATOM      7  C   UNL A   1      33.549  22.674  23.941  1.00  0.00    -0.002 A 
ATOM      8  C   UNL A   1      34.897  22.265  23.861  1.00  0.00     0.054 A 
ATOM      9  C   UNL A   1      33.288  23.923  24.516  1.00  0.00     0.131 A 
ATOM     10  C   UNL A   1      35.939  23.071  24.336  1.00  0.00     0.130 A 
ATOM     11  C   UNL A   1      34.325  24.734  25.025  1.00  0.00     0.021 A 
ATOM     12  O   UNL A   1      31.982  24.326  24.619  1.00  0.00    -0.475 OA
ATOM     13  C   UNL A   1      35.645  24.305  24.920  1.00  0.00     0.058 A 
ATOM     14  C   UNL A   1      33.993  25.968  25.745  1.00  0.00     0.027 C 
ATOM     15  C   UNL A   1      31.789  25.757  24.637  1.00  0.00     0.316 C 
BRANCH   7  16
ATOM     16  C   UNL A   1      32.486  21.677  23.506  1.00  0.00     0.039 C 
BRANCH  16  17
ATOM     17  C   UNL A   1      32.338  20.321  24.212  1.00  0.00     0.001 C 
ATOM     18  C   UNL A   1      32.410  19.133  23.268  1.00  0.00     0.004 C 
ENDBRANCH  16  17
ENDBRANCH   7  16
BRANCH  10  19
ATOM     19  O   UNL A   1      37.272  22.769  24.312  1.00  0.00    -0.406 OA
BRANCH  19  20
ATOM     20  C   UNL A   1      37.712  21.658  25.071  1.00  0.00     0.573 C 
ATOM     21  F   UNL A   1      36.976  21.512  26.194  1.00  0.00    -0.132 F 
ATOM     22  F   UNL A   1      37.667  20.521  24.346  1.00  0.00    -0.132 F 
ATOM     23  F   UNL A   1      38.996  21.871  25.439  1.00  0.00    -0.132 F 
ENDBRANCH  19  20
ENDBRANCH  10  19
BRANCH  15  24
ATOM     24  C   UNL A   1      31.855  26.371  23.224  1.00  0.00     0.430 C 
ATOM     25  F   UNL A   1      30.872  27.288  23.045  1.00  0.00    -0.167 F 
ATOM     26  F   UNL A   1      33.024  27.008  22.979  1.00  0.00    -0.167 F 
ATOM     27  F   UNL A   1      31.698  25.427  22.269  1.00  0.00    -0.167 F 
ENDBRANCH  15  24
ENDBRANCH   4   6
ENDBRANCH   3   4
ENDBRANCH   2   3
ENDBRANCH   1   2
BRANCH   1  28
ATOM     28  O   UNL A   1      35.264  30.371  27.620  1.00  0.00    -0.458 OA
BRANCH  28  29
ATOM     29  C   UNL A   1      35.943  30.554  28.777  1.00  0.00     0.338 C 
ATOM     30  O   UNL A   1      35.509  31.096  29.785  1.00  0.00    -0.246 OA
BRANCH  29  31
ATOM     31  C   UNL A   1      37.313  29.989  28.668  1.00  0.00     0.060 A 
ATOM     32  C   UNL A   1      38.044  29.627  29.800  1.00  0.00     0.016 A 
ATOM     33  C   UNL A   1      37.916  29.884  27.413  1.00  0.00     0.016 A 
ATOM     34  C   UNL A   1      39.391  29.272  29.696  1.00  0.00     0.010 A 
ATOM     35  C   UNL A   1      39.230  29.405  27.301  1.00  0.00     0.010 A 
ATOM     36  C   UNL A   1      40.001  29.121  28.443  1.00  0.00    -0.014 A 
BRANCH  36  37
ATOM     37  C   UNL A   1      41.424  28.673  28.322  1.00  0.00     0.031 A 
ATOM     38  C   UNL A   1      42.558  29.659  28.492  1.00  0.00     0.074 A 
ATOM     39  C   UNL A   1      41.724  27.386  28.039  1.00  0.00     0.049 A 
ATOM     40  N   UNL A   1      43.824  29.522  28.188  1.00  0.00    -0.248 NA
ATOM     41  C   UNL A   1      42.219  30.976  29.053  1.00  0.00     0.031 C 
ATOM     42  C   UNL A   1      40.758  26.296  27.880  1.00  0.00     0.029 A 
ATOM     43  N   UNL A   1      42.939  26.773  27.839  1.00  0.00    -0.354 N 
ATOM     44  C   UNL A   1      44.415  30.755  28.445  1.00  0.00     0.074 A 
ATOM     45  C   UNL A   1      43.369  31.626  28.938  1.00  0.00     0.031 C 
ATOM     46  C   UNL A   1      41.415  25.148  27.664  1.00  0.00     0.029 A 
ATOM     47  C   UNL A   1      42.842  25.430  27.559  1.00  0.00     0.049 A 
ATOM     48  H   UNL A   1      43.799  27.251  27.890  1.00  0.00     0.167 HD
ATOM     49  C   UNL A   1      45.707  31.132  28.280  1.00  0.00     0.031 A 
ATOM     50  C   UNL A   1      43.774  24.525  27.203  1.00  0.00     0.031 A 
ATOM     51  C   UNL A   1      46.765  30.251  27.854  1.00  0.00     0.049 A 
ATOM     52  C   UNL A   1      45.198  24.963  27.021  1.00  0.00     0.074 A 
ATOM     53  C   UNL A   1      48.109  30.541  27.679  1.00  0.00     0.029 A 
ATOM     54  N   UNL A   1      46.609  28.905  27.565  1.00  0.00    -0.354 N 
ATOM     55  N   UNL A   1      45.720  26.153  27.189  1.00  0.00    -0.248 NA
ATOM     56  C   UNL A   1      46.153  23.939  26.575  1.00  0.00     0.031 C 
ATOM     57  C   UNL A   1      48.757  29.377  27.251  1.00  0.00     0.029 A 
ATOM     58  C   UNL A   1      47.828  28.352  27.204  1.00  0.00     0.049 A 
ATOM     59  H   UNL A   1      45.757  28.413  27.609  1.00  0.00     0.167 HD
ATOM     60  C   UNL A   1      47.065  26.022  26.869  1.00  0.00     0.074 A 
ATOM     61  C   UNL A   1      47.284  24.631  26.526  1.00  0.00     0.031 C 
ATOM     62  C   UNL A   1      48.032  26.971  26.854  1.00  0.00     0.031 A 
BRANCH  49  63
ATOM     63  C   UNL A   1      46.051  32.579  28.517  1.00  0.00    -0.014 A 
ATOM     64  C   UNL A   1      45.967  33.537  27.492  1.00  0.00     0.010 A 
ATOM     65  C   UNL A   1      46.418  32.994  29.812  1.00  0.00     0.010 A 
ATOM     66  C   UNL A   1      46.281  34.876  27.749  1.00  0.00     0.020 A 
ATOM     67  C   UNL A   1      46.708  34.335  30.078  1.00  0.00     0.020 A 
ATOM     68  C   UNL A   1      46.655  35.266  29.039  1.00  0.00     0.054 A 
BRANCH  68  69
ATOM     69  S   UNL A   1      47.033  37.012  29.354  1.00  0.00     0.124 S 
ATOM     70  O   UNL A   1      48.484  37.038  29.196  1.00  0.00    -0.237 OA
ATOM     71  O   UNL A   1      46.276  37.700  28.311  1.00  0.00    -0.237 OA
ATOM     72  O   UNL A   1      46.550  37.232  30.715  1.00  0.00    -0.744 OA
ENDBRANCH  68  69
ENDBRANCH  49  63
BRANCH  50  73
ATOM     73  C   UNL A   1      43.371  23.117  26.936  1.00  0.00    -0.014 A 
ATOM     74  C   UNL A   1      43.453  22.587  25.638  1.00  0.00     0.010 A 
ATOM     75  C   UNL A   1      42.931  22.292  27.988  1.00  0.00     0.010 A 
ATOM     76  C   UNL A   1      43.103  21.254  25.396  1.00  0.00     0.020 A 
ATOM     77  C   UNL A   1      42.609  20.953  27.755  1.00  0.00     0.020 A 
ATOM     78  C   UNL A   1      42.689  20.444  26.458  1.00  0.00     0.054 A 
BRANCH  78  79
ATOM     79  S   UNL A   1      42.318  18.696  26.142  1.00  0.00     0.124 S 
ATOM     80  O   UNL A   1      43.286  18.365  25.102  1.00  0.00    -0.237 OA
ATOM     81  O   UNL A   1      42.551  18.079  27.445  1.00  0.00    -0.237 OA
ATOM     82  O   UNL A   1      40.920  18.719  25.716  1.00  0.00    -0.744 OA
ENDBRANCH  78  79
ENDBRANCH  50  73
BRANCH  62  83
ATOM     83  C   UNL A   1      49.419  26.532  26.473  1.00  0.00    -0.014 A 
ATOM     84  C   UNL A   1      50.265  25.913  27.411  1.00  0.00     0.010 A 
ATOM     85  C   UNL A   1      49.872  26.720  25.155  1.00  0.00     0.010 A 
ATOM     86  C   UNL A   1      51.556  25.522  27.045  1.00  0.00     0.020 A 
ATOM     87  C   UNL A   1      51.155  26.311  24.781  1.00  0.00     0.020 A 
ATOM     88  C   UNL A   1      51.995  25.729  25.734  1.00  0.00     0.054 A 
BRANCH  88  89
ATOM     89  S   UNL A   1      53.666  25.195  25.274  1.00  0.00     0.124 S 
ATOM     90  O   UNL A   1      53.574  23.746  25.424  1.00  0.00    -0.237 OA
ATOM     91  O   UNL A   1      53.794  25.677  23.901  1.00  0.00    -0.237 OA
ATOM     92  O   UNL A   1      54.525  25.869  26.247  1.00  0.00    -0.744 OA
ENDBRANCH  88  89
ENDBRANCH  62  83
ENDBRANCH  36  37
ENDBRANCH  29  31
ENDBRANCH  28  29
ENDBRANCH   1  28
TORSDOF 19
ENDMDL
MODEL 2
REMARK VINA RESULT:     -11.1      2.585      3.271
REMARK SMILES CCCc1cc(OC(F)(F)F)cc2c1O[C@H](C(F)(F)F)C(C(=O)OCCOC(=O)c1ccc(-c3c4nc(c(-c5ccc(S(=O)(=O)[O-])cc5)c5ccc([nH]5)c(-c5ccc(S(=O)(=O)[O-])cc5)c5nc(c(-c6ccc(S(=O)(=O)[O-])cc6)c6ccc3[nH]6)C=C5)C=C4)cc1)=C2
REMARK SMILES IDX 26 1 25 2 24 3 22 4 23 5 21 6 4 7 5 8 14 9 6 10 13 11 15 12
REMARK SMILES IDX 12 13 90 14 16 15 3 16 2 17 1 18 7 19 8 20 9 21 10 22 11 23
REMARK SMILES IDX 17 24 18 25 19 26 20 27 27 28 28 29 29 30 30 31 31 32 89 33
REMARK SMILES IDX 32 34 88 35 33 36 34 37 35 38 82 39 36 40 87 41 81 42 83 43
REMARK SMILES IDX 37 44 86 45 80 46 79 47 38 49 68 50 49 51 67 52 50 53 53 54
REMARK SMILES IDX 66 55 84 56 51 57 52 58 65 60 85 61 54 62 39 63 40 64 48 65
REMARK SMILES IDX 41 66 47 67 42 68 43 69 44 70 45 71 46 72 69 73 70 74 78 75
REMARK SMILES IDX 71 76 77 77 72 78 73 79 74 80 75 81 76 82 55 83 56 84 64 85
REMARK SMILES IDX 57 86 63 87 58 88 59 89 60 90 61 91 62 92
REMARK H PARENT 83 48 53 59
REMARK Flexibility Score: inf
ROOT
ATOM      1  C   UNL A   1      32.881  29.892  26.054  1.00  0.00     0.275 C 
ENDROOT
BRANCH   1   2
ATOM      2  C   UNL A   1      31.719  28.908  25.906  1.00  0.00     0.275 C 
BRANCH   2   3
ATOM      3  O   UNL A   1      32.150  27.694  25.255  1.00  0.00    -0.459 OA
BRANCH   3   4
ATOM      4  C   UNL A   1      31.647  26.559  25.794  1.00  0.00     0.338 C 
ATOM      5  O   UNL A   1      30.698  26.478  26.560  1.00  0.00    -0.246 OA
BRANCH   4   6
ATOM      6  C   UNL A   1      32.344  25.360  25.307  1.00  0.00     0.087 C 
ATOM      7  C   UNL A   1      33.306  21.405  24.377  1.00  0.00    -0.002 A 
ATOM      8  C   UNL A   1      34.563  20.918  24.794  1.00  0.00     0.054 A 
ATOM      9  C   UNL A   1      32.981  22.723  24.716  1.00  0.00     0.131 A 
ATOM     10  C   UNL A   1      35.458  21.716  25.518  1.00  0.00     0.130 A 
ATOM     11  C   UNL A   1      33.860  23.530  25.471  1.00  0.00     0.021 A 
ATOM     12  O   UNL A   1      31.756  23.204  24.337  1.00  0.00    -0.475 OA
ATOM     13  C   UNL A   1      35.097  23.022  25.857  1.00  0.00     0.058 A 
ATOM     14  C   UNL A   1      33.419  24.854  25.924  1.00  0.00     0.027 C 
ATOM     15  C   UNL A   1      31.694  24.636  24.161  1.00  0.00     0.316 C 
BRANCH   7  16
ATOM     16  C   UNL A   1      32.363  20.422  23.701  1.00  0.00     0.039 C 
BRANCH  16  17
ATOM     17  C   UNL A   1      32.582  18.907  23.816  1.00  0.00     0.001 C 
ATOM     18  C   UNL A   1      32.359  18.159  22.512  1.00  0.00     0.004 C 
ENDBRANCH  16  17
ENDBRANCH   7  16
BRANCH  10  19
ATOM     19  O   UNL A   1      36.692  21.343  25.972  1.00  0.00    -0.406 OA
BRANCH  19  20
ATOM     20  C   UNL A   1      37.758  21.319  25.041  1.00  0.00     0.573 C 
ATOM     21  F   UNL A   1      38.166  20.054  24.799  1.00  0.00    -0.132 F 
ATOM     22  F   UNL A   1      37.411  21.915  23.882  1.00  0.00    -0.132 F 
ATOM     23  F   UNL A   1      38.802  21.998  25.568  1.00  0.00    -0.132 F 
ENDBRANCH  19  20
ENDBRANCH  10  19
BRANCH  15  24
ATOM     24  C   UNL A   1      32.277  25.081  22.804  1.00  0.00     0.430 C 
ATOM     25  F   UNL A   1      33.410  25.807  22.976  1.00  0.00    -0.167 F 
ATOM     26  F   UNL A   1      32.605  24.041  22.003  1.00  0.00    -0.167 F 
ATOM     27  F   UNL A   1      31.406  25.860  22.125  1.00  0.00    -0.167 F 
ENDBRANCH  15  24
ENDBRANCH   4   6
ENDBRANCH   3   4
ENDBRANCH   2   3
ENDBRANCH   1   2
BRANCH   1  28
ATOM     28  O   UNL A   1      33.638  29.567  27.231  1.00  0.00    -0.458 OA
BRANCH  28  29
ATOM     29  C   UNL A   1      34.394  30.567  27.746  1.00  0.00     0.338 C 
ATOM     30  O   UNL A   1      34.038  31.728  27.898  1.00  0.00    -0.246 OA
BRANCH  29  31
ATOM     31  C   UNL A   1      35.739  30.059  28.120  1.00  0.00     0.060 A 
ATOM     32  C   UNL A   1      36.002  29.572  29.402  1.00  0.00     0.016 A 
ATOM     33  C   UNL A   1      36.784  30.135  27.199  1.00  0.00     0.016 A 
ATOM     34  C   UNL A   1      37.308  29.270  29.795  1.00  0.00     0.010 A 
ATOM     35  C   UNL A   1      38.073  29.711  27.559  1.00  0.00     0.010 A 
ATOM     36  C   UNL A   1      38.363  29.301  28.873  1.00  0.00    -0.014 A 
BRANCH  36  37
ATOM     37  C   UNL A   1      39.753  28.911  29.271  1.00  0.00     0.031 A 
ATOM     38  C   UNL A   1      40.624  29.867  30.054  1.00  0.00     0.074 A 
ATOM     39  C   UNL A   1      40.262  27.710  28.922  1.00  0.00     0.049 A 
ATOM     40  N   UNL A   1      41.914  29.815  30.277  1.00  0.00    -0.248 NA
ATOM     41  C   UNL A   1      39.965  31.044  30.642  1.00  0.00     0.031 C 
ATOM     42  C   UNL A   1      39.549  26.653  28.199  1.00  0.00     0.029 A 
ATOM     43  N   UNL A   1      41.510  27.170  29.135  1.00  0.00    -0.354 N 
ATOM     44  C   UNL A   1      42.232  30.986  30.958  1.00  0.00     0.074 A 
ATOM     45  C   UNL A   1      40.999  31.725  31.120  1.00  0.00     0.031 C 
ATOM     46  C   UNL A   1      40.345  25.581  28.081  1.00  0.00     0.029 A 
ATOM     47  C   UNL A   1      41.661  25.905  28.617  1.00  0.00     0.049 A 
ATOM     48  H   UNL A   1      42.227  27.644  29.615  1.00  0.00     0.167 HD
ATOM     49  C   UNL A   1      43.441  31.411  31.402  1.00  0.00     0.031 A 
ATOM     50  C   UNL A   1      42.740  25.103  28.527  1.00  0.00     0.031 A 
ATOM     51  C   UNL A   1      44.660  30.649  31.304  1.00  0.00     0.049 A 
ATOM     52  C   UNL A   1      44.070  25.594  29.020  1.00  0.00     0.074 A 
ATOM     53  C   UNL A   1      45.928  30.992  31.745  1.00  0.00     0.029 A 
ATOM     54  N   UNL A   1      44.762  29.382  30.753  1.00  0.00    -0.354 N 
ATOM     55  N   UNL A   1      44.365  26.739  29.586  1.00  0.00    -0.248 NA
ATOM     56  C   UNL A   1      45.217  24.694  28.838  1.00  0.00     0.031 C 
ATOM     57  C   UNL A   1      46.801  29.946  31.431  1.00  0.00     0.029 A 
ATOM     58  C   UNL A   1      46.070  28.932  30.834  1.00  0.00     0.049 A 
ATOM     59  H   UNL A   1      44.014  28.876  30.360  1.00  0.00     0.167 HD
ATOM     60  C   UNL A   1      45.732  26.697  29.827  1.00  0.00     0.074 A 
ATOM     61  C   UNL A   1      46.201  25.403  29.373  1.00  0.00     0.031 C 
ATOM     62  C   UNL A   1      46.529  27.649  30.370  1.00  0.00     0.031 A 
BRANCH  49  63
ATOM     63  C   UNL A   1      43.521  32.791  32.001  1.00  0.00    -0.014 A 
ATOM     64  C   UNL A   1      43.484  32.997  33.391  1.00  0.00     0.010 A 
ATOM     65  C   UNL A   1      43.689  33.901  31.150  1.00  0.00     0.010 A 
ATOM     66  C   UNL A   1      43.574  34.290  33.916  1.00  0.00     0.020 A 
ATOM     67  C   UNL A   1      43.805  35.191  31.673  1.00  0.00     0.020 A 
ATOM     68  C   UNL A   1      43.729  35.380  33.053  1.00  0.00     0.054 A 
BRANCH  68  69
ATOM     69  S   UNL A   1      43.869  37.046  33.759  1.00  0.00     0.124 S 
ATOM     70  O   UNL A   1      42.495  37.311  34.177  1.00  0.00    -0.237 OA
ATOM     71  O   UNL A   1      44.829  36.858  34.844  1.00  0.00    -0.237 OA
ATOM     72  O   UNL A   1      44.348  37.857  32.643  1.00  0.00    -0.744 OA
ENDBRANCH  68  69
ENDBRANCH  49  63
BRANCH  50  73
ATOM     73  C   UNL A   1      42.613  23.766  27.884  1.00  0.00    -0.014 A 
ATOM     74  C   UNL A   1      42.890  23.605  26.515  1.00  0.00     0.010 A 
ATOM     75  C   UNL A   1      42.245  22.643  28.646  1.00  0.00     0.010 A 
ATOM     76  C   UNL A   1      42.801  22.342  25.922  1.00  0.00     0.020 A 
ATOM     77  C   UNL A   1      42.182  21.376  28.063  1.00  0.00     0.020 A 
ATOM     78  C   UNL A   1      42.453  21.234  26.701  1.00  0.00     0.054 A 
BRANCH  78  79
ATOM     79  S   UNL A   1      42.422  19.590  25.933  1.00  0.00     0.124 S 
ATOM     80  O   UNL A   1      43.457  19.714  24.913  1.00  0.00    -0.237 OA
ATOM     81  O   UNL A   1      42.738  18.708  27.054  1.00  0.00    -0.237 OA
ATOM     82  O   UNL A   1      41.055  19.477  25.431  1.00  0.00    -0.744 OA
ENDBRANCH  78  79
ENDBRANCH  50  73
BRANCH  62  83
ATOM     83  C   UNL A   1      47.988  27.318  30.521  1.00  0.00    -0.014 A 
ATOM     84  C   UNL A   1      48.911  27.637  29.510  1.00  0.00     0.010 A 
ATOM     85  C   UNL A   1      48.443  26.699  31.699  1.00  0.00     0.010 A 
ATOM     86  C   UNL A   1      50.262  27.310  29.659  1.00  0.00     0.020 A 
ATOM     87  C   UNL A   1      49.797  26.391  31.860  1.00  0.00     0.020 A 
ATOM     88  C   UNL A   1      50.695  26.683  30.831  1.00  0.00     0.054 A 
BRANCH  88  89
ATOM     89  S   UNL A   1      52.455  26.288  31.015  1.00  0.00     0.124 S 
ATOM     90  O   UNL A   1      52.920  26.320  29.631  1.00  0.00    -0.237 OA
ATOM     91  O   UNL A   1      52.943  27.370  31.867  1.00  0.00    -0.237 OA
ATOM     92  O   UNL A   1      52.450  24.967  31.640  1.00  0.00    -0.744 OA
ENDBRANCH  88  89
ENDBRANCH  62  83
ENDBRANCH  36  37
ENDBRANCH  29  31
ENDBRANCH  28  29
ENDBRANCH   1  28
TORSDOF 19
ENDMDL
MODEL 3
REMARK VINA RESULT:     -11.0      4.972     10.565
REMARK SMILES CCCc1cc(OC(F)(F)F)cc2c1O[C@H](C(F)(F)F)C(C(=O)OCCOC(=O)c1ccc(-c3c4nc(c(-c5ccc(S(=O)(=O)[O-])cc5)c5ccc([nH]5)c(-c5ccc(S(=O)(=O)[O-])cc5)c5nc(c(-c6ccc(S(=O)(=O)[O-])cc6)c6ccc3[nH]6)C=C5)C=C4)cc1)=C2
REMARK SMILES IDX 26 1 25 2 24 3 22 4 23 5 21 6 4 7 5 8 14 9 6 10 13 11 15 12
REMARK SMILES IDX 12 13 90 14 16 15 3 16 2 17 1 18 7 19 8 20 9 21 10 22 11 23
REMARK SMILES IDX 17 24 18 25 19 26 20 27 27 28 28 29 29 30 30 31 31 32 89 33
REMARK SMILES IDX 32 34 88 35 33 36 34 37 35 38 82 39 36 40 87 41 81 42 83 43
REMARK SMILES IDX 37 44 86 45 80 46 79 47 38 49 68 50 49 51 67 52 50 53 53 54
REMARK SMILES IDX 66 55 84 56 51 57 52 58 65 60 85 61 54 62 39 63 40 64 48 65
REMARK SMILES IDX 41 66 47 67 42 68 43 69 44 70 45 71 46 72 69 73 70 74 78 75
REMARK SMILES IDX 71 76 77 77 72 78 73 79 74 80 75 81 76 82 55 83 56 84 64 85
REMARK SMILES IDX 57 86 63 87 58 88 59 89 60 90 61 91 62 92
REMARK H PARENT 83 48 53 59
REMARK Flexibility Score: inf
ROOT
ATOM      1  C   UNL A   1      37.342  21.731  24.703  1.00  0.00     0.275 C 
ENDROOT
BRANCH   1   2
ATOM      2  C   UNL A   1      35.839  21.523  24.895  1.00  0.00     0.275 C 
BRANCH   2   3
ATOM      3  O   UNL A   1      35.102  22.707  24.524  1.00  0.00    -0.459 OA
BRANCH   3   4
ATOM      4  C   UNL A   1      33.771  22.638  24.764  1.00  0.00     0.338 C 
ATOM      5  O   UNL A   1      33.114  21.620  24.914  1.00  0.00    -0.246 OA
BRANCH   4   6
ATOM      6  C   UNL A   1      33.164  23.971  24.893  1.00  0.00     0.087 C 
ATOM      7  C   UNL A   1      31.367  27.638  24.024  1.00  0.00    -0.002 A 
ATOM      8  C   UNL A   1      31.966  28.804  24.544  1.00  0.00     0.054 A 
ATOM      9  C   UNL A   1      31.991  26.415  24.298  1.00  0.00     0.131 A 
ATOM     10  C   UNL A   1      33.140  28.750  25.307  1.00  0.00     0.130 A 
ATOM     11  C   UNL A   1      33.190  26.347  25.041  1.00  0.00     0.021 A 
ATOM     12  O   UNL A   1      31.432  25.276  23.782  1.00  0.00    -0.475 OA
ATOM     13  C   UNL A   1      33.748  27.517  25.548  1.00  0.00     0.058 A 
ATOM     14  C   UNL A   1      33.883  25.063  25.182  1.00  0.00     0.027 C 
ATOM     15  C   UNL A   1      31.708  24.073  24.532  1.00  0.00     0.316 C 
BRANCH   7  16
ATOM     16  C   UNL A   1      30.164  27.815  23.111  1.00  0.00     0.039 C 
BRANCH  16  17
ATOM     17  C   UNL A   1      28.740  27.540  23.616  1.00  0.00     0.001 C 
ATOM     18  C   UNL A   1      27.715  28.548  23.124  1.00  0.00     0.004 C 
ENDBRANCH  16  17
ENDBRANCH   7  16
BRANCH  10  19
ATOM     19  O   UNL A   1      33.802  29.815  25.851  1.00  0.00    -0.406 OA
BRANCH  19  20
ATOM     20  C   UNL A   1      33.606  30.081  27.228  1.00  0.00     0.573 C 
ATOM     21  F   UNL A   1      33.832  31.382  27.511  1.00  0.00    -0.132 F 
ATOM     22  F   UNL A   1      32.361  29.739  27.621  1.00  0.00    -0.132 F 
ATOM     23  F   UNL A   1      34.488  29.342  27.938  1.00  0.00    -0.132 F 
ENDBRANCH  19  20
ENDBRANCH  10  19
BRANCH  15  24
ATOM     24  C   UNL A   1      30.804  23.941  25.775  1.00  0.00     0.430 C 
ATOM     25  F   UNL A   1      31.514  24.128  26.915  1.00  0.00    -0.167 F 
ATOM     26  F   UNL A   1      29.799  24.846  25.795  1.00  0.00    -0.167 F 
ATOM     27  F   UNL A   1      30.247  22.712  25.850  1.00  0.00    -0.167 F 
ENDBRANCH  15  24
ENDBRANCH   4   6
ENDBRANCH   3   4
ENDBRANCH   2   3
ENDBRANCH   1   2
BRANCH   1  28
ATOM     28  O   UNL A   1      37.761  22.898  25.428  1.00  0.00    -0.458 OA
BRANCH  28  29
ATOM     29  C   UNL A   1      39.031  22.880  25.899  1.00  0.00     0.338 C 
ATOM     30  O   UNL A   1      39.852  21.991  25.714  1.00  0.00    -0.246 OA
BRANCH  29  31
ATOM     31  C   UNL A   1      39.311  24.114  26.678  1.00  0.00     0.060 A 
ATOM     32  C   UNL A   1      40.054  25.165  26.136  1.00  0.00     0.016 A 
ATOM     33  C   UNL A   1      38.890  24.200  28.006  1.00  0.00     0.016 A 
ATOM     34  C   UNL A   1      40.464  26.234  26.936  1.00  0.00     0.010 A 
ATOM     35  C   UNL A   1      39.198  25.335  28.771  1.00  0.00     0.010 A 
ATOM     36  C   UNL A   1      40.017  26.358  28.258  1.00  0.00    -0.014 A 
BRANCH  36  37
ATOM     37  C   UNL A   1      40.397  27.537  29.099  1.00  0.00     0.031 A 
ATOM     38  C   UNL A   1      41.699  27.546  29.867  1.00  0.00     0.074 A 
ATOM     39  C   UNL A   1      39.577  28.606  29.204  1.00  0.00     0.049 A 
ATOM     40  N   UNL A   1      42.088  28.350  30.825  1.00  0.00    -0.248 NA
ATOM     41  C   UNL A   1      42.680  26.502  29.531  1.00  0.00     0.031 C 
ATOM     42  C   UNL A   1      38.302  28.781  28.504  1.00  0.00     0.029 A 
ATOM     43  N   UNL A   1      39.700  29.759  29.944  1.00  0.00    -0.354 N 
ATOM     44  C   UNL A   1      43.317  27.863  31.258  1.00  0.00     0.074 A 
ATOM     45  C   UNL A   1      43.614  26.698  30.452  1.00  0.00     0.031 C 
ATOM     46  C   UNL A   1      37.793  29.984  28.802  1.00  0.00     0.029 A 
ATOM     47  C   UNL A   1      38.642  30.626  29.797  1.00  0.00     0.049 A 
ATOM     48  H   UNL A   1      40.473  29.947  30.525  1.00  0.00     0.167 HD
ATOM     49  C   UNL A   1      44.122  28.336  32.241  1.00  0.00     0.031 A 
ATOM     50  C   UNL A   1      38.346  31.782  30.422  1.00  0.00     0.031 A 
ATOM     51  C   UNL A   1      43.865  29.534  33.000  1.00  0.00     0.049 A 
ATOM     52  C   UNL A   1      39.248  32.287  31.511  1.00  0.00     0.074 A 
ATOM     53  C   UNL A   1      44.636  30.101  34.002  1.00  0.00     0.029 A 
ATOM     54  N   UNL A   1      42.769  30.364  32.825  1.00  0.00    -0.354 N 
ATOM     55  N   UNL A   1      40.363  31.766  31.962  1.00  0.00    -0.248 NA
ATOM     56  C   UNL A   1      38.835  33.522  32.192  1.00  0.00     0.031 C 
ATOM     57  C   UNL A   1      43.989  31.256  34.455  1.00  0.00     0.029 A 
ATOM     58  C   UNL A   1      42.838  31.433  33.705  1.00  0.00     0.049 A 
ATOM     59  H   UNL A   1      42.047  30.216  32.172  1.00  0.00     0.167 HD
ATOM     60  C   UNL A   1      40.786  32.611  32.980  1.00  0.00     0.074 A 
ATOM     61  C   UNL A   1      39.823  33.691  33.060  1.00  0.00     0.031 C 
ATOM     62  C   UNL A   1      41.871  32.496  33.784  1.00  0.00     0.031 A 
BRANCH  49  63
ATOM     63  C   UNL A   1      45.347  27.533  32.591  1.00  0.00    -0.014 A 
ATOM     64  C   UNL A   1      45.295  26.461  33.500  1.00  0.00     0.010 A 
ATOM     65  C   UNL A   1      46.568  27.829  31.954  1.00  0.00     0.010 A 
ATOM     66  C   UNL A   1      46.449  25.727  33.793  1.00  0.00     0.020 A 
ATOM     67  C   UNL A   1      47.717  27.081  32.225  1.00  0.00     0.020 A 
ATOM     68  C   UNL A   1      47.654  26.045  33.158  1.00  0.00     0.054 A 
BRANCH  68  69
ATOM     69  S   UNL A   1      49.131  25.062  33.536  1.00  0.00     0.124 S 
ATOM     70  O   UNL A   1      49.867  25.955  34.426  1.00  0.00    -0.237 OA
ATOM     71  O   UNL A   1      48.573  23.868  34.166  1.00  0.00    -0.237 OA
ATOM     72  O   UNL A   1      49.745  24.840  32.228  1.00  0.00    -0.744 OA
ENDBRANCH  68  69
ENDBRANCH  49  63
BRANCH  50  73
ATOM     73  C   UNL A   1      37.098  32.512  30.069  1.00  0.00    -0.014 A 
ATOM     74  C   UNL A   1      35.905  32.265  30.770  1.00  0.00     0.010 A 
ATOM     75  C   UNL A   1      37.105  33.480  29.047  1.00  0.00     0.010 A 
ATOM     76  C   UNL A   1      34.742  32.975  30.457  1.00  0.00     0.020 A 
ATOM     77  C   UNL A   1      35.953  34.211  28.751  1.00  0.00     0.020 A 
ATOM     78  C   UNL A   1      34.775  33.948  29.452  1.00  0.00     0.054 A 
BRANCH  78  79
ATOM     79  S   UNL A   1      33.279  34.918  29.114  1.00  0.00     0.124 S 
ATOM     80  O   UNL A   1      33.838  36.187  28.661  1.00  0.00    -0.237 OA
ATOM     81  O   UNL A   1      32.605  34.121  28.092  1.00  0.00    -0.237 OA
ATOM     82  O   UNL A   1      32.601  34.956  30.408  1.00  0.00    -0.744 OA
ENDBRANCH  78  79
ENDBRANCH  50  73
BRANCH  62  83
ATOM     83  C   UNL A   1      42.086  33.579  34.804  1.00  0.00    -0.014 A 
ATOM     84  C   UNL A   1      42.825  34.733  34.489  1.00  0.00     0.010 A 
ATOM     85  C   UNL A   1      41.524  33.450  36.087  1.00  0.00     0.010 A 
ATOM     86  C   UNL A   1      43.028  35.725  35.453  1.00  0.00     0.020 A 
ATOM     87  C   UNL A   1      41.707  34.450  37.046  1.00  0.00     0.020 A 
ATOM     88  C   UNL A   1      42.472  35.575  36.727  1.00  0.00     0.054 A 
BRANCH  88  89
ATOM     89  S   UNL A   1      42.728  36.883  37.956  1.00  0.00     0.124 S 
ATOM     90  O   UNL A   1      43.545  36.204  38.958  1.00  0.00    -0.237 OA
ATOM     91  O   UNL A   1      43.412  37.920  37.187  1.00  0.00    -0.237 OA
ATOM     92  O   UNL A   1      41.373  37.226  38.384  1.00  0.00    -0.744 OA
ENDBRANCH  88  89
ENDBRANCH  62  83
ENDBRANCH  36  37
ENDBRANCH  29  31
ENDBRANCH  28  29
ENDBRANCH   1  28
TORSDOF 19
ENDMDL
