MODEL 1
REMARK VINA RESULT:     -10.6      0.000      0.000
REMARK SMILES CC[C@@](C)(NC(=O)[C@@H](C)NC(=O)c1ccco1)C(=O)OCCOC(=O)c1ccc(-c2c3nc(c(-c4ccc(S(=O)(=O)[O-])cc4)c4ccc([nH]4)c(-c4ccc(S(=O)(=O)[O-])cc4)c4nc(c(-c5ccc(S(=O)(=O)[O-])cc5)c5ccc2[nH]5)C=C4)C=C3)cc1
REMARK SMILES IDX 21 1 20 2 18 3 19 4 3 5 4 6 2 7 1 8 5 9 6 10 7 12 8 13 9 14
REMARK SMILES IDX 10 15 11 16 12 18 13 19 14 20 17 21 15 22 16 23 22 24 23 25
REMARK SMILES IDX 24 26 25 27 26 28 27 29 85 30 28 31 84 32 29 33 30 34 31 35
REMARK SMILES IDX 78 36 32 37 83 38 77 39 79 40 33 41 82 42 76 43 75 44 34 46
REMARK SMILES IDX 64 47 45 48 63 49 46 50 49 51 62 52 80 53 47 54 48 55 61 57
REMARK SMILES IDX 81 58 50 59 35 60 36 61 44 62 37 63 43 64 38 65 39 66 40 67
REMARK SMILES IDX 41 68 42 69 65 70 66 71 74 72 67 73 73 74 68 75 69 76 70 77
REMARK SMILES IDX 71 78 72 79 51 80 52 81 60 82 53 83 59 84 54 85 55 86 56 87
REMARK SMILES IDX 57 88 58 89
REMARK H PARENT 5 11 10 17 79 45 49 56
REMARK Flexibility Score: inf
ROOT
ATOM      1  C   UNL A   1      37.182  23.010  24.565  1.00  0.00     0.274 C 
ENDROOT
BRANCH   1   2
ATOM      2  O   UNL A   1      36.022  23.847  24.802  1.00  0.00    -0.460 OA
BRANCH   2   3
ATOM      3  C   UNL A   1      34.998  23.774  23.909  1.00  0.00     0.331 C 
ATOM      4  O   UNL A   1      35.180  23.702  22.698  1.00  0.00    -0.249 OA
BRANCH   3   5
ATOM      5  C   UNL A   1      33.583  23.917  24.576  1.00  0.00     0.135 C 
ATOM      6  C   UNL A   1      33.889  24.282  26.044  1.00  0.00     0.047 C 
BRANCH   5   7
ATOM      7  C   UNL A   1      32.774  25.060  23.896  1.00  0.00     0.037 C 
ATOM      8  C   UNL A   1      31.255  25.040  24.067  1.00  0.00     0.007 C 
ENDBRANCH   5   7
BRANCH   5   9
ATOM      9  N   UNL A   1      32.746  22.659  24.627  1.00  0.00    -0.339 N 
ATOM     10  C   UNL A   1      32.836  21.633  23.696  1.00  0.00     0.243 C 
ATOM     11  H   UNL A   1      32.100  22.562  25.364  1.00  0.00     0.164 HD
ATOM     12  O   UNL A   1      32.330  21.782  22.582  1.00  0.00    -0.273 OA
BRANCH  10  13
ATOM     13  C   UNL A   1      33.240  20.227  24.242  1.00  0.00     0.168 C 
ATOM     14  C   UNL A   1      33.149  20.216  25.768  1.00  0.00     0.041 C 
BRANCH  13  15
ATOM     15  N   UNL A   1      32.422  19.227  23.563  1.00  0.00    -0.338 N 
ATOM     16  C   UNL A   1      32.740  17.998  23.067  1.00  0.00     0.287 C 
ATOM     17  H   UNL A   1      31.479  19.484  23.442  1.00  0.00     0.164 HD
ATOM     18  O   UNL A   1      32.269  17.701  21.967  1.00  0.00    -0.266 OA
BRANCH  16  19
ATOM     19  C   UNL A   1      33.491  17.069  23.873  1.00  0.00     0.191 A 
ATOM     20  C   UNL A   1      34.822  17.004  24.241  1.00  0.00     0.056 A 
ATOM     21  O   UNL A   1      32.788  16.128  24.579  1.00  0.00    -0.459 OA
ATOM     22  C   UNL A   1      34.932  15.982  25.215  1.00  0.00     0.043 A 
ATOM     23  C   UNL A   1      33.667  15.479  25.383  1.00  0.00     0.196 A 
ENDBRANCH  16  19
ENDBRANCH  13  15
ENDBRANCH  10  13
ENDBRANCH   5   9
ENDBRANCH   3   5
ENDBRANCH   2   3
ENDBRANCH   1   2
BRANCH   1  24
ATOM     24  C   UNL A   1      38.097  22.918  25.799  1.00  0.00     0.275 C 
BRANCH  24  25
ATOM     25  O   UNL A   1      38.523  24.209  26.281  1.00  0.00    -0.458 OA
BRANCH  25  26
ATOM     26  C   UNL A   1      39.786  24.233  26.741  1.00  0.00     0.338 C 
ATOM     27  O   UNL A   1      40.706  23.502  26.397  1.00  0.00    -0.246 OA
BRANCH  26  28
ATOM     28  C   UNL A   1      40.054  25.356  27.622  1.00  0.00     0.060 A 
ATOM     29  C   UNL A   1      39.258  25.434  28.764  1.00  0.00     0.016 A 
ATOM     30  C   UNL A   1      40.901  26.399  27.259  1.00  0.00     0.016 A 
ATOM     31  C   UNL A   1      39.268  26.573  29.544  1.00  0.00     0.010 A 
ATOM     32  C   UNL A   1      40.974  27.518  28.091  1.00  0.00     0.010 A 
ATOM     33  C   UNL A   1      40.165  27.601  29.240  1.00  0.00    -0.014 A 
BRANCH  33  34
ATOM     34  C   UNL A   1      40.354  28.693  30.215  1.00  0.00     0.031 A 
ATOM     35  C   UNL A   1      41.401  28.605  31.278  1.00  0.00     0.074 A 
ATOM     36  C   UNL A   1      39.525  29.750  30.133  1.00  0.00     0.049 A 
ATOM     37  N   UNL A   1      41.570  29.372  32.322  1.00  0.00    -0.248 NA
ATOM     38  C   UNL A   1      42.376  27.511  31.159  1.00  0.00     0.031 C 
ATOM     39  C   UNL A   1      38.504  29.942  29.094  1.00  0.00     0.029 A 
ATOM     40  N   UNL A   1      39.392  30.850  30.935  1.00  0.00    -0.354 N 
ATOM     41  C   UNL A   1      42.645  28.830  33.015  1.00  0.00     0.074 A 
ATOM     42  C   UNL A   1      43.094  27.676  32.264  1.00  0.00     0.031 C 
ATOM     43  C   UNL A   1      37.853  31.088  29.324  1.00  0.00     0.029 A 
ATOM     44  C   UNL A   1      38.342  31.659  30.569  1.00  0.00     0.049 A 
ATOM     45  H   UNL A   1      39.986  31.043  31.696  1.00  0.00     0.167 HD
ATOM     46  C   UNL A   1      43.181  29.255  34.184  1.00  0.00     0.031 A 
ATOM     47  C   UNL A   1      37.785  32.706  31.202  1.00  0.00     0.031 A 
ATOM     48  C   UNL A   1      42.695  30.400  34.911  1.00  0.00     0.049 A 
ATOM     49  C   UNL A   1      38.359  33.127  32.517  1.00  0.00     0.074 A 
ATOM     50  C   UNL A   1      43.154  30.924  36.105  1.00  0.00     0.029 A 
ATOM     51  N   UNL A   1      41.629  31.196  34.508  1.00  0.00    -0.354 N 
ATOM     52  N   UNL A   1      39.358  32.595  33.180  1.00  0.00    -0.248 NA
ATOM     53  C   UNL A   1      37.735  34.280  33.174  1.00  0.00     0.031 C 
ATOM     54  C   UNL A   1      42.335  32.007  36.449  1.00  0.00     0.029 A 
ATOM     55  C   UNL A   1      41.400  32.193  35.442  1.00  0.00     0.049 A 
ATOM     56  H   UNL A   1      41.112  31.069  33.680  1.00  0.00     0.167 HD
ATOM     57  C   UNL A   1      39.493  33.353  34.332  1.00  0.00     0.074 A 
ATOM     58  C   UNL A   1      38.478  34.390  34.268  1.00  0.00     0.031 C 
ATOM     59  C   UNL A   1      40.377  33.206  35.350  1.00  0.00     0.031 A 
BRANCH  46  60
ATOM     60  C   UNL A   1      44.288  28.424  34.777  1.00  0.00    -0.014 A 
ATOM     61  C   UNL A   1      45.641  28.676  34.490  1.00  0.00     0.010 A 
ATOM     62  C   UNL A   1      43.960  27.352  35.631  1.00  0.00     0.010 A 
ATOM     63  C   UNL A   1      46.640  27.835  34.993  1.00  0.00     0.020 A 
ATOM     64  C   UNL A   1      44.957  26.525  36.155  1.00  0.00     0.020 A 
ATOM     65  C   UNL A   1      46.290  26.755  35.809  1.00  0.00     0.054 A 
BRANCH  65  66
ATOM     66  S   UNL A   1      47.596  25.652  36.417  1.00  0.00     0.124 S 
ATOM     67  O   UNL A   1      47.722  26.076  37.810  1.00  0.00    -0.237 OA
ATOM     68  O   UNL A   1      47.020  24.325  36.217  1.00  0.00    -0.237 OA
ATOM     69  O   UNL A   1      48.740  25.966  35.566  1.00  0.00    -0.744 OA
ENDBRANCH  65  66
ENDBRANCH  46  60
BRANCH  47  70
ATOM     70  C   UNL A   1      36.589  33.351  30.601  1.00  0.00    -0.014 A 
ATOM     71  C   UNL A   1      35.345  33.297  31.247  1.00  0.00     0.010 A 
ATOM     72  C   UNL A   1      36.727  34.138  29.439  1.00  0.00     0.010 A 
ATOM     73  C   UNL A   1      34.263  34.034  30.755  1.00  0.00     0.020 A 
ATOM     74  C   UNL A   1      35.655  34.895  28.960  1.00  0.00     0.020 A 
ATOM     75  C   UNL A   1      34.428  34.837  29.621  1.00  0.00     0.054 A 
BRANCH  75  76
ATOM     76  S   UNL A   1      33.045  35.875  29.071  1.00  0.00     0.124 S 
ATOM     77  O   UNL A   1      32.415  36.237  30.337  1.00  0.00    -0.237 OA
ATOM     78  O   UNL A   1      33.724  36.962  28.370  1.00  0.00    -0.237 OA
ATOM     79  O   UNL A   1      32.267  34.983  28.215  1.00  0.00    -0.744 OA
ENDBRANCH  75  76
ENDBRANCH  47  70
BRANCH  59  80
ATOM     80  C   UNL A   1      40.302  34.214  36.462  1.00  0.00    -0.014 A 
ATOM     81  C   UNL A   1      41.073  35.388  36.428  1.00  0.00     0.010 A 
ATOM     82  C   UNL A   1      39.396  34.008  37.518  1.00  0.00     0.010 A 
ATOM     83  C   UNL A   1      40.949  36.337  37.445  1.00  0.00     0.020 A 
ATOM     84  C   UNL A   1      39.255  34.965  38.523  1.00  0.00     0.020 A 
ATOM     85  C   UNL A   1      40.038  36.120  38.485  1.00  0.00     0.054 A 
BRANCH  85  86
ATOM     86  S   UNL A   1      39.844  37.397  39.757  1.00  0.00     0.124 S 
ATOM     87  O   UNL A   1      41.072  38.171  39.602  1.00  0.00    -0.237 OA
ATOM     88  O   UNL A   1      38.616  38.076  39.346  1.00  0.00    -0.237 OA
ATOM     89  O   UNL A   1      39.739  36.635  40.999  1.00  0.00    -0.744 OA
ENDBRANCH  85  86
ENDBRANCH  59  80
ENDBRANCH  33  34
ENDBRANCH  26  28
ENDBRANCH  25  26
ENDBRANCH  24  25
ENDBRANCH   1  24
TORSDOF 19
ENDMDL
MODEL 2
REMARK VINA RESULT:     -10.4      1.840      4.309
REMARK SMILES CC[C@@](C)(NC(=O)[C@@H](C)NC(=O)c1ccco1)C(=O)OCCOC(=O)c1ccc(-c2c3nc(c(-c4ccc(S(=O)(=O)[O-])cc4)c4ccc([nH]4)c(-c4ccc(S(=O)(=O)[O-])cc4)c4nc(c(-c5ccc(S(=O)(=O)[O-])cc5)c5ccc2[nH]5)C=C4)C=C3)cc1
REMARK SMILES IDX 21 1 20 2 18 3 19 4 3 5 4 6 2 7 1 8 5 9 6 10 7 12 8 13 9 14
REMARK SMILES IDX 10 15 11 16 12 18 13 19 14 20 17 21 15 22 16 23 22 24 23 25
REMARK SMILES IDX 24 26 25 27 26 28 27 29 85 30 28 31 84 32 29 33 30 34 31 35
REMARK SMILES IDX 78 36 32 37 83 38 77 39 79 40 33 41 82 42 76 43 75 44 34 46
REMARK SMILES IDX 64 47 45 48 63 49 46 50 49 51 62 52 80 53 47 54 48 55 61 57
REMARK SMILES IDX 81 58 50 59 35 60 36 61 44 62 37 63 43 64 38 65 39 66 40 67
REMARK SMILES IDX 41 68 42 69 65 70 66 71 74 72 67 73 73 74 68 75 69 76 70 77
REMARK SMILES IDX 71 78 72 79 51 80 52 81 60 82 53 83 59 84 54 85 55 86 56 87
REMARK SMILES IDX 57 88 58 89
REMARK H PARENT 5 11 10 17 79 45 49 56
REMARK Flexibility Score: inf
ROOT
ATOM      1  C   UNL A   1      37.221  22.494  25.678  1.00  0.00     0.274 C 
ENDROOT
BRANCH   1   2
ATOM      2  O   UNL A   1      35.986  22.598  24.925  1.00  0.00    -0.460 OA
BRANCH   2   3
ATOM      3  C   UNL A   1      34.824  22.326  25.578  1.00  0.00     0.331 C 
ATOM      4  O   UNL A   1      34.795  21.877  26.719  1.00  0.00    -0.249 OA
BRANCH   3   5
ATOM      5  C   UNL A   1      33.549  22.527  24.683  1.00  0.00     0.135 C 
ATOM      6  C   UNL A   1      34.105  22.645  23.248  1.00  0.00     0.047 C 
BRANCH   5   7
ATOM      7  C   UNL A   1      32.606  21.293  24.793  1.00  0.00     0.037 C 
ATOM      8  C   UNL A   1      32.564  20.335  23.602  1.00  0.00     0.007 C 
ENDBRANCH   5   7
BRANCH   5   9
ATOM      9  N   UNL A   1      32.761  23.794  24.928  1.00  0.00    -0.339 N 
ATOM     10  C   UNL A   1      32.794  24.506  26.120  1.00  0.00     0.243 C 
ATOM     11  H   UNL A   1      32.194  24.135  24.199  1.00  0.00     0.164 HD
ATOM     12  O   UNL A   1      32.179  24.076  27.097  1.00  0.00    -0.273 OA
BRANCH  10  13
ATOM     13  C   UNL A   1      33.295  25.983  26.039  1.00  0.00     0.168 C 
ATOM     14  C   UNL A   1      33.961  26.233  24.686  1.00  0.00     0.041 C 
BRANCH  13  15
ATOM     15  N   UNL A   1      32.168  26.858  26.350  1.00  0.00    -0.338 N 
ATOM     16  C   UNL A   1      32.065  27.913  27.206  1.00  0.00     0.287 C 
ATOM     17  H   UNL A   1      31.343  26.651  25.856  1.00  0.00     0.164 HD
ATOM     18  O   UNL A   1      31.037  27.983  27.883  1.00  0.00    -0.266 OA
BRANCH  16  19
ATOM     19  C   UNL A   1      33.073  28.943  27.203  1.00  0.00     0.191 A 
ATOM     20  C   UNL A   1      33.008  30.324  27.254  1.00  0.00     0.056 A 
ATOM     21  O   UNL A   1      34.380  28.554  27.339  1.00  0.00    -0.459 OA
ATOM     22  C   UNL A   1      34.332  30.793  27.433  1.00  0.00     0.043 A 
ATOM     23  C   UNL A   1      35.129  29.677  27.475  1.00  0.00     0.196 A 
ENDBRANCH  16  19
ENDBRANCH  13  15
ENDBRANCH  10  13
ENDBRANCH   5   9
ENDBRANCH   3   5
ENDBRANCH   2   3
ENDBRANCH   1   2
BRANCH   1  24
ATOM     24  C   UNL A   1      37.900  23.861  25.875  1.00  0.00     0.275 C 
BRANCH  24  25
ATOM     25  O   UNL A   1      38.947  23.831  26.866  1.00  0.00    -0.458 OA
BRANCH  25  26
ATOM     26  C   UNL A   1      39.903  24.758  26.683  1.00  0.00     0.338 C 
ATOM     27  O   UNL A   1      40.644  24.867  25.715  1.00  0.00    -0.246 OA
BRANCH  26  28
ATOM     28  C   UNL A   1      39.902  25.791  27.704  1.00  0.00     0.060 A 
ATOM     29  C   UNL A   1      40.881  26.776  27.571  1.00  0.00     0.016 A 
ATOM     30  C   UNL A   1      39.120  25.702  28.851  1.00  0.00     0.016 A 
ATOM     31  C   UNL A   1      41.119  27.665  28.599  1.00  0.00     0.010 A 
ATOM     32  C   UNL A   1      39.302  26.652  29.858  1.00  0.00     0.010 A 
ATOM     33  C   UNL A   1      40.295  27.641  29.728  1.00  0.00    -0.014 A 
BRANCH  33  34
ATOM     34  C   UNL A   1      40.385  28.748  30.700  1.00  0.00     0.031 A 
ATOM     35  C   UNL A   1      41.360  28.704  31.831  1.00  0.00     0.074 A 
ATOM     36  C   UNL A   1      39.530  29.778  30.550  1.00  0.00     0.049 A 
ATOM     37  N   UNL A   1      41.436  29.485  32.874  1.00  0.00    -0.248 NA
ATOM     38  C   UNL A   1      42.375  27.639  31.789  1.00  0.00     0.031 C 
ATOM     39  C   UNL A   1      38.576  29.927  29.445  1.00  0.00     0.029 A 
ATOM     40  N   UNL A   1      39.310  30.881  31.329  1.00  0.00    -0.354 N 
ATOM     41  C   UNL A   1      42.479  28.985  33.643  1.00  0.00     0.074 A 
ATOM     42  C   UNL A   1      43.012  27.837  32.937  1.00  0.00     0.031 C 
ATOM     43  C   UNL A   1      37.875  31.054  29.617  1.00  0.00     0.029 A 
ATOM     44  C   UNL A   1      38.263  31.652  30.886  1.00  0.00     0.049 A 
ATOM     45  H   UNL A   1      39.847  31.099  32.125  1.00  0.00     0.167 HD
ATOM     46  C   UNL A   1      42.923  29.437  34.840  1.00  0.00     0.031 A 
ATOM     47  C   UNL A   1      37.633  32.687  31.467  1.00  0.00     0.031 A 
ATOM     48  C   UNL A   1      42.354  30.574  35.520  1.00  0.00     0.049 A 
ATOM     49  C   UNL A   1      38.105  33.139  32.813  1.00  0.00     0.074 A 
ATOM     50  C   UNL A   1      42.717  31.124  36.735  1.00  0.00     0.029 A 
ATOM     51  N   UNL A   1      41.294  31.331  35.038  1.00  0.00    -0.354 N 
ATOM     52  N   UNL A   1      39.074  32.645  33.547  1.00  0.00    -0.248 NA
ATOM     53  C   UNL A   1      37.404  34.278  33.413  1.00  0.00     0.031 C 
ATOM     54  C   UNL A   1      41.845  32.183  37.011  1.00  0.00     0.029 A 
ATOM     55  C   UNL A   1      40.973  32.330  35.943  1.00  0.00     0.049 A 
ATOM     56  H   UNL A   1      40.837  31.180  34.179  1.00  0.00     0.167 HD
ATOM     57  C   UNL A   1      39.109  33.418  34.696  1.00  0.00     0.074 A 
ATOM     58  C   UNL A   1      38.069  34.422  34.553  1.00  0.00     0.031 C 
ATOM     59  C   UNL A   1      39.927  33.309  35.772  1.00  0.00     0.031 A 
BRANCH  46  60
ATOM     60  C   UNL A   1      44.013  28.647  35.515  1.00  0.00    -0.014 A 
ATOM     61  C   UNL A   1      43.726  27.580  36.384  1.00  0.00     0.010 A 
ATOM     62  C   UNL A   1      45.358  28.996  35.284  1.00  0.00     0.010 A 
ATOM     63  C   UNL A   1      44.760  26.918  37.057  1.00  0.00     0.020 A 
ATOM     64  C   UNL A   1      46.394  28.322  35.936  1.00  0.00     0.020 A 
ATOM     65  C   UNL A   1      46.086  27.305  36.841  1.00  0.00     0.054 A 
BRANCH  65  66
ATOM     66  S   UNL A   1      47.408  26.463  37.755  1.00  0.00     0.124 S 
ATOM     67  O   UNL A   1      48.585  27.230  37.354  1.00  0.00    -0.237 OA
ATOM     68  O   UNL A   1      46.997  26.629  39.147  1.00  0.00    -0.237 OA
ATOM     69  O   UNL A   1      47.359  25.092  37.254  1.00  0.00    -0.744 OA
ENDBRANCH  65  66
ENDBRANCH  46  60
BRANCH  47  70
ATOM     70  C   UNL A   1      36.461  33.289  30.781  1.00  0.00    -0.014 A 
ATOM     71  C   UNL A   1      35.217  33.368  31.425  1.00  0.00     0.010 A 
ATOM     72  C   UNL A   1      36.625  33.906  29.524  1.00  0.00     0.010 A 
ATOM     73  C   UNL A   1      34.161  34.071  30.834  1.00  0.00     0.020 A 
ATOM     74  C   UNL A   1      35.580  34.630  28.944  1.00  0.00     0.020 A 
ATOM     75  C   UNL A   1      34.353  34.706  29.603  1.00  0.00     0.054 A 
BRANCH  75  76
ATOM     76  S   UNL A   1      33.008  35.711  28.914  1.00  0.00     0.124 S 
ATOM     77  O   UNL A   1      32.262  36.082  30.112  1.00  0.00    -0.237 OA
ATOM     78  O   UNL A   1      33.729  36.798  28.257  1.00  0.00    -0.237 OA
ATOM     79  O   UNL A   1      32.324  34.791  28.008  1.00  0.00    -0.744 OA
ENDBRANCH  75  76
ENDBRANCH  47  70
BRANCH  59  80
ATOM     80  C   UNL A   1      39.748  34.325  36.864  1.00  0.00    -0.014 A 
ATOM     81  C   UNL A   1      39.034  34.014  38.033  1.00  0.00     0.010 A 
ATOM     82  C   UNL A   1      40.362  35.584  36.741  1.00  0.00     0.010 A 
ATOM     83  C   UNL A   1      38.924  34.954  39.059  1.00  0.00     0.020 A 
ATOM     84  C   UNL A   1      40.272  36.518  37.774  1.00  0.00     0.020 A 
ATOM     85  C   UNL A   1      39.546  36.200  38.923  1.00  0.00     0.054 A 
BRANCH  85  86
ATOM     86  S   UNL A   1      39.450  37.380  40.296  1.00  0.00     0.124 S 
ATOM     87  O   UNL A   1      40.859  37.627  40.584  1.00  0.00    -0.237 OA
ATOM     88  O   UNL A   1      38.722  38.502  39.705  1.00  0.00    -0.237 OA
ATOM     89  O   UNL A   1      38.721  36.649  41.330  1.00  0.00    -0.744 OA
ENDBRANCH  85  86
ENDBRANCH  59  80
ENDBRANCH  33  34
ENDBRANCH  26  28
ENDBRANCH  25  26
ENDBRANCH  24  25
ENDBRANCH   1  24
TORSDOF 19
ENDMDL
MODEL 3
REMARK VINA RESULT:     -10.1      5.076      9.267
REMARK SMILES CC[C@@](C)(NC(=O)[C@@H](C)NC(=O)c1ccco1)C(=O)OCCOC(=O)c1ccc(-c2c3nc(c(-c4ccc(S(=O)(=O)[O-])cc4)c4ccc([nH]4)c(-c4ccc(S(=O)(=O)[O-])cc4)c4nc(c(-c5ccc(S(=O)(=O)[O-])cc5)c5ccc2[nH]5)C=C4)C=C3)cc1
REMARK SMILES IDX 21 1 20 2 18 3 19 4 3 5 4 6 2 7 1 8 5 9 6 10 7 12 8 13 9 14
REMARK SMILES IDX 10 15 11 16 12 18 13 19 14 20 17 21 15 22 16 23 22 24 23 25
REMARK SMILES IDX 24 26 25 27 26 28 27 29 85 30 28 31 84 32 29 33 30 34 31 35
REMARK SMILES IDX 78 36 32 37 83 38 77 39 79 40 33 41 82 42 76 43 75 44 34 46
REMARK SMILES IDX 64 47 45 48 63 49 46 50 49 51 62 52 80 53 47 54 48 55 61 57
REMARK SMILES IDX 81 58 50 59 35 60 36 61 44 62 37 63 43 64 38 65 39 66 40 67
REMARK SMILES IDX 41 68 42 69 65 70 66 71 74 72 67 73 73 74 68 75 69 76 70 77
REMARK SMILES IDX 71 78 72 79 51 80 52 81 60 82 53 83 59 84 54 85 55 86 56 87
REMARK SMILES IDX 57 88 58 89
REMARK H PARENT 5 11 10 17 79 45 49 56
REMARK Flexibility Score: inf
ROOT
ATOM      1  C   UNL A   1      36.261  22.562  23.974  1.00  0.00     0.274 C 
ENDROOT
BRANCH   1   2
ATOM      2  O   UNL A   1      35.509  23.736  24.372  1.00  0.00    -0.460 OA
BRANCH   2   3
ATOM      3  C   UNL A   1      34.372  24.021  23.682  1.00  0.00     0.331 C 
ATOM      4  O   UNL A   1      34.383  24.405  22.518  1.00  0.00    -0.249 OA
BRANCH   3   5
ATOM      5  C   UNL A   1      33.074  23.926  24.562  1.00  0.00     0.135 C 
ATOM      6  C   UNL A   1      33.579  24.110  26.009  1.00  0.00     0.047 C 
BRANCH   5   7
ATOM      7  C   UNL A   1      32.081  25.065  24.191  1.00  0.00     0.037 C 
ATOM      8  C   UNL A   1      30.595  24.709  24.135  1.00  0.00     0.007 C 
ENDBRANCH   5   7
BRANCH   5   9
ATOM      9  N   UNL A   1      32.355  22.595  24.541  1.00  0.00    -0.339 N 
ATOM     10  C   UNL A   1      32.582  21.610  23.588  1.00  0.00     0.243 C 
ATOM     11  H   UNL A   1      31.690  22.417  25.244  1.00  0.00     0.164 HD
ATOM     12  O   UNL A   1      32.114  21.747  22.456  1.00  0.00    -0.273 OA
BRANCH  10  13
ATOM     13  C   UNL A   1      33.091  20.232  24.115  1.00  0.00     0.168 C 
ATOM     14  C   UNL A   1      33.053  20.213  25.643  1.00  0.00     0.041 C 
BRANCH  13  15
ATOM     15  N   UNL A   1      32.312  19.184  23.460  1.00  0.00    -0.338 N 
ATOM     16  C   UNL A   1      32.681  17.962  22.983  1.00  0.00     0.287 C 
ATOM     17  H   UNL A   1      31.358  19.397  23.344  1.00  0.00     0.164 HD
ATOM     18  O   UNL A   1      32.214  17.625  21.892  1.00  0.00    -0.266 OA
BRANCH  16  19
ATOM     19  C   UNL A   1      33.480  17.082  23.798  1.00  0.00     0.191 A 
ATOM     20  C   UNL A   1      34.821  17.067  24.132  1.00  0.00     0.056 A 
ATOM     21  O   UNL A   1      32.823  16.145  24.553  1.00  0.00    -0.459 OA
ATOM     22  C   UNL A   1      34.987  16.082  25.135  1.00  0.00     0.043 A 
ATOM     23  C   UNL A   1      33.741  15.549  25.353  1.00  0.00     0.196 A 
ENDBRANCH  16  19
ENDBRANCH  13  15
ENDBRANCH  10  13
ENDBRANCH   5   9
ENDBRANCH   3   5
ENDBRANCH   2   3
ENDBRANCH   1   2
BRANCH   1  24
ATOM     24  C   UNL A   1      37.283  22.133  25.041  1.00  0.00     0.275 C 
BRANCH  24  25
ATOM     25  O   UNL A   1      38.014  23.245  25.599  1.00  0.00    -0.458 OA
BRANCH  25  26
ATOM     26  C   UNL A   1      39.074  22.886  26.343  1.00  0.00     0.338 C 
ATOM     27  O   UNL A   1      39.566  21.768  26.429  1.00  0.00    -0.246 OA
BRANCH  26  28
ATOM     28  C   UNL A   1      39.745  24.013  26.967  1.00  0.00     0.060 A 
ATOM     29  C   UNL A   1      39.828  25.171  26.195  1.00  0.00     0.016 A 
ATOM     30  C   UNL A   1      40.441  23.893  28.166  1.00  0.00     0.016 A 
ATOM     31  C   UNL A   1      40.638  26.216  26.592  1.00  0.00     0.010 A 
ATOM     32  C   UNL A   1      41.195  24.980  28.611  1.00  0.00     0.010 A 
ATOM     33  C   UNL A   1      41.285  26.147  27.829  1.00  0.00    -0.014 A 
BRANCH  33  34
ATOM     34  C   UNL A   1      41.936  27.360  28.362  1.00  0.00     0.031 A 
ATOM     35  C   UNL A   1      41.130  28.468  28.959  1.00  0.00     0.074 A 
ATOM     36  C   UNL A   1      43.275  27.446  28.255  1.00  0.00     0.049 A 
ATOM     37  N   UNL A   1      41.515  29.671  29.289  1.00  0.00    -0.248 NA
ATOM     38  C   UNL A   1      39.706  28.192  29.208  1.00  0.00     0.031 C 
ATOM     39  C   UNL A   1      44.147  26.388  27.730  1.00  0.00     0.029 A 
ATOM     40  N   UNL A   1      44.136  28.463  28.562  1.00  0.00    -0.354 N 
ATOM     41  C   UNL A   1      40.374  30.319  29.745  1.00  0.00     0.074 A 
ATOM     42  C   UNL A   1      39.285  29.368  29.659  1.00  0.00     0.031 C 
ATOM     43  C   UNL A   1      45.416  26.813  27.752  1.00  0.00     0.029 A 
ATOM     44  C   UNL A   1      45.435  28.197  28.201  1.00  0.00     0.049 A 
ATOM     45  H   UNL A   1      43.854  29.301  28.997  1.00  0.00     0.167 HD
ATOM     46  C   UNL A   1      40.258  31.599  30.171  1.00  0.00     0.031 A 
ATOM     47  C   UNL A   1      46.513  28.998  28.166  1.00  0.00     0.031 A 
ATOM     48  C   UNL A   1      41.364  32.522  30.227  1.00  0.00     0.049 A 
ATOM     49  C   UNL A   1      46.352  30.423  28.591  1.00  0.00     0.074 A 
ATOM     50  C   UNL A   1      41.368  33.842  30.637  1.00  0.00     0.029 A 
ATOM     51  N   UNL A   1      42.666  32.214  29.853  1.00  0.00    -0.354 N 
ATOM     52  N   UNL A   1      45.265  31.037  28.996  1.00  0.00    -0.248 NA
ATOM     53  C   UNL A   1      47.551  31.266  28.552  1.00  0.00     0.031 C 
ATOM     54  C   UNL A   1      42.662  34.347  30.465  1.00  0.00     0.029 A 
ATOM     55  C   UNL A   1      43.478  33.326  30.000  1.00  0.00     0.049 A 
ATOM     56  H   UNL A   1      42.968  31.335  29.530  1.00  0.00     0.167 HD
ATOM     57  C   UNL A   1      45.648  32.340  29.271  1.00  0.00     0.074 A 
ATOM     58  C   UNL A   1      47.072  32.421  28.997  1.00  0.00     0.031 C 
ATOM     59  C   UNL A   1      44.891  33.375  29.712  1.00  0.00     0.031 A 
BRANCH  46  60
ATOM     60  C   UNL A   1      38.876  32.087  30.521  1.00  0.00    -0.014 A 
ATOM     61  C   UNL A   1      37.934  32.416  29.532  1.00  0.00     0.010 A 
ATOM     62  C   UNL A   1      38.522  32.233  31.877  1.00  0.00     0.010 A 
ATOM     63  C   UNL A   1      36.687  32.943  29.890  1.00  0.00     0.020 A 
ATOM     64  C   UNL A   1      37.269  32.735  32.238  1.00  0.00     0.020 A 
ATOM     65  C   UNL A   1      36.370  33.114  31.241  1.00  0.00     0.054 A 
BRANCH  65  66
ATOM     66  S   UNL A   1      34.765  33.837  31.683  1.00  0.00     0.124 S 
ATOM     67  O   UNL A   1      34.400  34.532  30.452  1.00  0.00    -0.237 OA
ATOM     68  O   UNL A   1      33.957  32.663  32.002  1.00  0.00    -0.237 OA
ATOM     69  O   UNL A   1      35.075  34.703  32.818  1.00  0.00    -0.744 OA
ENDBRANCH  65  66
ENDBRANCH  46  60
BRANCH  47  70
ATOM     70  C   UNL A   1      47.794  28.452  27.646  1.00  0.00    -0.014 A 
ATOM     71  C   UNL A   1      48.729  27.869  28.515  1.00  0.00     0.010 A 
ATOM     72  C   UNL A   1      48.019  28.396  26.255  1.00  0.00     0.010 A 
ATOM     73  C   UNL A   1      49.859  27.223  28.003  1.00  0.00     0.020 A 
ATOM     74  C   UNL A   1      49.132  27.729  25.740  1.00  0.00     0.020 A 
ATOM     75  C   UNL A   1      50.047  27.147  26.619  1.00  0.00     0.054 A 
BRANCH  75  76
ATOM     76  S   UNL A   1      51.455  26.200  25.974  1.00  0.00     0.124 S 
ATOM     77  O   UNL A   1      51.216  24.877  26.542  1.00  0.00    -0.237 OA
ATOM     78  O   UNL A   1      51.276  26.310  24.529  1.00  0.00    -0.237 OA
ATOM     79  O   UNL A   1      52.616  26.910  26.505  1.00  0.00    -0.744 OA
ENDBRANCH  75  76
ENDBRANCH  47  70
BRANCH  59  80
ATOM     80  C   UNL A   1      45.601  34.676  29.955  1.00  0.00    -0.014 A 
ATOM     81  C   UNL A   1      45.687  35.654  28.950  1.00  0.00     0.010 A 
ATOM     82  C   UNL A   1      46.129  34.945  31.231  1.00  0.00     0.010 A 
ATOM     83  C   UNL A   1      46.305  36.878  29.213  1.00  0.00     0.020 A 
ATOM     84  C   UNL A   1      46.727  36.176  31.503  1.00  0.00     0.020 A 
ATOM     85  C   UNL A   1      46.818  37.132  30.489  1.00  0.00     0.054 A 
BRANCH  85  86
ATOM     86  S   UNL A   1      47.554  38.754  30.829  1.00  0.00     0.124 S 
ATOM     87  O   UNL A   1      47.282  39.476  29.590  1.00  0.00    -0.237 OA
ATOM     88  O   UNL A   1      46.805  39.208  31.999  1.00  0.00    -0.237 OA
ATOM     89  O   UNL A   1      48.961  38.450  31.079  1.00  0.00    -0.744 OA
ENDBRANCH  85  86
ENDBRANCH  59  80
ENDBRANCH  33  34
ENDBRANCH  26  28
ENDBRANCH  25  26
ENDBRANCH  24  25
ENDBRANCH   1  24
TORSDOF 19
ENDMDL
