MODEL 1
REMARK VINA RESULT:     -12.1      0.000      0.000
REMARK SMILES Cc1nsc(NC(=O)[C@@H]2C[NH2+]C[C@H]2C)c1C(=O)OCCOC(=O)c1ccc(-c2c3nc(c(-c4ccc(S(=O)(=O)[O-])cc4)c4ccc([nH]4)c(-c4ccc(S(=O)(=O)[O-])cc4)c4nc(c(-c5ccc(S(=O)(=O)[O-])cc5)c5ccc2[nH]5)C=C4)C=C3)cc1
REMARK SMILES IDX 20 1 19 2 18 3 16 4 17 5 15 6 1 7 2 8 3 9 4 10 5 11 6 12
REMARK SMILES IDX 7 13 8 15 9 16 10 17 13 18 11 19 12 20 14 21 21 24 22 25
REMARK SMILES IDX 23 26 24 27 25 28 83 29 26 30 82 31 27 32 28 33 29 34 76 35
REMARK SMILES IDX 30 36 81 37 75 38 77 39 31 40 80 41 74 42 73 43 32 45 62 46
REMARK SMILES IDX 43 47 61 48 44 49 47 50 60 51 78 52 45 53 46 54 59 56 79 57
REMARK SMILES IDX 48 58 33 59 34 60 42 61 35 62 41 63 36 64 37 65 38 66 39 67
REMARK SMILES IDX 40 68 63 69 64 70 72 71 65 72 71 73 66 74 67 75 68 76 69 77
REMARK SMILES IDX 70 78 49 79 50 80 58 81 51 82 57 83 52 84 53 85 54 86 55 87
REMARK SMILES IDX 56 88
REMARK H PARENT 6 14 11 22 11 23 77 44 47 55
REMARK Flexibility Score: inf
ROOT
ATOM      1  C   UNL A   1      37.823  21.190  25.190  1.00  0.00     0.275 C 
ENDROOT
BRANCH   1   2
ATOM      2  C   UNL A   1      36.317  20.982  25.107  1.00  0.00     0.275 C 
BRANCH   2   3
ATOM      3  O   UNL A   1      35.635  21.718  26.137  1.00  0.00    -0.458 OA
BRANCH   3   4
ATOM      4  C   UNL A   1      34.331  21.391  26.370  1.00  0.00     0.343 C 
ATOM      5  O   UNL A   1      33.858  21.228  27.493  1.00  0.00    -0.246 OA
BRANCH   4   6
ATOM      6  C   UNL A   1      33.528  21.319  25.156  1.00  0.00     0.117 A 
ATOM      7  C   UNL A   1      33.239  18.714  24.922  1.00  0.00     0.069 C 
ATOM      8  C   UNL A   1      33.015  20.128  24.511  1.00  0.00     0.068 A 
ATOM      9  N   UNL A   1      32.283  20.330  23.415  1.00  0.00    -0.195 NA
ATOM     10  S   UNL A   1      32.329  21.927  23.038  1.00  0.00    -0.017 S 
ATOM     11  C   UNL A   1      33.231  22.435  24.374  1.00  0.00     0.130 A 
BRANCH  11  12
ATOM     12  N   UNL A   1      33.740  23.717  24.500  1.00  0.00    -0.315 N 
ATOM     13  C   UNL A   1      33.116  24.921  24.689  1.00  0.00     0.234 C 
ATOM     14  H   UNL A   1      34.722  23.773  24.443  1.00  0.00     0.170 HD
ATOM     15  O   UNL A   1      33.486  25.862  23.982  1.00  0.00    -0.274 OA
BRANCH  13  16
ATOM     16  C   UNL A   1      32.215  25.146  25.912  1.00  0.00     0.142 C 
ATOM     17  C   UNL A   1      31.201  24.036  26.176  1.00  0.00     0.274 C 
ATOM     18  C   UNL A   1      31.322  26.409  25.732  1.00  0.00     0.059 C 
ATOM     19  N   UNL A   1      29.921  24.683  26.495  1.00  0.00    -0.345 N 
ATOM     20  C   UNL A   1      29.910  25.843  25.602  1.00  0.00     0.264 C 
ATOM     21  C   UNL A   1      31.440  27.360  26.927  1.00  0.00     0.015 C 
ATOM     22  H   UNL A   1      29.890  24.972  27.472  1.00  0.00     0.346 HD
ATOM     23  H   UNL A   1      29.117  24.069  26.367  1.00  0.00     0.346 HD
ENDBRANCH  13  16
ENDBRANCH  11  12
ENDBRANCH   4   6
ENDBRANCH   3   4
ENDBRANCH   2   3
ENDBRANCH   1   2
BRANCH   1  24
ATOM     24  O   UNL A   1      38.169  22.265  26.064  1.00  0.00    -0.458 OA
BRANCH  24  25
ATOM     25  C   UNL A   1      39.384  22.154  26.646  1.00  0.00     0.338 C 
ATOM     26  O   UNL A   1      39.945  21.125  26.982  1.00  0.00    -0.246 OA
BRANCH  25  27
ATOM     27  C   UNL A   1      39.894  23.483  26.980  1.00  0.00     0.060 A 
ATOM     28  C   UNL A   1      41.098  23.568  27.681  1.00  0.00     0.016 A 
ATOM     29  C   UNL A   1      39.068  24.599  26.788  1.00  0.00     0.016 A 
ATOM     30  C   UNL A   1      41.425  24.765  28.289  1.00  0.00     0.010 A 
ATOM     31  C   UNL A   1      39.405  25.794  27.386  1.00  0.00     0.010 A 
ATOM     32  C   UNL A   1      40.547  25.851  28.183  1.00  0.00    -0.014 A 
BRANCH  32  33
ATOM     33  C   UNL A   1      40.916  27.092  28.848  1.00  0.00     0.031 A 
ATOM     34  C   UNL A   1      42.126  27.742  28.283  1.00  0.00     0.074 A 
ATOM     35  C   UNL A   1      40.152  27.665  29.796  1.00  0.00     0.049 A 
ATOM     36  N   UNL A   1      43.229  28.035  28.887  1.00  0.00    -0.248 NA
ATOM     37  C   UNL A   1      42.152  27.973  26.827  1.00  0.00     0.031 C 
ATOM     38  C   UNL A   1      38.818  27.247  30.241  1.00  0.00     0.029 A 
ATOM     39  N   UNL A   1      40.356  28.829  30.475  1.00  0.00    -0.354 N 
ATOM     40  C   UNL A   1      44.025  28.659  27.932  1.00  0.00     0.074 A 
ATOM     41  C   UNL A   1      43.381  28.457  26.660  1.00  0.00     0.031 C 
ATOM     42  C   UNL A   1      38.237  28.263  30.916  1.00  0.00     0.029 A 
ATOM     43  C   UNL A   1      39.208  29.332  31.073  1.00  0.00     0.049 A 
ATOM     44  H   UNL A   1      41.233  29.271  30.536  1.00  0.00     0.167 HD
ATOM     45  C   UNL A   1      45.024  29.512  28.281  1.00  0.00     0.031 A 
ATOM     46  C   UNL A   1      39.040  30.566  31.604  1.00  0.00     0.031 A 
ATOM     47  C   UNL A   1      45.408  29.362  29.658  1.00  0.00     0.049 A 
ATOM     48  C   UNL A   1      40.381  31.107  31.915  1.00  0.00     0.074 A 
ATOM     49  C   UNL A   1      46.025  28.381  30.404  1.00  0.00     0.029 A 
ATOM     50  N   UNL A   1      44.801  30.218  30.542  1.00  0.00    -0.354 N 
ATOM     51  N   UNL A   1      41.169  30.589  32.816  1.00  0.00    -0.248 NA
ATOM     52  C   UNL A   1      41.031  32.008  30.972  1.00  0.00     0.031 C 
ATOM     53  C   UNL A   1      45.468  28.491  31.712  1.00  0.00     0.029 A 
ATOM     54  C   UNL A   1      44.557  29.551  31.716  1.00  0.00     0.049 A 
ATOM     55  H   UNL A   1      44.576  31.159  30.363  1.00  0.00     0.167 HD
ATOM     56  C   UNL A   1      42.446  30.747  32.304  1.00  0.00     0.074 A 
ATOM     57  C   UNL A   1      42.311  31.762  31.267  1.00  0.00     0.031 C 
ATOM     58  C   UNL A   1      43.426  29.838  32.578  1.00  0.00     0.031 A 
BRANCH  45  59
ATOM     59  C   UNL A   1      45.318  30.773  27.505  1.00  0.00    -0.014 A 
ATOM     60  C   UNL A   1      46.631  31.013  27.054  1.00  0.00     0.010 A 
ATOM     61  C   UNL A   1      44.421  31.864  27.473  1.00  0.00     0.010 A 
ATOM     62  C   UNL A   1      47.039  32.295  26.657  1.00  0.00     0.020 A 
ATOM     63  C   UNL A   1      44.806  33.133  27.041  1.00  0.00     0.020 A 
ATOM     64  C   UNL A   1      46.125  33.349  26.673  1.00  0.00     0.054 A 
BRANCH  64  65
ATOM     65  S   UNL A   1      46.688  35.026  26.291  1.00  0.00     0.124 S 
ATOM     66  O   UNL A   1      47.530  35.328  27.444  1.00  0.00    -0.237 OA
ATOM     67  O   UNL A   1      47.388  34.837  25.023  1.00  0.00    -0.237 OA
ATOM     68  O   UNL A   1      45.447  35.792  26.203  1.00  0.00    -0.744 OA
ENDBRANCH  64  65
ENDBRANCH  45  59
BRANCH  46  69
ATOM     69  C   UNL A   1      37.806  31.384  31.589  1.00  0.00    -0.014 A 
ATOM     70  C   UNL A   1      36.826  31.265  32.590  1.00  0.00     0.010 A 
ATOM     71  C   UNL A   1      37.708  32.475  30.699  1.00  0.00     0.010 A 
ATOM     72  C   UNL A   1      35.810  32.227  32.719  1.00  0.00     0.020 A 
ATOM     73  C   UNL A   1      36.696  33.433  30.816  1.00  0.00     0.020 A 
ATOM     74  C   UNL A   1      35.761  33.315  31.840  1.00  0.00     0.054 A 
BRANCH  74  75
ATOM     75  S   UNL A   1      34.535  34.630  32.104  1.00  0.00     0.124 S 
ATOM     76  O   UNL A   1      34.206  35.026  30.737  1.00  0.00    -0.237 OA
ATOM     77  O   UNL A   1      33.477  33.936  32.834  1.00  0.00    -0.237 OA
ATOM     78  O   UNL A   1      35.265  35.632  32.879  1.00  0.00    -0.744 OA
ENDBRANCH  74  75
ENDBRANCH  46  69
BRANCH  58  79
ATOM     79  C   UNL A   1      43.202  28.899  33.741  1.00  0.00    -0.014 A 
ATOM     80  C   UNL A   1      43.528  29.219  35.074  1.00  0.00     0.010 A 
ATOM     81  C   UNL A   1      42.525  27.694  33.486  1.00  0.00     0.010 A 
ATOM     82  C   UNL A   1      43.209  28.341  36.120  1.00  0.00     0.020 A 
ATOM     83  C   UNL A   1      42.188  26.823  34.526  1.00  0.00     0.020 A 
ATOM     84  C   UNL A   1      42.540  27.146  35.837  1.00  0.00     0.054 A 
BRANCH  84  85
ATOM     85  S   UNL A   1      42.085  26.036  37.199  1.00  0.00     0.124 S 
ATOM     86  O   UNL A   1      40.675  26.352  37.411  1.00  0.00    -0.237 OA
ATOM     87  O   UNL A   1      42.355  24.711  36.645  1.00  0.00    -0.237 OA
ATOM     88  O   UNL A   1      42.977  26.435  38.287  1.00  0.00    -0.744 OA
ENDBRANCH  84  85
ENDBRANCH  58  79
ENDBRANCH  32  33
ENDBRANCH  25  27
ENDBRANCH  24  25
ENDBRANCH   1  24
TORSDOF 16
ENDMDL
MODEL 2
REMARK VINA RESULT:     -11.9      1.111      2.901
REMARK SMILES Cc1nsc(NC(=O)[C@@H]2C[NH2+]C[C@H]2C)c1C(=O)OCCOC(=O)c1ccc(-c2c3nc(c(-c4ccc(S(=O)(=O)[O-])cc4)c4ccc([nH]4)c(-c4ccc(S(=O)(=O)[O-])cc4)c4nc(c(-c5ccc(S(=O)(=O)[O-])cc5)c5ccc2[nH]5)C=C4)C=C3)cc1
REMARK SMILES IDX 20 1 19 2 18 3 16 4 17 5 15 6 1 7 2 8 3 9 4 10 5 11 6 12
REMARK SMILES IDX 7 13 8 15 9 16 10 17 13 18 11 19 12 20 14 21 21 24 22 25
REMARK SMILES IDX 23 26 24 27 25 28 83 29 26 30 82 31 27 32 28 33 29 34 76 35
REMARK SMILES IDX 30 36 81 37 75 38 77 39 31 40 80 41 74 42 73 43 32 45 62 46
REMARK SMILES IDX 43 47 61 48 44 49 47 50 60 51 78 52 45 53 46 54 59 56 79 57
REMARK SMILES IDX 48 58 33 59 34 60 42 61 35 62 41 63 36 64 37 65 38 66 39 67
REMARK SMILES IDX 40 68 63 69 64 70 72 71 65 72 71 73 66 74 67 75 68 76 69 77
REMARK SMILES IDX 70 78 49 79 50 80 58 81 51 82 57 83 52 84 53 85 54 86 55 87
REMARK SMILES IDX 56 88
REMARK H PARENT 6 14 11 22 11 23 77 44 47 55
REMARK Flexibility Score: inf
ROOT
ATOM      1  C   UNL A   1      37.971  21.183  25.257  1.00  0.00     0.275 C 
ENDROOT
BRANCH   1   2
ATOM      2  C   UNL A   1      36.471  20.932  25.340  1.00  0.00     0.275 C 
BRANCH   2   3
ATOM      3  O   UNL A   1      35.756  22.152  25.604  1.00  0.00    -0.458 OA
BRANCH   3   4
ATOM      4  C   UNL A   1      34.853  22.554  24.664  1.00  0.00     0.343 C 
ATOM      5  O   UNL A   1      35.104  22.628  23.463  1.00  0.00    -0.246 OA
BRANCH   4   6
ATOM      6  C   UNL A   1      33.531  22.826  25.214  1.00  0.00     0.117 A 
ATOM      7  C   UNL A   1      33.438  25.445  24.973  1.00  0.00     0.069 C 
ATOM      8  C   UNL A   1      32.878  24.113  25.337  1.00  0.00     0.068 A 
ATOM      9  N   UNL A   1      31.651  24.096  25.856  1.00  0.00    -0.195 NA
ATOM     10  S   UNL A   1      31.315  22.569  26.361  1.00  0.00    -0.017 S 
ATOM     11  C   UNL A   1      32.740  21.846  25.811  1.00  0.00     0.130 A 
BRANCH  11  12
ATOM     12  N   UNL A   1      33.097  20.544  26.125  1.00  0.00    -0.315 N 
ATOM     13  C   UNL A   1      32.821  19.358  25.498  1.00  0.00     0.234 C 
ATOM     14  H   UNL A   1      33.643  20.457  26.939  1.00  0.00     0.170 HD
ATOM     15  O   UNL A   1      32.446  18.422  26.209  1.00  0.00    -0.274 OA
BRANCH  13  16
ATOM     16  C   UNL A   1      33.240  19.134  24.038  1.00  0.00     0.142 C 
ATOM     17  C   UNL A   1      32.408  19.892  23.007  1.00  0.00     0.274 C 
ATOM     18  C   UNL A   1      33.057  17.646  23.620  1.00  0.00     0.059 C 
ATOM     19  N   UNL A   1      32.118  18.958  21.911  1.00  0.00    -0.345 N 
ATOM     20  C   UNL A   1      31.913  17.688  22.609  1.00  0.00     0.264 C 
ATOM     21  C   UNL A   1      34.334  17.071  22.999  1.00  0.00     0.015 C 
ATOM     22  H   UNL A   1      32.903  18.899  21.263  1.00  0.00     0.346 HD
ATOM     23  H   UNL A   1      31.318  19.240  21.344  1.00  0.00     0.346 HD
ENDBRANCH  13  16
ENDBRANCH  11  12
ENDBRANCH   4   6
ENDBRANCH   3   4
ENDBRANCH   2   3
ENDBRANCH   1   2
BRANCH   1  24
ATOM     24  O   UNL A   1      38.358  22.363  25.963  1.00  0.00    -0.458 OA
BRANCH  24  25
ATOM     25  C   UNL A   1      39.525  22.262  26.638  1.00  0.00     0.338 C 
ATOM     26  O   UNL A   1      40.069  21.238  27.013  1.00  0.00    -0.246 OA
BRANCH  25  27
ATOM     27  C   UNL A   1      39.992  23.595  27.016  1.00  0.00     0.060 A 
ATOM     28  C   UNL A   1      41.154  23.691  27.783  1.00  0.00     0.016 A 
ATOM     29  C   UNL A   1      39.159  24.699  26.793  1.00  0.00     0.016 A 
ATOM     30  C   UNL A   1      41.426  24.885  28.423  1.00  0.00     0.010 A 
ATOM     31  C   UNL A   1      39.440  25.892  27.423  1.00  0.00     0.010 A 
ATOM     32  C   UNL A   1      40.536  25.958  28.282  1.00  0.00    -0.014 A 
BRANCH  32  33
ATOM     33  C   UNL A   1      40.846  27.195  28.982  1.00  0.00     0.031 A 
ATOM     34  C   UNL A   1      42.008  27.930  28.421  1.00  0.00     0.074 A 
ATOM     35  C   UNL A   1      40.067  27.694  29.960  1.00  0.00     0.049 A 
ATOM     36  N   UNL A   1      43.103  28.266  29.018  1.00  0.00    -0.248 NA
ATOM     37  C   UNL A   1      41.998  28.208  26.974  1.00  0.00     0.031 C 
ATOM     38  C   UNL A   1      38.766  27.187  30.410  1.00  0.00     0.029 A 
ATOM     39  N   UNL A   1      40.216  28.845  30.674  1.00  0.00    -0.354 N 
ATOM     40  C   UNL A   1      43.847  28.964  28.073  1.00  0.00     0.074 A 
ATOM     41  C   UNL A   1      43.195  28.766  26.804  1.00  0.00     0.031 C 
ATOM     42  C   UNL A   1      38.140  28.147  31.126  1.00  0.00     0.029 A 
ATOM     43  C   UNL A   1      39.053  29.263  31.304  1.00  0.00     0.049 A 
ATOM     44  H   UNL A   1      41.069  29.333  30.736  1.00  0.00     0.167 HD
ATOM     45  C   UNL A   1      44.803  29.860  28.434  1.00  0.00     0.031 A 
ATOM     46  C   UNL A   1      38.825  30.468  31.878  1.00  0.00     0.031 A 
ATOM     47  C   UNL A   1      45.217  29.688  29.800  1.00  0.00     0.049 A 
ATOM     48  C   UNL A   1      40.138  31.074  32.186  1.00  0.00     0.074 A 
ATOM     49  C   UNL A   1      45.900  28.720  30.504  1.00  0.00     0.029 A 
ATOM     50  N   UNL A   1      44.578  30.479  30.720  1.00  0.00    -0.354 N 
ATOM     51  N   UNL A   1      40.968  30.573  33.058  1.00  0.00    -0.248 NA
ATOM     52  C   UNL A   1      40.721  32.040  31.264  1.00  0.00     0.031 C 
ATOM     53  C   UNL A   1      45.360  28.756  31.823  1.00  0.00     0.029 A 
ATOM     54  C   UNL A   1      44.391  29.763  31.875  1.00  0.00     0.049 A 
ATOM     55  H   UNL A   1      44.297  31.412  30.575  1.00  0.00     0.167 HD
ATOM     56  C   UNL A   1      42.226  30.819  32.534  1.00  0.00     0.074 A 
ATOM     57  C   UNL A   1      42.018  31.857  31.532  1.00  0.00     0.031 C 
ATOM     58  C   UNL A   1      43.260  29.958  32.763  1.00  0.00     0.031 A 
BRANCH  45  59
ATOM     59  C   UNL A   1      45.013  31.160  27.696  1.00  0.00    -0.014 A 
ATOM     60  C   UNL A   1      46.258  31.411  27.088  1.00  0.00     0.010 A 
ATOM     61  C   UNL A   1      44.138  32.259  27.843  1.00  0.00     0.010 A 
ATOM     62  C   UNL A   1      46.633  32.710  26.710  1.00  0.00     0.020 A 
ATOM     63  C   UNL A   1      44.484  33.547  27.433  1.00  0.00     0.020 A 
ATOM     64  C   UNL A   1      45.746  33.771  26.905  1.00  0.00     0.054 A 
BRANCH  64  65
ATOM     65  S   UNL A   1      46.283  35.460  26.543  1.00  0.00     0.124 S 
ATOM     66  O   UNL A   1      45.010  36.142  26.340  1.00  0.00    -0.237 OA
ATOM     67  O   UNL A   1      47.012  35.821  27.757  1.00  0.00    -0.237 OA
ATOM     68  O   UNL A   1      47.111  35.307  25.348  1.00  0.00    -0.744 OA
ENDBRANCH  64  65
ENDBRANCH  45  59
BRANCH  46  69
ATOM     69  C   UNL A   1      37.546  31.215  31.907  1.00  0.00    -0.014 A 
ATOM     70  C   UNL A   1      36.924  31.571  33.116  1.00  0.00     0.010 A 
ATOM     71  C   UNL A   1      37.057  31.799  30.719  1.00  0.00     0.010 A 
ATOM     72  C   UNL A   1      35.876  32.508  33.137  1.00  0.00     0.020 A 
ATOM     73  C   UNL A   1      36.011  32.726  30.730  1.00  0.00     0.020 A 
ATOM     74  C   UNL A   1      35.437  33.092  31.945  1.00  0.00     0.054 A 
BRANCH  74  75
ATOM     75  S   UNL A   1      34.185  34.408  31.995  1.00  0.00     0.124 S 
ATOM     76  O   UNL A   1      34.956  35.550  32.479  1.00  0.00    -0.237 OA
ATOM     77  O   UNL A   1      33.748  34.484  30.604  1.00  0.00    -0.237 OA
ATOM     78  O   UNL A   1      33.184  33.897  32.930  1.00  0.00    -0.744 OA
ENDBRANCH  74  75
ENDBRANCH  46  69
BRANCH  58  79
ATOM     79  C   UNL A   1      43.108  28.971  33.897  1.00  0.00    -0.014 A 
ATOM     80  C   UNL A   1      43.583  29.208  35.203  1.00  0.00     0.010 A 
ATOM     81  C   UNL A   1      42.350  27.813  33.658  1.00  0.00     0.010 A 
ATOM     82  C   UNL A   1      43.327  28.292  36.234  1.00  0.00     0.020 A 
ATOM     83  C   UNL A   1      42.077  26.906  34.685  1.00  0.00     0.020 A 
ATOM     84  C   UNL A   1      42.574  27.144  35.967  1.00  0.00     0.054 A 
BRANCH  84  85
ATOM     85  S   UNL A   1      42.205  25.987  37.315  1.00  0.00     0.124 S 
ATOM     86  O   UNL A   1      40.779  26.208  37.543  1.00  0.00    -0.237 OA
ATOM     87  O   UNL A   1      42.555  24.690  36.738  1.00  0.00    -0.237 OA
ATOM     88  O   UNL A   1      43.079  26.427  38.402  1.00  0.00    -0.744 OA
ENDBRANCH  84  85
ENDBRANCH  58  79
ENDBRANCH  32  33
ENDBRANCH  25  27
ENDBRANCH  24  25
ENDBRANCH   1  24
TORSDOF 16
ENDMDL
MODEL 3
REMARK VINA RESULT:     -11.9      2.816      9.419
REMARK SMILES Cc1nsc(NC(=O)[C@@H]2C[NH2+]C[C@H]2C)c1C(=O)OCCOC(=O)c1ccc(-c2c3nc(c(-c4ccc(S(=O)(=O)[O-])cc4)c4ccc([nH]4)c(-c4ccc(S(=O)(=O)[O-])cc4)c4nc(c(-c5ccc(S(=O)(=O)[O-])cc5)c5ccc2[nH]5)C=C4)C=C3)cc1
REMARK SMILES IDX 20 1 19 2 18 3 16 4 17 5 15 6 1 7 2 8 3 9 4 10 5 11 6 12
REMARK SMILES IDX 7 13 8 15 9 16 10 17 13 18 11 19 12 20 14 21 21 24 22 25
REMARK SMILES IDX 23 26 24 27 25 28 83 29 26 30 82 31 27 32 28 33 29 34 76 35
REMARK SMILES IDX 30 36 81 37 75 38 77 39 31 40 80 41 74 42 73 43 32 45 62 46
REMARK SMILES IDX 43 47 61 48 44 49 47 50 60 51 78 52 45 53 46 54 59 56 79 57
REMARK SMILES IDX 48 58 33 59 34 60 42 61 35 62 41 63 36 64 37 65 38 66 39 67
REMARK SMILES IDX 40 68 63 69 64 70 72 71 65 72 71 73 66 74 67 75 68 76 69 77
REMARK SMILES IDX 70 78 49 79 50 80 58 81 51 82 57 83 52 84 53 85 54 86 55 87
REMARK SMILES IDX 56 88
REMARK H PARENT 6 14 11 22 11 23 77 44 47 55
REMARK Flexibility Score: inf
ROOT
ATOM      1  C   UNL A   1      32.620  30.793  26.943  1.00  0.00     0.275 C 
ENDROOT
BRANCH   1   2
ATOM      2  C   UNL A   1      31.810  29.503  26.952  1.00  0.00     0.275 C 
BRANCH   2   3
ATOM      3  O   UNL A   1      32.572  28.410  26.411  1.00  0.00    -0.458 OA
BRANCH   3   4
ATOM      4  C   UNL A   1      32.507  28.219  25.062  1.00  0.00     0.343 C 
ATOM      5  O   UNL A   1      33.425  28.487  24.290  1.00  0.00    -0.246 OA
BRANCH   4   6
ATOM      6  C   UNL A   1      31.262  27.599  24.626  1.00  0.00     0.117 A 
ATOM      7  C   UNL A   1      30.377  29.423  22.949  1.00  0.00     0.069 C 
ATOM      8  C   UNL A   1      30.312  28.118  23.665  1.00  0.00     0.068 A 
ATOM      9  N   UNL A   1      29.253  27.346  23.418  1.00  0.00    -0.195 NA
ATOM     10  S   UNL A   1      29.285  26.066  24.446  1.00  0.00    -0.017 S 
ATOM     11  C   UNL A   1      30.761  26.425  25.186  1.00  0.00     0.130 A 
BRANCH  11  12
ATOM     12  N   UNL A   1      31.231  25.750  26.302  1.00  0.00    -0.315 N 
ATOM     13  C   UNL A   1      31.641  24.453  26.465  1.00  0.00     0.234 C 
ATOM     14  H   UNL A   1      31.280  26.298  27.118  1.00  0.00     0.170 HD
ATOM     15  O   UNL A   1      31.213  23.850  27.452  1.00  0.00    -0.274 OA
BRANCH  13  16
ATOM     16  C   UNL A   1      32.794  23.890  25.623  1.00  0.00     0.142 C 
ATOM     17  C   UNL A   1      32.363  23.041  24.429  1.00  0.00     0.274 C 
ATOM     18  C   UNL A   1      33.676  22.913  26.454  1.00  0.00     0.059 C 
ATOM     19  N   UNL A   1      33.229  21.854  24.404  1.00  0.00    -0.345 N 
ATOM     20  C   UNL A   1      33.405  21.548  25.824  1.00  0.00     0.264 C 
ATOM     21  C   UNL A   1      35.160  23.284  26.374  1.00  0.00     0.015 C 
ATOM     22  H   UNL A   1      34.122  22.062  23.959  1.00  0.00     0.346 HD
ATOM     23  H   UNL A   1      32.833  21.079  23.871  1.00  0.00     0.346 HD
ENDBRANCH  13  16
ENDBRANCH  11  12
ENDBRANCH   4   6
ENDBRANCH   3   4
ENDBRANCH   2   3
ENDBRANCH   1   2
BRANCH   1  24
ATOM     24  O   UNL A   1      34.024  30.546  27.040  1.00  0.00    -0.458 OA
BRANCH  24  25
ATOM     25  C   UNL A   1      34.731  31.527  27.643  1.00  0.00     0.338 C 
ATOM     26  O   UNL A   1      34.510  32.724  27.598  1.00  0.00    -0.246 OA
BRANCH  25  27
ATOM     27  C   UNL A   1      35.934  30.963  28.253  1.00  0.00     0.060 A 
ATOM     28  C   UNL A   1      36.882  31.845  28.776  1.00  0.00     0.016 A 
ATOM     29  C   UNL A   1      36.201  29.596  28.099  1.00  0.00     0.016 A 
ATOM     30  C   UNL A   1      38.150  31.367  29.047  1.00  0.00     0.010 A 
ATOM     31  C   UNL A   1      37.464  29.121  28.382  1.00  0.00     0.010 A 
ATOM     32  C   UNL A   1      38.445  30.021  28.794  1.00  0.00    -0.014 A 
BRANCH  32  33
ATOM     33  C   UNL A   1      39.794  29.556  29.079  1.00  0.00     0.031 A 
ATOM     34  C   UNL A   1      40.133  29.533  30.524  1.00  0.00     0.074 A 
ATOM     35  C   UNL A   1      40.610  29.063  28.128  1.00  0.00     0.049 A 
ATOM     36  N   UNL A   1      41.089  30.155  31.129  1.00  0.00    -0.248 NA
ATOM     37  C   UNL A   1      39.203  28.830  31.425  1.00  0.00     0.031 C 
ATOM     38  C   UNL A   1      40.284  28.799  26.722  1.00  0.00     0.029 A 
ATOM     39  N   UNL A   1      41.873  28.568  28.252  1.00  0.00    -0.354 N 
ATOM     40  C   UNL A   1      40.999  29.776  32.463  1.00  0.00     0.074 A 
ATOM     41  C   UNL A   1      39.742  29.090  32.615  1.00  0.00     0.031 C 
ATOM     42  C   UNL A   1      41.218  27.976  26.197  1.00  0.00     0.029 A 
ATOM     43  C   UNL A   1      42.271  27.782  27.179  1.00  0.00     0.049 A 
ATOM     44  H   UNL A   1      42.449  28.750  29.029  1.00  0.00     0.167 HD
ATOM     45  C   UNL A   1      42.072  29.829  33.297  1.00  0.00     0.031 A 
ATOM     46  C   UNL A   1      43.355  26.973  27.119  1.00  0.00     0.031 A 
ATOM     47  C   UNL A   1      43.116  30.672  32.781  1.00  0.00     0.049 A 
ATOM     48  C   UNL A   1      44.315  27.433  28.146  1.00  0.00     0.074 A 
ATOM     49  C   UNL A   1      43.264  32.022  32.551  1.00  0.00     0.029 A 
ATOM     50  N   UNL A   1      44.101  30.032  32.072  1.00  0.00    -0.354 N 
ATOM     51  N   UNL A   1      44.908  28.593  28.099  1.00  0.00    -0.248 NA
ATOM     52  C   UNL A   1      44.356  26.772  29.443  1.00  0.00     0.031 C 
ATOM     53  C   UNL A   1      44.130  32.123  31.422  1.00  0.00     0.029 A 
ATOM     54  C   UNL A   1      44.495  30.832  31.029  1.00  0.00     0.049 A 
ATOM     55  H   UNL A   1      44.466  29.141  32.277  1.00  0.00     0.167 HD
ATOM     56  C   UNL A   1      45.011  28.993  29.421  1.00  0.00     0.074 A 
ATOM     57  C   UNL A   1      44.813  27.776  30.197  1.00  0.00     0.031 C 
ATOM     58  C   UNL A   1      44.963  30.315  29.757  1.00  0.00     0.031 A 
BRANCH  45  59
ATOM     59  C   UNL A   1      42.345  28.765  34.332  1.00  0.00    -0.014 A 
ATOM     60  C   UNL A   1      42.506  29.143  35.680  1.00  0.00     0.010 A 
ATOM     61  C   UNL A   1      42.748  27.458  33.980  1.00  0.00     0.010 A 
ATOM     62  C   UNL A   1      43.105  28.279  36.609  1.00  0.00     0.020 A 
ATOM     63  C   UNL A   1      43.307  26.576  34.906  1.00  0.00     0.020 A 
ATOM     64  C   UNL A   1      43.517  27.007  36.207  1.00  0.00     0.054 A 
BRANCH  64  65
ATOM     65  S   UNL A   1      44.410  25.948  37.371  1.00  0.00     0.124 S 
ATOM     66  O   UNL A   1      43.829  26.350  38.648  1.00  0.00    -0.237 OA
ATOM     67  O   UNL A   1      44.059  24.610  36.905  1.00  0.00    -0.237 OA
ATOM     68  O   UNL A   1      45.809  26.325  37.173  1.00  0.00    -0.744 OA
ENDBRANCH  64  65
ENDBRANCH  45  59
BRANCH  46  69
ATOM     69  C   UNL A   1      43.462  25.675  26.415  1.00  0.00    -0.014 A 
ATOM     70  C   UNL A   1      44.319  25.498  25.315  1.00  0.00     0.010 A 
ATOM     71  C   UNL A   1      42.887  24.523  26.992  1.00  0.00     0.010 A 
ATOM     72  C   UNL A   1      44.619  24.210  24.838  1.00  0.00     0.020 A 
ATOM     73  C   UNL A   1      43.175  23.239  26.520  1.00  0.00     0.020 A 
ATOM     74  C   UNL A   1      44.057  23.087  25.454  1.00  0.00     0.054 A 
BRANCH  74  75
ATOM     75  S   UNL A   1      44.565  21.424  24.927  1.00  0.00     0.124 S 
ATOM     76  O   UNL A   1      44.617  21.561  23.474  1.00  0.00    -0.237 OA
ATOM     77  O   UNL A   1      45.854  21.259  25.594  1.00  0.00    -0.237 OA
ATOM     78  O   UNL A   1      43.496  20.562  25.429  1.00  0.00    -0.744 OA
ENDBRANCH  74  75
ENDBRANCH  46  69
BRANCH  58  79
ATOM     79  C   UNL A   1      45.191  31.324  28.656  1.00  0.00    -0.014 A 
ATOM     80  C   UNL A   1      44.149  31.911  27.911  1.00  0.00     0.010 A 
ATOM     81  C   UNL A   1      46.503  31.782  28.449  1.00  0.00     0.010 A 
ATOM     82  C   UNL A   1      44.420  32.911  26.965  1.00  0.00     0.020 A 
ATOM     83  C   UNL A   1      46.778  32.790  27.522  1.00  0.00     0.020 A 
ATOM     84  C   UNL A   1      45.736  33.343  26.776  1.00  0.00     0.054 A 
BRANCH  84  85
ATOM     85  S   UNL A   1      46.076  34.671  25.587  1.00  0.00     0.124 S 
ATOM     86  O   UNL A   1      45.231  34.308  24.453  1.00  0.00    -0.237 OA
ATOM     87  O   UNL A   1      45.671  35.872  26.313  1.00  0.00    -0.237 OA
ATOM     88  O   UNL A   1      47.515  34.562  25.344  1.00  0.00    -0.744 OA
ENDBRANCH  84  85
ENDBRANCH  58  79
ENDBRANCH  32  33
ENDBRANCH  25  27
ENDBRANCH  24  25
ENDBRANCH   1  24
TORSDOF 16
ENDMDL
