MODEL 1
REMARK VINA RESULT:     -11.6      0.000      0.000
REMARK SMILES C[C@H](Oc1cc2oc(=O)cc(-c3ccccc3)c2cc1Cl)C(=O)OCCOC(=O)c1ccc(-c2c3nc(c(-c4ccc(S(=O)(=O)[O-])cc4)c4ccc([nH]4)c(-c4ccc(S(=O)(=O)[O-])cc4)c4nc(c(-c5ccc(S(=O)(=O)[O-])cc5)c5ccc2[nH]5)C=C4)C=C3)cc1
REMARK SMILES IDX 25 1 24 2 22 3 23 4 2 5 1 6 3 7 4 8 5 9 20 10 6 11 19 12
REMARK SMILES IDX 21 13 7 14 18 15 8 16 11 17 9 18 10 19 12 20 13 21 17 22
REMARK SMILES IDX 14 23 16 24 15 25 26 26 27 27 28 28 29 29 30 30 31 31 89 32
REMARK SMILES IDX 32 33 88 34 33 35 34 36 35 37 82 38 36 39 87 40 81 41 83 42
REMARK SMILES IDX 37 43 86 44 80 45 79 46 38 48 68 49 49 50 67 51 50 52 53 53
REMARK SMILES IDX 66 54 84 55 51 56 52 57 65 59 85 60 54 61 39 62 40 63 48 64
REMARK SMILES IDX 41 65 47 66 42 67 43 68 44 69 45 70 46 71 69 72 70 73 78 74
REMARK SMILES IDX 71 75 77 76 72 77 73 78 74 79 75 80 76 81 55 82 56 83 64 84
REMARK SMILES IDX 57 85 63 86 58 87 59 88 60 89 61 90 62 91
REMARK H PARENT 83 47 53 58
REMARK Flexibility Score: inf
ROOT
ATOM      1  C   UNL A   1      32.151  29.921  25.351  1.00  0.00     0.274 C 
ENDROOT
BRANCH   1   2
ATOM      2  O   UNL A   1      31.544  28.618  25.275  1.00  0.00    -0.459 OA
BRANCH   2   3
ATOM      3  C   UNL A   1      30.641  28.423  24.271  1.00  0.00     0.347 C 
ATOM      4  O   UNL A   1      30.101  29.323  23.636  1.00  0.00    -0.248 OA
BRANCH   3   5
ATOM      5  C   UNL A   1      30.276  26.945  24.100  1.00  0.00     0.279 C 
ATOM      6  C   UNL A   1      30.450  26.301  25.478  1.00  0.00     0.066 C 
BRANCH   5   7
ATOM      7  O   UNL A   1      31.089  26.384  23.069  1.00  0.00    -0.477 OA
BRANCH   7   8
ATOM      8  C   UNL A   1      31.913  25.318  23.287  1.00  0.00     0.142 A 
ATOM      9  C   UNL A   1      31.502  23.991  23.347  1.00  0.00     0.096 A 
ATOM     10  C   UNL A   1      33.267  25.603  23.538  1.00  0.00     0.084 A 
ATOM     11  C   UNL A   1      32.387  23.012  23.813  1.00  0.00     0.142 A 
ATOM     12  C   UNL A   1      34.164  24.596  23.930  1.00  0.00     0.037 A 
ATOM     13  Cl  UNL A   1      33.883  27.216  23.423  1.00  0.00    -0.080 Cl
ATOM     14  O   UNL A   1      31.836  21.733  24.007  1.00  0.00    -0.423 OA
ATOM     15  C   UNL A   1      33.714  23.289  24.136  1.00  0.00     0.027 A 
ATOM     16  C   UNL A   1      32.553  20.751  24.663  1.00  0.00     0.336 A 
ATOM     17  C   UNL A   1      34.557  22.221  24.706  1.00  0.00    -0.000 A 
ATOM     18  O   UNL A   1      32.058  19.676  24.979  1.00  0.00    -0.246 OA
ATOM     19  C   UNL A   1      33.959  21.045  24.968  1.00  0.00     0.103 A 
BRANCH  17  20
ATOM     20  C   UNL A   1      35.979  22.323  25.108  1.00  0.00    -0.017 A 
ATOM     21  C   UNL A   1      36.848  21.235  24.930  1.00  0.00     0.009 A 
ATOM     22  C   UNL A   1      36.476  23.493  25.698  1.00  0.00     0.009 A 
ATOM     23  C   UNL A   1      38.182  21.315  25.337  1.00  0.00     0.001 A 
ATOM     24  C   UNL A   1      37.813  23.578  26.091  1.00  0.00     0.001 A 
ATOM     25  C   UNL A   1      38.664  22.488  25.914  1.00  0.00     0.000 A 
ENDBRANCH  17  20
ENDBRANCH   7   8
ENDBRANCH   5   7
ENDBRANCH   3   5
ENDBRANCH   2   3
ENDBRANCH   1   2
BRANCH   1  26
ATOM     26  C   UNL A   1      32.401  30.366  26.794  1.00  0.00     0.275 C 
BRANCH  26  27
ATOM     27  O   UNL A   1      33.607  29.792  27.327  1.00  0.00    -0.458 OA
BRANCH  27  28
ATOM     28  C   UNL A   1      34.416  30.672  27.964  1.00  0.00     0.338 C 
ATOM     29  O   UNL A   1      34.096  31.750  28.433  1.00  0.00    -0.246 OA
BRANCH  28  30
ATOM     30  C   UNL A   1      35.755  30.089  28.155  1.00  0.00     0.060 A 
ATOM     31  C   UNL A   1      36.074  29.607  29.429  1.00  0.00     0.016 A 
ATOM     32  C   UNL A   1      36.706  30.077  27.131  1.00  0.00     0.016 A 
ATOM     33  C   UNL A   1      37.355  29.130  29.692  1.00  0.00     0.010 A 
ATOM     34  C   UNL A   1      37.995  29.605  27.400  1.00  0.00     0.010 A 
ATOM     35  C   UNL A   1      38.330  29.150  28.686  1.00  0.00    -0.014 A 
BRANCH  35  36
ATOM     36  C   UNL A   1      39.725  28.782  29.024  1.00  0.00     0.031 A 
ATOM     37  C   UNL A   1      40.583  29.758  29.778  1.00  0.00     0.074 A 
ATOM     38  C   UNL A   1      40.201  27.566  28.702  1.00  0.00     0.049 A 
ATOM     39  N   UNL A   1      41.821  29.629  30.184  1.00  0.00    -0.248 NA
ATOM     40  C   UNL A   1      39.967  31.048  30.125  1.00  0.00     0.031 C 
ATOM     41  C   UNL A   1      39.446  26.519  28.011  1.00  0.00     0.029 A 
ATOM     42  N   UNL A   1      41.432  27.004  28.924  1.00  0.00    -0.354 N 
ATOM     43  C   UNL A   1      42.135  30.821  30.822  1.00  0.00     0.074 A 
ATOM     44  C   UNL A   1      40.966  31.671  30.733  1.00  0.00     0.031 C 
ATOM     45  C   UNL A   1      40.229  25.434  27.879  1.00  0.00     0.029 A 
ATOM     46  C   UNL A   1      41.545  25.721  28.445  1.00  0.00     0.049 A 
ATOM     47  H   UNL A   1      42.164  27.473  29.384  1.00  0.00     0.167 HD
ATOM     48  C   UNL A   1      43.293  31.178  31.431  1.00  0.00     0.031 A 
ATOM     49  C   UNL A   1      42.595  24.877  28.453  1.00  0.00     0.031 A 
ATOM     50  C   UNL A   1      44.457  30.336  31.510  1.00  0.00     0.049 A 
ATOM     51  C   UNL A   1      43.889  25.318  29.082  1.00  0.00     0.074 A 
ATOM     52  C   UNL A   1      45.675  30.605  32.109  1.00  0.00     0.029 A 
ATOM     53  N   UNL A   1      44.548  29.063  30.970  1.00  0.00    -0.354 N 
ATOM     54  N   UNL A   1      44.168  26.448  29.690  1.00  0.00    -0.248 NA
ATOM     55  C   UNL A   1      45.008  24.368  29.031  1.00  0.00     0.031 C 
ATOM     56  C   UNL A   1      46.518  29.508  31.893  1.00  0.00     0.029 A 
ATOM     57  C   UNL A   1      45.809  28.539  31.202  1.00  0.00     0.049 A 
ATOM     58  H   UNL A   1      43.823  28.598  30.491  1.00  0.00     0.167 HD
ATOM     59  C   UNL A   1      45.488  26.334  30.112  1.00  0.00     0.074 A 
ATOM     60  C   UNL A   1      45.946  25.022  29.701  1.00  0.00     0.031 C 
ATOM     61  C   UNL A   1      46.251  27.234  30.781  1.00  0.00     0.031 A 
BRANCH  48  62
ATOM     62  C   UNL A   1      43.361  32.560  32.020  1.00  0.00    -0.014 A 
ATOM     63  C   UNL A   1      42.959  32.810  33.345  1.00  0.00     0.010 A 
ATOM     64  C   UNL A   1      43.843  33.625  31.238  1.00  0.00     0.010 A 
ATOM     65  C   UNL A   1      42.994  34.109  33.861  1.00  0.00     0.020 A 
ATOM     66  C   UNL A   1      43.900  34.921  31.758  1.00  0.00     0.020 A 
ATOM     67  C   UNL A   1      43.455  35.158  33.060  1.00  0.00     0.054 A 
BRANCH  67  68
ATOM     68  S   UNL A   1      43.488  36.836  33.749  1.00  0.00     0.124 S 
ATOM     69  O   UNL A   1      44.684  36.792  34.587  1.00  0.00    -0.237 OA
ATOM     70  O   UNL A   1      43.588  37.674  32.557  1.00  0.00    -0.237 OA
ATOM     71  O   UNL A   1      42.223  36.937  34.473  1.00  0.00    -0.744 OA
ENDBRANCH  67  68
ENDBRANCH  48  62
BRANCH  49  72
ATOM     72  C   UNL A   1      42.468  23.529  27.838  1.00  0.00    -0.014 A 
ATOM     73  C   UNL A   1      42.898  23.301  26.520  1.00  0.00     0.010 A 
ATOM     74  C   UNL A   1      41.923  22.462  28.575  1.00  0.00     0.010 A 
ATOM     75  C   UNL A   1      42.774  22.033  25.944  1.00  0.00     0.020 A 
ATOM     76  C   UNL A   1      41.820  21.188  28.011  1.00  0.00     0.020 A 
ATOM     77  C   UNL A   1      42.237  20.983  26.695  1.00  0.00     0.054 A 
BRANCH  77  78
ATOM     78  S   UNL A   1      42.138  19.331  25.951  1.00  0.00     0.124 S 
ATOM     79  O   UNL A   1      42.688  18.488  27.008  1.00  0.00    -0.237 OA
ATOM     80  O   UNL A   1      40.708  19.180  25.699  1.00  0.00    -0.237 OA
ATOM     81  O   UNL A   1      42.964  19.449  24.750  1.00  0.00    -0.744 OA
ENDBRANCH  77  78
ENDBRANCH  49  72
BRANCH  61  82
ATOM     82  C   UNL A   1      47.651  26.816  31.138  1.00  0.00    -0.014 A 
ATOM     83  C   UNL A   1      47.929  26.167  32.354  1.00  0.00     0.010 A 
ATOM     84  C   UNL A   1      48.697  27.042  30.226  1.00  0.00     0.010 A 
ATOM     85  C   UNL A   1      49.237  25.784  32.666  1.00  0.00     0.020 A 
ATOM     86  C   UNL A   1      50.001  26.640  30.524  1.00  0.00     0.020 A 
ATOM     87  C   UNL A   1      50.265  26.026  31.750  1.00  0.00     0.054 A 
BRANCH  87  88
ATOM     88  S   UNL A   1      51.950  25.492  32.159  1.00  0.00     0.124 S 
ATOM     89  O   UNL A   1      51.788  24.045  32.281  1.00  0.00    -0.237 OA
ATOM     90  O   UNL A   1      52.722  25.942  31.003  1.00  0.00    -0.237 OA
ATOM     91  O   UNL A   1      52.242  26.195  33.406  1.00  0.00    -0.744 OA
ENDBRANCH  87  88
ENDBRANCH  61  82
ENDBRANCH  35  36
ENDBRANCH  28  30
ENDBRANCH  27  28
ENDBRANCH  26  27
ENDBRANCH   1  26
TORSDOF 17
ENDMDL
MODEL 2
REMARK VINA RESULT:     -11.4      2.406      9.422
REMARK SMILES C[C@H](Oc1cc2oc(=O)cc(-c3ccccc3)c2cc1Cl)C(=O)OCCOC(=O)c1ccc(-c2c3nc(c(-c4ccc(S(=O)(=O)[O-])cc4)c4ccc([nH]4)c(-c4ccc(S(=O)(=O)[O-])cc4)c4nc(c(-c5ccc(S(=O)(=O)[O-])cc5)c5ccc2[nH]5)C=C4)C=C3)cc1
REMARK SMILES IDX 25 1 24 2 22 3 23 4 2 5 1 6 3 7 4 8 5 9 20 10 6 11 19 12
REMARK SMILES IDX 21 13 7 14 18 15 8 16 11 17 9 18 10 19 12 20 13 21 17 22
REMARK SMILES IDX 14 23 16 24 15 25 26 26 27 27 28 28 29 29 30 30 31 31 89 32
REMARK SMILES IDX 32 33 88 34 33 35 34 36 35 37 82 38 36 39 87 40 81 41 83 42
REMARK SMILES IDX 37 43 86 44 80 45 79 46 38 48 68 49 49 50 67 51 50 52 53 53
REMARK SMILES IDX 66 54 84 55 51 56 52 57 65 59 85 60 54 61 39 62 40 63 48 64
REMARK SMILES IDX 41 65 47 66 42 67 43 68 44 69 45 70 46 71 69 72 70 73 78 74
REMARK SMILES IDX 71 75 77 76 72 77 73 78 74 79 75 80 76 81 55 82 56 83 64 84
REMARK SMILES IDX 57 85 63 86 58 87 59 88 60 89 61 90 62 91
REMARK H PARENT 83 47 53 58
REMARK Flexibility Score: inf
ROOT
ATOM      1  C   UNL A   1      36.006  21.387  25.614  1.00  0.00     0.274 C 
ENDROOT
BRANCH   1   2
ATOM      2  O   UNL A   1      35.052  21.647  24.570  1.00  0.00    -0.459 OA
BRANCH   2   3
ATOM      3  C   UNL A   1      33.822  21.074  24.710  1.00  0.00     0.347 C 
ATOM      4  O   UNL A   1      33.595  20.065  25.371  1.00  0.00    -0.248 OA
BRANCH   3   5
ATOM      5  C   UNL A   1      32.761  21.760  23.844  1.00  0.00     0.279 C 
ATOM      6  C   UNL A   1      33.514  22.750  22.952  1.00  0.00     0.066 C 
BRANCH   5   7
ATOM      7  O   UNL A   1      31.779  22.350  24.698  1.00  0.00    -0.477 OA
BRANCH   7   8
ATOM      8  C   UNL A   1      31.623  23.701  24.808  1.00  0.00     0.142 A 
ATOM      9  C   UNL A   1      30.854  24.488  23.957  1.00  0.00     0.096 A 
ATOM     10  C   UNL A   1      32.356  24.344  25.821  1.00  0.00     0.084 A 
ATOM     11  C   UNL A   1      30.961  25.882  24.018  1.00  0.00     0.142 A 
ATOM     12  C   UNL A   1      32.392  25.744  25.920  1.00  0.00     0.037 A 
ATOM     13  Cl  UNL A   1      33.289  23.443  26.966  1.00  0.00    -0.080 Cl
ATOM     14  O   UNL A   1      30.286  26.591  23.009  1.00  0.00    -0.423 OA
ATOM     15  C   UNL A   1      31.740  26.536  24.971  1.00  0.00     0.027 A 
ATOM     16  C   UNL A   1      30.495  27.946  22.842  1.00  0.00     0.336 A 
ATOM     17  C   UNL A   1      31.870  28.005  24.911  1.00  0.00    -0.000 A 
ATOM     18  O   UNL A   1      30.041  28.569  21.889  1.00  0.00    -0.246 OA
ATOM     19  C   UNL A   1      31.291  28.628  23.871  1.00  0.00     0.103 A 
BRANCH  17  20
ATOM     20  C   UNL A   1      32.647  28.871  25.828  1.00  0.00    -0.017 A 
ATOM     21  C   UNL A   1      32.044  29.980  26.440  1.00  0.00     0.009 A 
ATOM     22  C   UNL A   1      34.003  28.617  26.079  1.00  0.00     0.009 A 
ATOM     23  C   UNL A   1      32.781  30.818  27.280  1.00  0.00     0.001 A 
ATOM     24  C   UNL A   1      34.735  29.447  26.931  1.00  0.00     0.001 A 
ATOM     25  C   UNL A   1      34.124  30.549  27.528  1.00  0.00     0.000 A 
ENDBRANCH  17  20
ENDBRANCH   7   8
ENDBRANCH   5   7
ENDBRANCH   3   5
ENDBRANCH   2   3
ENDBRANCH   1   2
BRANCH   1  26
ATOM     26  C   UNL A   1      37.453  21.500  25.125  1.00  0.00     0.275 C 
BRANCH  26  27
ATOM     27  O   UNL A   1      38.010  22.796  25.404  1.00  0.00    -0.458 OA
BRANCH  27  28
ATOM     28  C   UNL A   1      39.138  22.774  26.155  1.00  0.00     0.338 C 
ATOM     29  O   UNL A   1      39.963  21.879  26.206  1.00  0.00    -0.246 OA
BRANCH  28  30
ATOM     30  C   UNL A   1      39.332  24.072  26.823  1.00  0.00     0.060 A 
ATOM     31  C   UNL A   1      40.075  25.044  26.144  1.00  0.00     0.016 A 
ATOM     32  C   UNL A   1      38.859  24.313  28.116  1.00  0.00     0.016 A 
ATOM     33  C   UNL A   1      40.369  26.255  26.764  1.00  0.00     0.010 A 
ATOM     34  C   UNL A   1      39.162  25.527  28.740  1.00  0.00     0.010 A 
ATOM     35  C   UNL A   1      39.936  26.493  28.075  1.00  0.00    -0.014 A 
BRANCH  35  36
ATOM     36  C   UNL A   1      40.385  27.721  28.773  1.00  0.00     0.031 A 
ATOM     37  C   UNL A   1      41.791  27.798  29.299  1.00  0.00     0.074 A 
ATOM     38  C   UNL A   1      39.557  28.774  28.889  1.00  0.00     0.049 A 
ATOM     39  N   UNL A   1      42.386  28.781  29.924  1.00  0.00    -0.248 NA
ATOM     40  C   UNL A   1      42.639  26.614  29.091  1.00  0.00     0.031 C 
ATOM     41  C   UNL A   1      38.187  28.833  28.377  1.00  0.00     0.029 A 
ATOM     42  N   UNL A   1      39.754  30.002  29.467  1.00  0.00    -0.354 N 
ATOM     43  C   UNL A   1      43.673  28.333  30.194  1.00  0.00     0.074 A 
ATOM     44  C   UNL A   1      43.766  26.981  29.684  1.00  0.00     0.031 C 
ATOM     45  C   UNL A   1      37.671  30.043  28.653  1.00  0.00     0.029 A 
ATOM     46  C   UNL A   1      38.660  30.830  29.386  1.00  0.00     0.049 A 
ATOM     47  H   UNL A   1      40.598  30.266  29.897  1.00  0.00     0.167 HD
ATOM     48  C   UNL A   1      44.687  28.987  30.810  1.00  0.00     0.031 A 
ATOM     49  C   UNL A   1      38.474  32.078  29.859  1.00  0.00     0.031 A 
ATOM     50  C   UNL A   1      44.590  30.327  31.326  1.00  0.00     0.049 A 
ATOM     51  C   UNL A   1      39.596  32.761  30.592  1.00  0.00     0.074 A 
ATOM     52  C   UNL A   1      45.562  31.078  31.962  1.00  0.00     0.029 A 
ATOM     53  N   UNL A   1      43.450  31.114  31.268  1.00  0.00    -0.354 N 
ATOM     54  N   UNL A   1      40.811  32.326  30.833  1.00  0.00    -0.248 NA
ATOM     55  C   UNL A   1      39.323  34.107  31.113  1.00  0.00     0.031 C 
ATOM     56  C   UNL A   1      44.995  32.306  32.327  1.00  0.00     0.029 A 
ATOM     57  C   UNL A   1      43.686  32.336  31.876  1.00  0.00     0.049 A 
ATOM     58  H   UNL A   1      42.596  30.844  30.856  1.00  0.00     0.167 HD
ATOM     59  C   UNL A   1      41.453  33.354  31.514  1.00  0.00     0.074 A 
ATOM     60  C   UNL A   1      40.497  34.436  31.636  1.00  0.00     0.031 C 
ATOM     61  C   UNL A   1      42.721  33.399  31.993  1.00  0.00     0.031 A 
BRANCH  48  62
ATOM     62  C   UNL A   1      45.977  28.236  30.994  1.00  0.00    -0.014 A 
ATOM     63  C   UNL A   1      46.983  28.260  30.010  1.00  0.00     0.010 A 
ATOM     64  C   UNL A   1      46.190  27.500  32.173  1.00  0.00     0.010 A 
ATOM     65  C   UNL A   1      48.159  27.524  30.184  1.00  0.00     0.020 A 
ATOM     66  C   UNL A   1      47.374  26.781  32.360  1.00  0.00     0.020 A 
ATOM     67  C   UNL A   1      48.342  26.781  31.355  1.00  0.00     0.054 A 
BRANCH  67  68
ATOM     68  S   UNL A   1      49.873  25.830  31.557  1.00  0.00     0.124 S 
ATOM     69  O   UNL A   1      50.085  25.312  30.207  1.00  0.00    -0.237 OA
ATOM     70  O   UNL A   1      50.829  26.843  31.997  1.00  0.00    -0.237 OA
ATOM     71  O   UNL A   1      49.528  24.827  32.561  1.00  0.00    -0.744 OA
ENDBRANCH  67  68
ENDBRANCH  48  62
BRANCH  49  72
ATOM     72  C   UNL A   1      37.168  32.760  29.658  1.00  0.00    -0.014 A 
ATOM     73  C   UNL A   1      36.169  32.695  30.645  1.00  0.00     0.010 A 
ATOM     74  C   UNL A   1      36.920  33.487  28.480  1.00  0.00     0.010 A 
ATOM     75  C   UNL A   1      34.941  33.335  30.452  1.00  0.00     0.020 A 
ATOM     76  C   UNL A   1      35.704  34.148  28.294  1.00  0.00     0.020 A 
ATOM     77  C   UNL A   1      34.717  34.059  29.277  1.00  0.00     0.054 A 
BRANCH  77  78
ATOM     78  S   UNL A   1      33.140  34.932  29.071  1.00  0.00     0.124 S 
ATOM     79  O   UNL A   1      32.581  34.873  30.418  1.00  0.00    -0.237 OA
ATOM     80  O   UNL A   1      33.565  36.254  28.618  1.00  0.00    -0.237 OA
ATOM     81  O   UNL A   1      32.439  34.135  28.065  1.00  0.00    -0.744 OA
ENDBRANCH  77  78
ENDBRANCH  49  72
BRANCH  61  82
ATOM     82  C   UNL A   1      43.156  34.672  32.666  1.00  0.00    -0.014 A 
ATOM     83  C   UNL A   1      43.754  35.714  31.936  1.00  0.00     0.010 A 
ATOM     84  C   UNL A   1      42.927  34.843  34.043  1.00  0.00     0.010 A 
ATOM     85  C   UNL A   1      44.148  36.891  32.579  1.00  0.00     0.020 A 
ATOM     86  C   UNL A   1      43.298  36.026  34.686  1.00  0.00     0.020 A 
ATOM     87  C   UNL A   1      43.921  37.038  33.951  1.00  0.00     0.054 A 
BRANCH  87  88
ATOM     88  S   UNL A   1      44.410  38.585  34.761  1.00  0.00     0.124 S 
ATOM     89  O   UNL A   1      43.419  39.525  34.243  1.00  0.00    -0.237 OA
ATOM     90  O   UNL A   1      44.285  38.261  36.181  1.00  0.00    -0.237 OA
ATOM     91  O   UNL A   1      45.778  38.801  34.297  1.00  0.00    -0.744 OA
ENDBRANCH  87  88
ENDBRANCH  61  82
ENDBRANCH  35  36
ENDBRANCH  28  30
ENDBRANCH  27  28
ENDBRANCH  26  27
ENDBRANCH   1  26
TORSDOF 17
ENDMDL
MODEL 3
REMARK VINA RESULT:     -11.1      1.376      2.267
REMARK SMILES C[C@H](Oc1cc2oc(=O)cc(-c3ccccc3)c2cc1Cl)C(=O)OCCOC(=O)c1ccc(-c2c3nc(c(-c4ccc(S(=O)(=O)[O-])cc4)c4ccc([nH]4)c(-c4ccc(S(=O)(=O)[O-])cc4)c4nc(c(-c5ccc(S(=O)(=O)[O-])cc5)c5ccc2[nH]5)C=C4)C=C3)cc1
REMARK SMILES IDX 25 1 24 2 22 3 23 4 2 5 1 6 3 7 4 8 5 9 20 10 6 11 19 12
REMARK SMILES IDX 21 13 7 14 18 15 8 16 11 17 9 18 10 19 12 20 13 21 17 22
REMARK SMILES IDX 14 23 16 24 15 25 26 26 27 27 28 28 29 29 30 30 31 31 89 32
REMARK SMILES IDX 32 33 88 34 33 35 34 36 35 37 82 38 36 39 87 40 81 41 83 42
REMARK SMILES IDX 37 43 86 44 80 45 79 46 38 48 68 49 49 50 67 51 50 52 53 53
REMARK SMILES IDX 66 54 84 55 51 56 52 57 65 59 85 60 54 61 39 62 40 63 48 64
REMARK SMILES IDX 41 65 47 66 42 67 43 68 44 69 45 70 46 71 69 72 70 73 78 74
REMARK SMILES IDX 71 75 77 76 72 77 73 78 74 79 75 80 76 81 55 82 56 83 64 84
REMARK SMILES IDX 57 85 63 86 58 87 59 88 60 89 61 90 62 91
REMARK H PARENT 83 47 53 58
REMARK Flexibility Score: inf
ROOT
ATOM      1  C   UNL A   1      31.779  29.626  25.704  1.00  0.00     0.274 C 
ENDROOT
BRANCH   1   2
ATOM      2  O   UNL A   1      32.695  28.675  25.132  1.00  0.00    -0.459 OA
BRANCH   2   3
ATOM      3  C   UNL A   1      32.336  28.123  23.938  1.00  0.00     0.347 C 
ATOM      4  O   UNL A   1      31.191  28.101  23.497  1.00  0.00    -0.248 OA
BRANCH   3   5
ATOM      5  C   UNL A   1      33.508  27.414  23.252  1.00  0.00     0.279 C 
ATOM      6  C   UNL A   1      34.176  28.462  22.359  1.00  0.00     0.066 C 
BRANCH   5   7
ATOM      7  O   UNL A   1      33.013  26.265  22.561  1.00  0.00    -0.477 OA
BRANCH   7   8
ATOM      8  C   UNL A   1      32.831  25.063  23.179  1.00  0.00     0.142 A 
ATOM      9  C   UNL A   1      32.594  24.892  24.539  1.00  0.00     0.096 A 
ATOM     10  C   UNL A   1      32.966  23.912  22.381  1.00  0.00     0.084 A 
ATOM     11  C   UNL A   1      32.664  23.611  25.098  1.00  0.00     0.142 A 
ATOM     12  C   UNL A   1      32.957  22.627  22.947  1.00  0.00     0.037 A 
ATOM     13  Cl  UNL A   1      33.200  24.026  20.670  1.00  0.00    -0.080 Cl
ATOM     14  O   UNL A   1      32.586  23.552  26.501  1.00  0.00    -0.423 OA
ATOM     15  C   UNL A   1      32.869  22.465  24.332  1.00  0.00     0.027 A 
ATOM     16  C   UNL A   1      32.859  22.376  27.172  1.00  0.00     0.336 A 
ATOM     17  C   UNL A   1      33.021  21.162  25.009  1.00  0.00    -0.000 A 
ATOM     18  O   UNL A   1      32.944  22.320  28.393  1.00  0.00    -0.246 OA
ATOM     19  C   UNL A   1      33.041  21.170  26.353  1.00  0.00     0.103 A 
BRANCH  17  20
ATOM     20  C   UNL A   1      33.243  19.844  24.370  1.00  0.00    -0.017 A 
ATOM     21  C   UNL A   1      32.328  19.346  23.430  1.00  0.00     0.009 A 
ATOM     22  C   UNL A   1      34.353  19.059  24.713  1.00  0.00     0.009 A 
ATOM     23  C   UNL A   1      32.516  18.090  22.850  1.00  0.00     0.001 A 
ATOM     24  C   UNL A   1      34.548  17.809  24.120  1.00  0.00     0.001 A 
ATOM     25  C   UNL A   1      33.628  17.324  23.193  1.00  0.00     0.000 A 
ENDBRANCH  17  20
ENDBRANCH   7   8
ENDBRANCH   5   7
ENDBRANCH   3   5
ENDBRANCH   2   3
ENDBRANCH   1   2
BRANCH   1  26
ATOM     26  C   UNL A   1      32.411  30.437  26.839  1.00  0.00     0.275 C 
BRANCH  26  27
ATOM     27  O   UNL A   1      33.651  29.858  27.281  1.00  0.00    -0.458 OA
BRANCH  27  28
ATOM     28  C   UNL A   1      34.431  30.689  28.013  1.00  0.00     0.338 C 
ATOM     29  O   UNL A   1      34.081  31.712  28.575  1.00  0.00    -0.246 OA
BRANCH  28  30
ATOM     30  C   UNL A   1      35.778  30.114  28.175  1.00  0.00     0.060 A 
ATOM     31  C   UNL A   1      36.125  29.629  29.441  1.00  0.00     0.016 A 
ATOM     32  C   UNL A   1      36.709  30.114  27.132  1.00  0.00     0.016 A 
ATOM     33  C   UNL A   1      37.414  29.160  29.676  1.00  0.00     0.010 A 
ATOM     34  C   UNL A   1      38.005  29.650  27.374  1.00  0.00     0.010 A 
ATOM     35  C   UNL A   1      38.369  29.192  28.651  1.00  0.00    -0.014 A 
BRANCH  35  36
ATOM     36  C   UNL A   1      39.773  28.833  28.960  1.00  0.00     0.031 A 
ATOM     37  C   UNL A   1      40.648  29.822  29.676  1.00  0.00     0.074 A 
ATOM     38  C   UNL A   1      40.244  27.612  28.645  1.00  0.00     0.049 A 
ATOM     39  N   UNL A   1      41.895  29.702  30.053  1.00  0.00    -0.248 NA
ATOM     40  C   UNL A   1      40.037  31.117  30.017  1.00  0.00     0.031 C 
ATOM     41  C   UNL A   1      39.475  26.552  27.991  1.00  0.00     0.029 A 
ATOM     42  N   UNL A   1      41.482  27.056  28.846  1.00  0.00    -0.354 N 
ATOM     43  C   UNL A   1      42.222  30.906  30.664  1.00  0.00     0.074 A 
ATOM     44  C   UNL A   1      41.050  31.751  30.590  1.00  0.00     0.031 C 
ATOM     45  C   UNL A   1      40.257  25.467  27.857  1.00  0.00     0.029 A 
ATOM     46  C   UNL A   1      41.586  25.766  28.385  1.00  0.00     0.049 A 
ATOM     47  H   UNL A   1      42.223  27.535  29.280  1.00  0.00     0.167 HD
ATOM     48  C   UNL A   1      43.394  31.275  31.237  1.00  0.00     0.031 A 
ATOM     49  C   UNL A   1      42.638  24.924  28.380  1.00  0.00     0.031 A 
ATOM     50  C   UNL A   1      44.562  30.437  31.301  1.00  0.00     0.049 A 
ATOM     51  C   UNL A   1      43.946  25.379  28.970  1.00  0.00     0.074 A 
ATOM     52  C   UNL A   1      45.794  30.718  31.864  1.00  0.00     0.029 A 
ATOM     53  N   UNL A   1      44.643  29.155  30.779  1.00  0.00    -0.354 N 
ATOM     54  N   UNL A   1      44.237  26.518  29.551  1.00  0.00    -0.248 NA
ATOM     55  C   UNL A   1      45.066  24.430  28.906  1.00  0.00     0.031 C 
ATOM     56  C   UNL A   1      46.635  29.619  31.645  1.00  0.00     0.029 A 
ATOM     57  C   UNL A   1      45.911  28.637  30.988  1.00  0.00     0.049 A 
ATOM     58  H   UNL A   1      43.908  28.681  30.326  1.00  0.00     0.167 HD
ATOM     59  C   UNL A   1      45.568  26.415  29.942  1.00  0.00     0.074 A 
ATOM     60  C   UNL A   1      46.019  25.097  29.542  1.00  0.00     0.031 C 
ATOM     61  C   UNL A   1      46.345  27.326  30.577  1.00  0.00     0.031 A 
BRANCH  48  62
ATOM     62  C   UNL A   1      43.474  32.667  31.801  1.00  0.00    -0.014 A 
ATOM     63  C   UNL A   1      43.883  33.754  31.006  1.00  0.00     0.010 A 
ATOM     64  C   UNL A   1      43.126  32.893  33.145  1.00  0.00     0.010 A 
ATOM     65  C   UNL A   1      43.987  35.033  31.560  1.00  0.00     0.020 A 
ATOM     66  C   UNL A   1      43.208  34.175  33.695  1.00  0.00     0.020 A 
ATOM     67  C   UNL A   1      43.658  35.233  32.905  1.00  0.00     0.054 A 
BRANCH  67  68
ATOM     68  S   UNL A   1      43.805  36.901  33.603  1.00  0.00     0.124 S 
ATOM     69  O   UNL A   1      42.584  37.001  34.400  1.00  0.00    -0.237 OA
ATOM     70  O   UNL A   1      45.048  36.826  34.365  1.00  0.00    -0.237 OA
ATOM     71  O   UNL A   1      43.852  37.766  32.426  1.00  0.00    -0.744 OA
ENDBRANCH  67  68
ENDBRANCH  48  62
BRANCH  49  72
ATOM     72  C   UNL A   1      42.499  23.566  27.791  1.00  0.00    -0.014 A 
ATOM     73  C   UNL A   1      42.831  23.333  26.445  1.00  0.00     0.010 A 
ATOM     74  C   UNL A   1      42.040  22.495  28.578  1.00  0.00     0.010 A 
ATOM     75  C   UNL A   1      42.697  22.056  25.894  1.00  0.00     0.020 A 
ATOM     76  C   UNL A   1      41.927  21.212  28.037  1.00  0.00     0.020 A 
ATOM     77  C   UNL A   1      42.246  21.002  26.695  1.00  0.00     0.054 A 
BRANCH  77  78
ATOM     78  S   UNL A   1      42.134  19.339  25.977  1.00  0.00     0.124 S 
ATOM     79  O   UNL A   1      40.700  19.207  25.739  1.00  0.00    -0.237 OA
ATOM     80  O   UNL A   1      42.967  19.451  24.783  1.00  0.00    -0.237 OA
ATOM     81  O   UNL A   1      42.677  18.478  27.026  1.00  0.00    -0.744 OA
ENDBRANCH  77  78
ENDBRANCH  49  72
BRANCH  61  82
ATOM     82  C   UNL A   1      47.754  26.917  30.906  1.00  0.00    -0.014 A 
ATOM     83  C   UNL A   1      48.812  27.169  30.015  1.00  0.00     0.010 A 
ATOM     84  C   UNL A   1      48.030  26.306  32.142  1.00  0.00     0.010 A 
ATOM     85  C   UNL A   1      50.116  26.784  30.340  1.00  0.00     0.020 A 
ATOM     86  C   UNL A   1      49.335  25.940  32.481  1.00  0.00     0.020 A 
ATOM     87  C   UNL A   1      50.369  26.169  31.570  1.00  0.00     0.054 A 
BRANCH  87  88
ATOM     88  S   UNL A   1      52.072  25.706  31.988  1.00  0.00     0.124 S 
ATOM     89  O   UNL A   1      52.794  26.085  30.776  1.00  0.00    -0.237 OA
ATOM     90  O   UNL A   1      52.350  26.523  33.167  1.00  0.00    -0.237 OA
ATOM     91  O   UNL A   1      51.987  24.270  32.240  1.00  0.00    -0.744 OA
ENDBRANCH  87  88
ENDBRANCH  61  82
ENDBRANCH  35  36
ENDBRANCH  28  30
ENDBRANCH  27  28
ENDBRANCH  26  27
ENDBRANCH   1  26
TORSDOF 17
ENDMDL
