MODEL 1
REMARK VINA RESULT:     -11.8      0.000      0.000
REMARK SMILES Cc1nnc(SCC(=O)Nc2cccc(C(=O)OCCOC(=O)c3ccc(-c4c5nc(c(-c6ccc(S(=O)(=O)[O-])cc6)c6ccc([nH]6)c(-c6ccc(S(=O)(=O)[O-])cc6)c6nc(c(-c7ccc(S(=O)(=O)[O-])cc7)c7ccc4[nH]7)C=C6)C=C5)cc3)c2)n1-c1ccccc1
REMARK SMILES IDX 19 1 18 2 16 3 17 4 15 5 11 6 12 7 84 8 13 9 14 10 10 11
REMARK SMILES IDX 8 12 9 13 7 15 6 16 5 17 1 18 2 19 3 20 85 21 4 22 86 23
REMARK SMILES IDX 87 24 91 25 88 26 90 27 89 28 20 29 21 30 22 31 23 32 24 33
REMARK SMILES IDX 25 34 83 35 26 36 82 37 27 38 28 39 29 40 76 41 30 42 81 43
REMARK SMILES IDX 75 44 77 45 31 46 80 47 74 48 73 49 32 51 62 52 43 53 61 54
REMARK SMILES IDX 44 55 47 56 60 57 78 58 45 59 46 60 59 62 79 63 48 64 33 65
REMARK SMILES IDX 34 66 42 67 35 68 41 69 36 70 37 71 38 72 39 73 40 74 63 75
REMARK SMILES IDX 64 76 72 77 65 78 71 79 66 80 67 81 68 82 69 83 70 84 49 85
REMARK SMILES IDX 50 86 58 87 51 88 57 89 52 90 53 91 54 92 55 93 56 94
REMARK H PARENT 10 14 77 50 47 61
REMARK Flexibility Score: inf
ROOT
ATOM      1  C   UNL A   1      37.386  21.722  24.467  1.00  0.00     0.275 C 
ENDROOT
BRANCH   1   2
ATOM      2  O   UNL A   1      36.296  22.516  24.965  1.00  0.00    -0.458 OA
BRANCH   2   3
ATOM      3  C   UNL A   1      35.213  21.871  25.488  1.00  0.00     0.338 C 
ATOM      4  O   UNL A   1      35.080  21.484  26.622  1.00  0.00    -0.246 OA
BRANCH   3   5
ATOM      5  C   UNL A   1      34.148  21.779  24.443  1.00  0.00     0.062 A 
ATOM      6  C   UNL A   1      33.062  22.716  22.506  1.00  0.00     0.042 A 
ATOM      7  C   UNL A   1      32.197  21.627  22.444  1.00  0.00     0.026 A 
ATOM      8  C   UNL A   1      33.945  22.835  23.559  1.00  0.00     0.041 A 
ATOM      9  C   UNL A   1      32.324  20.596  23.375  1.00  0.00     0.003 A 
ATOM     10  C   UNL A   1      33.323  20.656  24.356  1.00  0.00     0.016 A 
BRANCH   6  11
ATOM     11  N   UNL A   1      33.076  23.620  21.448  1.00  0.00    -0.325 N 
ATOM     12  C   UNL A   1      32.552  24.878  21.465  1.00  0.00     0.234 C 
ATOM     13  O   UNL A   1      33.181  25.683  20.760  1.00  0.00    -0.274 OA
ATOM     14  H   UNL A   1      33.504  23.323  20.612  1.00  0.00     0.169 HD
BRANCH  12  15
ATOM     15  C   UNL A   1      31.511  25.402  22.440  1.00  0.00     0.178 C 
BRANCH  15  16
ATOM     16  S   UNL A   1      31.142  27.144  22.665  1.00  0.00    -0.076 SA
BRANCH  16  17
ATOM     17  C   UNL A   1      32.210  27.891  23.799  1.00  0.00     0.196 A 
ATOM     18  C   UNL A   1      33.345  28.732  27.150  1.00  0.00     0.090 C 
ATOM     19  C   UNL A   1      32.995  28.627  25.714  1.00  0.00     0.135 A 
ATOM     20  N   UNL A   1      33.276  29.519  24.785  1.00  0.00    -0.134 NA
ATOM     21  N   UNL A   1      32.322  27.573  25.135  1.00  0.00    -0.274 N 
ATOM     22  N   UNL A   1      32.772  29.062  23.589  1.00  0.00    -0.123 NA
BRANCH  21  23
ATOM     23  C   UNL A   1      31.823  26.434  25.773  1.00  0.00     0.049 A 
ATOM     24  C   UNL A   1      32.704  25.386  26.016  1.00  0.00     0.027 A 
ATOM     25  C   UNL A   1      30.449  26.299  25.966  1.00  0.00     0.027 A 
ATOM     26  C   UNL A   1      32.187  24.137  26.351  1.00  0.00     0.002 A 
ATOM     27  C   UNL A   1      29.948  25.054  26.342  1.00  0.00     0.002 A 
ATOM     28  C   UNL A   1      30.813  23.968  26.497  1.00  0.00     0.000 A 
ENDBRANCH  21  23
ENDBRANCH  16  17
ENDBRANCH  15  16
ENDBRANCH  12  15
ENDBRANCH   6  11
ENDBRANCH   3   5
ENDBRANCH   2   3
ENDBRANCH   1   2
BRANCH   1  29
ATOM     29  C   UNL A   1      38.159  21.076  25.610  1.00  0.00     0.275 C 
BRANCH  29  30
ATOM     30  O   UNL A   1      38.824  22.089  26.353  1.00  0.00    -0.458 OA
BRANCH  30  31
ATOM     31  C   UNL A   1      40.113  21.819  26.649  1.00  0.00     0.338 C 
ATOM     32  O   UNL A   1      40.579  20.762  27.045  1.00  0.00    -0.246 OA
BRANCH  31  33
ATOM     33  C   UNL A   1      40.893  23.049  26.560  1.00  0.00     0.060 A 
ATOM     34  C   UNL A   1      42.081  23.084  27.302  1.00  0.00     0.016 A 
ATOM     35  C   UNL A   1      40.213  24.202  26.162  1.00  0.00     0.016 A 
ATOM     36  C   UNL A   1      42.419  24.268  27.907  1.00  0.00     0.010 A 
ATOM     37  C   UNL A   1      40.511  25.361  26.814  1.00  0.00     0.010 A 
ATOM     38  C   UNL A   1      41.551  25.347  27.744  1.00  0.00    -0.014 A 
BRANCH  38  39
ATOM     39  C   UNL A   1      41.773  26.543  28.517  1.00  0.00     0.031 A 
ATOM     40  C   UNL A   1      42.974  27.270  28.054  1.00  0.00     0.074 A 
ATOM     41  C   UNL A   1      40.837  26.976  29.383  1.00  0.00     0.049 A 
ATOM     42  N   UNL A   1      44.092  27.448  28.675  1.00  0.00    -0.248 NA
ATOM     43  C   UNL A   1      43.020  27.632  26.621  1.00  0.00     0.031 C 
ATOM     44  C   UNL A   1      39.492  26.428  29.601  1.00  0.00     0.029 A 
ATOM     45  N   UNL A   1      40.824  28.104  30.134  1.00  0.00    -0.354 N 
ATOM     46  C   UNL A   1      44.878  28.169  27.782  1.00  0.00     0.074 A 
ATOM     47  C   UNL A   1      44.298  27.971  26.483  1.00  0.00     0.031 C 
ATOM     48  C   UNL A   1      38.725  27.367  30.199  1.00  0.00     0.029 A 
ATOM     49  C   UNL A   1      39.551  28.528  30.497  1.00  0.00     0.049 A 
ATOM     50  H   UNL A   1      41.644  28.581  30.398  1.00  0.00     0.167 HD
ATOM     51  C   UNL A   1      45.696  29.168  28.207  1.00  0.00     0.031 A 
ATOM     52  C   UNL A   1      39.204  29.782  30.887  1.00  0.00     0.031 A 
ATOM     53  C   UNL A   1      45.949  29.075  29.622  1.00  0.00     0.049 A 
ATOM     54  C   UNL A   1      40.468  30.495  31.229  1.00  0.00     0.074 A 
ATOM     55  C   UNL A   1      46.473  28.095  30.443  1.00  0.00     0.029 A 
ATOM     56  N   UNL A   1      45.245  29.929  30.441  1.00  0.00    -0.354 N 
ATOM     57  N   UNL A   1      41.239  30.157  32.226  1.00  0.00    -0.248 NA
ATOM     58  C   UNL A   1      41.123  31.256  30.172  1.00  0.00     0.031 C 
ATOM     59  C   UNL A   1      45.686  28.149  31.628  1.00  0.00     0.029 A 
ATOM     60  C   UNL A   1      44.778  29.203  31.506  1.00  0.00     0.049 A 
ATOM     61  H   UNL A   1      45.102  30.891  30.288  1.00  0.00     0.167 HD
ATOM     62  C   UNL A   1      42.535  30.277  31.737  1.00  0.00     0.074 A 
ATOM     63  C   UNL A   1      42.402  31.043  30.497  1.00  0.00     0.031 C 
ATOM     64  C   UNL A   1      43.549  29.496  32.217  1.00  0.00     0.031 A 
BRANCH  51  65
ATOM     65  C   UNL A   1      45.861  30.459  27.435  1.00  0.00    -0.014 A 
ATOM     66  C   UNL A   1      47.161  30.916  27.156  1.00  0.00     0.010 A 
ATOM     67  C   UNL A   1      44.806  31.373  27.211  1.00  0.00     0.010 A 
ATOM     68  C   UNL A   1      47.394  32.239  26.755  1.00  0.00     0.020 A 
ATOM     69  C   UNL A   1      45.020  32.674  26.765  1.00  0.00     0.020 A 
ATOM     70  C   UNL A   1      46.320  33.111  26.577  1.00  0.00     0.054 A 
BRANCH  70  71
ATOM     71  S   UNL A   1      46.631  34.844  26.172  1.00  0.00     0.124 S 
ATOM     72  O   UNL A   1      47.491  34.725  24.999  1.00  0.00    -0.237 OA
ATOM     73  O   UNL A   1      45.283  35.347  25.926  1.00  0.00    -0.237 OA
ATOM     74  O   UNL A   1      47.277  35.366  27.374  1.00  0.00    -0.744 OA
ENDBRANCH  70  71
ENDBRANCH  51  65
BRANCH  52  75
ATOM     75  C   UNL A   1      37.927  30.496  30.603  1.00  0.00    -0.014 A 
ATOM     76  C   UNL A   1      37.394  31.437  31.506  1.00  0.00     0.010 A 
ATOM     77  C   UNL A   1      37.354  30.442  29.315  1.00  0.00     0.010 A 
ATOM     78  C   UNL A   1      36.364  32.316  31.118  1.00  0.00     0.020 A 
ATOM     79  C   UNL A   1      36.323  31.306  28.923  1.00  0.00     0.020 A 
ATOM     80  C   UNL A   1      35.846  32.256  29.821  1.00  0.00     0.054 A 
BRANCH  80  81
ATOM     81  S   UNL A   1      34.635  33.497  29.271  1.00  0.00     0.124 S 
ATOM     82  O   UNL A   1      35.490  34.564  28.762  1.00  0.00    -0.237 OA
ATOM     83  O   UNL A   1      33.867  32.768  28.265  1.00  0.00    -0.237 OA
ATOM     84  O   UNL A   1      33.898  33.823  30.490  1.00  0.00    -0.744 OA
ENDBRANCH  80  81
ENDBRANCH  52  75
BRANCH  64  85
ATOM     85  C   UNL A   1      43.306  28.687  33.472  1.00  0.00    -0.014 A 
ATOM     86  C   UNL A   1      43.469  29.193  34.778  1.00  0.00     0.010 A 
ATOM     87  C   UNL A   1      42.715  27.422  33.314  1.00  0.00     0.010 A 
ATOM     88  C   UNL A   1      43.064  28.442  35.893  1.00  0.00     0.020 A 
ATOM     89  C   UNL A   1      42.294  26.679  34.419  1.00  0.00     0.020 A 
ATOM     90  C   UNL A   1      42.477  27.188  35.704  1.00  0.00     0.054 A 
BRANCH  90  91
ATOM     91  S   UNL A   1      41.901  26.239  37.141  1.00  0.00     0.124 S 
ATOM     92  O   UNL A   1      40.605  26.850  37.427  1.00  0.00    -0.237 OA
ATOM     93  O   UNL A   1      41.852  24.870  36.631  1.00  0.00    -0.237 OA
ATOM     94  O   UNL A   1      42.931  26.476  38.151  1.00  0.00    -0.744 OA
ENDBRANCH  90  91
ENDBRANCH  64  85
ENDBRANCH  38  39
ENDBRANCH  31  33
ENDBRANCH  30  31
ENDBRANCH  29  30
ENDBRANCH   1  29
TORSDOF 19
ENDMDL
MODEL 2
REMARK VINA RESULT:     -11.6      1.753      3.125
REMARK SMILES Cc1nnc(SCC(=O)Nc2cccc(C(=O)OCCOC(=O)c3ccc(-c4c5nc(c(-c6ccc(S(=O)(=O)[O-])cc6)c6ccc([nH]6)c(-c6ccc(S(=O)(=O)[O-])cc6)c6nc(c(-c7ccc(S(=O)(=O)[O-])cc7)c7ccc4[nH]7)C=C6)C=C5)cc3)c2)n1-c1ccccc1
REMARK SMILES IDX 19 1 18 2 16 3 17 4 15 5 11 6 12 7 84 8 13 9 14 10 10 11
REMARK SMILES IDX 8 12 9 13 7 15 6 16 5 17 1 18 2 19 3 20 85 21 4 22 86 23
REMARK SMILES IDX 87 24 91 25 88 26 90 27 89 28 20 29 21 30 22 31 23 32 24 33
REMARK SMILES IDX 25 34 83 35 26 36 82 37 27 38 28 39 29 40 76 41 30 42 81 43
REMARK SMILES IDX 75 44 77 45 31 46 80 47 74 48 73 49 32 51 62 52 43 53 61 54
REMARK SMILES IDX 44 55 47 56 60 57 78 58 45 59 46 60 59 62 79 63 48 64 33 65
REMARK SMILES IDX 34 66 42 67 35 68 41 69 36 70 37 71 38 72 39 73 40 74 63 75
REMARK SMILES IDX 64 76 72 77 65 78 71 79 66 80 67 81 68 82 69 83 70 84 49 85
REMARK SMILES IDX 50 86 58 87 51 88 57 89 52 90 53 91 54 92 55 93 56 94
REMARK H PARENT 10 14 77 50 47 61
REMARK Flexibility Score: inf
ROOT
ATOM      1  C   UNL A   1      42.939  20.711  25.793  1.00  0.00     0.275 C 
ENDROOT
BRANCH   1   2
ATOM      2  O   UNL A   1      41.647  21.327  25.654  1.00  0.00    -0.458 OA
BRANCH   2   3
ATOM      3  C   UNL A   1      40.692  21.042  26.586  1.00  0.00     0.338 C 
ATOM      4  O   UNL A   1      40.756  20.212  27.458  1.00  0.00    -0.246 OA
BRANCH   3   5
ATOM      5  C   UNL A   1      39.548  21.989  26.416  1.00  0.00     0.062 A 
ATOM      6  C   UNL A   1      37.220  22.355  25.914  1.00  0.00     0.042 A 
ATOM      7  C   UNL A   1      37.370  23.722  26.128  1.00  0.00     0.026 A 
ATOM      8  C   UNL A   1      38.322  21.526  25.950  1.00  0.00     0.041 A 
ATOM      9  C   UNL A   1      38.615  24.223  26.510  1.00  0.00     0.003 A 
ATOM     10  C   UNL A   1      39.698  23.352  26.687  1.00  0.00     0.016 A 
BRANCH   6  11
ATOM     11  N   UNL A   1      35.936  21.840  25.757  1.00  0.00    -0.325 N 
ATOM     12  C   UNL A   1      35.170  21.934  24.633  1.00  0.00     0.234 C 
ATOM     13  O   UNL A   1      34.430  20.953  24.459  1.00  0.00    -0.274 OA
ATOM     14  H   UNL A   1      35.546  21.366  26.527  1.00  0.00     0.169 HD
BRANCH  12  15
ATOM     15  C   UNL A   1      35.355  22.933  23.503  1.00  0.00     0.178 C 
BRANCH  15  16
ATOM     16  S   UNL A   1      34.037  23.444  22.397  1.00  0.00    -0.076 SA
BRANCH  16  17
ATOM     17  C   UNL A   1      33.529  25.067  22.700  1.00  0.00     0.196 A 
ATOM     18  C   UNL A   1      31.309  27.586  24.094  1.00  0.00     0.090 C 
ATOM     19  C   UNL A   1      32.261  26.746  23.332  1.00  0.00     0.135 A 
ATOM     20  N   UNL A   1      32.875  27.091  22.219  1.00  0.00    -0.134 NA
ATOM     21  N   UNL A   1      32.648  25.469  23.680  1.00  0.00    -0.274 N 
ATOM     22  N   UNL A   1      33.659  26.034  21.817  1.00  0.00    -0.123 NA
BRANCH  21  23
ATOM     23  C   UNL A   1      32.211  24.720  24.777  1.00  0.00     0.049 A 
ATOM     24  C   UNL A   1      33.033  24.668  25.897  1.00  0.00     0.027 A 
ATOM     25  C   UNL A   1      31.087  23.905  24.650  1.00  0.00     0.027 A 
ATOM     26  C   UNL A   1      32.790  23.697  26.864  1.00  0.00     0.002 A 
ATOM     27  C   UNL A   1      30.832  22.964  25.646  1.00  0.00     0.002 A 
ATOM     28  C   UNL A   1      31.703  22.837  26.731  1.00  0.00     0.000 A 
ENDBRANCH  21  23
ENDBRANCH  16  17
ENDBRANCH  15  16
ENDBRANCH  12  15
ENDBRANCH   6  11
ENDBRANCH   3   5
ENDBRANCH   2   3
ENDBRANCH   1   2
BRANCH   1  29
ATOM     29  C   UNL A   1      44.010  21.516  25.067  1.00  0.00     0.275 C 
BRANCH  29  30
ATOM     30  O   UNL A   1      43.399  22.626  24.422  1.00  0.00    -0.458 OA
BRANCH  30  31
ATOM     31  C   UNL A   1      43.878  23.831  24.798  1.00  0.00     0.338 C 
ATOM     32  O   UNL A   1      44.942  24.340  24.482  1.00  0.00    -0.246 OA
BRANCH  31  33
ATOM     33  C   UNL A   1      42.976  24.419  25.785  1.00  0.00     0.060 A 
ATOM     34  C   UNL A   1      42.238  25.532  25.364  1.00  0.00     0.016 A 
ATOM     35  C   UNL A   1      43.252  24.154  27.128  1.00  0.00     0.016 A 
ATOM     36  C   UNL A   1      42.040  26.544  26.268  1.00  0.00     0.010 A 
ATOM     37  C   UNL A   1      43.112  25.185  28.009  1.00  0.00     0.010 A 
ATOM     38  C   UNL A   1      42.594  26.391  27.538  1.00  0.00    -0.014 A 
BRANCH  38  39
ATOM     39  C   UNL A   1      42.570  27.510  28.447  1.00  0.00     0.031 A 
ATOM     40  C   UNL A   1      43.717  28.415  28.221  1.00  0.00     0.074 A 
ATOM     41  C   UNL A   1      41.490  27.734  29.220  1.00  0.00     0.049 A 
ATOM     42  N   UNL A   1      44.721  28.646  29.000  1.00  0.00    -0.248 NA
ATOM     43  C   UNL A   1      43.889  28.939  26.849  1.00  0.00     0.031 C 
ATOM     44  C   UNL A   1      40.209  27.017  29.203  1.00  0.00     0.029 A 
ATOM     45  N   UNL A   1      41.245  28.761  30.069  1.00  0.00    -0.354 N 
ATOM     46  C   UNL A   1      45.511  29.547  28.294  1.00  0.00     0.074 A 
ATOM     47  C   UNL A   1      45.121  29.434  26.916  1.00  0.00     0.031 C 
ATOM     48  C   UNL A   1      39.263  27.790  29.783  1.00  0.00     0.029 A 
ATOM     49  C   UNL A   1      39.894  28.995  30.300  1.00  0.00     0.049 A 
ATOM     50  H   UNL A   1      41.961  29.294  30.486  1.00  0.00     0.167 HD
ATOM     51  C   UNL A   1      46.140  30.578  28.919  1.00  0.00     0.031 A 
ATOM     52  C   UNL A   1      39.348  30.151  30.762  1.00  0.00     0.031 A 
ATOM     53  C   UNL A   1      46.231  30.354  30.339  1.00  0.00     0.049 A 
ATOM     54  C   UNL A   1      40.462  30.957  31.336  1.00  0.00     0.074 A 
ATOM     55  C   UNL A   1      46.773  29.353  31.122  1.00  0.00     0.029 A 
ATOM     56  N   UNL A   1      45.332  31.025  31.137  1.00  0.00    -0.354 N 
ATOM     57  N   UNL A   1      41.145  30.598  32.389  1.00  0.00    -0.248 NA
ATOM     58  C   UNL A   1      41.138  31.902  30.455  1.00  0.00     0.031 C 
ATOM     59  C   UNL A   1      45.848  29.183  32.192  1.00  0.00     0.029 A 
ATOM     60  C   UNL A   1      44.836  30.135  32.054  1.00  0.00     0.049 A 
ATOM     61  H   UNL A   1      45.089  31.976  31.061  1.00  0.00     0.167 HD
ATOM     62  C   UNL A   1      42.464  30.918  32.090  1.00  0.00     0.074 A 
ATOM     63  C   UNL A   1      42.386  31.799  30.925  1.00  0.00     0.031 C 
ATOM     64  C   UNL A   1      43.504  30.206  32.621  1.00  0.00     0.031 A 
BRANCH  51  65
ATOM     65  C   UNL A   1      46.232  31.957  28.305  1.00  0.00    -0.014 A 
ATOM     66  C   UNL A   1      47.500  32.551  28.170  1.00  0.00     0.010 A 
ATOM     67  C   UNL A   1      45.114  32.800  28.109  1.00  0.00     0.010 A 
ATOM     68  C   UNL A   1      47.635  33.926  27.933  1.00  0.00     0.020 A 
ATOM     69  C   UNL A   1      45.234  34.157  27.824  1.00  0.00     0.020 A 
ATOM     70  C   UNL A   1      46.498  34.720  27.776  1.00  0.00     0.054 A 
BRANCH  70  71
ATOM     71  S   UNL A   1      46.673  36.508  27.585  1.00  0.00     0.124 S 
ATOM     72  O   UNL A   1      46.089  36.724  26.266  1.00  0.00    -0.237 OA
ATOM     73  O   UNL A   1      45.901  37.013  28.716  1.00  0.00    -0.237 OA
ATOM     74  O   UNL A   1      48.116  36.722  27.676  1.00  0.00    -0.744 OA
ENDBRANCH  70  71
ENDBRANCH  51  65
BRANCH  52  75
ATOM     75  C   UNL A   1      38.035  30.744  30.381  1.00  0.00    -0.014 A 
ATOM     76  C   UNL A   1      37.152  31.257  31.352  1.00  0.00     0.010 A 
ATOM     77  C   UNL A   1      37.753  31.040  29.031  1.00  0.00     0.010 A 
ATOM     78  C   UNL A   1      36.062  32.071  30.986  1.00  0.00     0.020 A 
ATOM     79  C   UNL A   1      36.666  31.841  28.658  1.00  0.00     0.020 A 
ATOM     80  C   UNL A   1      35.836  32.373  29.640  1.00  0.00     0.054 A 
BRANCH  80  81
ATOM     81  S   UNL A   1      34.530  33.555  29.184  1.00  0.00     0.124 S 
ATOM     82  O   UNL A   1      33.765  32.807  28.191  1.00  0.00    -0.237 OA
ATOM     83  O   UNL A   1      33.854  33.789  30.457  1.00  0.00    -0.237 OA
ATOM     84  O   UNL A   1      35.271  34.701  28.660  1.00  0.00    -0.744 OA
ENDBRANCH  80  81
ENDBRANCH  52  75
BRANCH  64  85
ATOM     85  C   UNL A   1      43.215  29.239  33.748  1.00  0.00    -0.014 A 
ATOM     86  C   UNL A   1      43.271  29.582  35.114  1.00  0.00     0.010 A 
ATOM     87  C   UNL A   1      42.692  27.983  33.395  1.00  0.00     0.010 A 
ATOM     88  C   UNL A   1      42.829  28.684  36.098  1.00  0.00     0.020 A 
ATOM     89  C   UNL A   1      42.234  27.092  34.368  1.00  0.00     0.020 A 
ATOM     90  C   UNL A   1      42.310  27.442  35.716  1.00  0.00     0.054 A 
BRANCH  90  91
ATOM     91  S   UNL A   1      41.685  26.301  36.982  1.00  0.00     0.124 S 
ATOM     92  O   UNL A   1      41.504  25.062  36.232  1.00  0.00    -0.237 OA
ATOM     93  O   UNL A   1      42.760  26.287  37.971  1.00  0.00    -0.237 OA
ATOM     94  O   UNL A   1      40.446  26.932  37.439  1.00  0.00    -0.744 OA
ENDBRANCH  90  91
ENDBRANCH  64  85
ENDBRANCH  38  39
ENDBRANCH  31  33
ENDBRANCH  30  31
ENDBRANCH  29  30
ENDBRANCH   1  29
TORSDOF 19
ENDMDL
MODEL 3
REMARK VINA RESULT:     -11.5      2.332      7.082
REMARK SMILES Cc1nnc(SCC(=O)Nc2cccc(C(=O)OCCOC(=O)c3ccc(-c4c5nc(c(-c6ccc(S(=O)(=O)[O-])cc6)c6ccc([nH]6)c(-c6ccc(S(=O)(=O)[O-])cc6)c6nc(c(-c7ccc(S(=O)(=O)[O-])cc7)c7ccc4[nH]7)C=C6)C=C5)cc3)c2)n1-c1ccccc1
REMARK SMILES IDX 19 1 18 2 16 3 17 4 15 5 11 6 12 7 84 8 13 9 14 10 10 11
REMARK SMILES IDX 8 12 9 13 7 15 6 16 5 17 1 18 2 19 3 20 85 21 4 22 86 23
REMARK SMILES IDX 87 24 91 25 88 26 90 27 89 28 20 29 21 30 22 31 23 32 24 33
REMARK SMILES IDX 25 34 83 35 26 36 82 37 27 38 28 39 29 40 76 41 30 42 81 43
REMARK SMILES IDX 75 44 77 45 31 46 80 47 74 48 73 49 32 51 62 52 43 53 61 54
REMARK SMILES IDX 44 55 47 56 60 57 78 58 45 59 46 60 59 62 79 63 48 64 33 65
REMARK SMILES IDX 34 66 42 67 35 68 41 69 36 70 37 71 38 72 39 73 40 74 63 75
REMARK SMILES IDX 64 76 72 77 65 78 71 79 66 80 67 81 68 82 69 83 70 84 49 85
REMARK SMILES IDX 50 86 58 87 51 88 57 89 52 90 53 91 54 92 55 93 56 94
REMARK H PARENT 10 14 77 50 47 61
REMARK Flexibility Score: inf
ROOT
ATOM      1  C   UNL A   1      37.465  20.899  24.340  1.00  0.00     0.275 C 
ENDROOT
BRANCH   1   2
ATOM      2  O   UNL A   1      37.188  22.305  24.451  1.00  0.00    -0.458 OA
BRANCH   2   3
ATOM      3  C   UNL A   1      36.112  22.695  25.195  1.00  0.00     0.338 C 
ATOM      4  O   UNL A   1      36.133  23.209  26.285  1.00  0.00    -0.246 OA
BRANCH   3   5
ATOM      5  C   UNL A   1      34.863  22.456  24.407  1.00  0.00     0.062 A 
ATOM      6  C   UNL A   1      33.345  23.156  22.672  1.00  0.00     0.042 A 
ATOM      7  C   UNL A   1      32.558  22.027  22.882  1.00  0.00     0.026 A 
ATOM      8  C   UNL A   1      34.416  23.413  23.502  1.00  0.00     0.041 A 
ATOM      9  C   UNL A   1      32.939  21.095  23.848  1.00  0.00     0.003 A 
ATOM     10  C   UNL A   1      34.112  21.293  24.589  1.00  0.00     0.016 A 
BRANCH   6  11
ATOM     11  N   UNL A   1      33.085  23.956  21.563  1.00  0.00    -0.325 N 
ATOM     12  C   UNL A   1      32.383  25.124  21.568  1.00  0.00     0.234 C 
ATOM     13  O   UNL A   1      32.785  25.945  20.728  1.00  0.00    -0.274 OA
ATOM     14  H   UNL A   1      33.439  23.649  20.697  1.00  0.00     0.169 HD
BRANCH  12  15
ATOM     15  C   UNL A   1      31.411  25.581  22.644  1.00  0.00     0.178 C 
BRANCH  15  16
ATOM     16  S   UNL A   1      30.699  27.227  22.712  1.00  0.00    -0.076 SA
BRANCH  16  17
ATOM     17  C   UNL A   1      31.361  28.166  24.002  1.00  0.00     0.196 A 
ATOM     18  C   UNL A   1      31.893  28.984  27.505  1.00  0.00     0.090 C 
ATOM     19  C   UNL A   1      31.705  28.919  26.037  1.00  0.00     0.135 A 
ATOM     20  N   UNL A   1      31.728  29.945  25.210  1.00  0.00    -0.134 NA
ATOM     21  N   UNL A   1      31.479  27.766  25.315  1.00  0.00    -0.274 N 
ATOM     22  N   UNL A   1      31.499  29.473  23.938  1.00  0.00    -0.123 NA
BRANCH  21  23
ATOM     23  C   UNL A   1      31.357  26.466  25.813  1.00  0.00     0.049 A 
ATOM     24  C   UNL A   1      32.521  25.729  25.997  1.00  0.00     0.027 A 
ATOM     25  C   UNL A   1      30.094  25.885  25.920  1.00  0.00     0.027 A 
ATOM     26  C   UNL A   1      32.424  24.352  26.182  1.00  0.00     0.002 A 
ATOM     27  C   UNL A   1      30.010  24.512  26.146  1.00  0.00     0.002 A 
ATOM     28  C   UNL A   1      31.173  23.744  26.240  1.00  0.00     0.000 A 
ENDBRANCH  21  23
ENDBRANCH  16  17
ENDBRANCH  15  16
ENDBRANCH  12  15
ENDBRANCH   6  11
ENDBRANCH   3   5
ENDBRANCH   2   3
ENDBRANCH   1   2
BRANCH   1  29
ATOM     29  C   UNL A   1      38.128  20.370  25.606  1.00  0.00     0.275 C 
BRANCH  29  30
ATOM     30  O   UNL A   1      39.380  21.020  25.782  1.00  0.00    -0.458 OA
BRANCH  30  31
ATOM     31  C   UNL A   1      40.430  20.188  25.948  1.00  0.00     0.338 C 
ATOM     32  O   UNL A   1      40.498  19.007  25.648  1.00  0.00    -0.246 OA
BRANCH  31  33
ATOM     33  C   UNL A   1      41.478  20.881  26.691  1.00  0.00     0.060 A 
ATOM     34  C   UNL A   1      41.269  21.024  28.069  1.00  0.00     0.016 A 
ATOM     35  C   UNL A   1      42.321  21.721  25.960  1.00  0.00     0.016 A 
ATOM     36  C   UNL A   1      41.665  22.199  28.655  1.00  0.00     0.010 A 
ATOM     37  C   UNL A   1      42.658  22.914  26.526  1.00  0.00     0.010 A 
ATOM     38  C   UNL A   1      42.242  23.167  27.833  1.00  0.00    -0.014 A 
BRANCH  38  39
ATOM     39  C   UNL A   1      42.494  24.480  28.373  1.00  0.00     0.031 A 
ATOM     40  C   UNL A   1      41.392  25.414  28.061  1.00  0.00     0.074 A 
ATOM     41  C   UNL A   1      43.520  24.679  29.223  1.00  0.00     0.049 A 
ATOM     42  N   UNL A   1      41.413  26.447  27.287  1.00  0.00    -0.248 NA
ATOM     43  C   UNL A   1      40.033  24.999  28.471  1.00  0.00     0.031 C 
ATOM     44  C   UNL A   1      44.422  23.670  29.794  1.00  0.00     0.029 A 
ATOM     45  N   UNL A   1      43.870  25.805  29.891  1.00  0.00    -0.354 N 
ATOM     46  C   UNL A   1      40.114  26.943  27.329  1.00  0.00     0.074 A 
ATOM     47  C   UNL A   1      39.285  25.866  27.796  1.00  0.00     0.031 C 
ATOM     48  C   UNL A   1      45.008  24.180  30.902  1.00  0.00     0.029 A 
ATOM     49  C   UNL A   1      44.604  25.570  31.048  1.00  0.00     0.049 A 
ATOM     50  H   UNL A   1      43.626  26.708  29.584  1.00  0.00     0.167 HD
ATOM     51  C   UNL A   1      39.867  28.280  27.355  1.00  0.00     0.031 A 
ATOM     52  C   UNL A   1      44.748  26.427  32.093  1.00  0.00     0.031 A 
ATOM     53  C   UNL A   1      41.012  29.033  26.912  1.00  0.00     0.049 A 
ATOM     54  C   UNL A   1      44.321  27.772  31.613  1.00  0.00     0.074 A 
ATOM     55  C   UNL A   1      41.768  29.044  25.756  1.00  0.00     0.029 A 
ATOM     56  N   UNL A   1      41.786  29.626  27.885  1.00  0.00    -0.354 N 
ATOM     57  N   UNL A   1      44.952  28.442  30.689  1.00  0.00    -0.248 NA
ATOM     58  C   UNL A   1      42.924  28.145  31.802  1.00  0.00     0.031 C 
ATOM     59  C   UNL A   1      43.112  29.218  26.198  1.00  0.00     0.029 A 
ATOM     60  C   UNL A   1      43.101  29.383  27.584  1.00  0.00     0.049 A 
ATOM     61  H   UNL A   1      41.453  30.133  28.661  1.00  0.00     0.167 HD
ATOM     62  C   UNL A   1      43.952  29.000  29.901  1.00  0.00     0.074 A 
ATOM     63  C   UNL A   1      42.726  28.857  30.687  1.00  0.00     0.031 C 
ATOM     64  C   UNL A   1      44.153  29.251  28.572  1.00  0.00     0.031 A 
BRANCH  51  65
ATOM     65  C   UNL A   1      38.780  28.883  28.216  1.00  0.00    -0.014 A 
ATOM     66  C   UNL A   1      37.848  29.749  27.616  1.00  0.00     0.010 A 
ATOM     67  C   UNL A   1      38.798  28.853  29.629  1.00  0.00     0.010 A 
ATOM     68  C   UNL A   1      37.039  30.593  28.390  1.00  0.00     0.020 A 
ATOM     69  C   UNL A   1      37.965  29.650  30.410  1.00  0.00     0.020 A 
ATOM     70  C   UNL A   1      37.116  30.546  29.783  1.00  0.00     0.054 A 
BRANCH  70  71
ATOM     71  S   UNL A   1      36.158  31.713  30.773  1.00  0.00     0.124 S 
ATOM     72  O   UNL A   1      37.122  32.788  30.981  1.00  0.00    -0.237 OA
ATOM     73  O   UNL A   1      35.041  32.022  29.885  1.00  0.00    -0.237 OA
ATOM     74  O   UNL A   1      35.807  30.944  31.965  1.00  0.00    -0.744 OA
ENDBRANCH  70  71
ENDBRANCH  51  65
BRANCH  52  75
ATOM     75  C   UNL A   1      44.844  26.079  33.539  1.00  0.00    -0.014 A 
ATOM     76  C   UNL A   1      45.821  26.661  34.371  1.00  0.00     0.010 A 
ATOM     77  C   UNL A   1      43.807  25.359  34.168  1.00  0.00     0.010 A 
ATOM     78  C   UNL A   1      45.733  26.564  35.774  1.00  0.00     0.020 A 
ATOM     79  C   UNL A   1      43.716  25.250  35.561  1.00  0.00     0.020 A 
ATOM     80  C   UNL A   1      44.670  25.873  36.362  1.00  0.00     0.054 A 
BRANCH  80  81
ATOM     81  S   UNL A   1      44.467  25.889  38.169  1.00  0.00     0.124 S 
ATOM     82  O   UNL A   1      43.117  26.421  38.328  1.00  0.00    -0.237 OA
ATOM     83  O   UNL A   1      44.637  24.482  38.521  1.00  0.00    -0.237 OA
ATOM     84  O   UNL A   1      45.538  26.771  38.628  1.00  0.00    -0.744 OA
ENDBRANCH  80  81
ENDBRANCH  52  75
BRANCH  64  85
ATOM     85  C   UNL A   1      45.562  29.167  28.027  1.00  0.00    -0.014 A 
ATOM     86  C   UNL A   1      46.442  30.265  27.944  1.00  0.00     0.010 A 
ATOM     87  C   UNL A   1      46.068  27.884  27.758  1.00  0.00     0.010 A 
ATOM     88  C   UNL A   1      47.787  30.082  27.586  1.00  0.00     0.020 A 
ATOM     89  C   UNL A   1      47.409  27.693  27.419  1.00  0.00     0.020 A 
ATOM     90  C   UNL A   1      48.262  28.793  27.327  1.00  0.00     0.054 A 
BRANCH  90  91
ATOM     91  S   UNL A   1      50.014  28.545  26.919  1.00  0.00     0.124 S 
ATOM     92  O   UNL A   1      50.165  27.097  27.030  1.00  0.00    -0.237 OA
ATOM     93  O   UNL A   1      50.115  29.087  25.566  1.00  0.00    -0.237 OA
ATOM     94  O   UNL A   1      50.722  29.319  27.939  1.00  0.00    -0.744 OA
ENDBRANCH  90  91
ENDBRANCH  64  85
ENDBRANCH  38  39
ENDBRANCH  31  33
ENDBRANCH  30  31
ENDBRANCH  29  30
ENDBRANCH   1  29
TORSDOF 19
ENDMDL
