MODEL 1
REMARK VINA RESULT:      -9.8      0.000      0.000
REMARK SMILES O=C(OCCOC(=O)c1cc(Cl)nc(I)c1C(F)(F)F)c1ccc(-c2c3nc(c(-c4ccc(S(=O)(=O)[O-])cc4)c4ccc([nH]4)c(-c4ccc(S(=O)(=O)[O-])cc4)c4nc(c(-c5ccc(S(=O)(=O)[O-])cc5)c5ccc2[nH]5)C=C4)C=C3)cc1
REMARK SMILES IDX 4 1 3 2 2 3 1 4 21 5 22 6 80 7 23 8 79 9 24 10 25 11 26 12
REMARK SMILES IDX 73 13 27 14 78 15 72 16 74 17 28 18 77 19 71 20 70 21 29 23
REMARK SMILES IDX 59 24 40 25 58 26 41 27 44 28 57 29 75 30 42 31 43 32 56 34
REMARK SMILES IDX 76 35 45 36 30 37 31 38 39 39 32 40 38 41 33 42 34 43 35 44
REMARK SMILES IDX 36 45 37 46 60 47 61 48 69 49 62 50 68 51 63 52 64 53 65 54
REMARK SMILES IDX 66 55 67 56 46 57 47 58 55 59 48 60 54 61 49 62 50 63 51 64
REMARK SMILES IDX 52 65 53 66 5 67 6 68 7 69 8 70 9 71 10 72 16 73 11 74 14 75
REMARK SMILES IDX 12 76 13 77 15 78 17 79 18 80 19 81 20 82
REMARK H PARENT 74 22 44 33
REMARK Flexibility Score: inf
ROOT
ATOM      1  C   UNL A   1      41.050  21.414  26.883  1.00  0.00     0.275 C 
ENDROOT
BRANCH   1   2
ATOM      2  O   UNL A   1      39.866  21.631  26.097  1.00  0.00    -0.458 OA
BRANCH   2   3
ATOM      3  C   UNL A   1      38.958  22.631  26.196  1.00  0.00     0.338 C 
ATOM      4  O   UNL A   1      37.866  22.489  25.648  1.00  0.00    -0.246 OA
BRANCH   3   5
ATOM      5  C   UNL A   1      39.280  23.984  26.761  1.00  0.00     0.060 A 
ATOM      6  C   UNL A   1      39.867  25.046  26.069  1.00  0.00     0.016 A 
ATOM      7  C   UNL A   1      38.952  24.189  28.117  1.00  0.00     0.016 A 
ATOM      8  C   UNL A   1      40.073  26.282  26.682  1.00  0.00     0.010 A 
ATOM      9  C   UNL A   1      39.181  25.417  28.749  1.00  0.00     0.010 A 
ATOM     10  C   UNL A   1      39.760  26.464  28.030  1.00  0.00    -0.014 A 
BRANCH  10  11
ATOM     11  C   UNL A   1      40.266  27.675  28.704  1.00  0.00     0.031 A 
ATOM     12  C   UNL A   1      41.718  27.705  29.075  1.00  0.00     0.074 A 
ATOM     13  C   UNL A   1      39.495  28.767  28.852  1.00  0.00     0.049 A 
ATOM     14  N   UNL A   1      42.419  28.693  29.558  1.00  0.00    -0.248 NA
ATOM     15  C   UNL A   1      42.494  26.476  28.821  1.00  0.00     0.031 C 
ATOM     16  C   UNL A   1      38.112  28.882  28.401  1.00  0.00     0.029 A 
ATOM     17  N   UNL A   1      39.772  29.996  29.394  1.00  0.00    -0.354 N 
ATOM     18  C   UNL A   1      43.723  28.224  29.619  1.00  0.00     0.074 A 
ATOM     19  C   UNL A   1      43.718  26.857  29.153  1.00  0.00     0.031 C 
ATOM     20  C   UNL A   1      37.662  30.118  28.678  1.00  0.00     0.029 A 
ATOM     21  C   UNL A   1      38.710  30.868  29.355  1.00  0.00     0.049 A 
ATOM     22  H   UNL A   1      40.649  30.231  29.773  1.00  0.00     0.167 HD
ATOM     23  C   UNL A   1      44.828  28.886  30.021  1.00  0.00     0.031 A 
ATOM     24  C   UNL A   1      38.595  32.128  29.818  1.00  0.00     0.031 A 
ATOM     25  C   UNL A   1      44.812  30.216  30.553  1.00  0.00     0.049 A 
ATOM     26  C   UNL A   1      39.797  32.763  30.456  1.00  0.00     0.074 A 
ATOM     27  C   UNL A   1      45.864  30.944  31.076  1.00  0.00     0.029 A 
ATOM     28  N   UNL A   1      43.681  31.011  30.647  1.00  0.00    -0.354 N 
ATOM     29  N   UNL A   1      41.019  32.292  30.545  1.00  0.00    -0.248 NA
ATOM     30  C   UNL A   1      39.614  34.092  31.056  1.00  0.00     0.031 C 
ATOM     31  C   UNL A   1      45.358  32.165  31.531  1.00  0.00     0.029 A 
ATOM     32  C   UNL A   1      44.002  32.214  31.246  1.00  0.00     0.049 A 
ATOM     33  H   UNL A   1      42.783  30.756  30.335  1.00  0.00     0.167 HD
ATOM     34  C   UNL A   1      41.756  33.277  31.187  1.00  0.00     0.074 A 
ATOM     35  C   UNL A   1      40.845  34.371  31.462  1.00  0.00     0.031 C 
ATOM     36  C   UNL A   1      43.072  33.280  31.512  1.00  0.00     0.031 A 
BRANCH  23  37
ATOM     37  C   UNL A   1      46.134  28.160  29.930  1.00  0.00    -0.014 A 
ATOM     38  C   UNL A   1      46.512  27.250  30.933  1.00  0.00     0.010 A 
ATOM     39  C   UNL A   1      46.968  28.352  28.816  1.00  0.00     0.010 A 
ATOM     40  C   UNL A   1      47.704  26.534  30.816  1.00  0.00     0.020 A 
ATOM     41  C   UNL A   1      48.156  27.629  28.691  1.00  0.00     0.020 A 
ATOM     42  C   UNL A   1      48.513  26.721  29.691  1.00  0.00     0.054 A 
BRANCH  42  43
ATOM     43  S   UNL A   1      50.028  25.736  29.544  1.00  0.00     0.124 S 
ATOM     44  O   UNL A   1      50.070  25.046  30.832  1.00  0.00    -0.237 OA
ATOM     45  O   UNL A   1      49.741  24.891  28.389  1.00  0.00    -0.237 OA
ATOM     46  O   UNL A   1      51.075  26.734  29.343  1.00  0.00    -0.744 OA
ENDBRANCH  42  43
ENDBRANCH  23  37
BRANCH  24  47
ATOM     47  C   UNL A   1      37.301  32.861  29.720  1.00  0.00    -0.014 A 
ATOM     48  C   UNL A   1      36.450  32.970  30.833  1.00  0.00     0.010 A 
ATOM     49  C   UNL A   1      36.904  33.438  28.499  1.00  0.00     0.010 A 
ATOM     50  C   UNL A   1      35.219  33.629  30.723  1.00  0.00     0.020 A 
ATOM     51  C   UNL A   1      35.684  34.114  28.389  1.00  0.00     0.020 A 
ATOM     52  C   UNL A   1      34.845  34.199  29.502  1.00  0.00     0.054 A 
BRANCH  52  53
ATOM     53  S   UNL A   1      33.245  35.049  29.392  1.00  0.00     0.124 S 
ATOM     54  O   UNL A   1      33.642  36.414  29.063  1.00  0.00    -0.237 OA
ATOM     55  O   UNL A   1      32.578  34.309  28.322  1.00  0.00    -0.237 OA
ATOM     56  O   UNL A   1      32.667  34.872  30.722  1.00  0.00    -0.744 OA
ENDBRANCH  52  53
ENDBRANCH  24  47
BRANCH  36  57
ATOM     57  C   UNL A   1      43.613  34.507  32.183  1.00  0.00    -0.014 A 
ATOM     58  C   UNL A   1      44.059  35.603  31.427  1.00  0.00     0.010 A 
ATOM     59  C   UNL A   1      43.588  34.592  33.586  1.00  0.00     0.010 A 
ATOM     60  C   UNL A   1      44.485  36.767  32.068  1.00  0.00     0.020 A 
ATOM     61  C   UNL A   1      43.992  35.763  34.229  1.00  0.00     0.020 A 
ATOM     62  C   UNL A   1      44.440  36.841  33.464  1.00  0.00     0.054 A 
BRANCH  62  63
ATOM     63  S   UNL A   1      44.952  38.386  34.263  1.00  0.00     0.124 S 
ATOM     64  O   UNL A   1      44.702  38.099  35.673  1.00  0.00    -0.237 OA
ATOM     65  O   UNL A   1      46.357  38.488  33.880  1.00  0.00    -0.237 OA
ATOM     66  O   UNL A   1      44.072  39.393  33.670  1.00  0.00    -0.744 OA
ENDBRANCH  62  63
ENDBRANCH  36  57
ENDBRANCH  10  11
ENDBRANCH   3   5
ENDBRANCH   2   3
ENDBRANCH   1   2
BRANCH   1  67
ATOM     67  C   UNL A   1      42.347  21.628  26.097  1.00  0.00     0.275 C 
BRANCH  67  68
ATOM     68  O   UNL A   1      42.772  23.001  26.087  1.00  0.00    -0.458 OA
BRANCH  68  69
ATOM     69  C   UNL A   1      43.409  23.388  24.959  1.00  0.00     0.339 C 
ATOM     70  O   UNL A   1      43.475  22.791  23.899  1.00  0.00    -0.246 OA
BRANCH  69  71
ATOM     71  C   UNL A   1      43.956  24.745  25.117  1.00  0.00     0.078 A 
ATOM     72  C   UNL A   1      42.997  25.760  25.129  1.00  0.00     0.057 A 
ATOM     73  C   UNL A   1      45.335  25.027  25.139  1.00  0.00     0.102 A 
ATOM     74  C   UNL A   1      43.452  27.048  25.198  1.00  0.00     0.131 A 
ATOM     75  C   UNL A   1      45.669  26.378  25.113  1.00  0.00     0.116 A 
ATOM     76  Cl  UNL A   1      42.372  28.370  25.321  1.00  0.00    -0.062 Cl
ATOM     77  N   UNL A   1      44.750  27.376  25.167  1.00  0.00    -0.229 NA
ATOM     78  I   UNL A   1      47.632  27.108  24.864  1.00  0.00    -0.021 I 
BRANCH  73  79
ATOM     79  C   UNL A   1      46.342  23.925  25.283  1.00  0.00     0.419 C 
ATOM     80  F   UNL A   1      45.909  22.821  25.942  1.00  0.00    -0.166 F 
ATOM     81  F   UNL A   1      46.781  23.494  24.067  1.00  0.00    -0.166 F 
ATOM     82  F   UNL A   1      47.465  24.291  25.963  1.00  0.00    -0.166 F 
ENDBRANCH  73  79
ENDBRANCH  69  71
ENDBRANCH  68  69
ENDBRANCH  67  68
ENDBRANCH   1  67
TORSDOF 15
ENDMDL
MODEL 2
REMARK VINA RESULT:      -9.7      4.841     11.408
REMARK SMILES O=C(OCCOC(=O)c1cc(Cl)nc(I)c1C(F)(F)F)c1ccc(-c2c3nc(c(-c4ccc(S(=O)(=O)[O-])cc4)c4ccc([nH]4)c(-c4ccc(S(=O)(=O)[O-])cc4)c4nc(c(-c5ccc(S(=O)(=O)[O-])cc5)c5ccc2[nH]5)C=C4)C=C3)cc1
REMARK SMILES IDX 4 1 3 2 2 3 1 4 21 5 22 6 80 7 23 8 79 9 24 10 25 11 26 12
REMARK SMILES IDX 73 13 27 14 78 15 72 16 74 17 28 18 77 19 71 20 70 21 29 23
REMARK SMILES IDX 59 24 40 25 58 26 41 27 44 28 57 29 75 30 42 31 43 32 56 34
REMARK SMILES IDX 76 35 45 36 30 37 31 38 39 39 32 40 38 41 33 42 34 43 35 44
REMARK SMILES IDX 36 45 37 46 60 47 61 48 69 49 62 50 68 51 63 52 64 53 65 54
REMARK SMILES IDX 66 55 67 56 46 57 47 58 55 59 48 60 54 61 49 62 50 63 51 64
REMARK SMILES IDX 52 65 53 66 5 67 6 68 7 69 8 70 9 71 10 72 16 73 11 74 14 75
REMARK SMILES IDX 12 76 13 77 15 78 17 79 18 80 19 81 20 82
REMARK H PARENT 74 22 44 33
REMARK Flexibility Score: inf
ROOT
ATOM      1  C   UNL A   1      33.855  33.209  28.803  1.00  0.00     0.275 C 
ENDROOT
BRANCH   1   2
ATOM      2  O   UNL A   1      34.536  32.417  27.814  1.00  0.00    -0.458 OA
BRANCH   2   3
ATOM      3  C   UNL A   1      34.680  31.071  27.765  1.00  0.00     0.338 C 
ATOM      4  O   UNL A   1      33.682  30.381  27.562  1.00  0.00    -0.246 OA
BRANCH   3   5
ATOM      5  C   UNL A   1      35.947  30.362  28.147  1.00  0.00     0.060 A 
ATOM      6  C   UNL A   1      36.152  29.609  29.304  1.00  0.00     0.016 A 
ATOM      7  C   UNL A   1      37.023  30.476  27.241  1.00  0.00     0.016 A 
ATOM      8  C   UNL A   1      37.359  28.947  29.533  1.00  0.00     0.010 A 
ATOM      9  C   UNL A   1      38.247  29.840  27.475  1.00  0.00     0.010 A 
ATOM     10  C   UNL A   1      38.421  29.084  28.636  1.00  0.00    -0.014 A 
BRANCH  10  11
ATOM     11  C   UNL A   1      39.754  28.619  29.063  1.00  0.00     0.031 A 
ATOM     12  C   UNL A   1      40.530  29.502  29.994  1.00  0.00     0.074 A 
ATOM     13  C   UNL A   1      40.201  27.391  28.747  1.00  0.00     0.049 A 
ATOM     14  N   UNL A   1      41.658  29.261  30.600  1.00  0.00    -0.248 NA
ATOM     15  C   UNL A   1      39.929  30.809  30.324  1.00  0.00     0.031 C 
ATOM     16  C   UNL A   1      39.462  26.408  27.962  1.00  0.00     0.029 A 
ATOM     17  N   UNL A   1      41.367  26.748  29.075  1.00  0.00    -0.354 N 
ATOM     18  C   UNL A   1      41.878  30.358  31.420  1.00  0.00     0.074 A 
ATOM     19  C   UNL A   1      40.786  31.282  31.217  1.00  0.00     0.031 C 
ATOM     20  C   UNL A   1      40.190  25.282  27.872  1.00  0.00     0.029 A 
ATOM     21  C   UNL A   1      41.456  25.475  28.564  1.00  0.00     0.049 A 
ATOM     22  H   UNL A   1      42.072  27.158  29.625  1.00  0.00     0.167 HD
ATOM     23  C   UNL A   1      42.900  30.568  32.275  1.00  0.00     0.031 A 
ATOM     24  C   UNL A   1      42.451  24.569  28.640  1.00  0.00     0.031 A 
ATOM     25  C   UNL A   1      44.018  29.682  32.415  1.00  0.00     0.049 A 
ATOM     26  C   UNL A   1      43.676  24.924  29.434  1.00  0.00     0.074 A 
ATOM     27  C   UNL A   1      45.153  29.848  33.184  1.00  0.00     0.029 A 
ATOM     28  N   UNL A   1      44.148  28.472  31.752  1.00  0.00    -0.354 N 
ATOM     29  N   UNL A   1      43.890  25.986  30.174  1.00  0.00    -0.248 NA
ATOM     30  C   UNL A   1      44.792  23.969  29.407  1.00  0.00     0.031 C 
ATOM     31  C   UNL A   1      45.995  28.757  32.951  1.00  0.00     0.029 A 
ATOM     32  C   UNL A   1      45.360  27.890  32.074  1.00  0.00     0.049 A 
ATOM     33  H   UNL A   1      43.479  28.085  31.143  1.00  0.00     0.167 HD
ATOM     34  C   UNL A   1      45.154  25.815  30.722  1.00  0.00     0.074 A 
ATOM     35  C   UNL A   1      45.655  24.547  30.231  1.00  0.00     0.031 C 
ATOM     36  C   UNL A   1      45.834  26.630  31.563  1.00  0.00     0.031 A 
BRANCH  23  37
ATOM     37  C   UNL A   1      42.865  31.821  33.093  1.00  0.00    -0.014 A 
ATOM     38  C   UNL A   1      43.442  33.006  32.603  1.00  0.00     0.010 A 
ATOM     39  C   UNL A   1      42.213  31.828  34.338  1.00  0.00     0.010 A 
ATOM     40  C   UNL A   1      43.358  34.185  33.345  1.00  0.00     0.020 A 
ATOM     41  C   UNL A   1      42.118  33.009  35.077  1.00  0.00     0.020 A 
ATOM     42  C   UNL A   1      42.688  34.181  34.572  1.00  0.00     0.054 A 
BRANCH  42  43
ATOM     43  S   UNL A   1      42.550  35.741  35.485  1.00  0.00     0.124 S 
ATOM     44  O   UNL A   1      42.521  35.283  36.873  1.00  0.00    -0.237 OA
ATOM     45  O   UNL A   1      43.763  36.447  35.082  1.00  0.00    -0.237 OA
ATOM     46  O   UNL A   1      41.301  36.320  34.999  1.00  0.00    -0.744 OA
ENDBRANCH  42  43
ENDBRANCH  23  37
BRANCH  24  47
ATOM     47  C   UNL A   1      42.345  23.260  27.936  1.00  0.00    -0.014 A 
ATOM     48  C   UNL A   1      41.601  22.203  28.489  1.00  0.00     0.010 A 
ATOM     49  C   UNL A   1      43.010  23.057  26.712  1.00  0.00     0.010 A 
ATOM     50  C   UNL A   1      41.538  20.964  27.840  1.00  0.00     0.020 A 
ATOM     51  C   UNL A   1      42.933  21.827  26.050  1.00  0.00     0.020 A 
ATOM     52  C   UNL A   1      42.202  20.785  26.623  1.00  0.00     0.054 A 
BRANCH  52  53
ATOM     53  S   UNL A   1      42.098  19.169  25.803  1.00  0.00     0.124 S 
ATOM     54  O   UNL A   1      40.672  19.060  25.511  1.00  0.00    -0.237 OA
ATOM     55  O   UNL A   1      42.969  19.356  24.644  1.00  0.00    -0.237 OA
ATOM     56  O   UNL A   1      42.600  18.237  26.812  1.00  0.00    -0.744 OA
ENDBRANCH  52  53
ENDBRANCH  24  47
BRANCH  36  57
ATOM     57  C   UNL A   1      47.186  26.173  32.024  1.00  0.00    -0.014 A 
ATOM     58  C   UNL A   1      47.325  25.401  33.189  1.00  0.00     0.010 A 
ATOM     59  C   UNL A   1      48.313  26.444  31.229  1.00  0.00     0.010 A 
ATOM     60  C   UNL A   1      48.580  24.916  33.559  1.00  0.00     0.020 A 
ATOM     61  C   UNL A   1      49.565  25.942  31.584  1.00  0.00     0.020 A 
ATOM     62  C   UNL A   1      49.689  25.183  32.750  1.00  0.00     0.054 A 
BRANCH  62  63
ATOM     63  S   UNL A   1      51.295  24.494  33.232  1.00  0.00     0.124 S 
ATOM     64  O   UNL A   1      51.378  23.297  32.399  1.00  0.00    -0.237 OA
ATOM     65  O   UNL A   1      52.217  25.570  32.881  1.00  0.00    -0.237 OA
ATOM     66  O   UNL A   1      51.151  24.243  34.665  1.00  0.00    -0.744 OA
ENDBRANCH  62  63
ENDBRANCH  36  57
ENDBRANCH  10  11
ENDBRANCH   3   5
ENDBRANCH   2   3
ENDBRANCH   1   2
BRANCH   1  67
ATOM     67  C   UNL A   1      34.793  33.788  29.866  1.00  0.00     0.275 C 
BRANCH  67  68
ATOM     68  O   UNL A   1      35.503  32.772  30.594  1.00  0.00    -0.458 OA
BRANCH  68  69
ATOM     69  C   UNL A   1      35.065  32.571  31.857  1.00  0.00     0.339 C 
ATOM     70  O   UNL A   1      33.927  32.678  32.276  1.00  0.00    -0.246 OA
BRANCH  69  71
ATOM     71  C   UNL A   1      36.157  32.069  32.706  1.00  0.00     0.078 A 
ATOM     72  C   UNL A   1      36.610  30.790  32.375  1.00  0.00     0.057 A 
ATOM     73  C   UNL A   1      36.641  32.758  33.835  1.00  0.00     0.102 A 
ATOM     74  C   UNL A   1      37.572  30.241  33.177  1.00  0.00     0.131 A 
ATOM     75  C   UNL A   1      37.547  32.053  34.622  1.00  0.00     0.116 A 
ATOM     76  Cl  UNL A   1      38.275  28.724  32.815  1.00  0.00    -0.062 Cl
ATOM     77  N   UNL A   1      38.028  30.826  34.291  1.00  0.00    -0.229 NA
ATOM     78  I   UNL A   1      38.235  32.702  36.507  1.00  0.00    -0.021 I 
BRANCH  73  79
ATOM     79  C   UNL A   1      36.260  34.187  34.084  1.00  0.00     0.419 C 
ATOM     80  F   UNL A   1      35.179  34.373  34.881  1.00  0.00    -0.166 F 
ATOM     81  F   UNL A   1      37.283  34.877  34.662  1.00  0.00    -0.166 F 
ATOM     82  F   UNL A   1      35.953  34.880  32.951  1.00  0.00    -0.166 F 
ENDBRANCH  73  79
ENDBRANCH  69  71
ENDBRANCH  68  69
ENDBRANCH  67  68
ENDBRANCH   1  67
TORSDOF 15
ENDMDL
MODEL 3
REMARK VINA RESULT:      -9.2      4.216      5.637
REMARK SMILES O=C(OCCOC(=O)c1cc(Cl)nc(I)c1C(F)(F)F)c1ccc(-c2c3nc(c(-c4ccc(S(=O)(=O)[O-])cc4)c4ccc([nH]4)c(-c4ccc(S(=O)(=O)[O-])cc4)c4nc(c(-c5ccc(S(=O)(=O)[O-])cc5)c5ccc2[nH]5)C=C4)C=C3)cc1
REMARK SMILES IDX 4 1 3 2 2 3 1 4 21 5 22 6 80 7 23 8 79 9 24 10 25 11 26 12
REMARK SMILES IDX 73 13 27 14 78 15 72 16 74 17 28 18 77 19 71 20 70 21 29 23
REMARK SMILES IDX 59 24 40 25 58 26 41 27 44 28 57 29 75 30 42 31 43 32 56 34
REMARK SMILES IDX 76 35 45 36 30 37 31 38 39 39 32 40 38 41 33 42 34 43 35 44
REMARK SMILES IDX 36 45 37 46 60 47 61 48 69 49 62 50 68 51 63 52 64 53 65 54
REMARK SMILES IDX 66 55 67 56 46 57 47 58 55 59 48 60 54 61 49 62 50 63 51 64
REMARK SMILES IDX 52 65 53 66 5 67 6 68 7 69 8 70 9 71 10 72 16 73 11 74 14 75
REMARK SMILES IDX 12 76 13 77 15 78 17 79 18 80 19 81 20 82
REMARK H PARENT 74 22 44 33
REMARK Flexibility Score: inf
ROOT
ATOM      1  C   UNL A   1      36.983  22.783  25.702  1.00  0.00     0.275 C 
ENDROOT
BRANCH   1   2
ATOM      2  O   UNL A   1      38.332  22.298  25.596  1.00  0.00    -0.458 OA
BRANCH   2   3
ATOM      3  C   UNL A   1      39.409  22.627  26.349  1.00  0.00     0.338 C 
ATOM      4  O   UNL A   1      40.142  21.724  26.752  1.00  0.00    -0.246 OA
BRANCH   3   5
ATOM      5  C   UNL A   1      39.645  24.006  26.893  1.00  0.00     0.060 A 
ATOM      6  C   UNL A   1      40.320  25.042  26.244  1.00  0.00     0.016 A 
ATOM      7  C   UNL A   1      39.131  24.266  28.181  1.00  0.00     0.016 A 
ATOM      8  C   UNL A   1      40.435  26.306  26.825  1.00  0.00     0.010 A 
ATOM      9  C   UNL A   1      39.267  25.522  28.784  1.00  0.00     0.010 A 
ATOM     10  C   UNL A   1      39.938  26.542  28.108  1.00  0.00    -0.014 A 
BRANCH  10  11
ATOM     11  C   UNL A   1      40.341  27.786  28.791  1.00  0.00     0.031 A 
ATOM     12  C   UNL A   1      41.766  27.894  29.245  1.00  0.00     0.074 A 
ATOM     13  C   UNL A   1      39.509  28.838  28.879  1.00  0.00     0.049 A 
ATOM     14  N   UNL A   1      42.386  28.922  29.753  1.00  0.00    -0.248 NA
ATOM     15  C   UNL A   1      42.616  26.703  29.055  1.00  0.00     0.031 C 
ATOM     16  C   UNL A   1      38.151  28.877  28.346  1.00  0.00     0.029 A 
ATOM     17  N   UNL A   1      39.692  30.086  29.416  1.00  0.00    -0.354 N 
ATOM     18  C   UNL A   1      43.707  28.522  29.896  1.00  0.00     0.074 A 
ATOM     19  C   UNL A   1      43.798  27.150  29.451  1.00  0.00     0.031 C 
ATOM     20  C   UNL A   1      37.623  30.091  28.578  1.00  0.00     0.029 A 
ATOM     21  C   UNL A   1      38.591  30.902  29.303  1.00  0.00     0.049 A 
ATOM     22  H   UNL A   1      40.532  30.371  29.843  1.00  0.00     0.167 HD
ATOM     23  C   UNL A   1      44.752  29.243  30.351  1.00  0.00     0.031 A 
ATOM     24  C   UNL A   1      38.386  32.160  29.740  1.00  0.00     0.031 A 
ATOM     25  C   UNL A   1      44.638  30.578  30.862  1.00  0.00     0.049 A 
ATOM     26  C   UNL A   1      39.515  32.863  30.438  1.00  0.00     0.074 A 
ATOM     27  C   UNL A   1      45.619  31.364  31.434  1.00  0.00     0.029 A 
ATOM     28  N   UNL A   1      43.464  31.315  30.878  1.00  0.00    -0.354 N 
ATOM     29  N   UNL A   1      40.752  32.456  30.604  1.00  0.00    -0.248 NA
ATOM     30  C   UNL A   1      39.231  34.188  31.006  1.00  0.00     0.031 C 
ATOM     31  C   UNL A   1      45.027  32.563  31.841  1.00  0.00     0.029 A 
ATOM     32  C   UNL A   1      43.689  32.540  31.477  1.00  0.00     0.049 A 
ATOM     33  H   UNL A   1      42.600  31.010  30.519  1.00  0.00     0.167 HD
ATOM     34  C   UNL A   1      41.400  33.486  31.273  1.00  0.00     0.074 A 
ATOM     35  C   UNL A   1      40.421  34.535  31.478  1.00  0.00     0.031 C 
ATOM     36  C   UNL A   1      42.692  33.560  31.673  1.00  0.00     0.031 A 
BRANCH  23  37
ATOM     37  C   UNL A   1      46.096  28.584  30.348  1.00  0.00    -0.014 A 
ATOM     38  C   UNL A   1      46.948  28.715  29.238  1.00  0.00     0.010 A 
ATOM     39  C   UNL A   1      46.529  27.868  31.477  1.00  0.00     0.010 A 
ATOM     40  C   UNL A   1      48.223  28.146  29.262  1.00  0.00     0.020 A 
ATOM     41  C   UNL A   1      47.807  27.307  31.508  1.00  0.00     0.020 A 
ATOM     42  C   UNL A   1      48.646  27.454  30.401  1.00  0.00     0.054 A 
BRANCH  42  43
ATOM     43  S   UNL A   1      50.327  26.772  30.420  1.00  0.00     0.124 S 
ATOM     44  O   UNL A   1      50.087  25.360  30.129  1.00  0.00    -0.237 OA
ATOM     45  O   UNL A   1      50.983  27.530  29.359  1.00  0.00    -0.237 OA
ATOM     46  O   UNL A   1      50.801  27.052  31.772  1.00  0.00    -0.744 OA
ENDBRANCH  42  43
ENDBRANCH  23  37
BRANCH  24  47
ATOM     47  C   UNL A   1      37.065  32.824  29.557  1.00  0.00    -0.014 A 
ATOM     48  C   UNL A   1      36.772  33.529  28.376  1.00  0.00     0.010 A 
ATOM     49  C   UNL A   1      36.096  32.772  30.577  1.00  0.00     0.010 A 
ATOM     50  C   UNL A   1      35.543  34.182  28.227  1.00  0.00     0.020 A 
ATOM     51  C   UNL A   1      34.859  33.407  30.423  1.00  0.00     0.020 A 
ATOM     52  C   UNL A   1      34.593  34.115  29.250  1.00  0.00     0.054 A 
BRANCH  52  53
ATOM     53  S   UNL A   1      33.007  34.969  29.025  1.00  0.00     0.124 S 
ATOM     54  O   UNL A   1      33.429  36.290  28.569  1.00  0.00    -0.237 OA
ATOM     55  O   UNL A   1      32.349  34.135  28.022  1.00  0.00    -0.237 OA
ATOM     56  O   UNL A   1      32.403  34.933  30.355  1.00  0.00    -0.744 OA
ENDBRANCH  52  53
ENDBRANCH  24  47
BRANCH  36  57
ATOM     57  C   UNL A   1      43.131  34.820  32.356  1.00  0.00    -0.014 A 
ATOM     58  C   UNL A   1      43.582  35.922  31.611  1.00  0.00     0.010 A 
ATOM     59  C   UNL A   1      43.003  34.928  33.752  1.00  0.00     0.010 A 
ATOM     60  C   UNL A   1      43.909  37.115  32.258  1.00  0.00     0.020 A 
ATOM     61  C   UNL A   1      43.309  36.126  34.398  1.00  0.00     0.020 A 
ATOM     62  C   UNL A   1      43.763  37.211  33.646  1.00  0.00     0.054 A 
BRANCH  62  63
ATOM     63  S   UNL A   1      44.149  38.790  34.447  1.00  0.00     0.124 S 
ATOM     64  O   UNL A   1      45.511  39.043  33.985  1.00  0.00    -0.237 OA
ATOM     65  O   UNL A   1      43.125  39.677  33.903  1.00  0.00    -0.237 OA
ATOM     66  O   UNL A   1      44.024  38.497  35.874  1.00  0.00    -0.744 OA
ENDBRANCH  62  63
ENDBRANCH  36  57
ENDBRANCH  10  11
ENDBRANCH   3   5
ENDBRANCH   2   3
ENDBRANCH   1   2
BRANCH   1  67
ATOM     67  C   UNL A   1      35.961  21.674  25.969  1.00  0.00     0.275 C 
BRANCH  67  68
ATOM     68  O   UNL A   1      34.674  22.186  26.358  1.00  0.00    -0.458 OA
BRANCH  68  69
ATOM     69  C   UNL A   1      33.913  22.636  25.336  1.00  0.00     0.339 C 
ATOM     70  O   UNL A   1      34.017  22.364  24.153  1.00  0.00    -0.246 OA
BRANCH  69  71
ATOM     71  C   UNL A   1      32.802  23.457  25.845  1.00  0.00     0.078 A 
ATOM     72  C   UNL A   1      31.705  22.727  26.308  1.00  0.00     0.057 A 
ATOM     73  C   UNL A   1      32.781  24.863  25.774  1.00  0.00     0.102 A 
ATOM     74  C   UNL A   1      30.613  23.438  26.724  1.00  0.00     0.131 A 
ATOM     75  C   UNL A   1      31.578  25.461  26.136  1.00  0.00     0.116 A 
ATOM     76  Cl  UNL A   1      29.249  22.659  27.403  1.00  0.00    -0.062 Cl
ATOM     77  N   UNL A   1      30.517  24.769  26.627  1.00  0.00    -0.229 NA
ATOM     78  I   UNL A   1      31.148  27.510  25.876  1.00  0.00    -0.021 I 
BRANCH  73  79
ATOM     79  C   UNL A   1      34.020  25.633  25.423  1.00  0.00     0.419 C 
ATOM     80  F   UNL A   1      35.192  25.016  25.716  1.00  0.00    -0.166 F 
ATOM     81  F   UNL A   1      34.062  25.921  24.093  1.00  0.00    -0.166 F 
ATOM     82  F   UNL A   1      34.117  26.836  26.057  1.00  0.00    -0.166 F 
ENDBRANCH  73  79
ENDBRANCH  69  71
ENDBRANCH  68  69
ENDBRANCH  67  68
ENDBRANCH   1  67
TORSDOF 15
ENDMDL
