MODEL 1
REMARK VINA RESULT:     -11.4      0.000      0.000
REMARK SMILES Cc1cccc2c1N=CN1C2=[NH+]NC(=O)[C@@H]1CC(=O)OCCOC(=O)c1ccc(-c2c3nc(c(-c4ccc(S(=O)(=O)[O-])cc4)c4ccc([nH]4)c(-c4ccc(S(=O)(=O)[O-])cc4)c4nc(c(-c5ccc(S(=O)(=O)[O-])cc5)c5ccc2[nH]5)C=C4)C=C3)cc1
REMARK SMILES IDX 22 1 21 2 20 3 18 4 19 5 17 6 16 7 1 8 2 9 3 10 7 11 4 12
REMARK SMILES IDX 6 13 8 14 5 15 11 16 9 17 10 18 12 19 13 20 14 22 15 24
REMARK SMILES IDX 23 25 24 26 25 27 26 28 27 29 85 30 28 31 84 32 29 33 30 34
REMARK SMILES IDX 31 35 78 36 32 37 83 38 77 39 79 40 33 41 82 42 76 43 75 44
REMARK SMILES IDX 34 46 64 47 45 48 63 49 46 50 49 51 62 52 80 53 47 54 48 55
REMARK SMILES IDX 61 57 81 58 50 59 35 60 36 61 44 62 37 63 43 64 38 65 39 66
REMARK SMILES IDX 40 67 41 68 42 69 65 70 66 71 74 72 67 73 73 74 68 75 69 76
REMARK SMILES IDX 70 77 71 78 72 79 51 80 52 81 60 82 53 83 59 84 54 85 55 86
REMARK SMILES IDX 56 87 57 88 58 89
REMARK H PARENT 12 21 13 23 79 45 49 56
REMARK Flexibility Score: inf
ROOT
ATOM      1  C   UNL A   1      37.424  21.474  25.285  1.00  0.00     0.275 C 
ENDROOT
BRANCH   1   2
ATOM      2  C   UNL A   1      36.024  21.211  25.829  1.00  0.00     0.274 C 
BRANCH   2   3
ATOM      3  O   UNL A   1      35.240  20.574  24.793  1.00  0.00    -0.462 OA
BRANCH   3   4
ATOM      4  C   UNL A   1      33.915  20.498  25.061  1.00  0.00     0.310 C 
ATOM      5  O   UNL A   1      33.355  19.516  25.540  1.00  0.00    -0.252 OA
BRANCH   4   6
ATOM      6  C   UNL A   1      33.142  21.758  24.783  1.00  0.00     0.183 C 
BRANCH   6   7
ATOM      7  C   UNL A   1      33.556  22.667  23.632  1.00  0.00     0.286 C 
ATOM      8  C   UNL A   1      33.943  28.371  26.592  1.00  0.00     0.047 C 
ATOM      9  C   UNL A   1      33.613  27.993  25.176  1.00  0.00    -0.024 A 
ATOM     10  C   UNL A   1      32.998  28.950  24.345  1.00  0.00     0.006 A 
ATOM     11  C   UNL A   1      33.888  26.712  24.673  1.00  0.00     0.085 A 
ATOM     12  C   UNL A   1      32.676  28.655  23.020  1.00  0.00     0.001 A 
ATOM     13  C   UNL A   1      33.523  26.428  23.343  1.00  0.00     0.092 A 
ATOM     14  N   UNL A   1      34.436  25.726  25.530  1.00  0.00    -0.215 NA
ATOM     15  C   UNL A   1      32.951  27.396  22.509  1.00  0.00     0.019 A 
ATOM     16  C   UNL A   1      33.495  24.998  22.936  1.00  0.00     0.309 C 
ATOM     17  C   UNL A   1      34.313  24.500  25.136  1.00  0.00     0.317 C 
ATOM     18  N   UNL A   1      33.753  24.085  23.952  1.00  0.00    -0.202 N 
ATOM     19  N   UNL A   1      33.143  24.722  21.713  1.00  0.00    -0.169 N 
ATOM     20  N   UNL A   1      32.795  23.438  21.445  1.00  0.00    -0.193 N 
ATOM     21  H   UNL A   1      33.132  25.415  21.013  1.00  0.00     0.340 HD
ATOM     22  C   UNL A   1      32.639  22.488  22.426  1.00  0.00     0.300 C 
ATOM     23  H   UNL A   1      32.649  23.176  20.507  1.00  0.00     0.216 HD
ATOM     24  O   UNL A   1      31.896  21.523  22.273  1.00  0.00    -0.267 OA
ENDBRANCH   6   7
ENDBRANCH   4   6
ENDBRANCH   3   4
ENDBRANCH   2   3
ENDBRANCH   1   2
BRANCH   1  25
ATOM     25  O   UNL A   1      37.863  22.770  25.723  1.00  0.00    -0.458 OA
BRANCH  25  26
ATOM     26  C   UNL A   1      39.059  22.783  26.347  1.00  0.00     0.338 C 
ATOM     27  O   UNL A   1      39.793  21.806  26.514  1.00  0.00    -0.246 OA
BRANCH  26  28
ATOM     28  C   UNL A   1      39.337  24.113  26.930  1.00  0.00     0.060 A 
ATOM     29  C   UNL A   1      38.964  24.487  28.230  1.00  0.00     0.016 A 
ATOM     30  C   UNL A   1      40.041  25.011  26.123  1.00  0.00     0.016 A 
ATOM     31  C   UNL A   1      39.314  25.752  28.720  1.00  0.00     0.010 A 
ATOM     32  C   UNL A   1      40.430  26.246  26.627  1.00  0.00     0.010 A 
ATOM     33  C   UNL A   1      40.075  26.625  27.928  1.00  0.00    -0.014 A 
BRANCH  33  34
ATOM     34  C   UNL A   1      40.594  27.914  28.442  1.00  0.00     0.031 A 
ATOM     35  C   UNL A   1      42.010  28.013  28.929  1.00  0.00     0.074 A 
ATOM     36  C   UNL A   1      39.738  28.943  28.589  1.00  0.00     0.049 A 
ATOM     37  N   UNL A   1      42.594  28.998  29.558  1.00  0.00    -0.248 NA
ATOM     38  C   UNL A   1      42.880  26.848  28.693  1.00  0.00     0.031 C 
ATOM     39  C   UNL A   1      38.331  28.936  28.175  1.00  0.00     0.029 A 
ATOM     40  N   UNL A   1      39.911  30.183  29.150  1.00  0.00    -0.354 N 
ATOM     41  C   UNL A   1      43.893  28.570  29.807  1.00  0.00     0.074 A 
ATOM     42  C   UNL A   1      44.008  27.228  29.279  1.00  0.00     0.031 C 
ATOM     43  C   UNL A   1      37.774  30.116  28.489  1.00  0.00     0.029 A 
ATOM     44  C   UNL A   1      38.766  30.945  29.164  1.00  0.00     0.049 A 
ATOM     45  H   UNL A   1      40.772  30.497  29.507  1.00  0.00     0.167 HD
ATOM     46  C   UNL A   1      44.895  29.244  30.416  1.00  0.00     0.031 A 
ATOM     47  C   UNL A   1      38.534  32.165  29.683  1.00  0.00     0.031 A 
ATOM     48  C   UNL A   1      44.760  30.577  30.936  1.00  0.00     0.049 A 
ATOM     49  C   UNL A   1      39.656  32.884  30.374  1.00  0.00     0.074 A 
ATOM     50  C   UNL A   1      45.725  31.365  31.538  1.00  0.00     0.029 A 
ATOM     51  N   UNL A   1      43.588  31.317  30.917  1.00  0.00    -0.354 N 
ATOM     52  N   UNL A   1      40.887  32.476  30.570  1.00  0.00    -0.248 NA
ATOM     53  C   UNL A   1      39.365  34.219  30.915  1.00  0.00     0.031 C 
ATOM     54  C   UNL A   1      45.127  32.570  31.915  1.00  0.00     0.029 A 
ATOM     55  C   UNL A   1      43.801  32.548  31.510  1.00  0.00     0.049 A 
ATOM     56  H   UNL A   1      42.733  31.012  30.538  1.00  0.00     0.167 HD
ATOM     57  C   UNL A   1      41.526  33.512  31.239  1.00  0.00     0.074 A 
ATOM     58  C   UNL A   1      40.546  34.565  31.415  1.00  0.00     0.031 C 
ATOM     59  C   UNL A   1      42.808  33.581  31.665  1.00  0.00     0.031 A 
BRANCH  46  60
ATOM     60  C   UNL A   1      46.229  28.563  30.552  1.00  0.00    -0.014 A 
ATOM     61  C   UNL A   1      46.525  27.786  31.686  1.00  0.00     0.010 A 
ATOM     62  C   UNL A   1      47.159  28.620  29.496  1.00  0.00     0.010 A 
ATOM     63  C   UNL A   1      47.730  27.085  31.766  1.00  0.00     0.020 A 
ATOM     64  C   UNL A   1      48.359  27.906  29.566  1.00  0.00     0.020 A 
ATOM     65  C   UNL A   1      48.637  27.143  30.703  1.00  0.00     0.054 A 
BRANCH  65  66
ATOM     66  S   UNL A   1      50.172  26.184  30.825  1.00  0.00     0.124 S 
ATOM     67  O   UNL A   1      51.187  27.194  30.538  1.00  0.00    -0.237 OA
ATOM     68  O   UNL A   1      50.135  25.705  32.204  1.00  0.00    -0.237 OA
ATOM     69  O   UNL A   1      50.021  25.151  29.802  1.00  0.00    -0.744 OA
ENDBRANCH  65  66
ENDBRANCH  46  60
BRANCH  47  70
ATOM     70  C   UNL A   1      37.185  32.773  29.540  1.00  0.00    -0.014 A 
ATOM     71  C   UNL A   1      36.322  32.844  30.647  1.00  0.00     0.010 A 
ATOM     72  C   UNL A   1      36.789  33.359  28.323  1.00  0.00     0.010 A 
ATOM     73  C   UNL A   1      35.091  33.499  30.543  1.00  0.00     0.020 A 
ATOM     74  C   UNL A   1      35.566  34.031  28.221  1.00  0.00     0.020 A 
ATOM     75  C   UNL A   1      34.726  34.099  29.334  1.00  0.00     0.054 A 
BRANCH  75  76
ATOM     76  S   UNL A   1      33.154  35.001  29.254  1.00  0.00     0.124 S 
ATOM     77  O   UNL A   1      32.413  34.240  28.253  1.00  0.00    -0.237 OA
ATOM     78  O   UNL A   1      32.664  34.888  30.625  1.00  0.00    -0.237 OA
ATOM     79  O   UNL A   1      33.549  36.347  28.846  1.00  0.00    -0.744 OA
ENDBRANCH  75  76
ENDBRANCH  47  70
BRANCH  59  80
ATOM     80  C   UNL A   1      43.255  34.843  32.346  1.00  0.00    -0.014 A 
ATOM     81  C   UNL A   1      43.872  35.870  31.614  1.00  0.00     0.010 A 
ATOM     82  C   UNL A   1      42.910  35.058  33.692  1.00  0.00     0.010 A 
ATOM     83  C   UNL A   1      44.122  37.104  32.216  1.00  0.00     0.020 A 
ATOM     84  C   UNL A   1      43.143  36.297  34.292  1.00  0.00     0.020 A 
ATOM     85  C   UNL A   1      43.741  37.315  33.546  1.00  0.00     0.054 A 
BRANCH  85  86
ATOM     86  S   UNL A   1      43.986  38.962  34.264  1.00  0.00     0.124 S 
ATOM     87  O   UNL A   1      45.237  39.387  33.642  1.00  0.00    -0.237 OA
ATOM     88  O   UNL A   1      42.791  39.676  33.823  1.00  0.00    -0.237 OA
ATOM     89  O   UNL A   1      44.062  38.708  35.701  1.00  0.00    -0.744 OA
ENDBRANCH  85  86
ENDBRANCH  59  80
ENDBRANCH  33  34
ENDBRANCH  26  28
ENDBRANCH  25  26
ENDBRANCH   1  25
TORSDOF 15
ENDMDL
MODEL 2
REMARK VINA RESULT:     -11.2      2.886      9.296
REMARK SMILES Cc1cccc2c1N=CN1C2=[NH+]NC(=O)[C@@H]1CC(=O)OCCOC(=O)c1ccc(-c2c3nc(c(-c4ccc(S(=O)(=O)[O-])cc4)c4ccc([nH]4)c(-c4ccc(S(=O)(=O)[O-])cc4)c4nc(c(-c5ccc(S(=O)(=O)[O-])cc5)c5ccc2[nH]5)C=C4)C=C3)cc1
REMARK SMILES IDX 22 1 21 2 20 3 18 4 19 5 17 6 16 7 1 8 2 9 3 10 7 11 4 12
REMARK SMILES IDX 6 13 8 14 5 15 11 16 9 17 10 18 12 19 13 20 14 22 15 24
REMARK SMILES IDX 23 25 24 26 25 27 26 28 27 29 85 30 28 31 84 32 29 33 30 34
REMARK SMILES IDX 31 35 78 36 32 37 83 38 77 39 79 40 33 41 82 42 76 43 75 44
REMARK SMILES IDX 34 46 64 47 45 48 63 49 46 50 49 51 62 52 80 53 47 54 48 55
REMARK SMILES IDX 61 57 81 58 50 59 35 60 36 61 44 62 37 63 43 64 38 65 39 66
REMARK SMILES IDX 40 67 41 68 42 69 65 70 66 71 74 72 67 73 73 74 68 75 69 76
REMARK SMILES IDX 70 77 71 78 72 79 51 80 52 81 60 82 53 83 59 84 54 85 55 86
REMARK SMILES IDX 56 87 57 88 58 89
REMARK H PARENT 12 21 13 23 79 45 49 56
REMARK Flexibility Score: inf
ROOT
ATOM      1  C   UNL A   1      32.777  29.052  26.815  1.00  0.00     0.275 C 
ENDROOT
BRANCH   1   2
ATOM      2  C   UNL A   1      32.698  29.038  25.292  1.00  0.00     0.274 C 
BRANCH   2   3
ATOM      3  O   UNL A   1      33.809  28.264  24.780  1.00  0.00    -0.462 OA
BRANCH   3   4
ATOM      4  C   UNL A   1      33.759  28.027  23.449  1.00  0.00     0.310 C 
ATOM      5  O   UNL A   1      33.962  28.872  22.581  1.00  0.00    -0.252 OA
BRANCH   4   6
ATOM      6  C   UNL A   1      33.487  26.596  23.071  1.00  0.00     0.183 C 
BRANCH   6   7
ATOM      7  C   UNL A   1      32.567  25.743  23.936  1.00  0.00     0.286 C 
ATOM      8  C   UNL A   1      36.274  20.599  25.049  1.00  0.00     0.047 C 
ATOM      9  C   UNL A   1      34.784  20.763  24.953  1.00  0.00    -0.024 A 
ATOM     10  C   UNL A   1      33.985  19.615  24.787  1.00  0.00     0.006 A 
ATOM     11  C   UNL A   1      34.178  22.028  25.010  1.00  0.00     0.085 A 
ATOM     12  C   UNL A   1      32.596  19.708  24.700  1.00  0.00     0.001 A 
ATOM     13  C   UNL A   1      32.776  22.099  24.886  1.00  0.00     0.092 A 
ATOM     14  N   UNL A   1      34.985  23.188  25.100  1.00  0.00    -0.215 NA
ATOM     15  C   UNL A   1      31.984  20.951  24.764  1.00  0.00     0.019 A 
ATOM     16  C   UNL A   1      32.186  23.433  24.599  1.00  0.00     0.309 C 
ATOM     17  C   UNL A   1      34.417  24.302  24.770  1.00  0.00     0.317 C 
ATOM     18  N   UNL A   1      33.102  24.459  24.399  1.00  0.00    -0.202 N 
ATOM     19  N   UNL A   1      30.893  23.508  24.466  1.00  0.00    -0.169 N 
ATOM     20  N   UNL A   1      30.397  24.628  23.882  1.00  0.00    -0.193 N 
ATOM     21  H   UNL A   1      30.302  22.785  24.777  1.00  0.00     0.340 HD
ATOM     22  C   UNL A   1      31.195  25.577  23.289  1.00  0.00     0.300 C 
ATOM     23  H   UNL A   1      29.422  24.768  23.885  1.00  0.00     0.216 HD
ATOM     24  O   UNL A   1      30.778  26.293  22.384  1.00  0.00    -0.267 OA
ENDBRANCH   6   7
ENDBRANCH   4   6
ENDBRANCH   3   4
ENDBRANCH   2   3
ENDBRANCH   1   2
BRANCH   1  25
ATOM     25  O   UNL A   1      34.155  28.956  27.214  1.00  0.00    -0.458 OA
BRANCH  25  26
ATOM     26  C   UNL A   1      34.637  30.043  27.851  1.00  0.00     0.338 C 
ATOM     27  O   UNL A   1      34.061  31.128  27.958  1.00  0.00    -0.246 OA
BRANCH  26  28
ATOM     28  C   UNL A   1      36.022  29.813  28.315  1.00  0.00     0.060 A 
ATOM     29  C   UNL A   1      36.350  29.428  29.623  1.00  0.00     0.016 A 
ATOM     30  C   UNL A   1      37.032  29.967  27.361  1.00  0.00     0.016 A 
ATOM     31  C   UNL A   1      37.687  29.182  29.964  1.00  0.00     0.010 A 
ATOM     32  C   UNL A   1      38.351  29.675  27.686  1.00  0.00     0.010 A 
ATOM     33  C   UNL A   1      38.689  29.276  28.986  1.00  0.00    -0.014 A 
BRANCH  33  34
ATOM     34  C   UNL A   1      40.095  28.892  29.251  1.00  0.00     0.031 A 
ATOM     35  C   UNL A   1      41.069  29.914  29.761  1.00  0.00     0.074 A 
ATOM     36  C   UNL A   1      40.506  27.659  28.899  1.00  0.00     0.049 A 
ATOM     37  N   UNL A   1      42.364  29.816  29.897  1.00  0.00    -0.248 NA
ATOM     38  C   UNL A   1      40.519  31.224  30.153  1.00  0.00     0.031 C 
ATOM     39  C   UNL A   1      39.642  26.602  28.366  1.00  0.00     0.029 A 
ATOM     40  N   UNL A   1      41.755  27.092  28.908  1.00  0.00    -0.354 N 
ATOM     41  C   UNL A   1      42.788  31.050  30.376  1.00  0.00     0.074 A 
ATOM     42  C   UNL A   1      41.616  31.890  30.487  1.00  0.00     0.031 C 
ATOM     43  C   UNL A   1      40.385  25.514  28.106  1.00  0.00     0.029 A 
ATOM     44  C   UNL A   1      41.780  25.809  28.412  1.00  0.00     0.049 A 
ATOM     45  H   UNL A   1      42.556  27.558  29.239  1.00  0.00     0.167 HD
ATOM     46  C   UNL A   1      44.044  31.438  30.697  1.00  0.00     0.031 A 
ATOM     47  C   UNL A   1      42.814  24.972  28.205  1.00  0.00     0.031 A 
ATOM     48  C   UNL A   1      45.197  30.589  30.576  1.00  0.00     0.049 A 
ATOM     49  C   UNL A   1      44.201  25.433  28.547  1.00  0.00     0.074 A 
ATOM     50  C   UNL A   1      46.510  30.872  30.910  1.00  0.00     0.029 A 
ATOM     51  N   UNL A   1      45.176  29.293  30.082  1.00  0.00    -0.354 N 
ATOM     52  N   UNL A   1      44.577  26.593  29.030  1.00  0.00    -0.248 NA
ATOM     53  C   UNL A   1      45.299  24.485  28.318  1.00  0.00     0.031 C 
ATOM     54  C   UNL A   1      47.289  29.759  30.585  1.00  0.00     0.029 A 
ATOM     55  C   UNL A   1      46.455  28.768  30.090  1.00  0.00     0.049 A 
ATOM     56  H   UNL A   1      44.371  28.819  29.774  1.00  0.00     0.167 HD
ATOM     57  C   UNL A   1      45.955  26.509  29.183  1.00  0.00     0.074 A 
ATOM     58  C   UNL A   1      46.346  25.185  28.741  1.00  0.00     0.031 C 
ATOM     59  C   UNL A   1      46.815  27.444  29.650  1.00  0.00     0.031 A 
BRANCH  46  60
ATOM     60  C   UNL A   1      44.245  32.835  31.214  1.00  0.00    -0.014 A 
ATOM     61  C   UNL A   1      44.229  33.097  32.596  1.00  0.00     0.010 A 
ATOM     62  C   UNL A   1      44.549  33.880  30.321  1.00  0.00     0.010 A 
ATOM     63  C   UNL A   1      44.505  34.380  33.074  1.00  0.00     0.020 A 
ATOM     64  C   UNL A   1      44.843  35.161  30.798  1.00  0.00     0.020 A 
ATOM     65  C   UNL A   1      44.818  35.403  32.173  1.00  0.00     0.054 A 
BRANCH  65  66
ATOM     66  S   UNL A   1      45.213  37.045  32.835  1.00  0.00     0.124 S 
ATOM     67  O   UNL A   1      44.310  37.140  33.979  1.00  0.00    -0.237 OA
ATOM     68  O   UNL A   1      46.631  36.918  33.164  1.00  0.00    -0.237 OA
ATOM     69  O   UNL A   1      44.908  37.950  31.730  1.00  0.00    -0.744 OA
ENDBRANCH  65  66
ENDBRANCH  46  60
BRANCH  47  70
ATOM     70  C   UNL A   1      42.552  23.612  27.663  1.00  0.00    -0.014 A 
ATOM     71  C   UNL A   1      42.690  23.361  26.288  1.00  0.00     0.010 A 
ATOM     72  C   UNL A   1      42.248  22.544  28.528  1.00  0.00     0.010 A 
ATOM     73  C   UNL A   1      42.538  22.065  25.786  1.00  0.00     0.020 A 
ATOM     74  C   UNL A   1      42.115  21.242  28.032  1.00  0.00     0.020 A 
ATOM     75  C   UNL A   1      42.263  21.012  26.664  1.00  0.00     0.054 A 
BRANCH  75  76
ATOM     76  S   UNL A   1      42.143  19.331  25.989  1.00  0.00     0.124 S 
ATOM     77  O   UNL A   1      42.677  18.523  27.081  1.00  0.00    -0.237 OA
ATOM     78  O   UNL A   1      40.709  19.199  25.747  1.00  0.00    -0.237 OA
ATOM     79  O   UNL A   1      42.972  19.382  24.788  1.00  0.00    -0.744 OA
ENDBRANCH  75  76
ENDBRANCH  47  70
BRANCH  59  80
ATOM     80  C   UNL A   1      48.269  27.079  29.739  1.00  0.00    -0.014 A 
ATOM     81  C   UNL A   1      49.161  27.449  28.721  1.00  0.00     0.010 A 
ATOM     82  C   UNL A   1      48.763  26.503  30.923  1.00  0.00     0.010 A 
ATOM     83  C   UNL A   1      50.534  27.263  28.894  1.00  0.00     0.020 A 
ATOM     84  C   UNL A   1      50.136  26.332  31.106  1.00  0.00     0.020 A 
ATOM     85  C   UNL A   1      51.014  26.721  30.091  1.00  0.00     0.054 A 
BRANCH  85  86
ATOM     86  S   UNL A   1      52.807  26.591  30.324  1.00  0.00     0.124 S 
ATOM     87  O   UNL A   1      53.259  26.168  29.002  1.00  0.00    -0.237 OA
ATOM     88  O   UNL A   1      53.173  27.952  30.708  1.00  0.00    -0.237 OA
ATOM     89  O   UNL A   1      52.950  25.589  31.378  1.00  0.00    -0.744 OA
ENDBRANCH  85  86
ENDBRANCH  59  80
ENDBRANCH  33  34
ENDBRANCH  26  28
ENDBRANCH  25  26
ENDBRANCH   1  25
TORSDOF 15
ENDMDL
MODEL 3
REMARK VINA RESULT:     -11.2      3.922      5.412
REMARK SMILES Cc1cccc2c1N=CN1C2=[NH+]NC(=O)[C@@H]1CC(=O)OCCOC(=O)c1ccc(-c2c3nc(c(-c4ccc(S(=O)(=O)[O-])cc4)c4ccc([nH]4)c(-c4ccc(S(=O)(=O)[O-])cc4)c4nc(c(-c5ccc(S(=O)(=O)[O-])cc5)c5ccc2[nH]5)C=C4)C=C3)cc1
REMARK SMILES IDX 22 1 21 2 20 3 18 4 19 5 17 6 16 7 1 8 2 9 3 10 7 11 4 12
REMARK SMILES IDX 6 13 8 14 5 15 11 16 9 17 10 18 12 19 13 20 14 22 15 24
REMARK SMILES IDX 23 25 24 26 25 27 26 28 27 29 85 30 28 31 84 32 29 33 30 34
REMARK SMILES IDX 31 35 78 36 32 37 83 38 77 39 79 40 33 41 82 42 76 43 75 44
REMARK SMILES IDX 34 46 64 47 45 48 63 49 46 50 49 51 62 52 80 53 47 54 48 55
REMARK SMILES IDX 61 57 81 58 50 59 35 60 36 61 44 62 37 63 43 64 38 65 39 66
REMARK SMILES IDX 40 67 41 68 42 69 65 70 66 71 74 72 67 73 73 74 68 75 69 76
REMARK SMILES IDX 70 77 71 78 72 79 51 80 52 81 60 82 53 83 59 84 54 85 55 86
REMARK SMILES IDX 56 87 57 88 58 89
REMARK H PARENT 12 21 13 23 79 45 49 56
REMARK Flexibility Score: inf
ROOT
ATOM      1  C   UNL A   1      39.158  22.891  26.291  1.00  0.00     0.275 C 
ENDROOT
BRANCH   1   2
ATOM      2  C   UNL A   1      37.680  23.170  26.039  1.00  0.00     0.274 C 
BRANCH   2   3
ATOM      3  O   UNL A   1      37.281  22.476  24.834  1.00  0.00    -0.462 OA
BRANCH   3   4
ATOM      4  C   UNL A   1      36.586  23.235  23.955  1.00  0.00     0.310 C 
ATOM      5  O   UNL A   1      36.848  23.338  22.760  1.00  0.00    -0.252 OA
BRANCH   4   6
ATOM      6  C   UNL A   1      35.385  23.933  24.535  1.00  0.00     0.183 C 
BRANCH   6   7
ATOM      7  C   UNL A   1      33.983  23.434  24.207  1.00  0.00     0.286 C 
ATOM      8  C   UNL A   1      34.688  17.080  24.967  1.00  0.00     0.047 C 
ATOM      9  C   UNL A   1      33.785  17.893  24.084  1.00  0.00    -0.024 A 
ATOM     10  C   UNL A   1      33.143  17.258  23.002  1.00  0.00     0.006 A 
ATOM     11  C   UNL A   1      33.581  19.265  24.303  1.00  0.00     0.085 A 
ATOM     12  C   UNL A   1      32.289  17.963  22.154  1.00  0.00     0.001 A 
ATOM     13  C   UNL A   1      32.740  19.962  23.414  1.00  0.00     0.092 A 
ATOM     14  N   UNL A   1      34.285  19.919  25.343  1.00  0.00    -0.215 NA
ATOM     15  C   UNL A   1      32.072  19.316  22.366  1.00  0.00     0.019 A 
ATOM     16  C   UNL A   1      32.806  21.447  23.439  1.00  0.00     0.309 C 
ATOM     17  C   UNL A   1      34.354  21.209  25.258  1.00  0.00     0.317 C 
ATOM     18  N   UNL A   1      33.765  21.986  24.290  1.00  0.00    -0.202 N 
ATOM     19  N   UNL A   1      32.046  22.102  22.610  1.00  0.00    -0.169 N 
ATOM     20  N   UNL A   1      32.345  23.409  22.398  1.00  0.00    -0.193 N 
ATOM     21  H   UNL A   1      31.285  21.669  22.159  1.00  0.00     0.340 HD
ATOM     22  C   UNL A   1      33.490  23.999  22.878  1.00  0.00     0.300 C 
ATOM     23  H   UNL A   1      31.714  23.958  21.878  1.00  0.00     0.216 HD
ATOM     24  O   UNL A   1      33.993  24.971  22.323  1.00  0.00    -0.267 OA
ENDBRANCH   6   7
ENDBRANCH   4   6
ENDBRANCH   3   4
ENDBRANCH   2   3
ENDBRANCH   1   2
BRANCH   1  25
ATOM     25  O   UNL A   1      39.646  23.810  27.283  1.00  0.00    -0.458 OA
BRANCH  25  26
ATOM     26  C   UNL A   1      40.181  24.946  26.788  1.00  0.00     0.338 C 
ATOM     27  O   UNL A   1      40.556  25.118  25.626  1.00  0.00    -0.246 OA
BRANCH  26  28
ATOM     28  C   UNL A   1      40.381  25.946  27.859  1.00  0.00     0.060 A 
ATOM     29  C   UNL A   1      41.449  26.856  27.884  1.00  0.00     0.016 A 
ATOM     30  C   UNL A   1      39.416  25.979  28.869  1.00  0.00     0.016 A 
ATOM     31  C   UNL A   1      41.534  27.804  28.912  1.00  0.00     0.010 A 
ATOM     32  C   UNL A   1      39.473  26.952  29.860  1.00  0.00     0.010 A 
ATOM     33  C   UNL A   1      40.528  27.874  29.887  1.00  0.00    -0.014 A 
BRANCH  33  34
ATOM     34  C   UNL A   1      40.490  28.942  30.913  1.00  0.00     0.031 A 
ATOM     35  C   UNL A   1      41.379  28.857  32.120  1.00  0.00     0.074 A 
ATOM     36  C   UNL A   1      39.555  29.906  30.809  1.00  0.00     0.049 A 
ATOM     37  N   UNL A   1      41.375  29.598  33.195  1.00  0.00    -0.248 NA
ATOM     38  C   UNL A   1      42.393  27.788  32.127  1.00  0.00     0.031 C 
ATOM     39  C   UNL A   1      38.621  30.058  29.688  1.00  0.00     0.029 A 
ATOM     40  N   UNL A   1      39.213  30.922  31.664  1.00  0.00    -0.354 N 
ATOM     41  C   UNL A   1      42.373  29.081  34.013  1.00  0.00     0.074 A 
ATOM     42  C   UNL A   1      42.949  27.950  33.321  1.00  0.00     0.031 C 
ATOM     43  C   UNL A   1      37.820  31.109  29.922  1.00  0.00     0.029 A 
ATOM     44  C   UNL A   1      38.151  31.677  31.225  1.00  0.00     0.049 A 
ATOM     45  H   UNL A   1      39.684  31.095  32.511  1.00  0.00     0.167 HD
ATOM     46  C   UNL A   1      42.771  29.521  35.229  1.00  0.00     0.031 A 
ATOM     47  C   UNL A   1      37.500  32.699  31.814  1.00  0.00     0.031 A 
ATOM     48  C   UNL A   1      42.183  30.647  35.903  1.00  0.00     0.049 A 
ATOM     49  C   UNL A   1      37.946  33.153  33.173  1.00  0.00     0.074 A 
ATOM     50  C   UNL A   1      42.538  31.198  37.121  1.00  0.00     0.029 A 
ATOM     51  N   UNL A   1      41.119  31.391  35.416  1.00  0.00    -0.354 N 
ATOM     52  N   UNL A   1      38.913  32.673  33.917  1.00  0.00    -0.248 NA
ATOM     53  C   UNL A   1      37.219  34.279  33.775  1.00  0.00     0.031 C 
ATOM     54  C   UNL A   1      41.664  32.255  37.389  1.00  0.00     0.029 A 
ATOM     55  C   UNL A   1      40.795  32.389  36.317  1.00  0.00     0.049 A 
ATOM     56  H   UNL A   1      40.664  31.233  34.558  1.00  0.00     0.167 HD
ATOM     57  C   UNL A   1      38.926  33.450  35.068  1.00  0.00     0.074 A 
ATOM     58  C   UNL A   1      37.870  34.432  34.923  1.00  0.00     0.031 C 
ATOM     59  C   UNL A   1      39.742  33.358  36.143  1.00  0.00     0.031 A 
BRANCH  46  60
ATOM     60  C   UNL A   1      43.895  28.795  35.914  1.00  0.00    -0.014 A 
ATOM     61  C   UNL A   1      45.221  29.245  35.788  1.00  0.00     0.010 A 
ATOM     62  C   UNL A   1      43.615  27.713  36.770  1.00  0.00     0.010 A 
ATOM     63  C   UNL A   1      46.249  28.620  36.497  1.00  0.00     0.020 A 
ATOM     64  C   UNL A   1      44.640  27.096  37.495  1.00  0.00     0.020 A 
ATOM     65  C   UNL A   1      45.952  27.554  37.353  1.00  0.00     0.054 A 
BRANCH  65  66
ATOM     66  S   UNL A   1      47.307  26.797  38.291  1.00  0.00     0.124 S 
ATOM     67  O   UNL A   1      47.632  27.843  39.257  1.00  0.00    -0.237 OA
ATOM     68  O   UNL A   1      46.676  25.603  38.848  1.00  0.00    -0.237 OA
ATOM     69  O   UNL A   1      48.334  26.546  37.282  1.00  0.00    -0.744 OA
ENDBRANCH  65  66
ENDBRANCH  46  60
BRANCH  47  70
ATOM     70  C   UNL A   1      36.377  33.358  31.096  1.00  0.00    -0.014 A 
ATOM     71  C   UNL A   1      35.151  33.568  31.748  1.00  0.00     0.010 A 
ATOM     72  C   UNL A   1      36.555  33.853  29.791  1.00  0.00     0.010 A 
ATOM     73  C   UNL A   1      34.123  34.271  31.111  1.00  0.00     0.020 A 
ATOM     74  C   UNL A   1      35.536  34.574  29.158  1.00  0.00     0.020 A 
ATOM     75  C   UNL A   1      34.327  34.780  29.825  1.00  0.00     0.054 A 
BRANCH  75  76
ATOM     76  S   UNL A   1      32.999  35.749  29.055  1.00  0.00     0.124 S 
ATOM     77  O   UNL A   1      32.367  34.765  28.182  1.00  0.00    -0.237 OA
ATOM     78  O   UNL A   1      32.212  36.165  30.213  1.00  0.00    -0.237 OA
ATOM     79  O   UNL A   1      33.710  36.826  28.371  1.00  0.00    -0.744 OA
ENDBRANCH  75  76
ENDBRANCH  47  70
BRANCH  59  80
ATOM     80  C   UNL A   1      39.557  34.353  37.253  1.00  0.00    -0.014 A 
ATOM     81  C   UNL A   1      38.812  34.020  38.394  1.00  0.00     0.010 A 
ATOM     82  C   UNL A   1      40.268  35.567  37.214  1.00  0.00     0.010 A 
ATOM     83  C   UNL A   1      38.794  34.882  39.493  1.00  0.00     0.020 A 
ATOM     84  C   UNL A   1      40.265  36.422  38.316  1.00  0.00     0.020 A 
ATOM     85  C   UNL A   1      39.533  36.069  39.453  1.00  0.00     0.054 A 
BRANCH  85  86
ATOM     86  S   UNL A   1      39.571  37.114  40.934  1.00  0.00     0.124 S 
ATOM     87  O   UNL A   1      38.926  36.262  41.929  1.00  0.00    -0.237 OA
ATOM     88  O   UNL A   1      41.003  37.332  41.127  1.00  0.00    -0.237 OA
ATOM     89  O   UNL A   1      38.810  38.299  40.545  1.00  0.00    -0.744 OA
ENDBRANCH  85  86
ENDBRANCH  59  80
ENDBRANCH  33  34
ENDBRANCH  26  28
ENDBRANCH  25  26
ENDBRANCH   1  25
TORSDOF 15
ENDMDL
