MODEL 1
REMARK VINA RESULT:      -9.0      0.000      0.000
REMARK SMILES Cc1cc(C)cc(CSCc2cc(C(=O)OCCOC(=O)c3ccc(-c4c5nc(c(-c6ccc(S(=O)(=O)[O-])cc6)c6ccc([nH]6)c(-c6ccc(S(=O)(=O)[O-])cc6)c6nc(c(-c7ccc(S(=O)(=O)[O-])cc7)c7ccc4[nH]7)C=C6)C=C5)cc3)c(C)o2)c1
REMARK SMILES IDX 17 1 16 2 14 3 15 4 13 5 11 6 12 7 84 8 82 9 83 10 10 11
REMARK SMILES IDX 9 12 8 13 7 14 1 15 2 16 3 17 85 18 4 19 5 20 6 21 18 22
REMARK SMILES IDX 19 23 20 24 21 25 22 26 23 27 81 28 24 29 80 30 25 31 26 32
REMARK SMILES IDX 27 33 74 34 28 35 79 36 73 37 75 38 29 39 78 40 72 41 71 42
REMARK SMILES IDX 30 44 60 45 41 46 59 47 42 48 45 49 58 50 76 51 43 52 44 53
REMARK SMILES IDX 57 55 77 56 46 57 31 58 32 59 40 60 33 61 39 62 34 63 35 64
REMARK SMILES IDX 36 65 37 66 38 67 61 68 62 69 70 70 63 71 69 72 64 73 65 74
REMARK SMILES IDX 66 75 67 76 68 77 47 78 48 79 56 80 49 81 55 82 50 83 51 84
REMARK SMILES IDX 52 85 53 86 54 87
REMARK H PARENT 75 43 45 54
REMARK Flexibility Score: inf
ROOT
ATOM      1  C   UNL A   1      39.986  20.071  25.992  1.00  0.00     0.275 C 
ENDROOT
BRANCH   1   2
ATOM      2  O   UNL A   1      41.219  19.640  25.372  1.00  0.00    -0.458 OA
BRANCH   2   3
ATOM      3  C   UNL A   1      42.336  19.637  26.155  1.00  0.00     0.341 C 
ATOM      4  O   UNL A   1      42.486  18.894  27.123  1.00  0.00    -0.246 OA
BRANCH   3   5
ATOM      5  C   UNL A   1      43.321  20.638  25.788  1.00  0.00     0.101 A 
ATOM      6  C   UNL A   1      44.671  22.431  25.921  1.00  0.00     0.114 A 
ATOM      7  C   UNL A   1      43.377  22.011  26.159  1.00  0.00     0.062 A 
ATOM      8  O   UNL A   1      45.301  21.504  25.149  1.00  0.00    -0.465 OA
ATOM      9  C   UNL A   1      44.461  20.443  25.025  1.00  0.00     0.115 A 
ATOM     10  C   UNL A   1      44.931  19.387  24.109  1.00  0.00     0.088 C 
BRANCH   6  11
ATOM     11  C   UNL A   1      45.512  23.592  26.296  1.00  0.00     0.145 C 
BRANCH  11  12
ATOM     12  S   UNL A   1      45.446  25.009  25.156  1.00  0.00    -0.149 SA
BRANCH  12  13
ATOM     13  C   UNL A   1      46.254  26.304  26.165  1.00  0.00     0.105 C 
BRANCH  13  14
ATOM     14  C   UNL A   1      45.322  27.384  26.657  1.00  0.00    -0.038 A 
ATOM     15  C   UNL A   1      41.939  28.884  25.726  1.00  0.00     0.044 C 
ATOM     16  C   UNL A   1      43.235  28.631  26.442  1.00  0.00    -0.051 A 
ATOM     17  C   UNL A   1      43.671  29.514  27.440  1.00  0.00     0.006 A 
ATOM     18  C   UNL A   1      44.072  27.578  26.050  1.00  0.00     0.008 A 
ATOM     19  C   UNL A   1      44.909  29.333  28.068  1.00  0.00    -0.051 A 
ATOM     20  C   UNL A   1      45.469  30.378  28.989  1.00  0.00     0.044 C 
ATOM     21  C   UNL A   1      45.706  28.243  27.700  1.00  0.00     0.008 A 
ENDBRANCH  13  14
ENDBRANCH  12  13
ENDBRANCH  11  12
ENDBRANCH   6  11
ENDBRANCH   3   5
ENDBRANCH   2   3
ENDBRANCH   1   2
BRANCH   1  22
ATOM     22  C   UNL A   1      39.898  21.594  26.031  1.00  0.00     0.275 C 
BRANCH  22  23
ATOM     23  O   UNL A   1      38.527  21.987  26.195  1.00  0.00    -0.458 OA
BRANCH  23  24
ATOM     24  C   UNL A   1      38.262  23.260  25.825  1.00  0.00     0.338 C 
ATOM     25  O   UNL A   1      37.408  23.648  25.052  1.00  0.00    -0.246 OA
BRANCH  24  26
ATOM     26  C   UNL A   1      39.070  24.171  26.641  1.00  0.00     0.060 A 
ATOM     27  C   UNL A   1      38.772  24.249  27.993  1.00  0.00     0.016 A 
ATOM     28  C   UNL A   1      39.949  25.081  26.064  1.00  0.00     0.016 A 
ATOM     29  C   UNL A   1      39.220  25.322  28.741  1.00  0.00     0.010 A 
ATOM     30  C   UNL A   1      40.509  26.087  26.863  1.00  0.00     0.010 A 
ATOM     31  C   UNL A   1      40.104  26.257  28.201  1.00  0.00    -0.014 A 
BRANCH  31  32
ATOM     32  C   UNL A   1      40.523  27.428  29.022  1.00  0.00     0.031 A 
ATOM     33  C   UNL A   1      41.866  27.422  29.709  1.00  0.00     0.074 A 
ATOM     34  C   UNL A   1      39.739  28.526  29.104  1.00  0.00     0.049 A 
ATOM     35  N   UNL A   1      42.316  28.217  30.645  1.00  0.00    -0.248 NA
ATOM     36  C   UNL A   1      42.818  26.370  29.313  1.00  0.00     0.031 C 
ATOM     37  C   UNL A   1      38.459  28.717  28.415  1.00  0.00     0.029 A 
ATOM     38  N   UNL A   1      39.914  29.704  29.788  1.00  0.00    -0.354 N 
ATOM     39  C   UNL A   1      43.558  27.706  31.013  1.00  0.00     0.074 A 
ATOM     40  C   UNL A   1      43.795  26.540  30.192  1.00  0.00     0.031 C 
ATOM     41  C   UNL A   1      38.007  29.957  28.646  1.00  0.00     0.029 A 
ATOM     42  C   UNL A   1      38.873  30.589  29.629  1.00  0.00     0.049 A 
ATOM     43  H   UNL A   1      40.707  29.897  30.338  1.00  0.00     0.167 HD
ATOM     44  C   UNL A   1      44.407  28.165  31.963  1.00  0.00     0.031 A 
ATOM     45  C   UNL A   1      38.588  31.744  30.260  1.00  0.00     0.031 A 
ATOM     46  C   UNL A   1      44.172  29.364  32.726  1.00  0.00     0.049 A 
ATOM     47  C   UNL A   1      39.510  32.204  31.348  1.00  0.00     0.074 A 
ATOM     48  C   UNL A   1      44.962  29.929  33.712  1.00  0.00     0.029 A 
ATOM     49  N   UNL A   1      43.071  30.197  32.572  1.00  0.00    -0.354 N 
ATOM     50  N   UNL A   1      40.628  31.658  31.763  1.00  0.00    -0.248 NA
ATOM     51  C   UNL A   1      39.121  33.419  32.073  1.00  0.00     0.031 C 
ATOM     52  C   UNL A   1      44.308  31.067  34.195  1.00  0.00     0.029 A 
ATOM     53  C   UNL A   1      43.149  31.256  33.460  1.00  0.00     0.049 A 
ATOM     54  H   UNL A   1      42.342  30.055  31.925  1.00  0.00     0.167 HD
ATOM     55  C   UNL A   1      41.085  32.469  32.792  1.00  0.00     0.074 A 
ATOM     56  C   UNL A   1      40.134  33.557  32.918  1.00  0.00     0.031 C 
ATOM     57  C   UNL A   1      42.187  32.325  33.568  1.00  0.00     0.031 A 
BRANCH  44  58
ATOM     58  C   UNL A   1      45.625  27.334  32.285  1.00  0.00    -0.014 A 
ATOM     59  C   UNL A   1      46.855  27.511  31.626  1.00  0.00     0.010 A 
ATOM     60  C   UNL A   1      45.537  26.363  33.303  1.00  0.00     0.010 A 
ATOM     61  C   UNL A   1      47.955  26.707  31.947  1.00  0.00     0.020 A 
ATOM     62  C   UNL A   1      46.640  25.579  33.650  1.00  0.00     0.020 A 
ATOM     63  C   UNL A   1      47.839  25.744  32.955  1.00  0.00     0.054 A 
BRANCH  63  64
ATOM     64  S   UNL A   1      49.284  24.723  33.360  1.00  0.00     0.124 S 
ATOM     65  O   UNL A   1      50.023  25.594  34.271  1.00  0.00    -0.237 OA
ATOM     66  O   UNL A   1      48.680  23.543  33.973  1.00  0.00    -0.237 OA
ATOM     67  O   UNL A   1      49.922  24.492  32.066  1.00  0.00    -0.744 OA
ENDBRANCH  63  64
ENDBRANCH  44  58
BRANCH  45  68
ATOM     68  C   UNL A   1      37.328  32.473  29.939  1.00  0.00    -0.014 A 
ATOM     69  C   UNL A   1      37.316  33.518  29.000  1.00  0.00     0.010 A 
ATOM     70  C   UNL A   1      36.115  32.089  30.545  1.00  0.00     0.010 A 
ATOM     71  C   UNL A   1      36.118  34.162  28.675  1.00  0.00     0.020 A 
ATOM     72  C   UNL A   1      34.910  32.701  30.192  1.00  0.00     0.020 A 
ATOM     73  C   UNL A   1      34.921  33.742  29.265  1.00  0.00     0.054 A 
BRANCH  73  74
ATOM     74  S   UNL A   1      33.369  34.543  28.772  1.00  0.00     0.124 S 
ATOM     75  O   UNL A   1      32.754  33.520  27.932  1.00  0.00    -0.237 OA
ATOM     76  O   UNL A   1      32.718  34.784  30.056  1.00  0.00    -0.237 OA
ATOM     77  O   UNL A   1      33.813  35.746  28.072  1.00  0.00    -0.744 OA
ENDBRANCH  73  74
ENDBRANCH  45  68
BRANCH  57  78
ATOM     78  C   UNL A   1      42.446  33.400  34.587  1.00  0.00    -0.014 A 
ATOM     79  C   UNL A   1      41.949  33.301  35.898  1.00  0.00     0.010 A 
ATOM     80  C   UNL A   1      43.232  34.510  34.230  1.00  0.00     0.010 A 
ATOM     81  C   UNL A   1      42.203  34.314  36.825  1.00  0.00     0.020 A 
ATOM     82  C   UNL A   1      43.517  35.508  35.163  1.00  0.00     0.020 A 
ATOM     83  C   UNL A   1      42.987  35.411  36.451  1.00  0.00     0.054 A 
BRANCH  83  84
ATOM     84  S   UNL A   1      43.334  36.694  37.683  1.00  0.00     0.124 S 
ATOM     85  O   UNL A   1      43.569  37.865  36.843  1.00  0.00    -0.237 OA
ATOM     86  O   UNL A   1      42.103  36.721  38.470  1.00  0.00    -0.237 OA
ATOM     87  O   UNL A   1      44.508  36.187  38.390  1.00  0.00    -0.744 OA
ENDBRANCH  83  84
ENDBRANCH  57  78
ENDBRANCH  31  32
ENDBRANCH  24  26
ENDBRANCH  23  24
ENDBRANCH  22  23
ENDBRANCH   1  22
TORSDOF 18
ENDMDL
MODEL 2
REMARK VINA RESULT:      -8.8      3.861      6.822
REMARK SMILES Cc1cc(C)cc(CSCc2cc(C(=O)OCCOC(=O)c3ccc(-c4c5nc(c(-c6ccc(S(=O)(=O)[O-])cc6)c6ccc([nH]6)c(-c6ccc(S(=O)(=O)[O-])cc6)c6nc(c(-c7ccc(S(=O)(=O)[O-])cc7)c7ccc4[nH]7)C=C6)C=C5)cc3)c(C)o2)c1
REMARK SMILES IDX 17 1 16 2 14 3 15 4 13 5 11 6 12 7 84 8 82 9 83 10 10 11
REMARK SMILES IDX 9 12 8 13 7 14 1 15 2 16 3 17 85 18 4 19 5 20 6 21 18 22
REMARK SMILES IDX 19 23 20 24 21 25 22 26 23 27 81 28 24 29 80 30 25 31 26 32
REMARK SMILES IDX 27 33 74 34 28 35 79 36 73 37 75 38 29 39 78 40 72 41 71 42
REMARK SMILES IDX 30 44 60 45 41 46 59 47 42 48 45 49 58 50 76 51 43 52 44 53
REMARK SMILES IDX 57 55 77 56 46 57 31 58 32 59 40 60 33 61 39 62 34 63 35 64
REMARK SMILES IDX 36 65 37 66 38 67 61 68 62 69 70 70 63 71 69 72 64 73 65 74
REMARK SMILES IDX 66 75 67 76 68 77 47 78 48 79 56 80 49 81 55 82 50 83 51 84
REMARK SMILES IDX 52 85 53 86 54 87
REMARK H PARENT 75 43 45 54
REMARK Flexibility Score: inf
ROOT
ATOM      1  C   UNL A   1      37.103  22.079  24.013  1.00  0.00     0.275 C 
ENDROOT
BRANCH   1   2
ATOM      2  O   UNL A   1      35.675  21.925  24.178  1.00  0.00    -0.458 OA
BRANCH   2   3
ATOM      3  C   UNL A   1      34.883  22.900  23.644  1.00  0.00     0.341 C 
ATOM      4  O   UNL A   1      35.248  23.657  22.748  1.00  0.00    -0.246 OA
BRANCH   3   5
ATOM      5  C   UNL A   1      33.578  23.013  24.271  1.00  0.00     0.101 A 
ATOM      6  C   UNL A   1      31.878  23.835  25.490  1.00  0.00     0.114 A 
ATOM      7  C   UNL A   1      33.238  23.602  25.522  1.00  0.00     0.062 A 
ATOM      8  O   UNL A   1      31.336  23.148  24.447  1.00  0.00    -0.465 OA
ATOM      9  C   UNL A   1      32.363  22.607  23.742  1.00  0.00     0.115 A 
ATOM     10  C   UNL A   1      31.955  21.715  22.641  1.00  0.00     0.088 C 
BRANCH   6  11
ATOM     11  C   UNL A   1      30.904  24.628  26.275  1.00  0.00     0.145 C 
BRANCH  11  12
ATOM     12  S   UNL A   1      30.460  26.246  25.570  1.00  0.00    -0.149 SA
BRANCH  12  13
ATOM     13  C   UNL A   1      32.116  26.921  25.180  1.00  0.00     0.105 C 
BRANCH  13  14
ATOM     14  C   UNL A   1      32.473  28.176  25.940  1.00  0.00    -0.038 A 
ATOM     15  C   UNL A   1      31.199  31.752  26.315  1.00  0.00     0.044 C 
ATOM     16  C   UNL A   1      32.028  30.512  26.485  1.00  0.00    -0.051 A 
ATOM     17  C   UNL A   1      33.237  30.567  27.193  1.00  0.00     0.006 A 
ATOM     18  C   UNL A   1      31.661  29.316  25.853  1.00  0.00     0.008 A 
ATOM     19  C   UNL A   1      34.058  29.437  27.302  1.00  0.00    -0.051 A 
ATOM     20  C   UNL A   1      35.438  29.537  27.882  1.00  0.00     0.044 C 
ATOM     21  C   UNL A   1      33.646  28.238  26.710  1.00  0.00     0.008 A 
ENDBRANCH  13  14
ENDBRANCH  12  13
ENDBRANCH  11  12
ENDBRANCH   6  11
ENDBRANCH   3   5
ENDBRANCH   2   3
ENDBRANCH   1   2
BRANCH   1  22
ATOM     22  C   UNL A   1      37.864  21.248  25.042  1.00  0.00     0.275 C 
BRANCH  22  23
ATOM     23  O   UNL A   1      38.232  22.085  26.149  1.00  0.00    -0.458 OA
BRANCH  23  24
ATOM     24  C   UNL A   1      39.551  22.073  26.445  1.00  0.00     0.338 C 
ATOM     25  O   UNL A   1      40.383  21.253  26.107  1.00  0.00    -0.246 OA
BRANCH  24  26
ATOM     26  C   UNL A   1      39.898  23.325  27.125  1.00  0.00     0.060 A 
ATOM     27  C   UNL A   1      39.292  24.485  26.669  1.00  0.00     0.016 A 
ATOM     28  C   UNL A   1      40.946  23.393  28.037  1.00  0.00     0.016 A 
ATOM     29  C   UNL A   1      39.825  25.719  26.994  1.00  0.00     0.010 A 
ATOM     30  C   UNL A   1      41.391  24.649  28.469  1.00  0.00     0.010 A 
ATOM     31  C   UNL A   1      40.875  25.832  27.907  1.00  0.00    -0.014 A 
BRANCH  31  32
ATOM     32  C   UNL A   1      41.457  27.174  28.191  1.00  0.00     0.031 A 
ATOM     33  C   UNL A   1      42.921  27.430  27.930  1.00  0.00     0.074 A 
ATOM     34  C   UNL A   1      40.672  28.187  28.621  1.00  0.00     0.049 A 
ATOM     35  N   UNL A   1      43.666  28.429  28.324  1.00  0.00    -0.248 NA
ATOM     36  C   UNL A   1      43.648  26.417  27.146  1.00  0.00     0.031 C 
ATOM     37  C   UNL A   1      39.221  28.118  28.826  1.00  0.00     0.029 A 
ATOM     38  N   UNL A   1      40.980  29.486  28.943  1.00  0.00    -0.354 N 
ATOM     39  C   UNL A   1      44.962  28.121  27.918  1.00  0.00     0.074 A 
ATOM     40  C   UNL A   1      44.899  26.847  27.238  1.00  0.00     0.031 C 
ATOM     41  C   UNL A   1      38.759  29.330  29.160  1.00  0.00     0.029 A 
ATOM     42  C   UNL A   1      39.892  30.220  29.356  1.00  0.00     0.049 A 
ATOM     43  H   UNL A   1      41.890  29.857  28.884  1.00  0.00     0.167 HD
ATOM     44  C   UNL A   1      46.096  28.834  28.116  1.00  0.00     0.031 A 
ATOM     45  C   UNL A   1      39.809  31.443  29.915  1.00  0.00     0.031 A 
ATOM     46  C   UNL A   1      46.120  30.129  28.746  1.00  0.00     0.049 A 
ATOM     47  C   UNL A   1      41.081  32.190  30.179  1.00  0.00     0.074 A 
ATOM     48  C   UNL A   1      47.208  30.946  28.997  1.00  0.00     0.029 A 
ATOM     49  N   UNL A   1      44.998  30.807  29.204  1.00  0.00    -0.354 N 
ATOM     50  N   UNL A   1      42.312  31.843  29.889  1.00  0.00    -0.248 NA
ATOM     51  C   UNL A   1      40.957  33.479  30.869  1.00  0.00     0.031 C 
ATOM     52  C   UNL A   1      46.751  32.089  29.663  1.00  0.00     0.029 A 
ATOM     53  C   UNL A   1      45.370  32.020  29.759  1.00  0.00     0.049 A 
ATOM     54  H   UNL A   1      44.074  30.474  29.144  1.00  0.00     0.167 HD
ATOM     55  C   UNL A   1      43.114  32.878  30.352  1.00  0.00     0.074 A 
ATOM     56  C   UNL A   1      42.223  33.873  30.917  1.00  0.00     0.031 C 
ATOM     57  C   UNL A   1      44.464  32.993  30.318  1.00  0.00     0.031 A 
BRANCH  44  58
ATOM     58  C   UNL A   1      47.408  28.201  27.720  1.00  0.00    -0.014 A 
ATOM     59  C   UNL A   1      47.959  28.349  26.435  1.00  0.00     0.010 A 
ATOM     60  C   UNL A   1      48.122  27.457  28.681  1.00  0.00     0.010 A 
ATOM     61  C   UNL A   1      49.172  27.731  26.108  1.00  0.00     0.020 A 
ATOM     62  C   UNL A   1      49.349  26.865  28.370  1.00  0.00     0.020 A 
ATOM     63  C   UNL A   1      49.858  26.991  27.077  1.00  0.00     0.054 A 
BRANCH  63  64
ATOM     64  S   UNL A   1      51.434  26.211  26.629  1.00  0.00     0.124 S 
ATOM     65  O   UNL A   1      51.586  26.616  25.234  1.00  0.00    -0.237 OA
ATOM     66  O   UNL A   1      52.371  26.823  27.567  1.00  0.00    -0.237 OA
ATOM     67  O   UNL A   1      51.190  24.785  26.839  1.00  0.00    -0.744 OA
ENDBRANCH  63  64
ENDBRANCH  44  58
BRANCH  45  68
ATOM     68  C   UNL A   1      38.484  31.971  30.347  1.00  0.00    -0.014 A 
ATOM     69  C   UNL A   1      37.985  31.709  31.634  1.00  0.00     0.010 A 
ATOM     70  C   UNL A   1      37.728  32.783  29.478  1.00  0.00     0.010 A 
ATOM     71  C   UNL A   1      36.761  32.249  32.042  1.00  0.00     0.020 A 
ATOM     72  C   UNL A   1      36.526  33.358  29.896  1.00  0.00     0.020 A 
ATOM     73  C   UNL A   1      36.045  33.079  31.174  1.00  0.00     0.054 A 
BRANCH  73  74
ATOM     74  S   UNL A   1      34.497  33.828  31.751  1.00  0.00     0.124 S 
ATOM     75  O   UNL A   1      33.805  34.101  30.495  1.00  0.00    -0.237 OA
ATOM     76  O   UNL A   1      33.921  32.767  32.574  1.00  0.00    -0.237 OA
ATOM     77  O   UNL A   1      34.942  35.007  32.491  1.00  0.00    -0.744 OA
ENDBRANCH  73  74
ENDBRANCH  45  68
BRANCH  57  78
ATOM     78  C   UNL A   1      45.052  34.264  30.866  1.00  0.00    -0.014 A 
ATOM     79  C   UNL A   1      45.440  34.370  32.212  1.00  0.00     0.010 A 
ATOM     80  C   UNL A   1      45.250  35.356  30.002  1.00  0.00     0.010 A 
ATOM     81  C   UNL A   1      45.982  35.562  32.695  1.00  0.00     0.020 A 
ATOM     82  C   UNL A   1      45.823  36.538  30.474  1.00  0.00     0.020 A 
ATOM     83  C   UNL A   1      46.171  36.639  31.822  1.00  0.00     0.054 A 
BRANCH  83  84
ATOM     84  S   UNL A   1      46.912  38.163  32.465  1.00  0.00     0.124 S 
ATOM     85  O   UNL A   1      48.123  38.276  31.656  1.00  0.00    -0.237 OA
ATOM     86  O   UNL A   1      45.878  39.158  32.194  1.00  0.00    -0.237 OA
ATOM     87  O   UNL A   1      47.133  37.871  33.880  1.00  0.00    -0.744 OA
ENDBRANCH  83  84
ENDBRANCH  57  78
ENDBRANCH  31  32
ENDBRANCH  24  26
ENDBRANCH  23  24
ENDBRANCH  22  23
ENDBRANCH   1  22
TORSDOF 18
ENDMDL
MODEL 3
REMARK VINA RESULT:      -8.7      4.696     12.045
REMARK SMILES Cc1cc(C)cc(CSCc2cc(C(=O)OCCOC(=O)c3ccc(-c4c5nc(c(-c6ccc(S(=O)(=O)[O-])cc6)c6ccc([nH]6)c(-c6ccc(S(=O)(=O)[O-])cc6)c6nc(c(-c7ccc(S(=O)(=O)[O-])cc7)c7ccc4[nH]7)C=C6)C=C5)cc3)c(C)o2)c1
REMARK SMILES IDX 17 1 16 2 14 3 15 4 13 5 11 6 12 7 84 8 82 9 83 10 10 11
REMARK SMILES IDX 9 12 8 13 7 14 1 15 2 16 3 17 85 18 4 19 5 20 6 21 18 22
REMARK SMILES IDX 19 23 20 24 21 25 22 26 23 27 81 28 24 29 80 30 25 31 26 32
REMARK SMILES IDX 27 33 74 34 28 35 79 36 73 37 75 38 29 39 78 40 72 41 71 42
REMARK SMILES IDX 30 44 60 45 41 46 59 47 42 48 45 49 58 50 76 51 43 52 44 53
REMARK SMILES IDX 57 55 77 56 46 57 31 58 32 59 40 60 33 61 39 62 34 63 35 64
REMARK SMILES IDX 36 65 37 66 38 67 61 68 62 69 70 70 63 71 69 72 64 73 65 74
REMARK SMILES IDX 66 75 67 76 68 77 47 78 48 79 56 80 49 81 55 82 50 83 51 84
REMARK SMILES IDX 52 85 53 86 54 87
REMARK H PARENT 75 43 45 54
REMARK Flexibility Score: inf
ROOT
ATOM      1  C   UNL A   1      33.576  30.280  27.587  1.00  0.00     0.275 C 
ENDROOT
BRANCH   1   2
ATOM      2  O   UNL A   1      33.590  30.032  26.163  1.00  0.00    -0.458 OA
BRANCH   2   3
ATOM      3  C   UNL A   1      32.383  29.824  25.561  1.00  0.00     0.341 C 
ATOM      4  O   UNL A   1      31.446  30.617  25.624  1.00  0.00    -0.246 OA
BRANCH   3   5
ATOM      5  C   UNL A   1      32.271  28.546  24.881  1.00  0.00     0.101 A 
ATOM      6  C   UNL A   1      31.398  26.616  24.129  1.00  0.00     0.114 A 
ATOM      7  C   UNL A   1      31.519  27.398  25.260  1.00  0.00     0.062 A 
ATOM      8  O   UNL A   1      32.282  27.055  23.192  1.00  0.00    -0.465 OA
ATOM      9  C   UNL A   1      32.849  28.193  23.672  1.00  0.00     0.115 A 
ATOM     10  C   UNL A   1      33.933  28.742  22.837  1.00  0.00     0.088 C 
BRANCH   6  11
ATOM     11  C   UNL A   1      30.566  25.468  23.699  1.00  0.00     0.145 C 
BRANCH  11  12
ATOM     12  S   UNL A   1      31.040  23.853  24.391  1.00  0.00    -0.149 SA
BRANCH  12  13
ATOM     13  C   UNL A   1      32.442  23.406  23.303  1.00  0.00     0.105 C 
BRANCH  13  14
ATOM     14  C   UNL A   1      33.312  22.292  23.831  1.00  0.00    -0.038 A 
ATOM     15  C   UNL A   1      32.896  18.824  25.368  1.00  0.00     0.044 C 
ATOM     16  C   UNL A   1      33.528  20.077  24.831  1.00  0.00    -0.051 A 
ATOM     17  C   UNL A   1      34.903  20.295  24.995  1.00  0.00     0.006 A 
ATOM     18  C   UNL A   1      32.740  21.085  24.260  1.00  0.00     0.008 A 
ATOM     19  C   UNL A   1      35.497  21.488  24.564  1.00  0.00    -0.051 A 
ATOM     20  C   UNL A   1      36.921  21.813  24.912  1.00  0.00     0.044 C 
ATOM     21  C   UNL A   1      34.701  22.459  23.946  1.00  0.00     0.008 A 
ENDBRANCH  13  14
ENDBRANCH  12  13
ENDBRANCH  11  12
ENDBRANCH   6  11
ENDBRANCH   3   5
ENDBRANCH   2   3
ENDBRANCH   1   2
BRANCH   1  22
ATOM     22  C   UNL A   1      34.081  31.686  27.901  1.00  0.00     0.275 C 
BRANCH  22  23
ATOM     23  O   UNL A   1      35.516  31.676  27.944  1.00  0.00    -0.458 OA
BRANCH  23  24
ATOM     24  C   UNL A   1      36.037  31.393  29.159  1.00  0.00     0.338 C 
ATOM     25  O   UNL A   1      35.568  31.653  30.250  1.00  0.00    -0.246 OA
BRANCH  24  26
ATOM     26  C   UNL A   1      37.221  30.546  28.983  1.00  0.00     0.060 A 
ATOM     27  C   UNL A   1      38.075  30.414  30.068  1.00  0.00     0.016 A 
ATOM     28  C   UNL A   1      37.598  30.070  27.732  1.00  0.00     0.016 A 
ATOM     29  C   UNL A   1      39.366  29.953  29.882  1.00  0.00     0.010 A 
ATOM     30  C   UNL A   1      38.859  29.476  27.582  1.00  0.00     0.010 A 
ATOM     31  C   UNL A   1      39.784  29.465  28.643  1.00  0.00    -0.014 A 
BRANCH  31  32
ATOM     32  C   UNL A   1      41.198  29.026  28.468  1.00  0.00     0.031 A 
ATOM     33  C   UNL A   1      42.320  30.018  28.648  1.00  0.00     0.074 A 
ATOM     34  C   UNL A   1      41.490  27.732  28.213  1.00  0.00     0.049 A 
ATOM     35  N   UNL A   1      43.580  29.907  28.315  1.00  0.00    -0.248 NA
ATOM     36  C   UNL A   1      41.978  31.314  29.259  1.00  0.00     0.031 C 
ATOM     37  C   UNL A   1      40.517  26.639  28.109  1.00  0.00     0.029 A 
ATOM     38  N   UNL A   1      42.696  27.106  28.017  1.00  0.00    -0.354 N 
ATOM     39  C   UNL A   1      44.156  31.145  28.587  1.00  0.00     0.074 A 
ATOM     40  C   UNL A   1      43.111  31.988  29.123  1.00  0.00     0.031 C 
ATOM     41  C   UNL A   1      41.164  25.477  27.948  1.00  0.00     0.029 A 
ATOM     42  C   UNL A   1      42.580  25.757  27.769  1.00  0.00     0.049 A 
ATOM     43  H   UNL A   1      43.561  27.575  28.050  1.00  0.00     0.167 HD
ATOM     44  C   UNL A   1      45.437  31.537  28.388  1.00  0.00     0.031 A 
ATOM     45  C   UNL A   1      43.487  24.851  27.358  1.00  0.00     0.031 A 
ATOM     46  C   UNL A   1      46.471  30.657  27.907  1.00  0.00     0.049 A 
ATOM     47  C   UNL A   1      44.884  25.318  27.087  1.00  0.00     0.074 A 
ATOM     48  C   UNL A   1      47.804  30.942  27.669  1.00  0.00     0.029 A 
ATOM     49  N   UNL A   1      46.291  29.313  27.611  1.00  0.00    -0.354 N 
ATOM     50  N   UNL A   1      45.395  26.516  27.245  1.00  0.00    -0.248 NA
ATOM     51  C   UNL A   1      45.822  24.322  26.556  1.00  0.00     0.031 C 
ATOM     52  C   UNL A   1      48.414  29.786  27.171  1.00  0.00     0.029 A 
ATOM     53  C   UNL A   1      47.482  28.761  27.170  1.00  0.00     0.049 A 
ATOM     54  H   UNL A   1      45.441  28.824  27.701  1.00  0.00     0.167 HD
ATOM     55  C   UNL A   1      46.720  26.418  26.844  1.00  0.00     0.074 A 
ATOM     56  C   UNL A   1      46.936  25.035  26.461  1.00  0.00     0.031 C 
ATOM     57  C   UNL A   1      47.671  27.382  26.791  1.00  0.00     0.031 A 
BRANCH  44  58
ATOM     58  C   UNL A   1      45.775  32.991  28.613  1.00  0.00    -0.014 A 
ATOM     59  C   UNL A   1      45.829  33.924  27.562  1.00  0.00     0.010 A 
ATOM     60  C   UNL A   1      46.017  33.438  29.927  1.00  0.00     0.010 A 
ATOM     61  C   UNL A   1      46.162  35.260  27.815  1.00  0.00     0.020 A 
ATOM     62  C   UNL A   1      46.318  34.777  30.190  1.00  0.00     0.020 A 
ATOM     63  C   UNL A   1      46.407  35.677  29.128  1.00  0.00     0.054 A 
BRANCH  63  64
ATOM     64  S   UNL A   1      46.824  37.417  29.430  1.00  0.00     0.124 S 
ATOM     65  O   UNL A   1      47.706  37.320  30.591  1.00  0.00    -0.237 OA
ATOM     66  O   UNL A   1      47.471  37.812  28.182  1.00  0.00    -0.237 OA
ATOM     67  O   UNL A   1      45.530  38.047  29.683  1.00  0.00    -0.744 OA
ENDBRANCH  63  64
ENDBRANCH  44  58
BRANCH  45  68
ATOM     68  C   UNL A   1      43.061  23.448  27.086  1.00  0.00    -0.014 A 
ATOM     69  C   UNL A   1      42.779  23.019  25.779  1.00  0.00     0.010 A 
ATOM     70  C   UNL A   1      42.979  22.517  28.141  1.00  0.00     0.010 A 
ATOM     71  C   UNL A   1      42.425  21.688  25.533  1.00  0.00     0.020 A 
ATOM     72  C   UNL A   1      42.667  21.178  27.894  1.00  0.00     0.020 A 
ATOM     73  C   UNL A   1      42.382  20.774  26.591  1.00  0.00     0.054 A 
BRANCH  73  74
ATOM     74  S   UNL A   1      41.994  19.037  26.237  1.00  0.00     0.124 S 
ATOM     75  O   UNL A   1      42.934  18.729  25.165  1.00  0.00    -0.237 OA
ATOM     76  O   UNL A   1      42.259  18.388  27.519  1.00  0.00    -0.237 OA
ATOM     77  O   UNL A   1      40.587  19.074  25.846  1.00  0.00    -0.744 OA
ENDBRANCH  73  74
ENDBRANCH  45  68
BRANCH  57  78
ATOM     78  C   UNL A   1      49.044  26.960  26.347  1.00  0.00    -0.014 A 
ATOM     79  C   UNL A   1      49.438  27.048  25.001  1.00  0.00     0.010 A 
ATOM     80  C   UNL A   1      49.964  26.500  27.306  1.00  0.00     0.010 A 
ATOM     81  C   UNL A   1      50.719  26.648  24.616  1.00  0.00     0.020 A 
ATOM     82  C   UNL A   1      51.256  26.131  26.930  1.00  0.00     0.020 A 
ATOM     83  C   UNL A   1      51.620  26.193  25.584  1.00  0.00     0.054 A 
BRANCH  83  84
ATOM     84  S   UNL A   1      53.290  25.715  25.063  1.00  0.00     0.124 S 
ATOM     85  O   UNL A   1      54.125  26.518  25.952  1.00  0.00    -0.237 OA
ATOM     86  O   UNL A   1      53.302  24.276  25.317  1.00  0.00    -0.237 OA
ATOM     87  O   UNL A   1      53.335  26.094  23.653  1.00  0.00    -0.744 OA
ENDBRANCH  83  84
ENDBRANCH  57  78
ENDBRANCH  31  32
ENDBRANCH  24  26
ENDBRANCH  23  24
ENDBRANCH  22  23
ENDBRANCH   1  22
TORSDOF 18
ENDMDL
