MODEL 1
REMARK VINA RESULT:     -10.6      0.000      0.000
REMARK SMILES O=C(CO/N=C\c1ccccc1)Nc1ccccc1C(=O)OCCOC(=O)c1ccc(-c2c3nc(c(-c4ccc(S(=O)(=O)[O-])cc4)c4ccc([nH]4)c(-c4ccc(S(=O)(=O)[O-])cc4)c4nc(c(-c5ccc(S(=O)(=O)[O-])cc5)c5ccc2[nH]5)C=C4)C=C3)cc1
REMARK SMILES IDX 23 1 22 2 20 3 21 4 19 5 14 6 15 7 16 8 18 9 17 10 13 11
REMARK SMILES IDX 1 12 2 13 3 15 4 16 5 17 6 18 7 19 8 20 12 21 9 22 11 23
REMARK SMILES IDX 10 24 24 25 25 26 26 27 27 28 28 29 29 30 87 31 30 32 86 33
REMARK SMILES IDX 31 34 32 35 33 36 80 37 34 38 85 39 79 40 81 41 35 42 84 43
REMARK SMILES IDX 78 44 77 45 36 47 66 48 47 49 65 50 48 51 51 52 64 53 82 54
REMARK SMILES IDX 49 55 50 56 63 58 83 59 52 60 37 61 38 62 46 63 39 64 45 65
REMARK SMILES IDX 40 66 41 67 42 68 43 69 44 70 67 71 68 72 76 73 69 74 75 75
REMARK SMILES IDX 70 76 71 77 72 78 73 79 74 80 53 81 54 82 62 83 55 84 61 85
REMARK SMILES IDX 56 86 57 87 58 88 59 89 60 90
REMARK H PARENT 13 14 81 46 51 57
REMARK Flexibility Score: inf
ROOT
ATOM      1  C   UNL A   1      33.564  28.523  24.510  1.00  0.00     0.275 C 
ENDROOT
BRANCH   1   2
ATOM      2  O   UNL A   1      32.586  28.668  23.461  1.00  0.00    -0.458 OA
BRANCH   2   3
ATOM      3  C   UNL A   1      31.865  27.552  23.162  1.00  0.00     0.340 C 
ATOM      4  O   UNL A   1      32.321  26.444  22.926  1.00  0.00    -0.246 OA
BRANCH   3   5
ATOM      5  C   UNL A   1      30.410  27.815  23.327  1.00  0.00     0.083 A 
ATOM      6  C   UNL A   1      29.474  26.902  23.850  1.00  0.00     0.055 A 
ATOM      7  C   UNL A   1      28.104  27.190  23.712  1.00  0.00     0.027 A 
ATOM      8  C   UNL A   1      27.671  28.392  23.145  1.00  0.00     0.002 A 
ATOM      9  C   UNL A   1      29.960  29.045  22.806  1.00  0.00     0.018 A 
ATOM     10  C   UNL A   1      28.600  29.330  22.711  1.00  0.00     0.001 A 
BRANCH   6  11
ATOM     11  N   UNL A   1      29.780  25.697  24.523  1.00  0.00    -0.322 N 
ATOM     12  O   UNL A   1      30.507  26.513  26.577  1.00  0.00    -0.271 OA
ATOM     13  C   UNL A   1      30.368  25.594  25.774  1.00  0.00     0.265 C 
ATOM     14  H   UNL A   1      29.554  24.857  24.064  1.00  0.00     0.170 HD
BRANCH  13  15
ATOM     15  C   UNL A   1      30.887  24.194  26.069  1.00  0.00     0.363 C 
BRANCH  15  16
ATOM     16  O   UNL A   1      32.126  24.215  26.759  1.00  0.00    -0.386 OA
BRANCH  16  17
ATOM     17  N   UNL A   1      32.256  23.017  27.474  1.00  0.00    -0.094 NA
ATOM     18  C   UNL A   1      33.218  22.270  27.028  1.00  0.00     0.162 C 
BRANCH  18  19
ATOM     19  C   UNL A   1      34.206  22.602  25.990  1.00  0.00    -0.004 A 
ATOM     20  C   UNL A   1      35.397  23.215  26.382  1.00  0.00     0.010 A 
ATOM     21  C   UNL A   1      33.934  22.371  24.639  1.00  0.00     0.010 A 
ATOM     22  C   UNL A   1      36.336  23.569  25.414  1.00  0.00     0.001 A 
ATOM     23  C   UNL A   1      34.873  22.733  23.675  1.00  0.00     0.001 A 
ATOM     24  C   UNL A   1      36.073  23.329  24.063  1.00  0.00     0.000 A 
ENDBRANCH  18  19
ENDBRANCH  16  17
ENDBRANCH  15  16
ENDBRANCH  13  15
ENDBRANCH   6  11
ENDBRANCH   3   5
ENDBRANCH   2   3
ENDBRANCH   1   2
BRANCH   1  25
ATOM     25  C   UNL A   1      33.054  29.132  25.811  1.00  0.00     0.275 C 
BRANCH  25  26
ATOM     26  O   UNL A   1      34.045  28.954  26.833  1.00  0.00    -0.458 OA
BRANCH  26  27
ATOM     27  C   UNL A   1      34.372  30.069  27.523  1.00  0.00     0.338 C 
ATOM     28  O   UNL A   1      33.658  31.014  27.807  1.00  0.00    -0.246 OA
BRANCH  27  29
ATOM     29  C   UNL A   1      35.741  29.905  28.020  1.00  0.00     0.060 A 
ATOM     30  C   UNL A   1      36.781  30.092  27.112  1.00  0.00     0.016 A 
ATOM     31  C   UNL A   1      35.999  29.493  29.326  1.00  0.00     0.016 A 
ATOM     32  C   UNL A   1      38.093  29.837  27.491  1.00  0.00     0.010 A 
ATOM     33  C   UNL A   1      37.324  29.266  29.716  1.00  0.00     0.010 A 
ATOM     34  C   UNL A   1      38.379  29.407  28.794  1.00  0.00    -0.014 A 
BRANCH  34  35
ATOM     35  C   UNL A   1      39.768  29.011  29.142  1.00  0.00     0.031 A 
ATOM     36  C   UNL A   1      40.621  29.937  29.968  1.00  0.00     0.074 A 
ATOM     37  C   UNL A   1      40.244  27.803  28.783  1.00  0.00     0.049 A 
ATOM     38  N   UNL A   1      41.873  29.810  30.328  1.00  0.00    -0.248 NA
ATOM     39  C   UNL A   1      39.981  31.171  30.449  1.00  0.00     0.031 C 
ATOM     40  C   UNL A   1      39.502  26.787  28.033  1.00  0.00     0.029 A 
ATOM     41  N   UNL A   1      41.459  27.213  29.029  1.00  0.00    -0.354 N 
ATOM     42  C   UNL A   1      42.184  30.967  31.034  1.00  0.00     0.074 A 
ATOM     43  C   UNL A   1      40.992  31.787  31.045  1.00  0.00     0.031 C 
ATOM     44  C   UNL A   1      40.261  25.685  27.920  1.00  0.00     0.029 A 
ATOM     45  C   UNL A   1      41.561  25.935  28.535  1.00  0.00     0.049 A 
ATOM     46  H   UNL A   1      42.188  27.663  29.513  1.00  0.00     0.167 HD
ATOM     47  C   UNL A   1      43.357  31.317  31.616  1.00  0.00     0.031 A 
ATOM     48  C   UNL A   1      42.591  25.066  28.560  1.00  0.00     0.031 A 
ATOM     49  C   UNL A   1      44.533  30.488  31.631  1.00  0.00     0.049 A 
ATOM     50  C   UNL A   1      43.884  25.480  29.205  1.00  0.00     0.074 A 
ATOM     51  C   UNL A   1      45.773  30.757  32.183  1.00  0.00     0.029 A 
ATOM     52  N   UNL A   1      44.607  29.216  31.083  1.00  0.00    -0.354 N 
ATOM     53  N   UNL A   1      44.183  26.607  29.808  1.00  0.00    -0.248 NA
ATOM     54  C   UNL A   1      44.983  24.506  29.165  1.00  0.00     0.031 C 
ATOM     55  C   UNL A   1      46.607  29.658  31.943  1.00  0.00     0.029 A 
ATOM     56  C   UNL A   1      45.873  28.688  31.280  1.00  0.00     0.049 A 
ATOM     57  H   UNL A   1      43.870  28.755  30.620  1.00  0.00     0.167 HD
ATOM     58  C   UNL A   1      45.503  26.476  30.221  1.00  0.00     0.074 A 
ATOM     59  C   UNL A   1      45.935  25.150  29.826  1.00  0.00     0.031 C 
ATOM     60  C   UNL A   1      46.291  27.374  30.863  1.00  0.00     0.031 A 
BRANCH  47  61
ATOM     61  C   UNL A   1      43.429  32.685  32.241  1.00  0.00    -0.014 A 
ATOM     62  C   UNL A   1      43.022  32.910  33.569  1.00  0.00     0.010 A 
ATOM     63  C   UNL A   1      43.912  33.765  31.481  1.00  0.00     0.010 A 
ATOM     64  C   UNL A   1      43.048  34.201  34.106  1.00  0.00     0.020 A 
ATOM     65  C   UNL A   1      43.964  35.053  32.023  1.00  0.00     0.020 A 
ATOM     66  C   UNL A   1      43.510  35.266  33.325  1.00  0.00     0.054 A 
BRANCH  66  67
ATOM     67  S   UNL A   1      43.531  36.933  34.041  1.00  0.00     0.124 S 
ATOM     68  O   UNL A   1      42.218  37.003  34.677  1.00  0.00    -0.237 OA
ATOM     69  O   UNL A   1      44.669  36.880  34.955  1.00  0.00    -0.237 OA
ATOM     70  O   UNL A   1      43.709  37.804  32.882  1.00  0.00    -0.744 OA
ENDBRANCH  66  67
ENDBRANCH  47  61
BRANCH  48  71
ATOM     71  C   UNL A   1      42.443  23.723  27.937  1.00  0.00    -0.014 A 
ATOM     72  C   UNL A   1      42.727  23.531  26.574  1.00  0.00     0.010 A 
ATOM     73  C   UNL A   1      42.039  22.621  28.712  1.00  0.00     0.010 A 
ATOM     74  C   UNL A   1      42.605  22.264  25.995  1.00  0.00     0.020 A 
ATOM     75  C   UNL A   1      41.941  21.348  28.145  1.00  0.00     0.020 A 
ATOM     76  C   UNL A   1      42.216  21.180  26.786  1.00  0.00     0.054 A 
BRANCH  76  77
ATOM     77  S   UNL A   1      42.134  19.528  26.038  1.00  0.00     0.124 S 
ATOM     78  O   UNL A   1      43.050  19.661  24.909  1.00  0.00    -0.237 OA
ATOM     79  O   UNL A   1      42.589  18.662  27.124  1.00  0.00    -0.237 OA
ATOM     80  O   UNL A   1      40.723  19.384  25.687  1.00  0.00    -0.744 OA
ENDBRANCH  76  77
ENDBRANCH  48  71
BRANCH  60  81
ATOM     81  C   UNL A   1      47.693  26.935  31.188  1.00  0.00    -0.014 A 
ATOM     82  C   UNL A   1      47.980  26.248  32.380  1.00  0.00     0.010 A 
ATOM     83  C   UNL A   1      48.736  27.217  30.287  1.00  0.00     0.010 A 
ATOM     84  C   UNL A   1      49.296  25.895  32.693  1.00  0.00     0.020 A 
ATOM     85  C   UNL A   1      50.049  26.845  30.586  1.00  0.00     0.020 A 
ATOM     86  C   UNL A   1      50.324  26.208  31.799  1.00  0.00     0.054 A 
BRANCH  86  87
ATOM     87  S   UNL A   1      52.027  25.749  32.222  1.00  0.00     0.124 S 
ATOM     88  O   UNL A   1      52.115  26.171  33.618  1.00  0.00    -0.237 OA
ATOM     89  O   UNL A   1      52.040  24.306  32.001  1.00  0.00    -0.237 OA
ATOM     90  O   UNL A   1      52.835  26.524  31.284  1.00  0.00    -0.744 OA
ENDBRANCH  86  87
ENDBRANCH  60  81
ENDBRANCH  34  35
ENDBRANCH  27  29
ENDBRANCH  26  27
ENDBRANCH  25  26
ENDBRANCH   1  25
TORSDOF 19
ENDMDL
MODEL 2
REMARK VINA RESULT:     -10.5      3.260      5.388
REMARK SMILES O=C(CO/N=C\c1ccccc1)Nc1ccccc1C(=O)OCCOC(=O)c1ccc(-c2c3nc(c(-c4ccc(S(=O)(=O)[O-])cc4)c4ccc([nH]4)c(-c4ccc(S(=O)(=O)[O-])cc4)c4nc(c(-c5ccc(S(=O)(=O)[O-])cc5)c5ccc2[nH]5)C=C4)C=C3)cc1
REMARK SMILES IDX 23 1 22 2 20 3 21 4 19 5 14 6 15 7 16 8 18 9 17 10 13 11
REMARK SMILES IDX 1 12 2 13 3 15 4 16 5 17 6 18 7 19 8 20 12 21 9 22 11 23
REMARK SMILES IDX 10 24 24 25 25 26 26 27 27 28 28 29 29 30 87 31 30 32 86 33
REMARK SMILES IDX 31 34 32 35 33 36 80 37 34 38 85 39 79 40 81 41 35 42 84 43
REMARK SMILES IDX 78 44 77 45 36 47 66 48 47 49 65 50 48 51 51 52 64 53 82 54
REMARK SMILES IDX 49 55 50 56 63 58 83 59 52 60 37 61 38 62 46 63 39 64 45 65
REMARK SMILES IDX 40 66 41 67 42 68 43 69 44 70 67 71 68 72 76 73 69 74 75 75
REMARK SMILES IDX 70 76 71 77 72 78 73 79 74 80 53 81 54 82 62 83 55 84 61 85
REMARK SMILES IDX 56 86 57 87 58 88 59 89 60 90
REMARK H PARENT 13 14 81 46 51 57
REMARK Flexibility Score: inf
ROOT
ATOM      1  C   UNL A   1      33.430  28.727  27.387  1.00  0.00     0.275 C 
ENDROOT
BRANCH   1   2
ATOM      2  O   UNL A   1      33.820  27.826  26.330  1.00  0.00    -0.458 OA
BRANCH   2   3
ATOM      3  C   UNL A   1      33.000  26.759  26.126  1.00  0.00     0.340 C 
ATOM      4  O   UNL A   1      31.872  26.623  26.574  1.00  0.00    -0.246 OA
BRANCH   3   5
ATOM      5  C   UNL A   1      33.597  25.828  25.130  1.00  0.00     0.083 A 
ATOM      6  C   UNL A   1      33.108  25.611  23.828  1.00  0.00     0.055 A 
ATOM      7  C   UNL A   1      33.617  24.526  23.091  1.00  0.00     0.027 A 
ATOM      8  C   UNL A   1      34.644  23.725  23.598  1.00  0.00     0.002 A 
ATOM      9  C   UNL A   1      34.668  25.046  25.607  1.00  0.00     0.018 A 
ATOM     10  C   UNL A   1      35.185  23.998  24.848  1.00  0.00     0.001 A 
BRANCH   6  11
ATOM     11  N   UNL A   1      32.139  26.398  23.165  1.00  0.00    -0.322 N 
ATOM     12  O   UNL A   1      33.458  28.135  22.357  1.00  0.00    -0.271 OA
ATOM     13  C   UNL A   1      32.358  27.637  22.584  1.00  0.00     0.265 C 
ATOM     14  H   UNL A   1      31.226  26.033  23.111  1.00  0.00     0.170 HD
BRANCH  13  15
ATOM     15  C   UNL A   1      31.067  28.379  22.271  1.00  0.00     0.363 C 
BRANCH  15  16
ATOM     16  O   UNL A   1      30.292  28.623  23.433  1.00  0.00    -0.386 OA
BRANCH  16  17
ATOM     17  N   UNL A   1      29.109  27.877  23.343  1.00  0.00    -0.094 NA
ATOM     18  C   UNL A   1      28.085  28.601  23.012  1.00  0.00     0.162 C 
BRANCH  18  19
ATOM     19  C   UNL A   1      28.076  30.019  22.622  1.00  0.00    -0.004 A 
ATOM     20  C   UNL A   1      28.137  30.331  21.262  1.00  0.00     0.010 A 
ATOM     21  C   UNL A   1      28.072  31.030  23.586  1.00  0.00     0.010 A 
ATOM     22  C   UNL A   1      28.161  31.668  20.867  1.00  0.00     0.001 A 
ATOM     23  C   UNL A   1      28.104  32.364  23.186  1.00  0.00     0.001 A 
ATOM     24  C   UNL A   1      28.146  32.682  21.828  1.00  0.00     0.000 A 
ENDBRANCH  18  19
ENDBRANCH  16  17
ENDBRANCH  15  16
ENDBRANCH  13  15
ENDBRANCH   6  11
ENDBRANCH   3   5
ENDBRANCH   2   3
ENDBRANCH   1   2
BRANCH   1  25
ATOM     25  C   UNL A   1      34.507  29.780  27.622  1.00  0.00     0.275 C 
BRANCH  25  26
ATOM     26  O   UNL A   1      35.614  29.176  28.305  1.00  0.00    -0.458 OA
BRANCH  26  27
ATOM     27  C   UNL A   1      36.268  29.980  29.173  1.00  0.00     0.338 C 
ATOM     28  O   UNL A   1      35.800  30.657  30.069  1.00  0.00    -0.246 OA
BRANCH  27  29
ATOM     29  C   UNL A   1      37.706  29.802  28.953  1.00  0.00     0.060 A 
ATOM     30  C   UNL A   1      38.147  29.708  27.635  1.00  0.00     0.016 A 
ATOM     31  C   UNL A   1      38.593  29.645  30.016  1.00  0.00     0.016 A 
ATOM     32  C   UNL A   1      39.480  29.422  27.364  1.00  0.00     0.010 A 
ATOM     33  C   UNL A   1      39.942  29.387  29.742  1.00  0.00     0.010 A 
ATOM     34  C   UNL A   1      40.390  29.245  28.415  1.00  0.00    -0.014 A 
BRANCH  34  35
ATOM     35  C   UNL A   1      41.778  28.808  28.110  1.00  0.00     0.031 A 
ATOM     36  C   UNL A   1      42.911  29.792  28.234  1.00  0.00     0.074 A 
ATOM     37  C   UNL A   1      42.037  27.525  27.794  1.00  0.00     0.049 A 
ATOM     38  N   UNL A   1      44.181  29.633  27.958  1.00  0.00    -0.248 NA
ATOM     39  C   UNL A   1      42.569  31.135  28.731  1.00  0.00     0.031 C 
ATOM     40  C   UNL A   1      41.039  26.457  27.698  1.00  0.00     0.029 A 
ATOM     41  N   UNL A   1      43.226  26.894  27.522  1.00  0.00    -0.354 N 
ATOM     42  C   UNL A   1      44.779  30.865  28.199  1.00  0.00     0.074 A 
ATOM     43  C   UNL A   1      43.732  31.763  28.637  1.00  0.00     0.031 C 
ATOM     44  C   UNL A   1      41.662  25.297  27.434  1.00  0.00     0.029 A 
ATOM     45  C   UNL A   1      43.093  25.547  27.284  1.00  0.00     0.049 A 
ATOM     46  H   UNL A   1      44.091  27.363  27.500  1.00  0.00     0.167 HD
ATOM     47  C   UNL A   1      46.080  31.218  28.064  1.00  0.00     0.031 A 
ATOM     48  C   UNL A   1      44.017  24.620  26.964  1.00  0.00     0.031 A 
ATOM     49  C   UNL A   1      47.126  30.316  27.657  1.00  0.00     0.049 A 
ATOM     50  C   UNL A   1      45.453  25.037  26.812  1.00  0.00     0.074 A 
ATOM     51  C   UNL A   1      48.473  30.580  27.479  1.00  0.00     0.029 A 
ATOM     52  N   UNL A   1      46.943  28.969  27.385  1.00  0.00    -0.354 N 
ATOM     53  N   UNL A   1      45.990  26.223  26.977  1.00  0.00    -0.248 NA
ATOM     54  C   UNL A   1      46.407  23.990  26.423  1.00  0.00     0.031 C 
ATOM     55  C   UNL A   1      49.100  29.396  27.070  1.00  0.00     0.029 A 
ATOM     56  C   UNL A   1      48.151  28.388  27.035  1.00  0.00     0.049 A 
ATOM     57  H   UNL A   1      46.081  28.494  27.431  1.00  0.00     0.167 HD
ATOM     58  C   UNL A   1      47.346  26.063  26.714  1.00  0.00     0.074 A 
ATOM     59  C   UNL A   1      47.549  24.662  26.409  1.00  0.00     0.031 C 
ATOM     60  C   UNL A   1      48.332  26.995  26.717  1.00  0.00     0.031 A 
BRANCH  47  61
ATOM     61  C   UNL A   1      46.427  32.662  28.314  1.00  0.00    -0.014 A 
ATOM     62  C   UNL A   1      46.707  33.139  29.607  1.00  0.00     0.010 A 
ATOM     63  C   UNL A   1      46.471  33.557  27.230  1.00  0.00     0.010 A 
ATOM     64  C   UNL A   1      46.972  34.496  29.817  1.00  0.00     0.020 A 
ATOM     65  C   UNL A   1      46.762  34.909  27.433  1.00  0.00     0.020 A 
ATOM     66  C   UNL A   1      46.988  35.374  28.729  1.00  0.00     0.054 A 
BRANCH  66  67
ATOM     67  S   UNL A   1      47.330  37.131  29.025  1.00  0.00     0.124 S 
ATOM     68  O   UNL A   1      46.424  37.777  28.078  1.00  0.00    -0.237 OA
ATOM     69  O   UNL A   1      46.985  37.295  30.435  1.00  0.00    -0.237 OA
ATOM     70  O   UNL A   1      48.751  37.263  28.717  1.00  0.00    -0.744 OA
ENDBRANCH  66  67
ENDBRANCH  47  61
BRANCH  48  71
ATOM     71  C   UNL A   1      43.604  23.206  26.749  1.00  0.00    -0.014 A 
ATOM     72  C   UNL A   1      43.873  22.561  25.529  1.00  0.00     0.010 A 
ATOM     73  C   UNL A   1      42.961  22.490  27.774  1.00  0.00     0.010 A 
ATOM     74  C   UNL A   1      43.500  21.227  25.336  1.00  0.00     0.020 A 
ATOM     75  C   UNL A   1      42.611  21.149  27.595  1.00  0.00     0.020 A 
ATOM     76  C   UNL A   1      42.875  20.529  26.372  1.00  0.00     0.054 A 
BRANCH  76  77
ATOM     77  S   UNL A   1      42.466  18.777  26.132  1.00  0.00     0.124 S 
ATOM     78  O   UNL A   1      41.077  18.848  25.689  1.00  0.00    -0.237 OA
ATOM     79  O   UNL A   1      43.433  18.359  25.120  1.00  0.00    -0.237 OA
ATOM     80  O   UNL A   1      42.673  18.195  27.457  1.00  0.00    -0.744 OA
ENDBRANCH  76  77
ENDBRANCH  48  71
BRANCH  60  81
ATOM     81  C   UNL A   1      49.720  26.511  26.394  1.00  0.00    -0.014 A 
ATOM     82  C   UNL A   1      50.209  26.538  25.077  1.00  0.00     0.010 A 
ATOM     83  C   UNL A   1      50.544  26.023  27.425  1.00  0.00     0.010 A 
ATOM     84  C   UNL A   1      51.480  26.035  24.785  1.00  0.00     0.020 A 
ATOM     85  C   UNL A   1      51.823  25.541  27.140  1.00  0.00     0.020 A 
ATOM     86  C   UNL A   1      52.274  25.528  25.818  1.00  0.00     0.054 A 
BRANCH  86  87
ATOM     87  S   UNL A   1      53.918  24.872  25.422  1.00  0.00     0.124 S 
ATOM     88  O   UNL A   1      54.561  24.855  26.733  1.00  0.00    -0.237 OA
ATOM     89  O   UNL A   1      53.617  23.561  24.853  1.00  0.00    -0.237 OA
ATOM     90  O   UNL A   1      54.457  25.845  24.474  1.00  0.00    -0.744 OA
ENDBRANCH  86  87
ENDBRANCH  60  81
ENDBRANCH  34  35
ENDBRANCH  27  29
ENDBRANCH  26  27
ENDBRANCH  25  26
ENDBRANCH   1  25
TORSDOF 19
ENDMDL
MODEL 3
REMARK VINA RESULT:     -10.4      1.132      3.788
REMARK SMILES O=C(CO/N=C\c1ccccc1)Nc1ccccc1C(=O)OCCOC(=O)c1ccc(-c2c3nc(c(-c4ccc(S(=O)(=O)[O-])cc4)c4ccc([nH]4)c(-c4ccc(S(=O)(=O)[O-])cc4)c4nc(c(-c5ccc(S(=O)(=O)[O-])cc5)c5ccc2[nH]5)C=C4)C=C3)cc1
REMARK SMILES IDX 23 1 22 2 20 3 21 4 19 5 14 6 15 7 16 8 18 9 17 10 13 11
REMARK SMILES IDX 1 12 2 13 3 15 4 16 5 17 6 18 7 19 8 20 12 21 9 22 11 23
REMARK SMILES IDX 10 24 24 25 25 26 26 27 27 28 28 29 29 30 87 31 30 32 86 33
REMARK SMILES IDX 31 34 32 35 33 36 80 37 34 38 85 39 79 40 81 41 35 42 84 43
REMARK SMILES IDX 78 44 77 45 36 47 66 48 47 49 65 50 48 51 51 52 64 53 82 54
REMARK SMILES IDX 49 55 50 56 63 58 83 59 52 60 37 61 38 62 46 63 39 64 45 65
REMARK SMILES IDX 40 66 41 67 42 68 43 69 44 70 67 71 68 72 76 73 69 74 75 75
REMARK SMILES IDX 70 76 71 77 72 78 73 79 74 80 53 81 54 82 62 83 55 84 61 85
REMARK SMILES IDX 56 86 57 87 58 88 59 89 60 90
REMARK H PARENT 13 14 81 46 51 57
REMARK Flexibility Score: inf
ROOT
ATOM      1  C   UNL A   1      34.254  28.102  24.706  1.00  0.00     0.275 C 
ENDROOT
BRANCH   1   2
ATOM      2  O   UNL A   1      33.355  27.001  24.464  1.00  0.00    -0.458 OA
BRANCH   2   3
ATOM      3  C   UNL A   1      33.480  25.936  25.303  1.00  0.00     0.340 C 
ATOM      4  O   UNL A   1      32.879  25.775  26.354  1.00  0.00    -0.246 OA
BRANCH   3   5
ATOM      5  C   UNL A   1      34.335  24.886  24.686  1.00  0.00     0.083 A 
ATOM      6  C   UNL A   1      34.044  24.203  23.490  1.00  0.00     0.055 A 
ATOM      7  C   UNL A   1      34.808  23.068  23.162  1.00  0.00     0.027 A 
ATOM      8  C   UNL A   1      35.887  22.668  23.956  1.00  0.00     0.002 A 
ATOM      9  C   UNL A   1      35.457  24.504  25.448  1.00  0.00     0.018 A 
ATOM     10  C   UNL A   1      36.226  23.398  25.088  1.00  0.00     0.001 A 
BRANCH   6  11
ATOM     11  N   UNL A   1      33.042  24.554  22.557  1.00  0.00    -0.322 N 
ATOM     12  O   UNL A   1      34.021  26.400  21.534  1.00  0.00    -0.271 OA
ATOM     13  C   UNL A   1      33.052  25.673  21.739  1.00  0.00     0.265 C 
ATOM     14  H   UNL A   1      32.268  23.950  22.481  1.00  0.00     0.170 HD
BRANCH  13  15
ATOM     15  C   UNL A   1      31.694  25.961  21.116  1.00  0.00     0.363 C 
BRANCH  15  16
ATOM     16  O   UNL A   1      30.924  26.858  21.900  1.00  0.00    -0.386 OA
BRANCH  16  17
ATOM     17  N   UNL A   1      30.675  26.261  23.143  1.00  0.00    -0.094 NA
ATOM     18  C   UNL A   1      29.927  26.994  23.909  1.00  0.00     0.162 C 
BRANCH  18  19
ATOM     19  C   UNL A   1      29.253  28.255  23.566  1.00  0.00    -0.004 A 
ATOM     20  C   UNL A   1      27.933  28.197  23.116  1.00  0.00     0.010 A 
ATOM     21  C   UNL A   1      29.933  29.473  23.627  1.00  0.00     0.010 A 
ATOM     22  C   UNL A   1      27.281  29.376  22.754  1.00  0.00     0.001 A 
ATOM     23  C   UNL A   1      29.279  30.647  23.258  1.00  0.00     0.001 A 
ATOM     24  C   UNL A   1      27.954  30.597  22.824  1.00  0.00     0.000 A 
ENDBRANCH  18  19
ENDBRANCH  16  17
ENDBRANCH  15  16
ENDBRANCH  13  15
ENDBRANCH   6  11
ENDBRANCH   3   5
ENDBRANCH   2   3
ENDBRANCH   1   2
BRANCH   1  25
ATOM     25  C   UNL A   1      33.634  29.102  25.676  1.00  0.00     0.275 C 
BRANCH  25  26
ATOM     26  O   UNL A   1      34.158  28.866  26.991  1.00  0.00    -0.458 OA
BRANCH  26  27
ATOM     27  C   UNL A   1      34.505  29.974  27.683  1.00  0.00     0.338 C 
ATOM     28  O   UNL A   1      33.801  30.916  27.997  1.00  0.00    -0.246 OA
BRANCH  27  29
ATOM     29  C   UNL A   1      35.887  29.803  28.140  1.00  0.00     0.060 A 
ATOM     30  C   UNL A   1      36.902  30.028  27.212  1.00  0.00     0.016 A 
ATOM     31  C   UNL A   1      36.180  29.350  29.424  1.00  0.00     0.016 A 
ATOM     32  C   UNL A   1      38.225  29.770  27.550  1.00  0.00     0.010 A 
ATOM     33  C   UNL A   1      37.517  29.119  29.773  1.00  0.00     0.010 A 
ATOM     34  C   UNL A   1      38.547  29.299  28.830  1.00  0.00    -0.014 A 
BRANCH  34  35
ATOM     35  C   UNL A   1      39.947  28.901  29.129  1.00  0.00     0.031 A 
ATOM     36  C   UNL A   1      40.832  29.831  29.917  1.00  0.00     0.074 A 
ATOM     37  C   UNL A   1      40.407  27.689  28.762  1.00  0.00     0.049 A 
ATOM     38  N   UNL A   1      42.096  29.703  30.232  1.00  0.00    -0.248 NA
ATOM     39  C   UNL A   1      40.213  31.071  30.412  1.00  0.00     0.031 C 
ATOM     40  C   UNL A   1      39.635  26.671  28.047  1.00  0.00     0.029 A 
ATOM     41  N   UNL A   1      41.629  27.098  28.967  1.00  0.00    -0.354 N 
ATOM     42  C   UNL A   1      42.436  30.864  30.916  1.00  0.00     0.074 A 
ATOM     43  C   UNL A   1      41.247  31.688  30.966  1.00  0.00     0.031 C 
ATOM     44  C   UNL A   1      40.386  25.565  27.914  1.00  0.00     0.029 A 
ATOM     45  C   UNL A   1      41.709  25.816  28.480  1.00  0.00     0.049 A 
ATOM     46  H   UNL A   1      42.376  27.550  29.421  1.00  0.00     0.167 HD
ATOM     47  C   UNL A   1      43.630  31.216  31.452  1.00  0.00     0.031 A 
ATOM     48  C   UNL A   1      42.737  24.945  28.473  1.00  0.00     0.031 A 
ATOM     49  C   UNL A   1      44.804  30.383  31.430  1.00  0.00     0.049 A 
ATOM     50  C   UNL A   1      44.054  25.360  29.066  1.00  0.00     0.074 A 
ATOM     51  C   UNL A   1      46.064  30.654  31.935  1.00  0.00     0.029 A 
ATOM     52  N   UNL A   1      44.855  29.108  30.889  1.00  0.00    -0.354 N 
ATOM     53  N   UNL A   1      44.377  26.490  29.649  1.00  0.00    -0.248 NA
ATOM     54  C   UNL A   1      45.148  24.382  28.993  1.00  0.00     0.031 C 
ATOM     55  C   UNL A   1      46.886  29.550  31.672  1.00  0.00     0.029 A 
ATOM     56  C   UNL A   1      46.126  28.578  31.043  1.00  0.00     0.049 A 
ATOM     57  H   UNL A   1      44.100  28.645  30.457  1.00  0.00     0.167 HD
ATOM     58  C   UNL A   1      45.712  26.358  30.015  1.00  0.00     0.074 A 
ATOM     59  C   UNL A   1      46.125  25.029  29.614  1.00  0.00     0.031 C 
ATOM     60  C   UNL A   1      46.525  27.260  30.621  1.00  0.00     0.031 A 
BRANCH  47  61
ATOM     61  C   UNL A   1      43.728  32.588  32.065  1.00  0.00    -0.014 A 
ATOM     62  C   UNL A   1      44.093  33.711  31.300  1.00  0.00     0.010 A 
ATOM     63  C   UNL A   1      43.451  32.752  33.434  1.00  0.00     0.010 A 
ATOM     64  C   UNL A   1      44.229  34.964  31.907  1.00  0.00     0.020 A 
ATOM     65  C   UNL A   1      43.561  34.008  34.038  1.00  0.00     0.020 A 
ATOM     66  C   UNL A   1      43.972  35.102  33.275  1.00  0.00     0.054 A 
BRANCH  66  67
ATOM     67  S   UNL A   1      44.159  36.735  34.041  1.00  0.00     0.124 S 
ATOM     68  O   UNL A   1      43.711  36.478  35.408  1.00  0.00    -0.237 OA
ATOM     69  O   UNL A   1      45.587  37.003  33.890  1.00  0.00    -0.237 OA
ATOM     70  O   UNL A   1      43.282  37.592  33.249  1.00  0.00    -0.744 OA
ENDBRANCH  66  67
ENDBRANCH  47  61
BRANCH  48  71
ATOM     71  C   UNL A   1      42.563  23.597  27.866  1.00  0.00    -0.014 A 
ATOM     72  C   UNL A   1      42.884  23.374  26.515  1.00  0.00     0.010 A 
ATOM     73  C   UNL A   1      42.096  22.522  28.643  1.00  0.00     0.010 A 
ATOM     74  C   UNL A   1      42.737  22.103  25.952  1.00  0.00     0.020 A 
ATOM     75  C   UNL A   1      41.972  21.245  28.092  1.00  0.00     0.020 A 
ATOM     76  C   UNL A   1      42.286  21.045  26.746  1.00  0.00     0.054 A 
BRANCH  76  77
ATOM     77  S   UNL A   1      42.171  19.386  26.020  1.00  0.00     0.124 S 
ATOM     78  O   UNL A   1      40.742  19.271  25.748  1.00  0.00    -0.237 OA
ATOM     79  O   UNL A   1      43.032  19.492  24.844  1.00  0.00    -0.237 OA
ATOM     80  O   UNL A   1      42.681  18.516  27.078  1.00  0.00    -0.744 OA
ENDBRANCH  76  77
ENDBRANCH  48  71
BRANCH  60  81
ATOM     81  C   UNL A   1      47.937  26.819  30.897  1.00  0.00    -0.014 A 
ATOM     82  C   UNL A   1      48.274  26.176  32.101  1.00  0.00     0.010 A 
ATOM     83  C   UNL A   1      48.939  27.054  29.938  1.00  0.00     0.010 A 
ATOM     84  C   UNL A   1      49.600  25.822  32.365  1.00  0.00     0.020 A 
ATOM     85  C   UNL A   1      50.261  26.681  30.190  1.00  0.00     0.020 A 
ATOM     86  C   UNL A   1      50.588  26.089  31.412  1.00  0.00     0.054 A 
BRANCH  86  87
ATOM     87  S   UNL A   1      52.304  25.630  31.774  1.00  0.00     0.124 S 
ATOM     88  O   UNL A   1      52.966  25.909  30.503  1.00  0.00    -0.237 OA
ATOM     89  O   UNL A   1      52.656  26.524  32.874  1.00  0.00    -0.237 OA
ATOM     90  O   UNL A   1      52.214  24.217  32.134  1.00  0.00    -0.744 OA
ENDBRANCH  86  87
ENDBRANCH  60  81
ENDBRANCH  34  35
ENDBRANCH  27  29
ENDBRANCH  26  27
ENDBRANCH  25  26
ENDBRANCH   1  25
TORSDOF 19
ENDMDL
