MODEL 1
REMARK VINA RESULT:     -10.6      0.000      0.000
REMARK SMILES O=C(CN1C(=O)S/C(=C\c2cccc(F)c2)C1=O)NCC(=O)OCCOC(=O)c1ccc(-c2c3nc(c(-c4ccc(S(=O)(=O)[O-])cc4)c4ccc([nH]4)c(-c4ccc(S(=O)(=O)[O-])cc4)c4nc(c(-c5ccc(S(=O)(=O)[O-])cc5)c5ccc2[nH]5)C=C4)C=C3)cc1
REMARK SMILES IDX 24 1 23 2 21 3 22 4 20 5 19 6 1 7 2 8 3 10 4 11 5 12 17 13
REMARK SMILES IDX 6 14 7 15 8 16 18 17 9 18 10 19 11 20 16 21 12 22 14 23
REMARK SMILES IDX 13 24 15 25 25 26 26 27 27 28 28 29 29 30 30 31 88 32 31 33
REMARK SMILES IDX 87 34 32 35 33 36 34 37 81 38 35 39 86 40 80 41 82 42 36 43
REMARK SMILES IDX 85 44 79 45 78 46 37 48 67 49 48 50 66 51 49 52 52 53 65 54
REMARK SMILES IDX 83 55 50 56 51 57 64 59 84 60 53 61 38 62 39 63 47 64 40 65
REMARK SMILES IDX 46 66 41 67 42 68 43 69 44 70 45 71 68 72 69 73 77 74 70 75
REMARK SMILES IDX 76 76 71 77 72 78 73 79 74 80 75 81 54 82 55 83 63 84 56 85
REMARK SMILES IDX 62 86 57 87 58 88 59 89 60 90 61 91
REMARK H PARENT 19 9 82 47 52 58
REMARK Flexibility Score: inf
ROOT
ATOM      1  C   UNL A   1      31.778  29.213  26.059  1.00  0.00     0.274 C 
ENDROOT
BRANCH   1   2
ATOM      2  O   UNL A   1      32.129  29.877  24.832  1.00  0.00    -0.461 OA
BRANCH   2   3
ATOM      3  C   UNL A   1      32.168  29.099  23.716  1.00  0.00     0.325 C 
ATOM      4  O   UNL A   1      33.064  29.120  22.880  1.00  0.00    -0.250 OA
BRANCH   3   5
ATOM      5  C   UNL A   1      30.950  28.192  23.596  1.00  0.00     0.238 C 
BRANCH   5   6
ATOM      6  N   UNL A   1      31.216  26.770  23.430  1.00  0.00    -0.344 N 
ATOM      7  O   UNL A   1      29.275  26.099  24.420  1.00  0.00    -0.273 OA
ATOM      8  C   UNL A   1      30.252  25.839  23.719  1.00  0.00     0.240 C 
ATOM      9  H   UNL A   1      32.098  26.473  23.108  1.00  0.00     0.164 HD
BRANCH   8  10
ATOM     10  C   UNL A   1      30.499  24.412  23.231  1.00  0.00     0.229 C 
BRANCH  10  11
ATOM     11  N   UNL A   1      31.667  23.712  23.747  1.00  0.00    -0.259 N 
ATOM     12  C   UNL A   1      31.698  23.172  25.005  1.00  0.00     0.294 C 
ATOM     13  C   UNL A   1      32.897  23.969  23.179  1.00  0.00     0.268 C 
ATOM     14  O   UNL A   1      30.785  23.104  25.813  1.00  0.00    -0.261 OA
ATOM     15  S   UNL A   1      33.311  22.601  25.379  1.00  0.00    -0.022 SA
ATOM     16  C   UNL A   1      33.986  23.364  23.995  1.00  0.00     0.083 C 
ATOM     17  O   UNL A   1      33.097  24.665  22.192  1.00  0.00    -0.268 OA
ATOM     18  C   UNL A   1      35.283  23.487  23.676  1.00  0.00     0.029 C 
BRANCH  18  19
ATOM     19  C   UNL A   1      36.402  22.908  24.433  1.00  0.00    -0.021 A 
ATOM     20  C   UNL A   1      37.144  23.698  25.324  1.00  0.00     0.008 A 
ATOM     21  C   UNL A   1      36.728  21.556  24.286  1.00  0.00     0.047 A 
ATOM     22  C   UNL A   1      38.218  23.154  26.033  1.00  0.00     0.004 A 
ATOM     23  C   UNL A   1      37.800  21.025  25.001  1.00  0.00     0.123 A 
ATOM     24  C   UNL A   1      38.550  21.813  25.867  1.00  0.00     0.039 A 
ATOM     25  F   UNL A   1      38.115  19.731  24.848  1.00  0.00    -0.207 F 
ENDBRANCH  18  19
ENDBRANCH  10  11
ENDBRANCH   8  10
ENDBRANCH   5   6
ENDBRANCH   3   5
ENDBRANCH   2   3
ENDBRANCH   1   2
BRANCH   1  26
ATOM     26  C   UNL A   1      32.411  29.943  27.246  1.00  0.00     0.275 C 
BRANCH  26  27
ATOM     27  O   UNL A   1      33.783  29.554  27.450  1.00  0.00    -0.458 OA
BRANCH  27  28
ATOM     28  C   UNL A   1      34.583  30.490  28.012  1.00  0.00     0.338 C 
ATOM     29  O   UNL A   1      34.272  31.605  28.403  1.00  0.00    -0.246 OA
BRANCH  28  30
ATOM     30  C   UNL A   1      35.925  29.929  28.225  1.00  0.00     0.060 A 
ATOM     31  C   UNL A   1      36.212  29.370  29.473  1.00  0.00     0.016 A 
ATOM     32  C   UNL A   1      36.918  30.041  27.251  1.00  0.00     0.016 A 
ATOM     33  C   UNL A   1      37.507  28.961  29.773  1.00  0.00     0.010 A 
ATOM     34  C   UNL A   1      38.213  29.608  27.546  1.00  0.00     0.010 A 
ATOM     35  C   UNL A   1      38.522  29.087  28.817  1.00  0.00    -0.014 A 
BRANCH  35  36
ATOM     36  C   UNL A   1      39.917  28.721  29.166  1.00  0.00     0.031 A 
ATOM     37  C   UNL A   1      40.796  29.718  29.872  1.00  0.00     0.074 A 
ATOM     38  C   UNL A   1      40.388  27.497  28.863  1.00  0.00     0.049 A 
ATOM     39  N   UNL A   1      42.063  29.629  30.181  1.00  0.00    -0.248 NA
ATOM     40  C   UNL A   1      40.165  30.985  30.280  1.00  0.00     0.031 C 
ATOM     41  C   UNL A   1      39.615  26.427  28.226  1.00  0.00     0.029 A 
ATOM     42  N   UNL A   1      41.630  26.946  29.046  1.00  0.00    -0.354 N 
ATOM     43  C   UNL A   1      42.389  30.833  30.796  1.00  0.00     0.074 A 
ATOM     44  C   UNL A   1      41.192  31.646  30.794  1.00  0.00     0.031 C 
ATOM     45  C   UNL A   1      40.400  25.349  28.080  1.00  0.00     0.029 A 
ATOM     46  C   UNL A   1      41.743  25.667  28.552  1.00  0.00     0.049 A 
ATOM     47  H   UNL A   1      42.371  27.421  29.489  1.00  0.00     0.167 HD
ATOM     48  C   UNL A   1      43.578  31.219  31.319  1.00  0.00     0.031 A 
ATOM     49  C   UNL A   1      42.815  24.857  28.461  1.00  0.00     0.031 A 
ATOM     50  C   UNL A   1      44.763  30.401  31.313  1.00  0.00     0.049 A 
ATOM     51  C   UNL A   1      44.144  25.343  28.975  1.00  0.00     0.074 A 
ATOM     52  C   UNL A   1      46.015  30.700  31.823  1.00  0.00     0.029 A 
ATOM     53  N   UNL A   1      44.845  29.127  30.771  1.00  0.00    -0.354 N 
ATOM     54  N   UNL A   1      44.437  26.485  29.553  1.00  0.00    -0.248 NA
ATOM     55  C   UNL A   1      45.285  24.430  28.828  1.00  0.00     0.031 C 
ATOM     56  C   UNL A   1      46.869  29.631  31.534  1.00  0.00     0.029 A 
ATOM     57  C   UNL A   1      46.131  28.636  30.912  1.00  0.00     0.049 A 
ATOM     58  H   UNL A   1      44.099  28.644  30.350  1.00  0.00     0.167 HD
ATOM     59  C   UNL A   1      45.788  26.411  29.871  1.00  0.00     0.074 A 
ATOM     60  C   UNL A   1      46.251  25.110  29.432  1.00  0.00     0.031 C 
ATOM     61  C   UNL A   1      46.575  27.335  30.476  1.00  0.00     0.031 A 
BRANCH  48  62
ATOM     62  C   UNL A   1      43.667  32.603  31.908  1.00  0.00    -0.014 A 
ATOM     63  C   UNL A   1      43.507  32.823  33.289  1.00  0.00     0.010 A 
ATOM     64  C   UNL A   1      43.963  33.697  31.073  1.00  0.00     0.010 A 
ATOM     65  C   UNL A   1      43.604  34.114  33.815  1.00  0.00     0.020 A 
ATOM     66  C   UNL A   1      44.092  34.985  31.600  1.00  0.00     0.020 A 
ATOM     67  C   UNL A   1      43.894  35.187  32.967  1.00  0.00     0.054 A 
BRANCH  67  68
ATOM     68  S   UNL A   1      44.035  36.847  33.685  1.00  0.00     0.124 S 
ATOM     69  O   UNL A   1      44.887  36.599  34.846  1.00  0.00    -0.237 OA
ATOM     70  O   UNL A   1      44.657  37.609  32.604  1.00  0.00    -0.237 OA
ATOM     71  O   UNL A   1      42.655  37.214  33.991  1.00  0.00    -0.744 OA
ENDBRANCH  67  68
ENDBRANCH  48  62
BRANCH  49  72
ATOM     72  C   UNL A   1      42.684  23.514  27.829  1.00  0.00    -0.014 A 
ATOM     73  C   UNL A   1      42.073  22.452  28.520  1.00  0.00     0.010 A 
ATOM     74  C   UNL A   1      43.175  23.290  26.530  1.00  0.00     0.010 A 
ATOM     75  C   UNL A   1      41.981  21.187  27.933  1.00  0.00     0.020 A 
ATOM     76  C   UNL A   1      43.053  22.035  25.927  1.00  0.00     0.020 A 
ATOM     77  C   UNL A   1      42.470  20.987  26.640  1.00  0.00     0.054 A 
BRANCH  77  78
ATOM     78  S   UNL A   1      42.309  19.343  25.888  1.00  0.00     0.124 S 
ATOM     79  O   UNL A   1      42.935  18.488  26.891  1.00  0.00    -0.237 OA
ATOM     80  O   UNL A   1      40.862  19.202  25.749  1.00  0.00    -0.237 OA
ATOM     81  O   UNL A   1      43.039  19.470  24.629  1.00  0.00    -0.744 OA
ENDBRANCH  77  78
ENDBRANCH  49  72
BRANCH  61  82
ATOM     82  C   UNL A   1      48.007  26.956  30.753  1.00  0.00    -0.014 A 
ATOM     83  C   UNL A   1      49.037  27.260  29.846  1.00  0.00     0.010 A 
ATOM     84  C   UNL A   1      48.331  26.337  31.975  1.00  0.00     0.010 A 
ATOM     85  C   UNL A   1      50.362  26.924  30.144  1.00  0.00     0.020 A 
ATOM     86  C   UNL A   1      49.656  26.029  32.291  1.00  0.00     0.020 A 
ATOM     87  C   UNL A   1      50.662  26.313  31.366  1.00  0.00     0.054 A 
BRANCH  87  88
ATOM     88  S   UNL A   1      52.394  25.935  31.749  1.00  0.00     0.124 S 
ATOM     89  O   UNL A   1      53.059  26.239  30.485  1.00  0.00    -0.237 OA
ATOM     90  O   UNL A   1      52.685  26.852  32.849  1.00  0.00    -0.237 OA
ATOM     91  O   UNL A   1      52.369  24.521  32.114  1.00  0.00    -0.744 OA
ENDBRANCH  87  88
ENDBRANCH  61  82
ENDBRANCH  35  36
ENDBRANCH  28  30
ENDBRANCH  27  28
ENDBRANCH  26  27
ENDBRANCH   1  26
TORSDOF 18
ENDMDL
MODEL 2
REMARK VINA RESULT:     -10.6      4.280      6.381
REMARK SMILES O=C(CN1C(=O)S/C(=C\c2cccc(F)c2)C1=O)NCC(=O)OCCOC(=O)c1ccc(-c2c3nc(c(-c4ccc(S(=O)(=O)[O-])cc4)c4ccc([nH]4)c(-c4ccc(S(=O)(=O)[O-])cc4)c4nc(c(-c5ccc(S(=O)(=O)[O-])cc5)c5ccc2[nH]5)C=C4)C=C3)cc1
REMARK SMILES IDX 24 1 23 2 21 3 22 4 20 5 19 6 1 7 2 8 3 10 4 11 5 12 17 13
REMARK SMILES IDX 6 14 7 15 8 16 18 17 9 18 10 19 11 20 16 21 12 22 14 23
REMARK SMILES IDX 13 24 15 25 25 26 26 27 27 28 28 29 29 30 30 31 88 32 31 33
REMARK SMILES IDX 87 34 32 35 33 36 34 37 81 38 35 39 86 40 80 41 82 42 36 43
REMARK SMILES IDX 85 44 79 45 78 46 37 48 67 49 48 50 66 51 49 52 52 53 65 54
REMARK SMILES IDX 83 55 50 56 51 57 64 59 84 60 53 61 38 62 39 63 47 64 40 65
REMARK SMILES IDX 46 66 41 67 42 68 43 69 44 70 45 71 68 72 69 73 77 74 70 75
REMARK SMILES IDX 76 76 71 77 72 78 73 79 74 80 75 81 54 82 55 83 63 84 56 85
REMARK SMILES IDX 62 86 57 87 58 88 59 89 60 90 61 91
REMARK H PARENT 19 9 82 47 52 58
REMARK Flexibility Score: inf
ROOT
ATOM      1  C   UNL A   1      35.052  33.113  33.221  1.00  0.00     0.274 C 
ENDROOT
BRANCH   1   2
ATOM      2  O   UNL A   1      33.916  33.978  33.040  1.00  0.00    -0.461 OA
BRANCH   2   3
ATOM      3  C   UNL A   1      34.160  35.315  33.112  1.00  0.00     0.325 C 
ATOM      4  O   UNL A   1      34.506  35.909  34.126  1.00  0.00    -0.250 OA
BRANCH   3   5
ATOM      5  C   UNL A   1      33.936  36.020  31.780  1.00  0.00     0.238 C 
BRANCH   5   6
ATOM      6  N   UNL A   1      34.205  35.238  30.581  1.00  0.00    -0.344 N 
ATOM      7  O   UNL A   1      32.428  36.066  29.416  1.00  0.00    -0.273 OA
ATOM      8  C   UNL A   1      33.501  35.464  29.426  1.00  0.00     0.240 C 
ATOM      9  H   UNL A   1      34.899  34.539  30.600  1.00  0.00     0.164 HD
BRANCH   8  10
ATOM     10  C   UNL A   1      34.047  34.828  28.148  1.00  0.00     0.229 C 
BRANCH  10  11
ATOM     11  N   UNL A   1      33.970  33.379  28.025  1.00  0.00    -0.259 N 
ATOM     12  C   UNL A   1      35.085  32.585  28.043  1.00  0.00     0.294 C 
ATOM     13  C   UNL A   1      32.852  32.824  27.438  1.00  0.00     0.268 C 
ATOM     14  O   UNL A   1      36.240  32.921  28.250  1.00  0.00    -0.261 OA
ATOM     15  S   UNL A   1      34.656  30.931  27.656  1.00  0.00    -0.022 SA
ATOM     16  C   UNL A   1      33.068  31.374  27.172  1.00  0.00     0.083 C 
ATOM     17  O   UNL A   1      31.847  33.433  27.096  1.00  0.00    -0.268 OA
ATOM     18  C   UNL A   1      32.143  30.601  26.583  1.00  0.00     0.029 C 
BRANCH  18  19
ATOM     19  C   UNL A   1      32.291  29.166  26.303  1.00  0.00    -0.021 A 
ATOM     20  C   UNL A   1      31.563  28.219  27.038  1.00  0.00     0.008 A 
ATOM     21  C   UNL A   1      33.147  28.730  25.286  1.00  0.00     0.047 A 
ATOM     22  C   UNL A   1      31.713  26.852  26.784  1.00  0.00     0.004 A 
ATOM     23  C   UNL A   1      33.286  27.366  25.042  1.00  0.00     0.123 A 
ATOM     24  C   UNL A   1      32.582  26.424  25.785  1.00  0.00     0.039 A 
ATOM     25  F   UNL A   1      34.116  26.953  24.074  1.00  0.00    -0.207 F 
ENDBRANCH  18  19
ENDBRANCH  10  11
ENDBRANCH   8  10
ENDBRANCH   5   6
ENDBRANCH   3   5
ENDBRANCH   2   3
ENDBRANCH   1   2
BRANCH   1  26
ATOM     26  C   UNL A   1      35.302  32.307  31.943  1.00  0.00     0.275 C 
BRANCH  26  27
ATOM     27  O   UNL A   1      36.664  31.846  31.853  1.00  0.00    -0.458 OA
BRANCH  27  28
ATOM     28  C   UNL A   1      36.826  30.567  31.443  1.00  0.00     0.338 C 
ATOM     29  O   UNL A   1      35.977  29.692  31.362  1.00  0.00    -0.246 OA
BRANCH  28  30
ATOM     30  C   UNL A   1      38.201  30.375  30.958  1.00  0.00     0.060 A 
ATOM     31  C   UNL A   1      38.410  30.337  29.578  1.00  0.00     0.016 A 
ATOM     32  C   UNL A   1      39.252  30.133  31.844  1.00  0.00     0.016 A 
ATOM     33  C   UNL A   1      39.664  30.012  29.071  1.00  0.00     0.010 A 
ATOM     34  C   UNL A   1      40.517  29.830  31.332  1.00  0.00     0.010 A 
ATOM     35  C   UNL A   1      40.725  29.744  29.943  1.00  0.00    -0.014 A 
BRANCH  35  36
ATOM     36  C   UNL A   1      42.041  29.321  29.400  1.00  0.00     0.031 A 
ATOM     37  C   UNL A   1      43.170  30.313  29.323  1.00  0.00     0.074 A 
ATOM     38  C   UNL A   1      42.223  28.051  28.991  1.00  0.00     0.049 A 
ATOM     39  N   UNL A   1      44.360  30.170  28.800  1.00  0.00    -0.248 NA
ATOM     40  C   UNL A   1      42.925  31.642  29.908  1.00  0.00     0.031 C 
ATOM     41  C   UNL A   1      41.220  26.987  29.065  1.00  0.00     0.029 A 
ATOM     42  N   UNL A   1      43.315  27.442  28.429  1.00  0.00    -0.354 N 
ATOM     43  C   UNL A   1      44.998  31.394  28.970  1.00  0.00     0.074 A 
ATOM     44  C   UNL A   1      44.053  32.276  29.621  1.00  0.00     0.031 C 
ATOM     45  C   UNL A   1      41.747  25.855  28.573  1.00  0.00     0.029 A 
ATOM     46  C   UNL A   1      43.098  26.126  28.094  1.00  0.00     0.049 A 
ATOM     47  H   UNL A   1      44.173  27.903  28.279  1.00  0.00     0.167 HD
ATOM     48  C   UNL A   1      46.257  31.746  28.618  1.00  0.00     0.031 A 
ATOM     49  C   UNL A   1      43.886  25.248  27.445  1.00  0.00     0.031 A 
ATOM     50  C   UNL A   1      47.188  30.860  27.968  1.00  0.00     0.049 A 
ATOM     51  C   UNL A   1      45.252  25.689  26.991  1.00  0.00     0.074 A 
ATOM     52  C   UNL A   1      48.490  31.119  27.576  1.00  0.00     0.029 A 
ATOM     53  N   UNL A   1      46.917  29.547  27.613  1.00  0.00    -0.354 N 
ATOM     54  N   UNL A   1      45.841  26.851  27.157  1.00  0.00    -0.248 NA
ATOM     55  C   UNL A   1      46.061  24.701  26.265  1.00  0.00     0.031 C 
ATOM     56  C   UNL A   1      48.984  29.982  26.929  1.00  0.00     0.029 A 
ATOM     57  C   UNL A   1      48.018  28.990  26.985  1.00  0.00     0.049 A 
ATOM     58  H   UNL A   1      46.069  29.079  27.784  1.00  0.00     0.167 HD
ATOM     59  C   UNL A   1      47.103  26.719  26.589  1.00  0.00     0.074 A 
ATOM     60  C   UNL A   1      47.196  25.364  26.085  1.00  0.00     0.031 C 
ATOM     61  C   UNL A   1      48.098  27.636  26.495  1.00  0.00     0.031 A 
BRANCH  48  62
ATOM     62  C   UNL A   1      46.693  33.162  28.895  1.00  0.00    -0.014 A 
ATOM     63  C   UNL A   1      46.472  34.192  27.963  1.00  0.00     0.010 A 
ATOM     64  C   UNL A   1      47.292  33.476  30.129  1.00  0.00     0.010 A 
ATOM     65  C   UNL A   1      46.875  35.500  28.245  1.00  0.00     0.020 A 
ATOM     66  C   UNL A   1      47.670  34.788  30.429  1.00  0.00     0.020 A 
ATOM     67  C   UNL A   1      47.473  35.789  29.476  1.00  0.00     0.054 A 
BRANCH  67  68
ATOM     68  S   UNL A   1      47.966  37.501  29.821  1.00  0.00     0.124 S 
ATOM     69  O   UNL A   1      48.508  37.921  28.530  1.00  0.00    -0.237 OA
ATOM     70  O   UNL A   1      46.701  38.125  30.202  1.00  0.00    -0.237 OA
ATOM     71  O   UNL A   1      48.945  37.372  30.897  1.00  0.00    -0.744 OA
ENDBRANCH  67  68
ENDBRANCH  48  62
BRANCH  49  72
ATOM     72  C   UNL A   1      43.392  23.872  27.157  1.00  0.00    -0.014 A 
ATOM     73  C   UNL A   1      42.903  23.537  25.882  1.00  0.00     0.010 A 
ATOM     74  C   UNL A   1      43.406  22.888  28.163  1.00  0.00     0.010 A 
ATOM     75  C   UNL A   1      42.413  22.252  25.628  1.00  0.00     0.020 A 
ATOM     76  C   UNL A   1      42.949  21.593  27.902  1.00  0.00     0.020 A 
ATOM     77  C   UNL A   1      42.440  21.288  26.640  1.00  0.00     0.054 A 
BRANCH  77  78
ATOM     78  S   UNL A   1      41.829  19.620  26.275  1.00  0.00     0.124 S 
ATOM     79  O   UNL A   1      42.157  18.902  27.502  1.00  0.00    -0.237 OA
ATOM     80  O   UNL A   1      40.407  19.851  26.037  1.00  0.00    -0.237 OA
ATOM     81  O   UNL A   1      42.595  19.224  25.095  1.00  0.00    -0.744 OA
ENDBRANCH  77  78
ENDBRANCH  49  72
BRANCH  61  82
ATOM     82  C   UNL A   1      49.398  27.194  25.875  1.00  0.00    -0.014 A 
ATOM     83  C   UNL A   1      49.630  27.308  24.493  1.00  0.00     0.010 A 
ATOM     84  C   UNL A   1      50.426  26.709  26.705  1.00  0.00     0.010 A 
ATOM     85  C   UNL A   1      50.857  26.917  23.949  1.00  0.00     0.020 A 
ATOM     86  C   UNL A   1      51.665  26.349  26.170  1.00  0.00     0.020 A 
ATOM     87  C   UNL A   1      51.868  26.443  24.792  1.00  0.00     0.054 A 
BRANCH  87  88
ATOM     88  S   UNL A   1      53.467  25.992  24.067  1.00  0.00     0.124 S 
ATOM     89  O   UNL A   1      53.656  24.633  24.565  1.00  0.00    -0.237 OA
ATOM     90  O   UNL A   1      53.212  26.107  22.633  1.00  0.00    -0.237 OA
ATOM     91  O   UNL A   1      54.389  26.987  24.612  1.00  0.00    -0.744 OA
ENDBRANCH  87  88
ENDBRANCH  61  82
ENDBRANCH  35  36
ENDBRANCH  28  30
ENDBRANCH  27  28
ENDBRANCH  26  27
ENDBRANCH   1  26
TORSDOF 18
ENDMDL
MODEL 3
REMARK VINA RESULT:     -10.6      2.564      3.162
REMARK SMILES O=C(CN1C(=O)S/C(=C\c2cccc(F)c2)C1=O)NCC(=O)OCCOC(=O)c1ccc(-c2c3nc(c(-c4ccc(S(=O)(=O)[O-])cc4)c4ccc([nH]4)c(-c4ccc(S(=O)(=O)[O-])cc4)c4nc(c(-c5ccc(S(=O)(=O)[O-])cc5)c5ccc2[nH]5)C=C4)C=C3)cc1
REMARK SMILES IDX 24 1 23 2 21 3 22 4 20 5 19 6 1 7 2 8 3 10 4 11 5 12 17 13
REMARK SMILES IDX 6 14 7 15 8 16 18 17 9 18 10 19 11 20 16 21 12 22 14 23
REMARK SMILES IDX 13 24 15 25 25 26 26 27 27 28 28 29 29 30 30 31 88 32 31 33
REMARK SMILES IDX 87 34 32 35 33 36 34 37 81 38 35 39 86 40 80 41 82 42 36 43
REMARK SMILES IDX 85 44 79 45 78 46 37 48 67 49 48 50 66 51 49 52 52 53 65 54
REMARK SMILES IDX 83 55 50 56 51 57 64 59 84 60 53 61 38 62 39 63 47 64 40 65
REMARK SMILES IDX 46 66 41 67 42 68 43 69 44 70 45 71 68 72 69 73 77 74 70 75
REMARK SMILES IDX 76 76 71 77 72 78 73 79 74 80 75 81 54 82 55 83 63 84 56 85
REMARK SMILES IDX 62 86 57 87 58 88 59 89 60 90 61 91
REMARK H PARENT 19 9 82 47 52 58
REMARK Flexibility Score: inf
ROOT
ATOM      1  C   UNL A   1      31.752  29.734  26.104  1.00  0.00     0.274 C 
ENDROOT
BRANCH   1   2
ATOM      2  O   UNL A   1      32.560  29.425  24.955  1.00  0.00    -0.461 OA
BRANCH   2   3
ATOM      3  C   UNL A   1      31.953  28.714  23.966  1.00  0.00     0.325 C 
ATOM      4  O   UNL A   1      32.158  28.868  22.767  1.00  0.00    -0.250 OA
BRANCH   3   5
ATOM      5  C   UNL A   1      30.957  27.696  24.507  1.00  0.00     0.238 C 
BRANCH   5   6
ATOM      6  N   UNL A   1      31.402  26.310  24.543  1.00  0.00    -0.344 N 
ATOM      7  O   UNL A   1      30.026  25.715  26.260  1.00  0.00    -0.273 OA
ATOM      8  C   UNL A   1      30.760  25.388  25.328  1.00  0.00     0.240 C 
ATOM      9  H   UNL A   1      32.173  26.032  23.997  1.00  0.00     0.164 HD
BRANCH   8  10
ATOM     10  C   UNL A   1      31.085  23.917  25.076  1.00  0.00     0.229 C 
BRANCH  10  11
ATOM     11  N   UNL A   1      32.391  23.429  25.497  1.00  0.00    -0.259 N 
ATOM     12  C   UNL A   1      32.678  23.153  26.807  1.00  0.00     0.294 C 
ATOM     13  C   UNL A   1      33.480  23.667  24.686  1.00  0.00     0.268 C 
ATOM     14  O   UNL A   1      31.917  23.173  27.761  1.00  0.00    -0.261 OA
ATOM     15  S   UNL A   1      34.384  22.800  26.990  1.00  0.00    -0.022 SA
ATOM     16  C   UNL A   1      34.744  23.326  25.395  1.00  0.00     0.083 C 
ATOM     17  O   UNL A   1      33.443  24.168  23.570  1.00  0.00    -0.268 OA
ATOM     18  C   UNL A   1      35.953  23.488  24.836  1.00  0.00     0.029 C 
BRANCH  18  19
ATOM     19  C   UNL A   1      37.235  23.163  25.478  1.00  0.00    -0.021 A 
ATOM     20  C   UNL A   1      37.905  24.119  26.255  1.00  0.00     0.008 A 
ATOM     21  C   UNL A   1      37.792  21.888  25.336  1.00  0.00     0.047 A 
ATOM     22  C   UNL A   1      39.131  23.818  26.854  1.00  0.00     0.004 A 
ATOM     23  C   UNL A   1      39.014  21.600  25.940  1.00  0.00     0.123 A 
ATOM     24  C   UNL A   1      39.690  22.554  26.691  1.00  0.00     0.039 A 
ATOM     25  F   UNL A   1      39.548  20.379  25.790  1.00  0.00    -0.207 F 
ENDBRANCH  18  19
ENDBRANCH  10  11
ENDBRANCH   8  10
ENDBRANCH   5   6
ENDBRANCH   3   5
ENDBRANCH   2   3
ENDBRANCH   1   2
BRANCH   1  26
ATOM     26  C   UNL A   1      32.376  30.896  26.882  1.00  0.00     0.275 C 
BRANCH  26  27
ATOM     27  O   UNL A   1      33.647  30.540  27.458  1.00  0.00    -0.458 OA
BRANCH  27  28
ATOM     28  C   UNL A   1      34.419  31.575  27.866  1.00  0.00     0.338 C 
ATOM     29  O   UNL A   1      34.107  32.753  27.953  1.00  0.00    -0.246 OA
BRANCH  28  30
ATOM     30  C   UNL A   1      35.714  31.067  28.340  1.00  0.00     0.060 A 
ATOM     31  C   UNL A   1      35.747  29.801  28.928  1.00  0.00     0.016 A 
ATOM     32  C   UNL A   1      36.860  31.863  28.302  1.00  0.00     0.016 A 
ATOM     33  C   UNL A   1      36.917  29.338  29.523  1.00  0.00     0.010 A 
ATOM     34  C   UNL A   1      38.040  31.387  28.879  1.00  0.00     0.010 A 
ATOM     35  C   UNL A   1      38.070  30.131  29.514  1.00  0.00    -0.014 A 
BRANCH  35  36
ATOM     36  C   UNL A   1      39.292  29.668  30.217  1.00  0.00     0.031 A 
ATOM     37  C   UNL A   1      39.735  30.358  31.479  1.00  0.00     0.074 A 
ATOM     38  C   UNL A   1      39.992  28.625  29.732  1.00  0.00     0.049 A 
ATOM     39  N   UNL A   1      40.817  30.168  32.188  1.00  0.00    -0.248 NA
ATOM     40  C   UNL A   1      38.844  31.404  32.009  1.00  0.00     0.031 C 
ATOM     41  C   UNL A   1      39.633  27.843  28.547  1.00  0.00     0.029 A 
ATOM     42  N   UNL A   1      41.154  28.046  30.173  1.00  0.00    -0.354 N 
ATOM     43  C   UNL A   1      40.751  31.083  33.233  1.00  0.00     0.074 A 
ATOM     44  C   UNL A   1      39.536  31.846  33.050  1.00  0.00     0.031 C 
ATOM     45  C   UNL A   1      40.552  26.883  28.361  1.00  0.00     0.029 A 
ATOM     46  C   UNL A   1      41.595  27.018  29.373  1.00  0.00     0.049 A 
ATOM     47  H   UNL A   1      41.627  28.338  30.987  1.00  0.00     0.167 HD
ATOM     48  C   UNL A   1      41.625  31.264  34.252  1.00  0.00     0.031 A 
ATOM     49  C   UNL A   1      42.726  26.290  29.428  1.00  0.00     0.031 A 
ATOM     50  C   UNL A   1      42.833  30.499  34.422  1.00  0.00     0.049 A 
ATOM     51  C   UNL A   1      43.720  26.568  30.524  1.00  0.00     0.074 A 
ATOM     52  C   UNL A   1      43.781  30.603  35.426  1.00  0.00     0.029 A 
ATOM     53  N   UNL A   1      43.261  29.493  33.569  1.00  0.00    -0.354 N 
ATOM     54  N   UNL A   1      43.645  27.438  31.504  1.00  0.00    -0.248 NA
ATOM     55  C   UNL A   1      44.949  25.764  30.524  1.00  0.00     0.031 C 
ATOM     56  C   UNL A   1      44.812  29.701  35.145  1.00  0.00     0.029 A 
ATOM     57  C   UNL A   1      44.471  28.984  34.009  1.00  0.00     0.049 A 
ATOM     58  H   UNL A   1      42.777  29.186  32.770  1.00  0.00     0.167 HD
ATOM     59  C   UNL A   1      44.800  27.259  32.257  1.00  0.00     0.074 A 
ATOM     60  C   UNL A   1      45.550  26.192  31.627  1.00  0.00     0.031 C 
ATOM     61  C   UNL A   1      45.202  27.916  33.374  1.00  0.00     0.031 A 
BRANCH  48  62
ATOM     62  C   UNL A   1      41.325  32.357  35.245  1.00  0.00    -0.014 A 
ATOM     63  C   UNL A   1      41.834  33.658  35.080  1.00  0.00     0.010 A 
ATOM     64  C   UNL A   1      40.480  32.090  36.339  1.00  0.00     0.010 A 
ATOM     65  C   UNL A   1      41.535  34.659  36.009  1.00  0.00     0.020 A 
ATOM     66  C   UNL A   1      40.152  33.095  37.253  1.00  0.00     0.020 A 
ATOM     67  C   UNL A   1      40.697  34.370  37.090  1.00  0.00     0.054 A 
BRANCH  67  68
ATOM     68  S   UNL A   1      40.310  35.697  38.266  1.00  0.00     0.124 S 
ATOM     69  O   UNL A   1      39.790  36.737  37.381  1.00  0.00    -0.237 OA
ATOM     70  O   UNL A   1      39.325  35.068  39.141  1.00  0.00    -0.237 OA
ATOM     71  O   UNL A   1      41.596  35.996  38.890  1.00  0.00    -0.744 OA
ENDBRANCH  67  68
ENDBRANCH  48  62
BRANCH  49  72
ATOM     72  C   UNL A   1      42.997  25.250  28.396  1.00  0.00    -0.014 A 
ATOM     73  C   UNL A   1      43.590  25.593  27.169  1.00  0.00     0.010 A 
ATOM     74  C   UNL A   1      42.655  23.906  28.637  1.00  0.00     0.010 A 
ATOM     75  C   UNL A   1      43.813  24.616  26.193  1.00  0.00     0.020 A 
ATOM     76  C   UNL A   1      42.909  22.922  27.678  1.00  0.00     0.020 A 
ATOM     77  C   UNL A   1      43.472  23.287  26.455  1.00  0.00     0.054 A 
BRANCH  77  78
ATOM     78  S   UNL A   1      43.801  22.033  25.186  1.00  0.00     0.124 S 
ATOM     79  O   UNL A   1      45.211  21.734  25.414  1.00  0.00    -0.237 OA
ATOM     80  O   UNL A   1      42.863  20.972  25.542  1.00  0.00    -0.237 OA
ATOM     81  O   UNL A   1      43.503  22.725  23.935  1.00  0.00    -0.744 OA
ENDBRANCH  77  78
ENDBRANCH  49  72
BRANCH  61  82
ATOM     82  C   UNL A   1      46.485  27.465  34.023  1.00  0.00    -0.014 A 
ATOM     83  C   UNL A   1      47.720  28.053  33.699  1.00  0.00     0.010 A 
ATOM     84  C   UNL A   1      46.440  26.472  35.020  1.00  0.00     0.010 A 
ATOM     85  C   UNL A   1      48.891  27.636  34.340  1.00  0.00     0.020 A 
ATOM     86  C   UNL A   1      47.602  26.075  35.686  1.00  0.00     0.020 A 
ATOM     87  C   UNL A   1      48.822  26.651  35.332  1.00  0.00     0.054 A 
BRANCH  87  88
ATOM     88  S   UNL A   1      50.348  26.166  36.183  1.00  0.00     0.124 S 
ATOM     89  O   UNL A   1      50.497  24.773  35.773  1.00  0.00    -0.237 OA
ATOM     90  O   UNL A   1      51.332  27.092  35.630  1.00  0.00    -0.237 OA
ATOM     91  O   UNL A   1      50.037  26.367  37.597  1.00  0.00    -0.744 OA
ENDBRANCH  87  88
ENDBRANCH  61  82
ENDBRANCH  35  36
ENDBRANCH  28  30
ENDBRANCH  27  28
ENDBRANCH  26  27
ENDBRANCH   1  26
TORSDOF 18
ENDMDL
