MODEL 1
REMARK VINA RESULT:     -11.7      0.000      0.000
REMARK SMILES O=C(OCCOC(=O)c1ccc(-c2c3nc(c(-c4ccc(S(=O)(=O)[O-])cc4)c4ccc([nH]4)c(-c4ccc(S(=O)(=O)[O-])cc4)c4nc(c(-c5ccc(S(=O)(=O)[O-])cc5)c5ccc2[nH]5)C=C4)C=C3)cc1)c1ccc(/C=C/c2ccc3cccc(O)c3n2)cc1
REMARK SMILES IDX 4 1 3 2 2 3 1 4 69 5 70 6 87 7 71 8 86 9 72 10 73 11 74 12
REMARK SMILES IDX 75 13 76 14 85 15 77 16 84 17 78 18 82 19 79 20 81 21 80 22
REMARK SMILES IDX 83 23 5 25 6 26 7 27 8 28 9 29 10 30 68 31 11 32 67 33 12 34
REMARK SMILES IDX 13 35 14 36 61 37 15 38 66 39 60 40 62 41 16 42 65 43 59 44
REMARK SMILES IDX 58 45 17 47 47 48 28 49 46 50 29 51 32 52 45 53 63 54 30 55
REMARK SMILES IDX 31 56 44 58 64 59 33 60 18 61 19 62 27 63 20 64 26 65 21 66
REMARK SMILES IDX 22 67 23 68 24 69 25 70 48 71 49 72 57 73 50 74 56 75 51 76
REMARK SMILES IDX 52 77 53 78 54 79 55 80 34 81 35 82 43 83 36 84 42 85 37 86
REMARK SMILES IDX 38 87 39 88 40 89 41 90
REMARK H PARENT 83 24 62 46 32 57
REMARK Flexibility Score: inf
ROOT
ATOM      1  C   UNL A   1      43.067  21.724  25.833  1.00  0.00     0.275 C 
ENDROOT
BRANCH   1   2
ATOM      2  O   UNL A   1      41.786  21.075  25.812  1.00  0.00    -0.458 OA
BRANCH   2   3
ATOM      3  C   UNL A   1      40.713  21.278  26.609  1.00  0.00     0.338 C 
ATOM      4  O   UNL A   1      40.733  20.776  27.733  1.00  0.00    -0.246 OA
BRANCH   3   5
ATOM      5  C   UNL A   1      39.443  21.948  26.163  1.00  0.00     0.060 A 
ATOM      6  C   UNL A   1      38.416  21.401  25.387  1.00  0.00     0.016 A 
ATOM      7  C   UNL A   1      39.253  23.255  26.634  1.00  0.00     0.016 A 
ATOM      8  C   UNL A   1      37.184  22.053  25.226  1.00  0.00     0.009 A 
ATOM      9  C   UNL A   1      38.048  23.926  26.426  1.00  0.00     0.009 A 
ATOM     10  C   UNL A   1      36.970  23.297  25.802  1.00  0.00    -0.026 A 
BRANCH  10  11
ATOM     11  C   UNL A   1      35.716  24.037  25.696  1.00  0.00     0.010 C 
ATOM     12  C   UNL A   1      35.009  24.376  24.599  1.00  0.00     0.029 C 
BRANCH  12  13
ATOM     13  C   UNL A   1      34.189  25.585  24.816  1.00  0.00     0.064 A 
ATOM     14  C   UNL A   1      33.600  25.572  26.078  1.00  0.00     0.029 A 
ATOM     15  N   UNL A   1      33.602  26.123  23.721  1.00  0.00    -0.245 NA
ATOM     16  C   UNL A   1      32.233  25.782  26.140  1.00  0.00     0.013 A 
ATOM     17  C   UNL A   1      32.286  26.434  23.820  1.00  0.00     0.113 A 
ATOM     18  C   UNL A   1      31.543  26.158  24.986  1.00  0.00     0.004 A 
ATOM     19  C   UNL A   1      31.590  26.988  22.746  1.00  0.00     0.141 A 
ATOM     20  C   UNL A   1      30.144  26.244  24.982  1.00  0.00     0.010 A 
ATOM     21  C   UNL A   1      30.209  27.165  22.764  1.00  0.00     0.048 A 
ATOM     22  C   UNL A   1      29.478  26.742  23.868  1.00  0.00     0.005 A 
BRANCH  19  23
ATOM     23  O   UNL A   1      32.263  27.379  21.617  1.00  0.00    -0.506 OA
ATOM     24  H   UNL A   1      32.239  26.843  20.848  1.00  0.00     0.293 HD
ENDBRANCH  19  23
ENDBRANCH  12  13
ENDBRANCH  10  11
ENDBRANCH   3   5
ENDBRANCH   2   3
ENDBRANCH   1   2
BRANCH   1  25
ATOM     25  C   UNL A   1      42.996  23.180  25.355  1.00  0.00     0.275 C 
BRANCH  25  26
ATOM     26  O   UNL A   1      42.792  24.112  26.435  1.00  0.00    -0.458 OA
BRANCH  26  27
ATOM     27  C   UNL A   1      42.441  25.373  26.067  1.00  0.00     0.338 C 
ATOM     28  O   UNL A   1      42.225  25.748  24.924  1.00  0.00    -0.246 OA
BRANCH  27  29
ATOM     29  C   UNL A   1      42.208  26.234  27.259  1.00  0.00     0.060 A 
ATOM     30  C   UNL A   1      41.092  25.956  28.057  1.00  0.00     0.016 A 
ATOM     31  C   UNL A   1      43.060  27.282  27.620  1.00  0.00     0.016 A 
ATOM     32  C   UNL A   1      40.829  26.711  29.208  1.00  0.00     0.010 A 
ATOM     33  C   UNL A   1      42.807  28.021  28.791  1.00  0.00     0.010 A 
ATOM     34  C   UNL A   1      41.688  27.747  29.601  1.00  0.00    -0.014 A 
BRANCH  34  35
ATOM     35  C   UNL A   1      41.403  28.571  30.818  1.00  0.00     0.031 A 
ATOM     36  C   UNL A   1      40.363  29.659  30.756  1.00  0.00     0.074 A 
ATOM     37  C   UNL A   1      42.022  28.340  31.997  1.00  0.00     0.049 A 
ATOM     38  N   UNL A   1      39.980  30.487  31.696  1.00  0.00    -0.248 NA
ATOM     39  C   UNL A   1      39.620  29.801  29.494  1.00  0.00     0.031 C 
ATOM     40  C   UNL A   1      42.918  27.220  32.268  1.00  0.00     0.029 A 
ATOM     41  N   UNL A   1      41.993  29.023  33.194  1.00  0.00    -0.354 N 
ATOM     42  C   UNL A   1      38.923  31.209  31.157  1.00  0.00     0.074 A 
ATOM     43  C   UNL A   1      38.772  30.779  29.785  1.00  0.00     0.031 C 
ATOM     44  C   UNL A   1      43.394  27.318  33.520  1.00  0.00     0.029 A 
ATOM     45  C   UNL A   1      42.865  28.526  34.144  1.00  0.00     0.049 A 
ATOM     46  H   UNL A   1      41.406  29.796  33.357  1.00  0.00     0.167 HD
ATOM     47  C   UNL A   1      38.116  32.111  31.765  1.00  0.00     0.031 A 
ATOM     48  C   UNL A   1      43.216  28.999  35.362  1.00  0.00     0.031 A 
ATOM     49  C   UNL A   1      38.257  32.546  33.129  1.00  0.00     0.049 A 
ATOM     50  C   UNL A   1      42.515  30.244  35.872  1.00  0.00     0.074 A 
ATOM     51  C   UNL A   1      37.451  33.421  33.837  1.00  0.00     0.029 A 
ATOM     52  N   UNL A   1      39.276  32.161  33.983  1.00  0.00    -0.354 N 
ATOM     53  N   UNL A   1      41.446  30.839  35.395  1.00  0.00    -0.248 NA
ATOM     54  C   UNL A   1      43.046  30.876  37.091  1.00  0.00     0.031 C 
ATOM     55  C   UNL A   1      38.023  33.619  35.097  1.00  0.00     0.029 A 
ATOM     56  C   UNL A   1      39.155  32.825  35.192  1.00  0.00     0.049 A 
ATOM     57  H   UNL A   1      39.982  31.511  33.763  1.00  0.00     0.167 HD
ATOM     58  C   UNL A   1      41.131  31.846  36.304  1.00  0.00     0.074 A 
ATOM     59  C   UNL A   1      42.126  31.796  37.350  1.00  0.00     0.031 C 
ATOM     60  C   UNL A   1      40.093  32.719  36.279  1.00  0.00     0.031 A 
BRANCH  47  61
ATOM     61  C   UNL A   1      36.985  32.690  30.960  1.00  0.00    -0.014 A 
ATOM     62  C   UNL A   1      35.663  32.260  31.171  1.00  0.00     0.010 A 
ATOM     63  C   UNL A   1      37.233  33.730  30.048  1.00  0.00     0.010 A 
ATOM     64  C   UNL A   1      34.610  32.847  30.467  1.00  0.00     0.020 A 
ATOM     65  C   UNL A   1      36.180  34.334  29.357  1.00  0.00     0.020 A 
ATOM     66  C   UNL A   1      34.875  33.882  29.564  1.00  0.00     0.054 A 
BRANCH  66  67
ATOM     67  S   UNL A   1      33.483  34.657  28.699  1.00  0.00     0.124 S 
ATOM     68  O   UNL A   1      32.560  34.932  29.799  1.00  0.00    -0.237 OA
ATOM     69  O   UNL A   1      34.098  35.832  28.088  1.00  0.00    -0.237 OA
ATOM     70  O   UNL A   1      33.040  33.630  27.760  1.00  0.00    -0.744 OA
ENDBRANCH  66  67
ENDBRANCH  47  61
BRANCH  48  71
ATOM     71  C   UNL A   1      44.320  28.362  36.166  1.00  0.00    -0.014 A 
ATOM     72  C   UNL A   1      45.677  28.665  35.943  1.00  0.00     0.010 A 
ATOM     73  C   UNL A   1      44.027  27.331  37.082  1.00  0.00     0.010 A 
ATOM     74  C   UNL A   1      46.696  27.885  36.511  1.00  0.00     0.020 A 
ATOM     75  C   UNL A   1      45.036  26.589  37.702  1.00  0.00     0.020 A 
ATOM     76  C   UNL A   1      46.367  26.842  37.379  1.00  0.00     0.054 A 
BRANCH  76  77
ATOM     77  S   UNL A   1      47.661  25.714  37.970  1.00  0.00     0.124 S 
ATOM     78  O   UNL A   1      48.524  26.597  38.750  1.00  0.00    -0.237 OA
ATOM     79  O   UNL A   1      46.892  24.738  38.735  1.00  0.00    -0.237 OA
ATOM     80  O   UNL A   1      48.258  25.213  36.733  1.00  0.00    -0.744 OA
ENDBRANCH  76  77
ENDBRANCH  48  71
BRANCH  60  81
ATOM     81  C   UNL A   1      39.875  33.598  37.484  1.00  0.00    -0.014 A 
ATOM     82  C   UNL A   1      40.379  34.907  37.555  1.00  0.00     0.010 A 
ATOM     83  C   UNL A   1      39.083  33.116  38.545  1.00  0.00     0.010 A 
ATOM     84  C   UNL A   1      40.117  35.708  38.672  1.00  0.00     0.020 A 
ATOM     85  C   UNL A   1      38.793  33.922  39.650  1.00  0.00     0.020 A 
ATOM     86  C   UNL A   1      39.324  35.210  39.712  1.00  0.00     0.054 A 
BRANCH  86  87
ATOM     87  S   UNL A   1      38.951  36.286  41.126  1.00  0.00     0.124 S 
ATOM     88  O   UNL A   1      40.221  36.300  41.844  1.00  0.00    -0.237 OA
ATOM     89  O   UNL A   1      38.577  37.545  40.485  1.00  0.00    -0.237 OA
ATOM     90  O   UNL A   1      37.858  35.596  41.809  1.00  0.00    -0.744 OA
ENDBRANCH  86  87
ENDBRANCH  60  81
ENDBRANCH  34  35
ENDBRANCH  27  29
ENDBRANCH  26  27
ENDBRANCH  25  26
ENDBRANCH   1  25
TORSDOF 17
ENDMDL
MODEL 2
REMARK VINA RESULT:     -11.6      1.745      8.370
REMARK SMILES O=C(OCCOC(=O)c1ccc(-c2c3nc(c(-c4ccc(S(=O)(=O)[O-])cc4)c4ccc([nH]4)c(-c4ccc(S(=O)(=O)[O-])cc4)c4nc(c(-c5ccc(S(=O)(=O)[O-])cc5)c5ccc2[nH]5)C=C4)C=C3)cc1)c1ccc(/C=C/c2ccc3cccc(O)c3n2)cc1
REMARK SMILES IDX 4 1 3 2 2 3 1 4 69 5 70 6 87 7 71 8 86 9 72 10 73 11 74 12
REMARK SMILES IDX 75 13 76 14 85 15 77 16 84 17 78 18 82 19 79 20 81 21 80 22
REMARK SMILES IDX 83 23 5 25 6 26 7 27 8 28 9 29 10 30 68 31 11 32 67 33 12 34
REMARK SMILES IDX 13 35 14 36 61 37 15 38 66 39 60 40 62 41 16 42 65 43 59 44
REMARK SMILES IDX 58 45 17 47 47 48 28 49 46 50 29 51 32 52 45 53 63 54 30 55
REMARK SMILES IDX 31 56 44 58 64 59 33 60 18 61 19 62 27 63 20 64 26 65 21 66
REMARK SMILES IDX 22 67 23 68 24 69 25 70 48 71 49 72 57 73 50 74 56 75 51 76
REMARK SMILES IDX 52 77 53 78 54 79 55 80 34 81 35 82 43 83 36 84 42 85 37 86
REMARK SMILES IDX 38 87 39 88 40 89 41 90
REMARK H PARENT 83 24 62 46 32 57
REMARK Flexibility Score: inf
ROOT
ATOM      1  C   UNL A   1      39.973  22.086  27.086  1.00  0.00     0.275 C 
ENDROOT
BRANCH   1   2
ATOM      2  O   UNL A   1      39.423  21.896  25.774  1.00  0.00    -0.458 OA
BRANCH   2   3
ATOM      3  C   UNL A   1      38.192  21.465  25.418  1.00  0.00     0.338 C 
ATOM      4  O   UNL A   1      38.065  20.276  25.127  1.00  0.00    -0.246 OA
BRANCH   3   5
ATOM      5  C   UNL A   1      37.006  22.368  25.214  1.00  0.00     0.060 A 
ATOM      6  C   UNL A   1      36.548  23.381  26.063  1.00  0.00     0.016 A 
ATOM      7  C   UNL A   1      36.323  22.201  24.002  1.00  0.00     0.016 A 
ATOM      8  C   UNL A   1      35.567  24.298  25.657  1.00  0.00     0.009 A 
ATOM      9  C   UNL A   1      35.308  23.080  23.621  1.00  0.00     0.009 A 
ATOM     10  C   UNL A   1      34.985  24.190  24.402  1.00  0.00    -0.026 A 
BRANCH  10  11
ATOM     11  C   UNL A   1      33.969  25.108  23.895  1.00  0.00     0.010 C 
ATOM     12  C   UNL A   1      32.713  25.324  24.332  1.00  0.00     0.029 C 
BRANCH  12  13
ATOM     13  C   UNL A   1      31.828  25.823  23.260  1.00  0.00     0.064 A 
ATOM     14  C   UNL A   1      32.475  26.777  22.478  1.00  0.00     0.029 A 
ATOM     15  N   UNL A   1      30.502  25.854  23.535  1.00  0.00    -0.245 NA
ATOM     16  C   UNL A   1      31.823  27.982  22.283  1.00  0.00     0.013 A 
ATOM     17  C   UNL A   1      29.840  26.998  23.237  1.00  0.00     0.113 A 
ATOM     18  C   UNL A   1      30.505  28.129  22.721  1.00  0.00     0.004 A 
ATOM     19  C   UNL A   1      28.474  27.130  23.486  1.00  0.00     0.141 A 
ATOM     20  C   UNL A   1      29.864  29.374  22.663  1.00  0.00     0.010 A 
ATOM     21  C   UNL A   1      27.804  28.343  23.343  1.00  0.00     0.048 A 
ATOM     22  C   UNL A   1      28.515  29.480  22.980  1.00  0.00     0.005 A 
BRANCH  19  23
ATOM     23  O   UNL A   1      27.739  26.045  23.890  1.00  0.00    -0.506 OA
ATOM     24  H   UNL A   1      28.049  25.178  23.715  1.00  0.00     0.293 HD
ENDBRANCH  19  23
ENDBRANCH  12  13
ENDBRANCH  10  11
ENDBRANCH   3   5
ENDBRANCH   2   3
ENDBRANCH   1   2
BRANCH   1  25
ATOM     25  C   UNL A   1      40.651  23.452  27.248  1.00  0.00     0.275 C 
BRANCH  25  26
ATOM     26  O   UNL A   1      39.726  24.551  27.136  1.00  0.00    -0.458 OA
BRANCH  26  27
ATOM     27  C   UNL A   1      40.274  25.754  26.818  1.00  0.00     0.338 C 
ATOM     28  O   UNL A   1      40.623  26.105  25.700  1.00  0.00    -0.246 OA
BRANCH  27  29
ATOM     29  C   UNL A   1      40.274  26.671  27.990  1.00  0.00     0.060 A 
ATOM     30  C   UNL A   1      39.342  26.429  29.007  1.00  0.00     0.016 A 
ATOM     31  C   UNL A   1      41.168  27.737  28.124  1.00  0.00     0.016 A 
ATOM     32  C   UNL A   1      39.306  27.238  30.151  1.00  0.00     0.010 A 
ATOM     33  C   UNL A   1      41.146  28.530  29.286  1.00  0.00     0.010 A 
ATOM     34  C   UNL A   1      40.213  28.293  30.316  1.00  0.00    -0.014 A 
BRANCH  34  35
ATOM     35  C   UNL A   1      40.167  29.175  31.525  1.00  0.00     0.031 A 
ATOM     36  C   UNL A   1      41.159  28.965  32.640  1.00  0.00     0.074 A 
ATOM     37  C   UNL A   1      39.285  30.194  31.632  1.00  0.00     0.049 A 
ATOM     38  N   UNL A   1      41.275  29.615  33.771  1.00  0.00    -0.248 NA
ATOM     39  C   UNL A   1      42.183  27.929  32.436  1.00  0.00     0.031 C 
ATOM     40  C   UNL A   1      38.384  30.637  30.573  1.00  0.00     0.029 A 
ATOM     41  N   UNL A   1      39.001  31.051  32.673  1.00  0.00    -0.354 N 
ATOM     42  C   UNL A   1      42.410  29.103  34.387  1.00  0.00     0.074 A 
ATOM     43  C   UNL A   1      42.905  28.037  33.544  1.00  0.00     0.031 C 
ATOM     44  C   UNL A   1      37.614  31.638  31.028  1.00  0.00     0.029 A 
ATOM     45  C   UNL A   1      37.938  31.899  32.427  1.00  0.00     0.049 A 
ATOM     46  H   UNL A   1      39.507  31.057  33.517  1.00  0.00     0.167 HD
ATOM     47  C   UNL A   1      43.017  29.517  35.525  1.00  0.00     0.031 A 
ATOM     48  C   UNL A   1      37.286  32.766  33.235  1.00  0.00     0.031 A 
ATOM     49  C   UNL A   1      42.534  30.576  36.370  1.00  0.00     0.049 A 
ATOM     50  C   UNL A   1      37.804  32.947  34.650  1.00  0.00     0.074 A 
ATOM     51  C   UNL A   1      43.116  31.091  37.516  1.00  0.00     0.029 A 
ATOM     52  N   UNL A   1      41.349  31.265  36.179  1.00  0.00    -0.354 N 
ATOM     53  N   UNL A   1      38.940  32.538  35.168  1.00  0.00    -0.248 NA
ATOM     54  C   UNL A   1      36.973  33.719  35.588  1.00  0.00     0.031 C 
ATOM     55  C   UNL A   1      42.247  32.043  38.057  1.00  0.00     0.029 A 
ATOM     56  C   UNL A   1      41.151  32.159  37.217  1.00  0.00     0.049 A 
ATOM     57  H   UNL A   1      40.737  31.138  35.418  1.00  0.00     0.167 HD
ATOM     58  C   UNL A   1      38.993  33.082  36.450  1.00  0.00     0.074 A 
ATOM     59  C   UNL A   1      37.774  33.834  36.639  1.00  0.00     0.031 C 
ATOM     60  C   UNL A   1      39.978  32.981  37.375  1.00  0.00     0.031 A 
BRANCH  47  61
ATOM     61  C   UNL A   1      44.293  28.829  35.925  1.00  0.00    -0.014 A 
ATOM     62  C   UNL A   1      45.538  29.326  35.501  1.00  0.00     0.010 A 
ATOM     63  C   UNL A   1      44.252  27.730  36.801  1.00  0.00     0.010 A 
ATOM     64  C   UNL A   1      46.721  28.722  35.931  1.00  0.00     0.020 A 
ATOM     65  C   UNL A   1      45.435  27.136  37.248  1.00  0.00     0.020 A 
ATOM     66  C   UNL A   1      46.663  27.630  36.802  1.00  0.00     0.054 A 
BRANCH  66  67
ATOM     67  S   UNL A   1      48.217  26.895  37.379  1.00  0.00     0.124 S 
ATOM     68  O   UNL A   1      47.971  25.470  37.171  1.00  0.00    -0.237 OA
ATOM     69  O   UNL A   1      49.207  27.498  36.490  1.00  0.00    -0.237 OA
ATOM     70  O   UNL A   1      48.303  27.312  38.776  1.00  0.00    -0.744 OA
ENDBRANCH  66  67
ENDBRANCH  47  61
BRANCH  48  71
ATOM     71  C   UNL A   1      36.038  33.479  32.783  1.00  0.00    -0.014 A 
ATOM     72  C   UNL A   1      36.089  34.687  32.059  1.00  0.00     0.010 A 
ATOM     73  C   UNL A   1      34.770  33.021  33.194  1.00  0.00     0.010 A 
ATOM     74  C   UNL A   1      34.937  35.467  31.871  1.00  0.00     0.020 A 
ATOM     75  C   UNL A   1      33.608  33.761  32.956  1.00  0.00     0.020 A 
ATOM     76  C   UNL A   1      33.704  35.002  32.332  1.00  0.00     0.054 A 
BRANCH  76  77
ATOM     77  S   UNL A   1      32.246  36.081  32.259  1.00  0.00     0.124 S 
ATOM     78  O   UNL A   1      31.150  35.160  32.547  1.00  0.00    -0.237 OA
ATOM     79  O   UNL A   1      32.539  37.064  33.296  1.00  0.00    -0.237 OA
ATOM     80  O   UNL A   1      32.274  36.589  30.888  1.00  0.00    -0.744 OA
ENDBRANCH  76  77
ENDBRANCH  48  71
BRANCH  60  81
ATOM     81  C   UNL A   1      39.870  33.818  38.624  1.00  0.00    -0.014 A 
ATOM     82  C   UNL A   1      39.353  33.304  39.825  1.00  0.00     0.010 A 
ATOM     83  C   UNL A   1      40.363  35.138  38.606  1.00  0.00     0.010 A 
ATOM     84  C   UNL A   1      39.310  34.100  40.975  1.00  0.00     0.020 A 
ATOM     85  C   UNL A   1      40.350  35.927  39.760  1.00  0.00     0.020 A 
ATOM     86  C   UNL A   1      39.810  35.405  40.936  1.00  0.00     0.054 A 
BRANCH  86  87
ATOM     87  S   UNL A   1      39.795  36.401  42.454  1.00  0.00     0.124 S 
ATOM     88  O   UNL A   1      38.644  35.854  43.167  1.00  0.00    -0.237 OA
ATOM     89  O   UNL A   1      41.098  36.107  43.046  1.00  0.00    -0.237 OA
ATOM     90  O   UNL A   1      39.633  37.771  41.970  1.00  0.00    -0.744 OA
ENDBRANCH  86  87
ENDBRANCH  60  81
ENDBRANCH  34  35
ENDBRANCH  27  29
ENDBRANCH  26  27
ENDBRANCH  25  26
ENDBRANCH   1  25
TORSDOF 17
ENDMDL
MODEL 3
REMARK VINA RESULT:     -11.6      6.447     10.711
REMARK SMILES O=C(OCCOC(=O)c1ccc(-c2c3nc(c(-c4ccc(S(=O)(=O)[O-])cc4)c4ccc([nH]4)c(-c4ccc(S(=O)(=O)[O-])cc4)c4nc(c(-c5ccc(S(=O)(=O)[O-])cc5)c5ccc2[nH]5)C=C4)C=C3)cc1)c1ccc(/C=C/c2ccc3cccc(O)c3n2)cc1
REMARK SMILES IDX 4 1 3 2 2 3 1 4 69 5 70 6 87 7 71 8 86 9 72 10 73 11 74 12
REMARK SMILES IDX 75 13 76 14 85 15 77 16 84 17 78 18 82 19 79 20 81 21 80 22
REMARK SMILES IDX 83 23 5 25 6 26 7 27 8 28 9 29 10 30 68 31 11 32 67 33 12 34
REMARK SMILES IDX 13 35 14 36 61 37 15 38 66 39 60 40 62 41 16 42 65 43 59 44
REMARK SMILES IDX 58 45 17 47 47 48 28 49 46 50 29 51 32 52 45 53 63 54 30 55
REMARK SMILES IDX 31 56 44 58 64 59 33 60 18 61 19 62 27 63 20 64 26 65 21 66
REMARK SMILES IDX 22 67 23 68 24 69 25 70 48 71 49 72 57 73 50 74 56 75 51 76
REMARK SMILES IDX 52 77 53 78 54 79 55 80 34 81 35 82 43 83 36 84 42 85 37 86
REMARK SMILES IDX 38 87 39 88 40 89 41 90
REMARK H PARENT 83 24 62 46 32 57
REMARK Flexibility Score: inf
ROOT
ATOM      1  C   UNL A   1      42.095  19.188  26.564  1.00  0.00     0.275 C 
ENDROOT
BRANCH   1   2
ATOM      2  O   UNL A   1      41.659  20.407  25.943  1.00  0.00    -0.458 OA
BRANCH   2   3
ATOM      3  C   UNL A   1      41.307  21.579  26.518  1.00  0.00     0.338 C 
ATOM      4  O   UNL A   1      42.119  22.111  27.276  1.00  0.00    -0.246 OA
BRANCH   3   5
ATOM      5  C   UNL A   1      39.941  22.198  26.409  1.00  0.00     0.060 A 
ATOM      6  C   UNL A   1      39.543  23.470  26.835  1.00  0.00     0.016 A 
ATOM      7  C   UNL A   1      38.978  21.421  25.750  1.00  0.00     0.016 A 
ATOM      8  C   UNL A   1      38.300  24.014  26.476  1.00  0.00     0.009 A 
ATOM      9  C   UNL A   1      37.722  21.943  25.442  1.00  0.00     0.009 A 
ATOM     10  C   UNL A   1      37.404  23.273  25.718  1.00  0.00    -0.026 A 
BRANCH  10  11
ATOM     11  C   UNL A   1      36.099  23.767  25.290  1.00  0.00     0.010 C 
ATOM     12  C   UNL A   1      34.922  23.764  25.948  1.00  0.00     0.029 C 
BRANCH  12  13
ATOM     13  C   UNL A   1      33.768  23.762  25.026  1.00  0.00     0.064 A 
ATOM     14  C   UNL A   1      34.137  24.207  23.758  1.00  0.00     0.029 A 
ATOM     15  N   UNL A   1      32.553  23.994  25.576  1.00  0.00    -0.245 NA
ATOM     16  C   UNL A   1      33.380  25.222  23.199  1.00  0.00     0.013 A 
ATOM     17  C   UNL A   1      31.764  24.908  24.960  1.00  0.00     0.113 A 
ATOM     18  C   UNL A   1      32.205  25.631  23.833  1.00  0.00     0.004 A 
ATOM     19  C   UNL A   1      30.497  25.220  25.452  1.00  0.00     0.141 A 
ATOM     20  C   UNL A   1      31.490  26.743  23.369  1.00  0.00     0.010 A 
ATOM     21  C   UNL A   1      29.735  26.266  24.939  1.00  0.00     0.048 A 
ATOM     22  C   UNL A   1      30.258  27.063  23.928  1.00  0.00     0.005 A 
BRANCH  19  23
ATOM     23  O   UNL A   1      29.958  24.489  26.480  1.00  0.00    -0.506 OA
ATOM     24  H   UNL A   1      30.076  23.560  26.507  1.00  0.00     0.293 HD
ENDBRANCH  19  23
ENDBRANCH  12  13
ENDBRANCH  10  11
ENDBRANCH   3   5
ENDBRANCH   2   3
ENDBRANCH   1   2
BRANCH   1  25
ATOM     25  C   UNL A   1      43.136  18.440  25.724  1.00  0.00     0.275 C 
BRANCH  25  26
ATOM     26  O   UNL A   1      43.405  19.085  24.464  1.00  0.00    -0.458 OA
BRANCH  26  27
ATOM     27  C   UNL A   1      44.680  19.523  24.284  1.00  0.00     0.338 C 
ATOM     28  O   UNL A   1      45.566  18.917  23.700  1.00  0.00    -0.246 OA
BRANCH  27  29
ATOM     29  C   UNL A   1      44.841  20.919  24.773  1.00  0.00     0.060 A 
ATOM     30  C   UNL A   1      44.471  21.959  23.910  1.00  0.00     0.016 A 
ATOM     31  C   UNL A   1      45.321  21.230  26.048  1.00  0.00     0.016 A 
ATOM     32  C   UNL A   1      44.573  23.296  24.317  1.00  0.00     0.010 A 
ATOM     33  C   UNL A   1      45.396  22.573  26.462  1.00  0.00     0.010 A 
ATOM     34  C   UNL A   1      45.025  23.625  25.602  1.00  0.00    -0.014 A 
BRANCH  34  35
ATOM     35  C   UNL A   1      45.155  25.052  26.037  1.00  0.00     0.031 A 
ATOM     36  C   UNL A   1      46.518  25.692  26.100  1.00  0.00     0.074 A 
ATOM     37  C   UNL A   1      44.075  25.809  26.335  1.00  0.00     0.049 A 
ATOM     38  N   UNL A   1      46.841  26.908  26.462  1.00  0.00    -0.248 NA
ATOM     39  C   UNL A   1      47.658  24.878  25.650  1.00  0.00     0.031 C 
ATOM     40  C   UNL A   1      42.687  25.396  26.155  1.00  0.00     0.029 A 
ATOM     41  N   UNL A   1      43.966  27.085  26.845  1.00  0.00    -0.354 N 
ATOM     42  C   UNL A   1      48.206  27.021  26.234  1.00  0.00     0.074 A 
ATOM     43  C   UNL A   1      48.668  25.729  25.778  1.00  0.00     0.031 C 
ATOM     44  C   UNL A   1      41.870  26.367  26.593  1.00  0.00     0.029 A 
ATOM     45  C   UNL A   1      42.668  27.470  27.118  1.00  0.00     0.049 A 
ATOM     46  H   UNL A   1      44.743  27.669  27.000  1.00  0.00     0.167 HD
ATOM     47  C   UNL A   1      48.996  28.116  26.345  1.00  0.00     0.031 A 
ATOM     48  C   UNL A   1      42.178  28.567  27.739  1.00  0.00     0.031 A 
ATOM     49  C   UNL A   1      48.547  29.405  26.798  1.00  0.00     0.049 A 
ATOM     50  C   UNL A   1      43.160  29.641  28.168  1.00  0.00     0.074 A 
ATOM     51  C   UNL A   1      49.273  30.580  26.893  1.00  0.00     0.029 A 
ATOM     52  N   UNL A   1      47.270  29.686  27.251  1.00  0.00    -0.354 N 
ATOM     53  N   UNL A   1      44.426  29.774  27.842  1.00  0.00    -0.248 NA
ATOM     54  C   UNL A   1      42.657  30.724  29.028  1.00  0.00     0.031 C 
ATOM     55  C   UNL A   1      48.454  31.555  27.471  1.00  0.00     0.029 A 
ATOM     56  C   UNL A   1      47.202  31.000  27.684  1.00  0.00     0.049 A 
ATOM     57  H   UNL A   1      46.521  29.047  27.265  1.00  0.00     0.167 HD
ATOM     58  C   UNL A   1      44.832  30.994  28.379  1.00  0.00     0.074 A 
ATOM     59  C   UNL A   1      43.690  31.555  29.063  1.00  0.00     0.031 C 
ATOM     60  C   UNL A   1      46.041  31.601  28.290  1.00  0.00     0.031 A 
BRANCH  47  61
ATOM     61  C   UNL A   1      50.442  27.975  25.956  1.00  0.00    -0.014 A 
ATOM     62  C   UNL A   1      51.406  27.594  26.906  1.00  0.00     0.010 A 
ATOM     63  C   UNL A   1      50.826  28.141  24.614  1.00  0.00     0.010 A 
ATOM     64  C   UNL A   1      52.735  27.401  26.523  1.00  0.00     0.020 A 
ATOM     65  C   UNL A   1      52.151  27.929  24.224  1.00  0.00     0.020 A 
ATOM     66  C   UNL A   1      53.099  27.569  25.184  1.00  0.00     0.054 A 
BRANCH  66  67
ATOM     67  S   UNL A   1      54.823  27.266  24.709  1.00  0.00     0.124 S 
ATOM     68  O   UNL A   1      55.262  26.337  25.747  1.00  0.00    -0.237 OA
ATOM     69  O   UNL A   1      54.692  26.695  23.371  1.00  0.00    -0.237 OA
ATOM     70  O   UNL A   1      55.436  28.590  24.761  1.00  0.00    -0.744 OA
ENDBRANCH  66  67
ENDBRANCH  47  61
BRANCH  48  71
ATOM     71  C   UNL A   1      40.712  28.699  28.068  1.00  0.00    -0.014 A 
ATOM     72  C   UNL A   1      39.802  29.315  27.188  1.00  0.00     0.010 A 
ATOM     73  C   UNL A   1      40.235  28.324  29.341  1.00  0.00     0.010 A 
ATOM     74  C   UNL A   1      38.508  29.660  27.610  1.00  0.00     0.020 A 
ATOM     75  C   UNL A   1      38.928  28.607  29.747  1.00  0.00     0.020 A 
ATOM     76  C   UNL A   1      38.084  29.313  28.894  1.00  0.00     0.054 A 
BRANCH  76  77
ATOM     77  S   UNL A   1      36.486  29.914  29.512  1.00  0.00     0.124 S 
ATOM     78  O   UNL A   1      36.662  31.364  29.496  1.00  0.00    -0.237 OA
ATOM     79  O   UNL A   1      35.554  29.376  28.529  1.00  0.00    -0.237 OA
ATOM     80  O   UNL A   1      36.401  29.324  30.848  1.00  0.00    -0.744 OA
ENDBRANCH  76  77
ENDBRANCH  48  71
BRANCH  60  81
ATOM     81  C   UNL A   1      46.170  33.010  28.810  1.00  0.00    -0.014 A 
ATOM     82  C   UNL A   1      46.633  33.288  30.106  1.00  0.00     0.010 A 
ATOM     83  C   UNL A   1      45.880  34.085  27.946  1.00  0.00     0.010 A 
ATOM     84  C   UNL A   1      46.781  34.612  30.536  1.00  0.00     0.020 A 
ATOM     85  C   UNL A   1      46.054  35.408  28.360  1.00  0.00     0.020 A 
ATOM     86  C   UNL A   1      46.492  35.663  29.660  1.00  0.00     0.054 A 
BRANCH  86  87
ATOM     87  S   UNL A   1      46.744  37.371  30.221  1.00  0.00     0.124 S 
ATOM     88  O   UNL A   1      48.127  37.340  30.687  1.00  0.00    -0.237 OA
ATOM     89  O   UNL A   1      46.509  38.148  29.006  1.00  0.00    -0.237 OA
ATOM     90  O   UNL A   1      45.739  37.546  31.267  1.00  0.00    -0.744 OA
ENDBRANCH  86  87
ENDBRANCH  60  81
ENDBRANCH  34  35
ENDBRANCH  27  29
ENDBRANCH  26  27
ENDBRANCH  25  26
ENDBRANCH   1  25
TORSDOF 17
ENDMDL
