MODEL 1
REMARK VINA RESULT:      -9.4      0.000      0.000
REMARK SMILES C#CCN(CC(=O)OCCOC(=O)c1ccc(-c2c3nc(c(-c4ccc(S(=O)(=O)[O-])cc4)c4ccc([nH]4)c(-c4ccc(S(=O)(=O)[O-])cc4)c4nc(c(-c5ccc(S(=O)(=O)[O-])cc5)c5ccc2[nH]5)C=C4)C=C3)cc1)c1n[nH]c(=O)[nH]c1=O
REMARK SMILES IDX 9 1 8 2 6 3 7 4 5 5 4 6 3 7 2 8 1 9 74 10 75 11 80 12 76 13
REMARK SMILES IDX 79 14 81 15 77 16 78 19 10 20 11 21 12 22 13 23 14 24 15 25
REMARK SMILES IDX 73 26 16 27 72 28 17 29 18 30 19 31 66 32 20 33 71 34 65 35
REMARK SMILES IDX 67 36 21 37 70 38 64 39 63 40 22 42 52 43 33 44 51 45 34 46
REMARK SMILES IDX 37 47 50 48 68 49 35 50 36 51 49 53 69 54 38 55 23 56 24 57
REMARK SMILES IDX 32 58 25 59 31 60 26 61 27 62 28 63 29 64 30 65 53 66 54 67
REMARK SMILES IDX 62 68 55 69 61 70 56 71 57 72 58 73 59 74 60 75 39 76 40 77
REMARK SMILES IDX 48 78 41 79 47 80 42 81 43 82 44 83 45 84 46 85
REMARK H PARENT 76 17 79 18 67 41 37 52
REMARK Flexibility Score: inf
ROOT
ATOM      1  C   UNL A   1      32.727  27.718  26.818  1.00  0.00     0.274 C 
ENDROOT
BRANCH   1   2
ATOM      2  O   UNL A   1      32.466  27.043  25.574  1.00  0.00    -0.461 OA
BRANCH   2   3
ATOM      3  C   UNL A   1      32.919  25.765  25.468  1.00  0.00     0.325 C 
ATOM      4  O   UNL A   1      32.446  24.811  26.079  1.00  0.00    -0.250 OA
BRANCH   3   5
ATOM      5  C   UNL A   1      34.042  25.596  24.444  1.00  0.00     0.242 C 
BRANCH   5   6
ATOM      6  N   UNL A   1      34.424  24.211  24.218  1.00  0.00    -0.328 N 
BRANCH   6   7
ATOM      7  C   UNL A   1      33.631  23.462  23.284  1.00  0.00     0.208 C 
BRANCH   7   8
ATOM      8  C   UNL A   1      33.244  22.128  23.902  1.00  0.00    -0.085 C 
ATOM      9  C   UNL A   1      32.913  20.983  24.431  1.00  0.00     0.006 C 
ENDBRANCH   7   8
ENDBRANCH   6   7
BRANCH   6  10
ATOM     10  C   UNL A   1      35.570  23.657  24.766  1.00  0.00     0.216 A 
ATOM     11  N   UNL A   1      35.713  23.550  26.061  1.00  0.00    -0.147 NA
ATOM     12  C   UNL A   1      36.651  23.099  23.818  1.00  0.00     0.296 A 
ATOM     13  N   UNL A   1      36.869  22.993  26.524  1.00  0.00    -0.226 N 
ATOM     14  N   UNL A   1      37.696  22.474  24.424  1.00  0.00    -0.270 N 
ATOM     15  O   UNL A   1      36.535  23.204  22.603  1.00  0.00    -0.265 OA
ATOM     16  C   UNL A   1      37.869  22.443  25.769  1.00  0.00     0.342 A 
ATOM     17  H   UNL A   1      36.998  22.987  27.500  1.00  0.00     0.195 HD
ATOM     18  H   UNL A   1      38.362  22.021  23.857  1.00  0.00     0.175 HD
ATOM     19  O   UNL A   1      38.864  21.938  26.281  1.00  0.00    -0.246 OA
ENDBRANCH   6  10
ENDBRANCH   5   6
ENDBRANCH   3   5
ENDBRANCH   2   3
ENDBRANCH   1   2
BRANCH   1  20
ATOM     20  C   UNL A   1      33.216  29.139  26.548  1.00  0.00     0.275 C 
BRANCH  20  21
ATOM     21  O   UNL A   1      33.470  29.815  27.794  1.00  0.00    -0.458 OA
BRANCH  21  22
ATOM     22  C   UNL A   1      34.485  30.707  27.759  1.00  0.00     0.338 C 
ATOM     23  O   UNL A   1      34.421  31.900  27.514  1.00  0.00    -0.246 OA
BRANCH  22  24
ATOM     24  C   UNL A   1      35.760  30.062  28.093  1.00  0.00     0.060 A 
ATOM     25  C   UNL A   1      35.992  29.596  29.387  1.00  0.00     0.016 A 
ATOM     26  C   UNL A   1      36.794  30.101  27.161  1.00  0.00     0.016 A 
ATOM     27  C   UNL A   1      37.287  29.291  29.791  1.00  0.00     0.010 A 
ATOM     28  C   UNL A   1      38.070  29.686  27.535  1.00  0.00     0.010 A 
ATOM     29  C   UNL A   1      38.337  29.319  28.865  1.00  0.00    -0.014 A 
BRANCH  29  30
ATOM     30  C   UNL A   1      39.717  28.949  29.263  1.00  0.00     0.031 A 
ATOM     31  C   UNL A   1      40.607  29.961  29.930  1.00  0.00     0.074 A 
ATOM     32  C   UNL A   1      40.180  27.719  28.972  1.00  0.00     0.049 A 
ATOM     33  N   UNL A   1      41.896  29.912  30.140  1.00  0.00    -0.248 NA
ATOM     34  C   UNL A   1      39.966  31.197  30.409  1.00  0.00     0.031 C 
ATOM     35  C   UNL A   1      39.397  26.639  28.365  1.00  0.00     0.029 A 
ATOM     36  N   UNL A   1      41.427  27.173  29.132  1.00  0.00    -0.354 N 
ATOM     37  C   UNL A   1      42.231  31.126  30.731  1.00  0.00     0.074 A 
ATOM     38  C   UNL A   1      41.008  31.892  30.847  1.00  0.00     0.031 C 
ATOM     39  C   UNL A   1      40.178  25.561  28.211  1.00  0.00     0.029 A 
ATOM     40  C   UNL A   1      41.533  25.899  28.630  1.00  0.00     0.049 A 
ATOM     41  H   UNL A   1      42.174  27.648  29.565  1.00  0.00     0.167 HD
ATOM     42  C   UNL A   1      43.452  31.562  31.127  1.00  0.00     0.031 A 
ATOM     43  C   UNL A   1      42.608  25.107  28.469  1.00  0.00     0.031 A 
ATOM     44  C   UNL A   1      44.655  30.780  31.015  1.00  0.00     0.049 A 
ATOM     45  C   UNL A   1      43.954  25.625  28.877  1.00  0.00     0.074 A 
ATOM     46  C   UNL A   1      45.944  31.120  31.389  1.00  0.00     0.029 A 
ATOM     47  N   UNL A   1      44.716  29.494  30.499  1.00  0.00    -0.354 N 
ATOM     48  N   UNL A   1      44.263  26.790  29.391  1.00  0.00    -0.248 NA
ATOM     49  C   UNL A   1      45.097  24.726  28.674  1.00  0.00     0.031 C 
ATOM     50  C   UNL A   1      46.789  30.052  31.063  1.00  0.00     0.029 A 
ATOM     51  C   UNL A   1      46.019  29.030  30.530  1.00  0.00     0.049 A 
ATOM     52  H   UNL A   1      43.944  28.985  30.159  1.00  0.00     0.167 HD
ATOM     53  C   UNL A   1      45.638  26.763  29.587  1.00  0.00     0.074 A 
ATOM     54  C   UNL A   1      46.096  25.460  29.148  1.00  0.00     0.031 C 
ATOM     55  C   UNL A   1      46.448  27.730  30.083  1.00  0.00     0.031 A 
BRANCH  42  56
ATOM     56  C   UNL A   1      43.552  32.962  31.675  1.00  0.00    -0.014 A 
ATOM     57  C   UNL A   1      43.661  34.077  30.826  1.00  0.00     0.010 A 
ATOM     58  C   UNL A   1      43.497  33.166  33.066  1.00  0.00     0.010 A 
ATOM     59  C   UNL A   1      43.752  35.367  31.359  1.00  0.00     0.020 A 
ATOM     60  C   UNL A   1      43.565  34.456  33.603  1.00  0.00     0.020 A 
ATOM     61  C   UNL A   1      43.710  35.548  32.745  1.00  0.00     0.054 A 
BRANCH  61  62
ATOM     62  S   UNL A   1      43.812  37.231  33.415  1.00  0.00     0.124 S 
ATOM     63  O   UNL A   1      43.853  38.037  32.197  1.00  0.00    -0.237 OA
ATOM     64  O   UNL A   1      42.584  37.342  34.198  1.00  0.00    -0.237 OA
ATOM     65  O   UNL A   1      45.046  37.220  34.197  1.00  0.00    -0.744 OA
ENDBRANCH  61  62
ENDBRANCH  42  56
BRANCH  43  66
ATOM     66  C   UNL A   1      42.441  23.765  27.852  1.00  0.00    -0.014 A 
ATOM     67  C   UNL A   1      42.759  23.559  26.500  1.00  0.00     0.010 A 
ATOM     68  C   UNL A   1      42.027  22.671  28.635  1.00  0.00     0.010 A 
ATOM     69  C   UNL A   1      42.666  22.280  25.940  1.00  0.00     0.020 A 
ATOM     70  C   UNL A   1      41.959  21.389  28.086  1.00  0.00     0.020 A 
ATOM     71  C   UNL A   1      42.272  21.203  26.739  1.00  0.00     0.054 A 
BRANCH  71  72
ATOM     72  S   UNL A   1      42.241  19.539  26.017  1.00  0.00     0.124 S 
ATOM     73  O   UNL A   1      43.154  19.681  24.888  1.00  0.00    -0.237 OA
ATOM     74  O   UNL A   1      42.719  18.704  27.117  1.00  0.00    -0.237 OA
ATOM     75  O   UNL A   1      40.835  19.346  25.668  1.00  0.00    -0.744 OA
ENDBRANCH  71  72
ENDBRANCH  43  66
BRANCH  55  76
ATOM     76  C   UNL A   1      47.907  27.393  30.206  1.00  0.00    -0.014 A 
ATOM     77  C   UNL A   1      48.799  27.644  29.149  1.00  0.00     0.010 A 
ATOM     78  C   UNL A   1      48.392  26.850  31.408  1.00  0.00     0.010 A 
ATOM     79  C   UNL A   1      50.153  27.329  29.283  1.00  0.00     0.020 A 
ATOM     80  C   UNL A   1      49.748  26.553  31.553  1.00  0.00     0.020 A 
ATOM     81  C   UNL A   1      50.618  26.781  30.483  1.00  0.00     0.054 A 
BRANCH  81  82
ATOM     82  S   UNL A   1      52.386  26.411  30.651  1.00  0.00     0.124 S 
ATOM     83  O   UNL A   1      52.794  26.246  29.259  1.00  0.00    -0.237 OA
ATOM     84  O   UNL A   1      52.902  27.603  31.321  1.00  0.00    -0.237 OA
ATOM     85  O   UNL A   1      52.408  25.193  31.457  1.00  0.00    -0.744 OA
ENDBRANCH  81  82
ENDBRANCH  55  76
ENDBRANCH  29  30
ENDBRANCH  22  24
ENDBRANCH  21  22
ENDBRANCH  20  21
ENDBRANCH   1  20
TORSDOF 18
ENDMDL
MODEL 2
REMARK VINA RESULT:      -9.3      2.637      3.523
REMARK SMILES C#CCN(CC(=O)OCCOC(=O)c1ccc(-c2c3nc(c(-c4ccc(S(=O)(=O)[O-])cc4)c4ccc([nH]4)c(-c4ccc(S(=O)(=O)[O-])cc4)c4nc(c(-c5ccc(S(=O)(=O)[O-])cc5)c5ccc2[nH]5)C=C4)C=C3)cc1)c1n[nH]c(=O)[nH]c1=O
REMARK SMILES IDX 9 1 8 2 6 3 7 4 5 5 4 6 3 7 2 8 1 9 74 10 75 11 80 12 76 13
REMARK SMILES IDX 79 14 81 15 77 16 78 19 10 20 11 21 12 22 13 23 14 24 15 25
REMARK SMILES IDX 73 26 16 27 72 28 17 29 18 30 19 31 66 32 20 33 71 34 65 35
REMARK SMILES IDX 67 36 21 37 70 38 64 39 63 40 22 42 52 43 33 44 51 45 34 46
REMARK SMILES IDX 37 47 50 48 68 49 35 50 36 51 49 53 69 54 38 55 23 56 24 57
REMARK SMILES IDX 32 58 25 59 31 60 26 61 27 62 28 63 29 64 30 65 53 66 54 67
REMARK SMILES IDX 62 68 55 69 61 70 56 71 57 72 58 73 59 74 60 75 39 76 40 77
REMARK SMILES IDX 48 78 41 79 47 80 42 81 43 82 44 83 45 84 46 85
REMARK H PARENT 76 17 79 18 67 41 37 52
REMARK Flexibility Score: inf
ROOT
ATOM      1  C   UNL A   1      33.485  29.825  26.600  1.00  0.00     0.274 C 
ENDROOT
BRANCH   1   2
ATOM      2  O   UNL A   1      32.376  29.320  27.365  1.00  0.00    -0.461 OA
BRANCH   2   3
ATOM      3  C   UNL A   1      32.102  27.993  27.239  1.00  0.00     0.325 C 
ATOM      4  O   UNL A   1      31.036  27.474  27.554  1.00  0.00    -0.250 OA
BRANCH   3   5
ATOM      5  C   UNL A   1      33.232  27.195  26.586  1.00  0.00     0.242 C 
BRANCH   5   6
ATOM      6  N   UNL A   1      32.765  26.164  25.672  1.00  0.00    -0.328 N 
BRANCH   6   7
ATOM      7  C   UNL A   1      32.118  26.607  24.469  1.00  0.00     0.208 C 
BRANCH   7   8
ATOM      8  C   UNL A   1      33.065  27.497  23.680  1.00  0.00    -0.085 C 
ATOM      9  C   UNL A   1      33.878  28.260  23.003  1.00  0.00     0.006 C 
ENDBRANCH   7   8
ENDBRANCH   6   7
BRANCH   6  10
ATOM     10  C   UNL A   1      33.037  24.819  25.866  1.00  0.00     0.216 A 
ATOM     11  N   UNL A   1      34.129  24.278  25.396  1.00  0.00    -0.147 NA
ATOM     12  C   UNL A   1      32.058  23.981  26.714  1.00  0.00     0.296 A 
ATOM     13  N   UNL A   1      34.326  22.948  25.630  1.00  0.00    -0.226 N 
ATOM     14  N   UNL A   1      32.443  22.697  26.954  1.00  0.00    -0.270 N 
ATOM     15  O   UNL A   1      31.025  24.473  27.150  1.00  0.00    -0.265 OA
ATOM     16  C   UNL A   1      33.538  22.130  26.392  1.00  0.00     0.342 A 
ATOM     17  H   UNL A   1      35.113  22.536  25.207  1.00  0.00     0.195 HD
ATOM     18  H   UNL A   1      31.897  22.154  27.567  1.00  0.00     0.175 HD
ATOM     19  O   UNL A   1      33.813  20.946  26.567  1.00  0.00    -0.246 OA
ENDBRANCH   6  10
ENDBRANCH   5   6
ENDBRANCH   3   5
ENDBRANCH   2   3
ENDBRANCH   1   2
BRANCH   1  20
ATOM     20  C   UNL A   1      34.353  30.727  27.473  1.00  0.00     0.275 C 
BRANCH  20  21
ATOM     21  O   UNL A   1      35.140  29.927  28.376  1.00  0.00    -0.458 OA
BRANCH  21  22
ATOM     22  C   UNL A   1      36.103  30.603  29.041  1.00  0.00     0.338 C 
ATOM     23  O   UNL A   1      35.987  31.644  29.665  1.00  0.00    -0.246 OA
BRANCH  22  24
ATOM     24  C   UNL A   1      37.388  29.901  28.955  1.00  0.00     0.060 A 
ATOM     25  C   UNL A   1      38.069  29.541  30.117  1.00  0.00     0.016 A 
ATOM     26  C   UNL A   1      38.002  29.781  27.710  1.00  0.00     0.016 A 
ATOM     27  C   UNL A   1      39.411  29.182  30.050  1.00  0.00     0.010 A 
ATOM     28  C   UNL A   1      39.312  29.310  27.634  1.00  0.00     0.010 A 
ATOM     29  C   UNL A   1      40.042  29.049  28.806  1.00  0.00    -0.014 A 
BRANCH  29  30
ATOM     30  C   UNL A   1      41.458  28.619  28.709  1.00  0.00     0.031 A 
ATOM     31  C   UNL A   1      42.565  29.626  28.859  1.00  0.00     0.074 A 
ATOM     32  C   UNL A   1      41.739  27.332  28.434  1.00  0.00     0.049 A 
ATOM     33  N   UNL A   1      43.836  29.500  28.581  1.00  0.00    -0.248 NA
ATOM     34  C   UNL A   1      42.190  30.954  29.374  1.00  0.00     0.031 C 
ATOM     35  C   UNL A   1      40.752  26.255  28.308  1.00  0.00     0.029 A 
ATOM     36  N   UNL A   1      42.937  26.711  28.190  1.00  0.00    -0.354 N 
ATOM     37  C   UNL A   1      44.406  30.742  28.840  1.00  0.00     0.074 A 
ATOM     38  C   UNL A   1      43.341  31.609  29.299  1.00  0.00     0.031 C 
ATOM     39  C   UNL A   1      41.384  25.109  28.019  1.00  0.00     0.029 A 
ATOM     40  C   UNL A   1      42.806  25.385  27.858  1.00  0.00     0.049 A 
ATOM     41  H   UNL A   1      43.806  27.171  28.249  1.00  0.00     0.167 HD
ATOM     42  C   UNL A   1      45.698  31.123  28.694  1.00  0.00     0.031 A 
ATOM     43  C   UNL A   1      43.716  24.498  27.416  1.00  0.00     0.031 A 
ATOM     44  C   UNL A   1      46.746  30.242  28.249  1.00  0.00     0.049 A 
ATOM     45  C   UNL A   1      45.132  24.951  27.224  1.00  0.00     0.074 A 
ATOM     46  C   UNL A   1      48.090  30.519  28.070  1.00  0.00     0.029 A 
ATOM     47  N   UNL A   1      46.568  28.905  27.922  1.00  0.00    -0.354 N 
ATOM     48  N   UNL A   1      45.647  26.139  27.428  1.00  0.00    -0.248 NA
ATOM     49  C   UNL A   1      46.085  23.949  26.732  1.00  0.00     0.031 C 
ATOM     50  C   UNL A   1      48.717  29.359  27.598  1.00  0.00     0.029 A 
ATOM     51  C   UNL A   1      47.772  28.347  27.529  1.00  0.00     0.049 A 
ATOM     52  H   UNL A   1      45.709  28.424  27.962  1.00  0.00     0.167 HD
ATOM     53  C   UNL A   1      46.993  26.026  27.102  1.00  0.00     0.074 A 
ATOM     54  C   UNL A   1      47.211  24.650  26.701  1.00  0.00     0.031 C 
ATOM     55  C   UNL A   1      47.959  26.976  27.131  1.00  0.00     0.031 A 
BRANCH  42  56
ATOM     56  C   UNL A   1      46.040  32.563  28.975  1.00  0.00    -0.014 A 
ATOM     57  C   UNL A   1      45.954  33.548  27.976  1.00  0.00     0.010 A 
ATOM     58  C   UNL A   1      46.421  32.942  30.276  1.00  0.00     0.010 A 
ATOM     59  C   UNL A   1      46.276  34.878  28.263  1.00  0.00     0.020 A 
ATOM     60  C   UNL A   1      46.723  34.275  30.573  1.00  0.00     0.020 A 
ATOM     61  C   UNL A   1      46.665  35.232  29.559  1.00  0.00     0.054 A 
BRANCH  61  62
ATOM     62  S   UNL A   1      47.063  36.967  29.913  1.00  0.00     0.124 S 
ATOM     63  O   UNL A   1      48.280  37.163  29.127  1.00  0.00    -0.237 OA
ATOM     64  O   UNL A   1      45.882  37.675  29.424  1.00  0.00    -0.237 OA
ATOM     65  O   UNL A   1      47.245  36.993  31.362  1.00  0.00    -0.744 OA
ENDBRANCH  61  62
ENDBRANCH  42  56
BRANCH  43  66
ATOM     66  C   UNL A   1      43.287  23.113  27.088  1.00  0.00    -0.014 A 
ATOM     67  C   UNL A   1      43.325  22.651  25.763  1.00  0.00     0.010 A 
ATOM     68  C   UNL A   1      42.904  22.228  28.113  1.00  0.00     0.010 A 
ATOM     69  C   UNL A   1      42.986  21.327  25.467  1.00  0.00     0.020 A 
ATOM     70  C   UNL A   1      42.590  20.898  27.825  1.00  0.00     0.020 A 
ATOM     71  C   UNL A   1      42.627  20.458  26.501  1.00  0.00     0.054 A 
BRANCH  71  72
ATOM     72  S   UNL A   1      42.275  18.722  26.107  1.00  0.00     0.124 S 
ATOM     73  O   UNL A   1      40.879  18.783  25.690  1.00  0.00    -0.237 OA
ATOM     74  O   UNL A   1      43.241  18.432  25.050  1.00  0.00    -0.237 OA
ATOM     75  O   UNL A   1      42.524  18.030  27.371  1.00  0.00    -0.744 OA
ENDBRANCH  71  72
ENDBRANCH  43  66
BRANCH  55  76
ATOM     76  C   UNL A   1      49.346  26.542  26.747  1.00  0.00    -0.014 A 
ATOM     77  C   UNL A   1      49.800  26.657  25.422  1.00  0.00     0.010 A 
ATOM     78  C   UNL A   1      50.213  26.045  27.736  1.00  0.00     0.010 A 
ATOM     79  C   UNL A   1      51.093  26.252  25.085  1.00  0.00     0.020 A 
ATOM     80  C   UNL A   1      51.513  25.659  27.406  1.00  0.00     0.020 A 
ATOM     81  C   UNL A   1      51.940  25.752  26.079  1.00  0.00     0.054 A 
BRANCH  81  82
ATOM     82  S   UNL A   1      53.629  25.266  25.629  1.00  0.00     0.124 S 
ATOM     83  O   UNL A   1      53.464  23.848  25.325  1.00  0.00    -0.237 OA
ATOM     84  O   UNL A   1      53.918  26.125  24.484  1.00  0.00    -0.237 OA
ATOM     85  O   UNL A   1      54.404  25.560  26.832  1.00  0.00    -0.744 OA
ENDBRANCH  81  82
ENDBRANCH  55  76
ENDBRANCH  29  30
ENDBRANCH  22  24
ENDBRANCH  21  22
ENDBRANCH  20  21
ENDBRANCH   1  20
TORSDOF 18
ENDMDL
MODEL 3
REMARK VINA RESULT:      -9.2      3.513      5.001
REMARK SMILES C#CCN(CC(=O)OCCOC(=O)c1ccc(-c2c3nc(c(-c4ccc(S(=O)(=O)[O-])cc4)c4ccc([nH]4)c(-c4ccc(S(=O)(=O)[O-])cc4)c4nc(c(-c5ccc(S(=O)(=O)[O-])cc5)c5ccc2[nH]5)C=C4)C=C3)cc1)c1n[nH]c(=O)[nH]c1=O
REMARK SMILES IDX 9 1 8 2 6 3 7 4 5 5 4 6 3 7 2 8 1 9 74 10 75 11 80 12 76 13
REMARK SMILES IDX 79 14 81 15 77 16 78 19 10 20 11 21 12 22 13 23 14 24 15 25
REMARK SMILES IDX 73 26 16 27 72 28 17 29 18 30 19 31 66 32 20 33 71 34 65 35
REMARK SMILES IDX 67 36 21 37 70 38 64 39 63 40 22 42 52 43 33 44 51 45 34 46
REMARK SMILES IDX 37 47 50 48 68 49 35 50 36 51 49 53 69 54 38 55 23 56 24 57
REMARK SMILES IDX 32 58 25 59 31 60 26 61 27 62 28 63 29 64 30 65 53 66 54 67
REMARK SMILES IDX 62 68 55 69 61 70 56 71 57 72 58 73 59 74 60 75 39 76 40 77
REMARK SMILES IDX 48 78 41 79 47 80 42 81 43 82 44 83 45 84 46 85
REMARK H PARENT 76 17 79 18 67 41 37 52
REMARK Flexibility Score: inf
ROOT
ATOM      1  C   UNL A   1      33.315  29.803  27.163  1.00  0.00     0.274 C 
ENDROOT
BRANCH   1   2
ATOM      2  O   UNL A   1      32.701  29.055  26.098  1.00  0.00    -0.461 OA
BRANCH   2   3
ATOM      3  C   UNL A   1      31.797  28.106  26.463  1.00  0.00     0.325 C 
ATOM      4  O   UNL A   1      31.567  27.780  27.624  1.00  0.00    -0.250 OA
BRANCH   3   5
ATOM      5  C   UNL A   1      31.019  27.517  25.285  1.00  0.00     0.242 C 
BRANCH   5   6
ATOM      6  N   UNL A   1      31.048  28.349  24.092  1.00  0.00    -0.328 N 
BRANCH   6   7
ATOM      7  C   UNL A   1      31.990  27.988  23.071  1.00  0.00     0.208 C 
BRANCH   7   8
ATOM      8  C   UNL A   1      31.868  26.503  22.770  1.00  0.00    -0.085 C 
ATOM      9  C   UNL A   1      31.764  25.229  22.512  1.00  0.00     0.006 C 
ENDBRANCH   7   8
ENDBRANCH   6   7
BRANCH   6  10
ATOM     10  C   UNL A   1      30.133  29.366  23.873  1.00  0.00     0.216 A 
ATOM     11  N   UNL A   1      30.438  30.612  24.123  1.00  0.00    -0.147 NA
ATOM     12  C   UNL A   1      28.764  29.012  23.256  1.00  0.00     0.296 A 
ATOM     13  N   UNL A   1      29.484  31.557  23.881  1.00  0.00    -0.226 N 
ATOM     14  N   UNL A   1      27.959  30.072  22.969  1.00  0.00    -0.270 N 
ATOM     15  O   UNL A   1      28.461  27.848  23.028  1.00  0.00    -0.265 OA
ATOM     16  C   UNL A   1      28.258  31.349  23.309  1.00  0.00     0.342 A 
ATOM     17  H   UNL A   1      29.699  32.480  24.145  1.00  0.00     0.195 HD
ATOM     18  H   UNL A   1      27.117  29.901  22.489  1.00  0.00     0.175 HD
ATOM     19  O   UNL A   1      27.475  32.272  23.106  1.00  0.00    -0.246 OA
ENDBRANCH   6  10
ENDBRANCH   5   6
ENDBRANCH   3   5
ENDBRANCH   2   3
ENDBRANCH   1   2
BRANCH   1  20
ATOM     20  C   UNL A   1      34.775  29.384  27.320  1.00  0.00     0.275 C 
BRANCH  20  21
ATOM     21  O   UNL A   1      35.214  29.633  28.669  1.00  0.00    -0.458 OA
BRANCH  21  22
ATOM     22  C   UNL A   1      36.237  30.510  28.779  1.00  0.00     0.338 C 
ATOM     23  O   UNL A   1      36.170  31.712  28.978  1.00  0.00    -0.246 OA
BRANCH  22  24
ATOM     24  C   UNL A   1      37.528  29.825  28.654  1.00  0.00     0.060 A 
ATOM     25  C   UNL A   1      38.208  29.398  29.794  1.00  0.00     0.016 A 
ATOM     26  C   UNL A   1      38.148  29.788  27.406  1.00  0.00     0.016 A 
ATOM     27  C   UNL A   1      39.553  29.055  29.710  1.00  0.00     0.010 A 
ATOM     28  C   UNL A   1      39.461  29.334  27.307  1.00  0.00     0.010 A 
ATOM     29  C   UNL A   1      40.189  29.005  28.463  1.00  0.00    -0.014 A 
BRANCH  29  30
ATOM     30  C   UNL A   1      41.609  28.593  28.344  1.00  0.00     0.031 A 
ATOM     31  C   UNL A   1      42.703  29.621  28.435  1.00  0.00     0.074 A 
ATOM     32  C   UNL A   1      41.903  27.303  28.103  1.00  0.00     0.049 A 
ATOM     33  N   UNL A   1      43.969  29.505  28.130  1.00  0.00    -0.248 NA
ATOM     34  C   UNL A   1      42.320  30.959  28.916  1.00  0.00     0.031 C 
ATOM     35  C   UNL A   1      40.930  26.208  28.036  1.00  0.00     0.029 A 
ATOM     36  N   UNL A   1      43.104  26.692  27.850  1.00  0.00    -0.354 N 
ATOM     37  C   UNL A   1      44.525  30.764  28.335  1.00  0.00     0.074 A 
ATOM     38  C   UNL A   1      43.459  31.629  28.792  1.00  0.00     0.031 C 
ATOM     39  C   UNL A   1      41.573  25.063  27.769  1.00  0.00     0.029 A 
ATOM     40  C   UNL A   1      42.986  25.354  27.563  1.00  0.00     0.049 A 
ATOM     41  H   UNL A   1      43.967  27.167  27.872  1.00  0.00     0.167 HD
ATOM     42  C   UNL A   1      45.808  31.158  28.145  1.00  0.00     0.031 A 
ATOM     43  C   UNL A   1      43.899  24.467  27.127  1.00  0.00     0.031 A 
ATOM     44  C   UNL A   1      46.858  30.279  27.702  1.00  0.00     0.049 A 
ATOM     45  C   UNL A   1      45.302  24.935  26.886  1.00  0.00     0.074 A 
ATOM     46  C   UNL A   1      48.193  30.570  27.481  1.00  0.00     0.029 A 
ATOM     47  N   UNL A   1      46.693  28.930  27.422  1.00  0.00    -0.354 N 
ATOM     48  N   UNL A   1      45.804  26.136  27.040  1.00  0.00    -0.248 NA
ATOM     49  C   UNL A   1      46.259  23.931  26.403  1.00  0.00     0.031 C 
ATOM     50  C   UNL A   1      48.826  29.405  27.031  1.00  0.00     0.029 A 
ATOM     51  C   UNL A   1      47.895  28.378  27.017  1.00  0.00     0.049 A 
ATOM     52  H   UNL A   1      45.843  28.437  27.499  1.00  0.00     0.167 HD
ATOM     53  C   UNL A   1      47.143  26.033  26.684  1.00  0.00     0.074 A 
ATOM     54  C   UNL A   1      47.373  24.648  26.322  1.00  0.00     0.031 C 
ATOM     55  C   UNL A   1      48.095  26.997  26.659  1.00  0.00     0.031 A 
BRANCH  42  56
ATOM     56  C   UNL A   1      46.134  32.611  28.372  1.00  0.00    -0.014 A 
ATOM     57  C   UNL A   1      46.005  33.563  27.345  1.00  0.00     0.010 A 
ATOM     58  C   UNL A   1      46.543  33.038  29.649  1.00  0.00     0.010 A 
ATOM     59  C   UNL A   1      46.314  34.906  27.581  1.00  0.00     0.020 A 
ATOM     60  C   UNL A   1      46.831  34.383  29.896  1.00  0.00     0.020 A 
ATOM     61  C   UNL A   1      46.732  35.307  28.854  1.00  0.00     0.054 A 
BRANCH  61  62
ATOM     62  S   UNL A   1      47.111  37.058  29.143  1.00  0.00     0.124 S 
ATOM     63  O   UNL A   1      46.655  37.241  30.519  1.00  0.00    -0.237 OA
ATOM     64  O   UNL A   1      48.558  37.111  28.950  1.00  0.00    -0.237 OA
ATOM     65  O   UNL A   1      46.326  37.755  28.127  1.00  0.00    -0.744 OA
ENDBRANCH  61  62
ENDBRANCH  42  56
BRANCH  43  66
ATOM     66  C   UNL A   1      43.484  23.066  26.854  1.00  0.00    -0.014 A 
ATOM     67  C   UNL A   1      43.739  22.479  25.605  1.00  0.00     0.010 A 
ATOM     68  C   UNL A   1      42.892  22.291  27.870  1.00  0.00     0.010 A 
ATOM     69  C   UNL A   1      43.409  21.140  25.374  1.00  0.00     0.020 A 
ATOM     70  C   UNL A   1      42.586  20.946  27.651  1.00  0.00     0.020 A 
ATOM     71  C   UNL A   1      42.841  20.381  26.401  1.00  0.00     0.054 A 
BRANCH  71  72
ATOM     72  S   UNL A   1      42.500  18.623  26.109  1.00  0.00     0.124 S 
ATOM     73  O   UNL A   1      43.422  18.312  25.022  1.00  0.00    -0.237 OA
ATOM     74  O   UNL A   1      42.816  18.018  27.401  1.00  0.00    -0.237 OA
ATOM     75  O   UNL A   1      41.082  18.606  25.755  1.00  0.00    -0.744 OA
ENDBRANCH  71  72
ENDBRANCH  43  66
BRANCH  55  76
ATOM     76  C   UNL A   1      49.479  26.572  26.254  1.00  0.00    -0.014 A 
ATOM     77  C   UNL A   1      49.918  26.705  24.926  1.00  0.00     0.010 A 
ATOM     78  C   UNL A   1      50.357  26.064  27.228  1.00  0.00     0.010 A 
ATOM     79  C   UNL A   1      51.209  26.308  24.571  1.00  0.00     0.020 A 
ATOM     80  C   UNL A   1      51.655  25.686  26.879  1.00  0.00     0.020 A 
ATOM     81  C   UNL A   1      52.067  25.797  25.549  1.00  0.00     0.054 A 
BRANCH  81  82
ATOM     82  S   UNL A   1      53.753  25.321  25.075  1.00  0.00     0.124 S 
ATOM     83  O   UNL A   1      53.661  23.864  25.059  1.00  0.00    -0.237 OA
ATOM     84  O   UNL A   1      53.912  25.956  23.769  1.00  0.00    -0.237 OA
ATOM     85  O   UNL A   1      54.581  25.883  26.139  1.00  0.00    -0.744 OA
ENDBRANCH  81  82
ENDBRANCH  55  76
ENDBRANCH  29  30
ENDBRANCH  22  24
ENDBRANCH  21  22
ENDBRANCH  20  21
ENDBRANCH   1  20
TORSDOF 18
ENDMDL
