MODEL 1
REMARK VINA RESULT:     -11.3      0.000      0.000
REMARK SMILES CC(=O)Nc1cccc(-c2cc(F)ccc2C(=O)OCCOC(=O)c2ccc(-c3c4nc(c(-c5ccc(S(=O)(=O)[O-])cc5)c5ccc([nH]5)c(-c5ccc(S(=O)(=O)[O-])cc5)c5nc(c(-c6ccc(S(=O)(=O)[O-])cc6)c6ccc3[nH]6)C=C5)C=C4)cc2)c1
REMARK SMILES IDX 21 1 20 2 19 3 17 4 18 5 16 6 10 7 11 8 12 9 15 10 13 11
REMARK SMILES IDX 14 12 9 13 5 14 6 15 85 16 7 17 8 18 4 19 1 20 2 21 3 22
REMARK SMILES IDX 22 24 23 25 24 26 25 27 26 28 84 29 27 30 83 31 28 32 29 33
REMARK SMILES IDX 30 34 77 35 31 36 82 37 76 38 78 39 32 40 81 41 75 42 74 43
REMARK SMILES IDX 33 45 63 46 44 47 62 48 45 49 48 50 61 51 79 52 46 53 47 54
REMARK SMILES IDX 60 56 80 57 49 58 34 59 35 60 43 61 36 62 42 63 37 64 38 65
REMARK SMILES IDX 39 66 40 67 41 68 64 69 65 70 73 71 66 72 72 73 67 74 68 75
REMARK SMILES IDX 69 76 70 77 71 78 50 79 51 80 59 81 52 82 58 83 53 84 54 85
REMARK SMILES IDX 55 86 56 87 57 88
REMARK H PARENT 4 23 78 44 48 55
REMARK Flexibility Score: inf
ROOT
ATOM      1  C   UNL A   1      32.624  29.983  27.380  1.00  0.00     0.275 C 
ENDROOT
BRANCH   1   2
ATOM      2  C   UNL A   1      32.234  28.528  27.141  1.00  0.00     0.275 C 
BRANCH   2   3
ATOM      3  O   UNL A   1      31.405  28.407  25.965  1.00  0.00    -0.458 OA
BRANCH   3   4
ATOM      4  C   UNL A   1      31.005  27.154  25.630  1.00  0.00     0.338 C 
ATOM      5  O   UNL A   1      30.332  26.404  26.308  1.00  0.00    -0.246 OA
BRANCH   4   6
ATOM      6  C   UNL A   1      31.475  26.779  24.266  1.00  0.00     0.068 A 
ATOM      7  C   UNL A   1      30.828  27.205  23.081  1.00  0.00    -0.001 A 
ATOM      8  C   UNL A   1      31.401  26.834  21.850  1.00  0.00     0.048 A 
ATOM      9  C   UNL A   1      32.564  26.068  21.804  1.00  0.00     0.123 A 
ATOM     10  C   UNL A   1      32.668  26.034  24.196  1.00  0.00     0.019 A 
ATOM     11  F   UNL A   1      33.088  25.741  20.615  1.00  0.00    -0.207 F 
ATOM     12  C   UNL A   1      33.200  25.660  22.965  1.00  0.00     0.040 A 
BRANCH   7  13
ATOM     13  C   UNL A   1      29.605  28.029  23.099  1.00  0.00    -0.015 A 
ATOM     14  C   UNL A   1      28.573  30.237  23.282  1.00  0.00     0.041 A 
ATOM     15  C   UNL A   1      27.342  29.618  23.523  1.00  0.00     0.026 A 
ATOM     16  C   UNL A   1      29.687  29.434  23.038  1.00  0.00     0.034 A 
ATOM     17  C   UNL A   1      27.223  28.228  23.502  1.00  0.00     0.003 A 
ATOM     18  C   UNL A   1      28.351  27.437  23.298  1.00  0.00     0.009 A 
BRANCH  14  19
ATOM     19  N   UNL A   1      28.624  31.634  23.427  1.00  0.00    -0.326 N 
ATOM     20  C   UNL A   1      28.054  32.453  21.136  1.00  0.00     0.114 C 
ATOM     21  C   UNL A   1      28.555  32.664  22.536  1.00  0.00     0.221 C 
ATOM     22  O   UNL A   1      28.862  33.794  22.928  1.00  0.00    -0.275 OA
ATOM     23  H   UNL A   1      28.733  31.928  24.360  1.00  0.00     0.169 HD
ENDBRANCH  14  19
ENDBRANCH   7  13
ENDBRANCH   4   6
ENDBRANCH   3   4
ENDBRANCH   2   3
ENDBRANCH   1   2
BRANCH   1  24
ATOM     24  O   UNL A   1      34.019  30.157  27.089  1.00  0.00    -0.458 OA
BRANCH  24  25
ATOM     25  C   UNL A   1      34.710  30.841  28.027  1.00  0.00     0.338 C 
ATOM     26  O   UNL A   1      34.337  31.800  28.683  1.00  0.00    -0.246 OA
BRANCH  25  27
ATOM     27  C   UNL A   1      35.994  30.174  28.251  1.00  0.00     0.060 A 
ATOM     28  C   UNL A   1      36.234  29.629  29.509  1.00  0.00     0.016 A 
ATOM     29  C   UNL A   1      37.001  30.217  27.293  1.00  0.00     0.016 A 
ATOM     30  C   UNL A   1      37.513  29.216  29.860  1.00  0.00     0.010 A 
ATOM     31  C   UNL A   1      38.263  29.710  27.615  1.00  0.00     0.010 A 
ATOM     32  C   UNL A   1      38.547  29.245  28.914  1.00  0.00    -0.014 A 
BRANCH  32  33
ATOM     33  C   UNL A   1      39.929  28.845  29.295  1.00  0.00     0.031 A 
ATOM     34  C   UNL A   1      40.798  29.804  30.069  1.00  0.00     0.074 A 
ATOM     35  C   UNL A   1      40.407  27.629  28.963  1.00  0.00     0.049 A 
ATOM     36  N   UNL A   1      42.080  29.739  30.321  1.00  0.00    -0.248 NA
ATOM     37  C   UNL A   1      40.142  31.005  30.614  1.00  0.00     0.031 C 
ATOM     38  C   UNL A   1      39.656  26.579  28.269  1.00  0.00     0.029 A 
ATOM     39  N   UNL A   1      41.644  27.068  29.165  1.00  0.00    -0.354 N 
ATOM     40  C   UNL A   1      42.396  30.915  30.994  1.00  0.00     0.074 A 
ATOM     41  C   UNL A   1      41.171  31.677  31.109  1.00  0.00     0.031 C 
ATOM     42  C   UNL A   1      40.434  25.494  28.137  1.00  0.00     0.029 A 
ATOM     43  C   UNL A   1      41.766  25.802  28.642  1.00  0.00     0.049 A 
ATOM     44  H   UNL A   1      42.374  27.529  29.640  1.00  0.00     0.167 HD
ATOM     45  C   UNL A   1      43.598  31.323  31.467  1.00  0.00     0.031 A 
ATOM     46  C   UNL A   1      42.839  24.995  28.532  1.00  0.00     0.031 A 
ATOM     47  C   UNL A   1      44.801  30.537  31.385  1.00  0.00     0.049 A 
ATOM     48  C   UNL A   1      44.171  25.484  29.025  1.00  0.00     0.074 A 
ATOM     49  C   UNL A   1      46.069  30.851  31.843  1.00  0.00     0.029 A 
ATOM     50  N   UNL A   1      44.882  29.271  30.823  1.00  0.00    -0.354 N 
ATOM     51  N   UNL A   1      44.465  26.623  29.606  1.00  0.00    -0.248 NA
ATOM     52  C   UNL A   1      45.317  24.587  28.836  1.00  0.00     0.031 C 
ATOM     53  C   UNL A   1      46.926  29.795  31.516  1.00  0.00     0.029 A 
ATOM     54  C   UNL A   1      46.180  28.798  30.908  1.00  0.00     0.049 A 
ATOM     55  H   UNL A   1      44.128  28.782  30.422  1.00  0.00     0.167 HD
ATOM     56  C   UNL A   1      45.829  26.572  29.867  1.00  0.00     0.074 A 
ATOM     57  C   UNL A   1      46.296  25.282  29.399  1.00  0.00     0.031 C 
ATOM     58  C   UNL A   1      46.625  27.509  30.438  1.00  0.00     0.031 A 
BRANCH  45  59
ATOM     59  C   UNL A   1      43.685  32.700  32.074  1.00  0.00    -0.014 A 
ATOM     60  C   UNL A   1      43.937  33.841  31.290  1.00  0.00     0.010 A 
ATOM     61  C   UNL A   1      43.473  32.858  33.457  1.00  0.00     0.010 A 
ATOM     62  C   UNL A   1      44.011  35.105  31.883  1.00  0.00     0.020 A 
ATOM     63  C   UNL A   1      43.519  34.123  34.049  1.00  0.00     0.020 A 
ATOM     64  C   UNL A   1      43.806  35.237  33.260  1.00  0.00     0.054 A 
BRANCH  64  65
ATOM     65  S   UNL A   1      43.888  36.892  34.001  1.00  0.00     0.124 S 
ATOM     66  O   UNL A   1      43.408  37.734  32.908  1.00  0.00    -0.237 OA
ATOM     67  O   UNL A   1      42.987  36.776  35.146  1.00  0.00    -0.237 OA
ATOM     68  O   UNL A   1      45.299  37.053  34.338  1.00  0.00    -0.744 OA
ENDBRANCH  64  65
ENDBRANCH  45  59
BRANCH  46  69
ATOM     69  C   UNL A   1      42.703  23.666  27.872  1.00  0.00    -0.014 A 
ATOM     70  C   UNL A   1      42.995  23.509  26.506  1.00  0.00     0.010 A 
ATOM     71  C   UNL A   1      42.299  22.541  28.617  1.00  0.00     0.010 A 
ATOM     72  C   UNL A   1      42.876  22.257  25.896  1.00  0.00     0.020 A 
ATOM     73  C   UNL A   1      42.210  21.282  28.019  1.00  0.00     0.020 A 
ATOM     74  C   UNL A   1      42.488  21.150  26.658  1.00  0.00     0.054 A 
BRANCH  74  75
ATOM     75  S   UNL A   1      42.397  19.523  25.859  1.00  0.00     0.124 S 
ATOM     76  O   UNL A   1      42.765  18.628  26.951  1.00  0.00    -0.237 OA
ATOM     77  O   UNL A   1      41.002  19.460  25.429  1.00  0.00    -0.237 OA
ATOM     78  O   UNL A   1      43.371  19.622  24.774  1.00  0.00    -0.744 OA
ENDBRANCH  74  75
ENDBRANCH  46  69
BRANCH  58  79
ATOM     79  C   UNL A   1      48.075  27.157  30.626  1.00  0.00    -0.014 A 
ATOM     80  C   UNL A   1      49.057  27.602  29.724  1.00  0.00     0.010 A 
ATOM     81  C   UNL A   1      48.462  26.404  31.750  1.00  0.00     0.010 A 
ATOM     82  C   UNL A   1      50.399  27.271  29.926  1.00  0.00     0.020 A 
ATOM     83  C   UNL A   1      49.806  26.095  31.969  1.00  0.00     0.020 A 
ATOM     84  C   UNL A   1      50.765  26.517  31.047  1.00  0.00     0.054 A 
BRANCH  84  85
ATOM     85  S   UNL A   1      52.518  26.134  31.308  1.00  0.00     0.124 S 
ATOM     86  O   UNL A   1      52.448  24.838  31.978  1.00  0.00    -0.237 OA
ATOM     87  O   UNL A   1      53.048  26.110  29.948  1.00  0.00    -0.237 OA
ATOM     88  O   UNL A   1      52.995  27.239  32.137  1.00  0.00    -0.744 OA
ENDBRANCH  84  85
ENDBRANCH  58  79
ENDBRANCH  32  33
ENDBRANCH  25  27
ENDBRANCH  24  25
ENDBRANCH   1  24
TORSDOF 16
ENDMDL
MODEL 2
REMARK VINA RESULT:     -11.2      2.024      3.519
REMARK SMILES CC(=O)Nc1cccc(-c2cc(F)ccc2C(=O)OCCOC(=O)c2ccc(-c3c4nc(c(-c5ccc(S(=O)(=O)[O-])cc5)c5ccc([nH]5)c(-c5ccc(S(=O)(=O)[O-])cc5)c5nc(c(-c6ccc(S(=O)(=O)[O-])cc6)c6ccc3[nH]6)C=C5)C=C4)cc2)c1
REMARK SMILES IDX 21 1 20 2 19 3 17 4 18 5 16 6 10 7 11 8 12 9 15 10 13 11
REMARK SMILES IDX 14 12 9 13 5 14 6 15 85 16 7 17 8 18 4 19 1 20 2 21 3 22
REMARK SMILES IDX 22 24 23 25 24 26 25 27 26 28 84 29 27 30 83 31 28 32 29 33
REMARK SMILES IDX 30 34 77 35 31 36 82 37 76 38 78 39 32 40 81 41 75 42 74 43
REMARK SMILES IDX 33 45 63 46 44 47 62 48 45 49 48 50 61 51 79 52 46 53 47 54
REMARK SMILES IDX 60 56 80 57 49 58 34 59 35 60 43 61 36 62 42 63 37 64 38 65
REMARK SMILES IDX 39 66 40 67 41 68 64 69 65 70 73 71 66 72 72 73 67 74 68 75
REMARK SMILES IDX 69 76 70 77 71 78 50 79 51 80 59 81 52 82 58 83 53 84 54 85
REMARK SMILES IDX 55 86 56 87 57 88
REMARK H PARENT 4 23 78 44 48 55
REMARK Flexibility Score: inf
ROOT
ATOM      1  C   UNL A   1      32.632  30.378  26.687  1.00  0.00     0.275 C 
ENDROOT
BRANCH   1   2
ATOM      2  C   UNL A   1      32.073  29.251  25.826  1.00  0.00     0.275 C 
BRANCH   2   3
ATOM      3  O   UNL A   1      32.262  29.536  24.424  1.00  0.00    -0.458 OA
BRANCH   3   4
ATOM      4  C   UNL A   1      31.887  28.567  23.551  1.00  0.00     0.338 C 
ATOM      5  O   UNL A   1      32.624  27.812  22.946  1.00  0.00    -0.246 OA
BRANCH   4   6
ATOM      6  C   UNL A   1      30.405  28.497  23.417  1.00  0.00     0.068 A 
ATOM      7  C   UNL A   1      29.652  27.347  23.753  1.00  0.00    -0.001 A 
ATOM      8  C   UNL A   1      28.251  27.422  23.640  1.00  0.00     0.048 A 
ATOM      9  C   UNL A   1      27.630  28.591  23.207  1.00  0.00     0.123 A 
ATOM     10  C   UNL A   1      29.754  29.679  23.014  1.00  0.00     0.019 A 
ATOM     11  F   UNL A   1      26.294  28.633  23.120  1.00  0.00    -0.207 F 
ATOM     12  C   UNL A   1      28.369  29.719  22.887  1.00  0.00     0.040 A 
BRANCH   7  13
ATOM     13  C   UNL A   1      30.280  26.099  24.228  1.00  0.00    -0.015 A 
ATOM     14  C   UNL A   1      30.959  23.796  23.774  1.00  0.00     0.041 A 
ATOM     15  C   UNL A   1      31.102  23.589  25.151  1.00  0.00     0.026 A 
ATOM     16  C   UNL A   1      30.582  25.061  23.325  1.00  0.00     0.034 A 
ATOM     17  C   UNL A   1      30.892  24.630  26.056  1.00  0.00     0.003 A 
ATOM     18  C   UNL A   1      30.475  25.877  25.597  1.00  0.00     0.009 A 
BRANCH  14  19
ATOM     19  N   UNL A   1      31.086  22.669  22.943  1.00  0.00    -0.326 N 
ATOM     20  C   UNL A   1      33.141  21.554  23.827  1.00  0.00     0.114 C 
ATOM     21  C   UNL A   1      32.062  21.728  22.797  1.00  0.00     0.221 C 
ATOM     22  O   UNL A   1      32.004  20.978  21.818  1.00  0.00    -0.275 OA
ATOM     23  H   UNL A   1      30.316  22.533  22.347  1.00  0.00     0.169 HD
ENDBRANCH  14  19
ENDBRANCH   7  13
ENDBRANCH   4   6
ENDBRANCH   3   4
ENDBRANCH   2   3
ENDBRANCH   1   2
BRANCH   1  24
ATOM     24  O   UNL A   1      33.544  29.833  27.653  1.00  0.00    -0.458 OA
BRANCH  24  25
ATOM     25  C   UNL A   1      34.396  30.731  28.194  1.00  0.00     0.338 C 
ATOM     26  O   UNL A   1      34.140  31.842  28.629  1.00  0.00    -0.246 OA
BRANCH  25  27
ATOM     27  C   UNL A   1      35.723  30.120  28.304  1.00  0.00     0.060 A 
ATOM     28  C   UNL A   1      36.129  29.668  29.556  1.00  0.00     0.016 A 
ATOM     29  C   UNL A   1      36.607  30.128  27.232  1.00  0.00     0.016 A 
ATOM     30  C   UNL A   1      37.455  29.318  29.777  1.00  0.00     0.010 A 
ATOM     31  C   UNL A   1      37.917  29.683  27.432  1.00  0.00     0.010 A 
ATOM     32  C   UNL A   1      38.369  29.315  28.715  1.00  0.00    -0.014 A 
BRANCH  32  33
ATOM     33  C   UNL A   1      39.801  28.984  28.952  1.00  0.00     0.031 A 
ATOM     34  C   UNL A   1      40.725  30.029  29.525  1.00  0.00     0.074 A 
ATOM     35  C   UNL A   1      40.276  27.755  28.668  1.00  0.00     0.049 A 
ATOM     36  N   UNL A   1      42.030  30.017  29.619  1.00  0.00    -0.248 NA
ATOM     37  C   UNL A   1      40.099  31.258  30.043  1.00  0.00     0.031 C 
ATOM     38  C   UNL A   1      39.482  26.629  28.167  1.00  0.00     0.029 A 
ATOM     39  N   UNL A   1      41.547  27.244  28.761  1.00  0.00    -0.354 N 
ATOM     40  C   UNL A   1      42.384  31.255  30.143  1.00  0.00     0.074 A 
ATOM     41  C   UNL A   1      41.158  31.996  30.345  1.00  0.00     0.031 C 
ATOM     42  C   UNL A   1      40.275  25.555  28.033  1.00  0.00     0.029 A 
ATOM     43  C   UNL A   1      41.648  25.939  28.338  1.00  0.00     0.049 A 
ATOM     44  H   UNL A   1      42.313  27.762  29.098  1.00  0.00     0.167 HD
ATOM     45  C   UNL A   1      43.621  31.733  30.425  1.00  0.00     0.031 A 
ATOM     46  C   UNL A   1      42.726  25.150  28.163  1.00  0.00     0.031 A 
ATOM     47  C   UNL A   1      44.831  30.971  30.260  1.00  0.00     0.049 A 
ATOM     48  C   UNL A   1      44.091  25.713  28.441  1.00  0.00     0.074 A 
ATOM     49  C   UNL A   1      46.134  31.355  30.526  1.00  0.00     0.029 A 
ATOM     50  N   UNL A   1      44.886  29.662  29.803  1.00  0.00    -0.354 N 
ATOM     51  N   UNL A   1      44.415  26.906  28.880  1.00  0.00    -0.248 NA
ATOM     52  C   UNL A   1      45.236  24.830  28.188  1.00  0.00     0.031 C 
ATOM     53  C   UNL A   1      46.981  30.294  30.187  1.00  0.00     0.029 A 
ATOM     54  C   UNL A   1      46.201  29.229  29.765  1.00  0.00     0.049 A 
ATOM     55  H   UNL A   1      44.106  29.121  29.544  1.00  0.00     0.167 HD
ATOM     56  C   UNL A   1      45.801  26.912  28.971  1.00  0.00     0.074 A 
ATOM     57  C   UNL A   1      46.252  25.596  28.561  1.00  0.00     0.031 C 
ATOM     58  C   UNL A   1      46.628  27.915  29.355  1.00  0.00     0.031 A 
BRANCH  45  59
ATOM     59  C   UNL A   1      43.734  33.160  30.895  1.00  0.00    -0.014 A 
ATOM     60  C   UNL A   1      43.696  33.496  32.260  1.00  0.00     0.010 A 
ATOM     61  C   UNL A   1      43.922  34.185  29.948  1.00  0.00     0.010 A 
ATOM     62  C   UNL A   1      43.804  34.830  32.665  1.00  0.00     0.020 A 
ATOM     63  C   UNL A   1      44.058  35.516  30.350  1.00  0.00     0.020 A 
ATOM     64  C   UNL A   1      43.980  35.832  31.706  1.00  0.00     0.054 A 
BRANCH  64  65
ATOM     65  S   UNL A   1      44.139  37.553  32.260  1.00  0.00     0.124 S 
ATOM     66  O   UNL A   1      43.754  38.291  31.060  1.00  0.00    -0.237 OA
ATOM     67  O   UNL A   1      43.190  37.622  33.369  1.00  0.00    -0.237 OA
ATOM     68  O   UNL A   1      45.544  37.669  32.639  1.00  0.00    -0.744 OA
ENDBRANCH  64  65
ENDBRANCH  45  59
BRANCH  46  69
ATOM     69  C   UNL A   1      42.556  23.765  27.643  1.00  0.00    -0.014 A 
ATOM     70  C   UNL A   1      42.758  23.479  26.281  1.00  0.00     0.010 A 
ATOM     71  C   UNL A   1      42.211  22.715  28.516  1.00  0.00     0.010 A 
ATOM     72  C   UNL A   1      42.607  22.175  25.801  1.00  0.00     0.020 A 
ATOM     73  C   UNL A   1      42.092  21.405  28.047  1.00  0.00     0.020 A 
ATOM     74  C   UNL A   1      42.279  21.145  26.689  1.00  0.00     0.054 A 
BRANCH  74  75
ATOM     75  S   UNL A   1      42.147  19.450  26.055  1.00  0.00     0.124 S 
ATOM     76  O   UNL A   1      42.672  18.668  27.169  1.00  0.00    -0.237 OA
ATOM     77  O   UNL A   1      40.713  19.316  25.806  1.00  0.00    -0.237 OA
ATOM     78  O   UNL A   1      42.980  19.469  24.854  1.00  0.00    -0.744 OA
ENDBRANCH  74  75
ENDBRANCH  46  69
BRANCH  58  79
ATOM     79  C   UNL A   1      48.102  27.615  29.390  1.00  0.00    -0.014 A 
ATOM     80  C   UNL A   1      48.714  27.100  30.546  1.00  0.00     0.010 A 
ATOM     81  C   UNL A   1      48.874  27.812  28.231  1.00  0.00     0.010 A 
ATOM     82  C   UNL A   1      50.083  26.819  30.551  1.00  0.00     0.020 A 
ATOM     83  C   UNL A   1      50.237  27.506  28.225  1.00  0.00     0.020 A 
ATOM     84  C   UNL A   1      50.836  27.026  29.391  1.00  0.00     0.054 A 
BRANCH  84  85
ATOM     85  S   UNL A   1      52.602  26.617  29.411  1.00  0.00     0.124 S 
ATOM     86  O   UNL A   1      52.707  25.782  30.604  1.00  0.00    -0.237 OA
ATOM     87  O   UNL A   1      52.787  25.923  28.140  1.00  0.00    -0.237 OA
ATOM     88  O   UNL A   1      53.259  27.920  29.503  1.00  0.00    -0.744 OA
ENDBRANCH  84  85
ENDBRANCH  58  79
ENDBRANCH  32  33
ENDBRANCH  25  27
ENDBRANCH  24  25
ENDBRANCH   1  24
TORSDOF 16
ENDMDL
MODEL 3
REMARK VINA RESULT:     -11.1      2.360      2.910
REMARK SMILES CC(=O)Nc1cccc(-c2cc(F)ccc2C(=O)OCCOC(=O)c2ccc(-c3c4nc(c(-c5ccc(S(=O)(=O)[O-])cc5)c5ccc([nH]5)c(-c5ccc(S(=O)(=O)[O-])cc5)c5nc(c(-c6ccc(S(=O)(=O)[O-])cc6)c6ccc3[nH]6)C=C5)C=C4)cc2)c1
REMARK SMILES IDX 21 1 20 2 19 3 17 4 18 5 16 6 10 7 11 8 12 9 15 10 13 11
REMARK SMILES IDX 14 12 9 13 5 14 6 15 85 16 7 17 8 18 4 19 1 20 2 21 3 22
REMARK SMILES IDX 22 24 23 25 24 26 25 27 26 28 84 29 27 30 83 31 28 32 29 33
REMARK SMILES IDX 30 34 77 35 31 36 82 37 76 38 78 39 32 40 81 41 75 42 74 43
REMARK SMILES IDX 33 45 63 46 44 47 62 48 45 49 48 50 61 51 79 52 46 53 47 54
REMARK SMILES IDX 60 56 80 57 49 58 34 59 35 60 43 61 36 62 42 63 37 64 38 65
REMARK SMILES IDX 39 66 40 67 41 68 64 69 65 70 73 71 66 72 72 73 67 74 68 75
REMARK SMILES IDX 69 76 70 77 71 78 50 79 51 80 59 81 52 82 58 83 53 84 54 85
REMARK SMILES IDX 55 86 56 87 57 88
REMARK H PARENT 4 23 78 44 48 55
REMARK Flexibility Score: inf
ROOT
ATOM      1  C   UNL A   1      32.492  30.816  26.884  1.00  0.00     0.275 C 
ENDROOT
BRANCH   1   2
ATOM      2  C   UNL A   1      31.933  29.404  27.031  1.00  0.00     0.275 C 
BRANCH   2   3
ATOM      3  O   UNL A   1      31.408  28.927  25.774  1.00  0.00    -0.458 OA
BRANCH   3   4
ATOM      4  C   UNL A   1      31.182  27.592  25.677  1.00  0.00     0.338 C 
ATOM      5  O   UNL A   1      30.674  26.881  26.522  1.00  0.00    -0.246 OA
BRANCH   4   6
ATOM      6  C   UNL A   1      31.615  27.060  24.354  1.00  0.00     0.068 A 
ATOM      7  C   UNL A   1      30.875  27.255  23.164  1.00  0.00    -0.001 A 
ATOM      8  C   UNL A   1      31.417  26.754  21.965  1.00  0.00     0.048 A 
ATOM      9  C   UNL A   1      32.640  26.087  21.955  1.00  0.00     0.123 A 
ATOM     10  C   UNL A   1      32.865  26.412  24.317  1.00  0.00     0.019 A 
ATOM     11  F   UNL A   1      33.132  25.633  20.795  1.00  0.00    -0.207 F 
ATOM     12  C   UNL A   1      33.366  25.906  23.121  1.00  0.00     0.040 A 
BRANCH   7  13
ATOM     13  C   UNL A   1      29.585  27.970  23.139  1.00  0.00    -0.015 A 
ATOM     14  C   UNL A   1      28.371  30.091  23.143  1.00  0.00     0.041 A 
ATOM     15  C   UNL A   1      27.203  29.397  23.479  1.00  0.00     0.026 A 
ATOM     16  C   UNL A   1      29.544  29.365  22.943  1.00  0.00     0.034 A 
ATOM     17  C   UNL A   1      27.205  28.007  23.593  1.00  0.00     0.003 A 
ATOM     18  C   UNL A   1      28.392  27.297  23.432  1.00  0.00     0.009 A 
BRANCH  14  19
ATOM     19  N   UNL A   1      28.303  31.495  23.153  1.00  0.00    -0.326 N 
ATOM     20  C   UNL A   1      28.118  32.061  20.726  1.00  0.00     0.114 C 
ATOM     21  C   UNL A   1      28.335  32.434  22.164  1.00  0.00     0.221 C 
ATOM     22  O   UNL A   1      28.490  33.615  22.489  1.00  0.00    -0.275 OA
ATOM     23  H   UNL A   1      28.218  31.877  24.055  1.00  0.00     0.169 HD
ENDBRANCH  14  19
ENDBRANCH   7  13
ENDBRANCH   4   6
ENDBRANCH   3   4
ENDBRANCH   2   3
ENDBRANCH   1   2
BRANCH   1  24
ATOM     24  O   UNL A   1      33.924  30.773  26.974  1.00  0.00    -0.458 OA
BRANCH  24  25
ATOM     25  C   UNL A   1      34.451  31.540  27.952  1.00  0.00     0.338 C 
ATOM     26  O   UNL A   1      33.941  32.498  28.512  1.00  0.00    -0.246 OA
BRANCH  25  27
ATOM     27  C   UNL A   1      35.738  30.973  28.360  1.00  0.00     0.060 A 
ATOM     28  C   UNL A   1      35.728  29.751  29.027  1.00  0.00     0.016 A 
ATOM     29  C   UNL A   1      36.916  31.698  28.224  1.00  0.00     0.016 A 
ATOM     30  C   UNL A   1      36.877  29.290  29.658  1.00  0.00     0.010 A 
ATOM     31  C   UNL A   1      38.093  31.185  28.776  1.00  0.00     0.010 A 
ATOM     32  C   UNL A   1      38.080  30.000  29.537  1.00  0.00    -0.014 A 
BRANCH  32  33
ATOM     33  C   UNL A   1      39.304  29.536  30.246  1.00  0.00     0.031 A 
ATOM     34  C   UNL A   1      39.723  30.206  31.529  1.00  0.00     0.074 A 
ATOM     35  C   UNL A   1      40.035  28.515  29.754  1.00  0.00     0.049 A 
ATOM     36  N   UNL A   1      40.847  30.097  32.191  1.00  0.00    -0.248 NA
ATOM     37  C   UNL A   1      38.758  31.136  32.141  1.00  0.00     0.031 C 
ATOM     38  C   UNL A   1      39.713  27.735  28.556  1.00  0.00     0.029 A 
ATOM     39  N   UNL A   1      41.205  27.955  30.205  1.00  0.00    -0.354 N 
ATOM     40  C   UNL A   1      40.751  30.989  33.253  1.00  0.00     0.074 A 
ATOM     41  C   UNL A   1      39.460  31.633  33.149  1.00  0.00     0.031 C 
ATOM     42  C   UNL A   1      40.640  26.780  28.389  1.00  0.00     0.029 A 
ATOM     43  C   UNL A   1      41.674  26.940  29.404  1.00  0.00     0.049 A 
ATOM     44  H   UNL A   1      41.665  28.251  31.024  1.00  0.00     0.167 HD
ATOM     45  C   UNL A   1      41.660  31.251  34.224  1.00  0.00     0.031 A 
ATOM     46  C   UNL A   1      42.829  26.248  29.444  1.00  0.00     0.031 A 
ATOM     47  C   UNL A   1      42.924  30.572  34.343  1.00  0.00     0.049 A 
ATOM     48  C   UNL A   1      43.840  26.583  30.504  1.00  0.00     0.074 A 
ATOM     49  C   UNL A   1      43.912  30.752  35.295  1.00  0.00     0.029 A 
ATOM     50  N   UNL A   1      43.367  29.570  33.492  1.00  0.00    -0.354 N 
ATOM     51  N   UNL A   1      43.759  27.470  31.467  1.00  0.00    -0.248 NA
ATOM     52  C   UNL A   1      45.102  25.834  30.475  1.00  0.00     0.031 C 
ATOM     53  C   UNL A   1      44.973  29.891  34.993  1.00  0.00     0.029 A 
ATOM     54  C   UNL A   1      44.619  29.133  33.887  1.00  0.00     0.049 A 
ATOM     55  H   UNL A   1      42.865  29.221  32.721  1.00  0.00     0.167 HD
ATOM     56  C   UNL A   1      44.955  27.375  32.169  1.00  0.00     0.074 A 
ATOM     57  C   UNL A   1      45.731  26.329  31.531  1.00  0.00     0.031 C 
ATOM     58  C   UNL A   1      45.375  28.090  33.240  1.00  0.00     0.031 A 
BRANCH  45  59
ATOM     59  C   UNL A   1      41.343  32.348  35.208  1.00  0.00    -0.014 A 
ATOM     60  C   UNL A   1      41.713  33.684  34.972  1.00  0.00     0.010 A 
ATOM     61  C   UNL A   1      40.624  32.037  36.378  1.00  0.00     0.010 A 
ATOM     62  C   UNL A   1      41.404  34.679  35.905  1.00  0.00     0.020 A 
ATOM     63  C   UNL A   1      40.289  33.033  37.299  1.00  0.00     0.020 A 
ATOM     64  C   UNL A   1      40.698  34.346  37.065  1.00  0.00     0.054 A 
BRANCH  64  65
ATOM     65  S   UNL A   1      40.292  35.660  38.248  1.00  0.00     0.124 S 
ATOM     66  O   UNL A   1      39.842  36.732  37.364  1.00  0.00    -0.237 OA
ATOM     67  O   UNL A   1      39.250  35.044  39.067  1.00  0.00    -0.237 OA
ATOM     68  O   UNL A   1      41.554  35.911  38.938  1.00  0.00    -0.744 OA
ENDBRANCH  64  65
ENDBRANCH  45  59
BRANCH  46  69
ATOM     69  C   UNL A   1      43.110  25.212  28.411  1.00  0.00    -0.014 A 
ATOM     70  C   UNL A   1      42.699  23.881  28.598  1.00  0.00     0.010 A 
ATOM     71  C   UNL A   1      43.777  25.559  27.220  1.00  0.00     0.010 A 
ATOM     72  C   UNL A   1      42.958  22.916  27.620  1.00  0.00     0.020 A 
ATOM     73  C   UNL A   1      44.009  24.606  26.227  1.00  0.00     0.020 A 
ATOM     74  C   UNL A   1      43.607  23.286  26.438  1.00  0.00     0.054 A 
BRANCH  74  75
ATOM     75  S   UNL A   1      43.880  22.030  25.157  1.00  0.00     0.124 S 
ATOM     76  O   UNL A   1      43.565  22.767  23.938  1.00  0.00    -0.237 OA
ATOM     77  O   UNL A   1      45.288  21.687  25.345  1.00  0.00    -0.237 OA
ATOM     78  O   UNL A   1      42.936  20.971  25.512  1.00  0.00    -0.744 OA
ENDBRANCH  74  75
ENDBRANCH  46  69
BRANCH  58  79
ATOM     79  C   UNL A   1      46.718  27.737  33.818  1.00  0.00    -0.014 A 
ATOM     80  C   UNL A   1      47.884  28.419  33.426  1.00  0.00     0.010 A 
ATOM     81  C   UNL A   1      46.806  26.734  34.801  1.00  0.00     0.010 A 
ATOM     82  C   UNL A   1      49.118  28.081  33.985  1.00  0.00     0.020 A 
ATOM     83  C   UNL A   1      48.035  26.412  35.381  1.00  0.00     0.020 A 
ATOM     84  C   UNL A   1      49.186  27.078  34.957  1.00  0.00     0.054 A 
BRANCH  84  85
ATOM     85  S   UNL A   1      50.795  26.684  35.695  1.00  0.00     0.124 S 
ATOM     86  O   UNL A   1      50.412  25.837  36.822  1.00  0.00    -0.237 OA
ATOM     87  O   UNL A   1      51.491  26.004  34.607  1.00  0.00    -0.237 OA
ATOM     88  O   UNL A   1      51.341  27.991  36.055  1.00  0.00    -0.744 OA
ENDBRANCH  84  85
ENDBRANCH  58  79
ENDBRANCH  32  33
ENDBRANCH  25  27
ENDBRANCH  24  25
ENDBRANCH   1  24
TORSDOF 16
ENDMDL
