MODEL 1
REMARK VINA RESULT:     -10.7      0.000      0.000
REMARK SMILES O=C(COc1ccccc1Br)Nc1cccc(C(=O)Nc2ccc(C(=O)OCCOC(=O)c3ccc(-c4c5nc(c(-c6ccc(S(=O)(=O)[O-])cc6)c6ccc([nH]6)c(-c6ccc(S(=O)(=O)[O-])cc6)c6nc(c(-c7ccc(S(=O)(=O)[O-])cc7)c7ccc4[nH]7)C=C6)C=C5)cc3)cc2)c1
REMARK SMILES IDX 27 1 25 2 26 3 24 4 21 5 22 6 94 7 23 8 93 9 20 10 18 11
REMARK SMILES IDX 19 12 17 14 13 15 14 16 95 17 15 18 16 19 12 20 1 21 2 22
REMARK SMILES IDX 3 24 4 25 5 26 6 27 10 28 7 29 9 30 11 31 8 32 28 33 29 34
REMARK SMILES IDX 30 35 31 36 32 37 33 38 34 39 92 40 35 41 91 42 36 43 37 44
REMARK SMILES IDX 38 45 85 46 39 47 90 48 84 49 86 50 40 51 89 52 83 53 82 54
REMARK SMILES IDX 41 56 71 57 52 58 70 59 53 60 56 61 69 62 87 63 54 64 55 65
REMARK SMILES IDX 68 67 88 68 57 69 42 70 43 71 51 72 44 73 50 74 45 75 46 76
REMARK SMILES IDX 47 77 48 78 49 79 72 80 73 81 81 82 74 83 80 84 75 85 76 86
REMARK SMILES IDX 77 87 78 88 79 89 58 90 59 91 67 92 60 93 66 94 61 95 62 96
REMARK SMILES IDX 63 97 64 98 65 99
REMARK H PARENT 20 13 12 23 86 55 56 66
REMARK Flexibility Score: inf
ROOT
ATOM      1  O   UNL A   1      39.227  22.662  26.174  1.00  0.00    -0.458 OA
ENDROOT
BRANCH   1   2
ATOM      2  C   UNL A   1      38.284  23.611  26.396  1.00  0.00     0.338 C 
ATOM      3  O   UNL A   1      38.488  24.698  26.915  1.00  0.00    -0.246 OA
BRANCH   2   4
ATOM      4  C   UNL A   1      36.938  23.181  25.942  1.00  0.00     0.060 A 
ATOM      5  C   UNL A   1      34.735  22.312  24.473  1.00  0.00     0.041 A 
ATOM      6  C   UNL A   1      35.585  21.372  25.046  1.00  0.00     0.027 A 
ATOM      7  C   UNL A   1      34.874  23.669  24.789  1.00  0.00     0.027 A 
ATOM      8  C   UNL A   1      36.714  21.813  25.732  1.00  0.00     0.018 A 
ATOM      9  C   UNL A   1      35.975  24.109  25.535  1.00  0.00     0.018 A 
BRANCH   5  10
ATOM     10  N   UNL A   1      33.881  21.849  23.460  1.00  0.00    -0.322 N 
ATOM     11  C   UNL A   1      32.503  21.942  23.371  1.00  0.00     0.255 C 
ATOM     12  O   UNL A   1      31.919  21.366  22.452  1.00  0.00    -0.269 OA
ATOM     13  H   UNL A   1      34.324  21.394  22.708  1.00  0.00     0.170 HD
BRANCH  11  14
ATOM     14  C   UNL A   1      31.695  22.778  24.311  1.00  0.00     0.042 A 
ATOM     15  C   UNL A   1      30.614  24.866  24.932  1.00  0.00     0.042 A 
ATOM     16  C   UNL A   1      30.342  24.335  26.195  1.00  0.00     0.026 A 
ATOM     17  C   UNL A   1      31.217  24.051  23.975  1.00  0.00     0.040 A 
ATOM     18  C   UNL A   1      30.685  23.016  26.496  1.00  0.00     0.003 A 
ATOM     19  C   UNL A   1      31.376  22.244  25.563  1.00  0.00     0.014 A 
BRANCH  15  20
ATOM     20  N   UNL A   1      30.281  26.215  24.708  1.00  0.00    -0.323 N 
ATOM     21  O   UNL A   1      30.886  26.529  22.479  1.00  0.00    -0.271 OA
ATOM     22  C   UNL A   1      30.429  26.942  23.538  1.00  0.00     0.262 C 
ATOM     23  H   UNL A   1      29.896  26.699  25.474  1.00  0.00     0.170 HD
BRANCH  22  24
ATOM     24  C   UNL A   1      29.981  28.393  23.697  1.00  0.00     0.329 C 
BRANCH  24  25
ATOM     25  O   UNL A   1      31.086  29.282  23.471  1.00  0.00    -0.483 OA
BRANCH  25  26
ATOM     26  C   UNL A   1      31.897  29.331  24.575  1.00  0.00     0.134 A 
ATOM     27  C   UNL A   1      31.400  29.984  25.706  1.00  0.00     0.047 A 
ATOM     28  C   UNL A   1      33.199  28.816  24.580  1.00  0.00     0.060 A 
ATOM     29  C   UNL A   1      32.182  30.077  26.857  1.00  0.00     0.004 A 
ATOM     30  C   UNL A   1      33.968  28.890  25.742  1.00  0.00     0.019 A 
ATOM     31  Br  UNL A   1      34.019  28.053  23.054  1.00  0.00    -0.047 Br
ATOM     32  C   UNL A   1      33.460  29.518  26.879  1.00  0.00     0.001 A 
ENDBRANCH  25  26
ENDBRANCH  24  25
ENDBRANCH  22  24
ENDBRANCH  15  20
ENDBRANCH  11  14
ENDBRANCH   5  10
ENDBRANCH   2   4
ENDBRANCH   1   2
BRANCH   1  33
ATOM     33  C   UNL A   1      40.453  22.874  26.905  1.00  0.00     0.275 C 
BRANCH  33  34
ATOM     34  C   UNL A   1      41.531  23.505  26.025  1.00  0.00     0.275 C 
BRANCH  34  35
ATOM     35  O   UNL A   1      41.317  24.923  25.896  1.00  0.00    -0.458 OA
BRANCH  35  36
ATOM     36  C   UNL A   1      42.398  25.704  26.132  1.00  0.00     0.338 C 
ATOM     37  O   UNL A   1      43.342  25.889  25.384  1.00  0.00    -0.246 OA
BRANCH  36  38
ATOM     38  C   UNL A   1      42.304  26.337  27.464  1.00  0.00     0.060 A 
ATOM     39  C   UNL A   1      41.474  25.804  28.447  1.00  0.00     0.016 A 
ATOM     40  C   UNL A   1      42.945  27.554  27.690  1.00  0.00     0.016 A 
ATOM     41  C   UNL A   1      41.183  26.536  29.598  1.00  0.00     0.010 A 
ATOM     42  C   UNL A   1      42.743  28.232  28.897  1.00  0.00     0.010 A 
ATOM     43  C   UNL A   1      41.820  27.758  29.848  1.00  0.00    -0.014 A 
BRANCH  43  44
ATOM     44  C   UNL A   1      41.496  28.565  31.061  1.00  0.00     0.031 A 
ATOM     45  C   UNL A   1      40.310  29.500  31.049  1.00  0.00     0.074 A 
ATOM     46  C   UNL A   1      42.245  28.472  32.179  1.00  0.00     0.049 A 
ATOM     47  N   UNL A   1      39.993  30.446  31.896  1.00  0.00    -0.248 NA
ATOM     48  C   UNL A   1      39.369  29.362  29.926  1.00  0.00     0.031 C 
ATOM     49  C   UNL A   1      43.388  27.577  32.370  1.00  0.00     0.029 A 
ATOM     50  N   UNL A   1      42.151  29.144  33.375  1.00  0.00    -0.354 N 
ATOM     51  C   UNL A   1      38.863  31.064  31.371  1.00  0.00     0.074 A 
ATOM     52  C   UNL A   1      38.547  30.381  30.135  1.00  0.00     0.031 C 
ATOM     53  C   UNL A   1      43.860  27.722  33.618  1.00  0.00     0.029 A 
ATOM     54  C   UNL A   1      43.119  28.789  34.284  1.00  0.00     0.049 A 
ATOM     55  H   UNL A   1      41.455  29.815  33.564  1.00  0.00     0.167 HD
ATOM     56  C   UNL A   1      38.159  32.111  31.866  1.00  0.00     0.031 A 
ATOM     57  C   UNL A   1      43.421  29.290  35.498  1.00  0.00     0.031 A 
ATOM     58  C   UNL A   1      38.444  32.757  33.121  1.00  0.00     0.049 A 
ATOM     59  C   UNL A   1      42.636  30.454  36.029  1.00  0.00     0.074 A 
ATOM     60  C   UNL A   1      37.797  33.831  33.705  1.00  0.00     0.029 A 
ATOM     61  N   UNL A   1      39.445  32.368  33.998  1.00  0.00    -0.354 N 
ATOM     62  N   UNL A   1      41.632  31.090  35.473  1.00  0.00    -0.248 NA
ATOM     63  C   UNL A   1      43.037  30.982  37.339  1.00  0.00     0.031 C 
ATOM     64  C   UNL A   1      38.424  34.110  34.926  1.00  0.00     0.029 A 
ATOM     65  C   UNL A   1      39.435  33.183  35.118  1.00  0.00     0.049 A 
ATOM     66  H   UNL A   1      40.071  31.624  33.846  1.00  0.00     0.167 HD
ATOM     67  C   UNL A   1      41.284  32.096  36.365  1.00  0.00     0.074 A 
ATOM     68  C   UNL A   1      42.165  31.969  37.507  1.00  0.00     0.031 C 
ATOM     69  C   UNL A   1      40.326  33.047  36.242  1.00  0.00     0.031 A 
BRANCH  56  70
ATOM     70  C   UNL A   1      37.041  32.655  31.017  1.00  0.00    -0.014 A 
ATOM     71  C   UNL A   1      37.295  33.431  29.872  1.00  0.00     0.010 A 
ATOM     72  C   UNL A   1      35.708  32.375  31.370  1.00  0.00     0.010 A 
ATOM     73  C   UNL A   1      36.236  33.959  29.126  1.00  0.00     0.020 A 
ATOM     74  C   UNL A   1      34.647  32.881  30.614  1.00  0.00     0.020 A 
ATOM     75  C   UNL A   1      34.918  33.689  29.510  1.00  0.00     0.054 A 
BRANCH  75  76
ATOM     76  S   UNL A   1      33.558  34.389  28.533  1.00  0.00     0.124 S 
ATOM     77  O   UNL A   1      32.563  34.669  29.565  1.00  0.00    -0.237 OA
ATOM     78  O   UNL A   1      34.170  35.564  27.916  1.00  0.00    -0.237 OA
ATOM     79  O   UNL A   1      33.210  33.315  27.607  1.00  0.00    -0.744 OA
ENDBRANCH  75  76
ENDBRANCH  56  70
BRANCH  57  80
ATOM     80  C   UNL A   1      44.566  28.722  36.260  1.00  0.00    -0.014 A 
ATOM     81  C   UNL A   1      45.847  29.288  36.157  1.00  0.00     0.010 A 
ATOM     82  C   UNL A   1      44.362  27.641  37.139  1.00  0.00     0.010 A 
ATOM     83  C   UNL A   1      46.904  28.791  36.926  1.00  0.00     0.020 A 
ATOM     84  C   UNL A   1      45.410  27.158  37.927  1.00  0.00     0.020 A 
ATOM     85  C   UNL A   1      46.676  27.733  37.813  1.00  0.00     0.054 A 
BRANCH  85  86
ATOM     86  S   UNL A   1      48.032  27.164  38.877  1.00  0.00     0.124 S 
ATOM     87  O   UNL A   1      48.455  28.405  39.519  1.00  0.00    -0.237 OA
ATOM     88  O   UNL A   1      47.371  26.195  39.749  1.00  0.00    -0.237 OA
ATOM     89  O   UNL A   1      48.986  26.588  37.932  1.00  0.00    -0.744 OA
ENDBRANCH  85  86
ENDBRANCH  57  80
BRANCH  69  90
ATOM     90  C   UNL A   1      40.173  34.016  37.381  1.00  0.00    -0.014 A 
ATOM     91  C   UNL A   1      40.733  35.304  37.312  1.00  0.00     0.010 A 
ATOM     92  C   UNL A   1      39.428  33.648  38.515  1.00  0.00     0.010 A 
ATOM     93  C   UNL A   1      40.572  36.199  38.373  1.00  0.00     0.020 A 
ATOM     94  C   UNL A   1      39.250  34.546  39.569  1.00  0.00     0.020 A 
ATOM     95  C   UNL A   1      39.835  35.813  39.497  1.00  0.00     0.054 A 
BRANCH  95  96
ATOM     96  S   UNL A   1      39.608  37.002  40.849  1.00  0.00     0.124 S 
ATOM     97  O   UNL A   1      40.908  36.960  41.511  1.00  0.00    -0.237 OA
ATOM     98  O   UNL A   1      39.303  38.243  40.140  1.00  0.00    -0.237 OA
ATOM     99  O   UNL A   1      38.498  36.443  41.617  1.00  0.00    -0.744 OA
ENDBRANCH  95  96
ENDBRANCH  69  90
ENDBRANCH  43  44
ENDBRANCH  36  38
ENDBRANCH  35  36
ENDBRANCH  34  35
ENDBRANCH  33  34
ENDBRANCH   1  33
TORSDOF 20
ENDMDL
MODEL 2
REMARK VINA RESULT:     -10.6      6.096      8.488
REMARK SMILES O=C(COc1ccccc1Br)Nc1cccc(C(=O)Nc2ccc(C(=O)OCCOC(=O)c3ccc(-c4c5nc(c(-c6ccc(S(=O)(=O)[O-])cc6)c6ccc([nH]6)c(-c6ccc(S(=O)(=O)[O-])cc6)c6nc(c(-c7ccc(S(=O)(=O)[O-])cc7)c7ccc4[nH]7)C=C6)C=C5)cc3)cc2)c1
REMARK SMILES IDX 27 1 25 2 26 3 24 4 21 5 22 6 94 7 23 8 93 9 20 10 18 11
REMARK SMILES IDX 19 12 17 14 13 15 14 16 95 17 15 18 16 19 12 20 1 21 2 22
REMARK SMILES IDX 3 24 4 25 5 26 6 27 10 28 7 29 9 30 11 31 8 32 28 33 29 34
REMARK SMILES IDX 30 35 31 36 32 37 33 38 34 39 92 40 35 41 91 42 36 43 37 44
REMARK SMILES IDX 38 45 85 46 39 47 90 48 84 49 86 50 40 51 89 52 83 53 82 54
REMARK SMILES IDX 41 56 71 57 52 58 70 59 53 60 56 61 69 62 87 63 54 64 55 65
REMARK SMILES IDX 68 67 88 68 57 69 42 70 43 71 51 72 44 73 50 74 45 75 46 76
REMARK SMILES IDX 47 77 48 78 49 79 72 80 73 81 81 82 74 83 80 84 75 85 76 86
REMARK SMILES IDX 77 87 78 88 79 89 58 90 59 91 67 92 60 93 66 94 61 95 62 96
REMARK SMILES IDX 63 97 64 98 65 99
REMARK H PARENT 20 13 12 23 86 55 56 66
REMARK Flexibility Score: inf
ROOT
ATOM      1  O   UNL A   1      40.048  20.542  25.787  1.00  0.00    -0.458 OA
ENDROOT
BRANCH   1   2
ATOM      2  C   UNL A   1      39.514  21.768  26.017  1.00  0.00     0.338 C 
ATOM      3  O   UNL A   1      40.118  22.722  26.484  1.00  0.00    -0.246 OA
BRANCH   2   4
ATOM      4  C   UNL A   1      38.080  21.833  25.643  1.00  0.00     0.060 A 
ATOM      5  C   UNL A   1      35.295  21.727  25.596  1.00  0.00     0.041 A 
ATOM      6  C   UNL A   1      35.925  22.880  26.055  1.00  0.00     0.027 A 
ATOM      7  C   UNL A   1      36.045  20.712  24.989  1.00  0.00     0.027 A 
ATOM      8  C   UNL A   1      37.315  22.905  26.127  1.00  0.00     0.018 A 
ATOM      9  C   UNL A   1      37.444  20.766  25.002  1.00  0.00     0.018 A 
BRANCH   5  10
ATOM     10  N   UNL A   1      33.941  21.578  25.931  1.00  0.00    -0.322 N 
ATOM     11  C   UNL A   1      32.828  22.164  25.351  1.00  0.00     0.255 C 
ATOM     12  O   UNL A   1      31.722  21.997  25.866  1.00  0.00    -0.269 OA
ATOM     13  H   UNL A   1      33.755  20.973  26.685  1.00  0.00     0.170 HD
BRANCH  11  14
ATOM     14  C   UNL A   1      32.907  22.938  24.074  1.00  0.00     0.042 A 
ATOM     15  C   UNL A   1      32.684  24.999  22.802  1.00  0.00     0.042 A 
ATOM     16  C   UNL A   1      32.895  24.279  21.623  1.00  0.00     0.026 A 
ATOM     17  C   UNL A   1      32.773  24.332  24.023  1.00  0.00     0.040 A 
ATOM     18  C   UNL A   1      33.173  22.912  21.670  1.00  0.00     0.003 A 
ATOM     19  C   UNL A   1      33.161  22.239  22.891  1.00  0.00     0.014 A 
BRANCH  15  20
ATOM     20  N   UNL A   1      32.367  26.364  22.682  1.00  0.00    -0.323 N 
ATOM     21  O   UNL A   1      34.177  27.404  23.720  1.00  0.00    -0.271 OA
ATOM     22  C   UNL A   1      33.104  27.449  23.131  1.00  0.00     0.262 C 
ATOM     23  H   UNL A   1      31.521  26.574  22.225  1.00  0.00     0.170 HD
BRANCH  22  24
ATOM     24  C   UNL A   1      32.414  28.779  22.840  1.00  0.00     0.329 C 
BRANCH  24  25
ATOM     25  O   UNL A   1      31.267  28.940  23.690  1.00  0.00    -0.483 OA
BRANCH  25  26
ATOM     26  C   UNL A   1      31.633  28.867  25.010  1.00  0.00     0.134 A 
ATOM     27  C   UNL A   1      32.512  29.843  25.484  1.00  0.00     0.047 A 
ATOM     28  C   UNL A   1      31.213  27.833  25.855  1.00  0.00     0.060 A 
ATOM     29  C   UNL A   1      32.931  29.817  26.815  1.00  0.00     0.004 A 
ATOM     30  C   UNL A   1      31.616  27.825  27.191  1.00  0.00     0.019 A 
ATOM     31  Br  UNL A   1      30.150  26.380  25.269  1.00  0.00    -0.047 Br
ATOM     32  C   UNL A   1      32.472  28.816  27.670  1.00  0.00     0.001 A 
ENDBRANCH  25  26
ENDBRANCH  24  25
ENDBRANCH  22  24
ENDBRANCH  15  20
ENDBRANCH  11  14
ENDBRANCH   5  10
ENDBRANCH   2   4
ENDBRANCH   1   2
BRANCH   1  33
ATOM     33  C   UNL A   1      40.842  20.035  26.880  1.00  0.00     0.275 C 
BRANCH  33  34
ATOM     34  C   UNL A   1      42.008  19.183  26.382  1.00  0.00     0.275 C 
BRANCH  34  35
ATOM     35  O   UNL A   1      42.456  19.637  25.091  1.00  0.00    -0.458 OA
BRANCH  35  36
ATOM     36  C   UNL A   1      43.753  20.016  25.020  1.00  0.00     0.338 C 
ATOM     37  O   UNL A   1      44.694  19.337  24.645  1.00  0.00    -0.246 OA
BRANCH  36  38
ATOM     38  C   UNL A   1      43.915  21.414  25.473  1.00  0.00     0.060 A 
ATOM     39  C   UNL A   1      43.902  22.463  24.557  1.00  0.00     0.016 A 
ATOM     40  C   UNL A   1      44.221  21.670  26.809  1.00  0.00     0.016 A 
ATOM     41  C   UNL A   1      44.313  23.740  24.940  1.00  0.00     0.010 A 
ATOM     42  C   UNL A   1      44.519  22.976  27.216  1.00  0.00     0.010 A 
ATOM     43  C   UNL A   1      44.618  24.020  26.278  1.00  0.00    -0.014 A 
BRANCH  43  44
ATOM     44  C   UNL A   1      45.087  25.374  26.696  1.00  0.00     0.031 A 
ATOM     45  C   UNL A   1      44.116  26.351  27.315  1.00  0.00     0.074 A 
ATOM     46  C   UNL A   1      46.374  25.746  26.533  1.00  0.00     0.049 A 
ATOM     47  N   UNL A   1      44.257  27.634  27.532  1.00  0.00    -0.248 NA
ATOM     48  C   UNL A   1      42.809  25.814  27.728  1.00  0.00     0.031 C 
ATOM     49  C   UNL A   1      47.446  24.902  26.001  1.00  0.00     0.029 A 
ATOM     50  N   UNL A   1      47.000  26.939  26.804  1.00  0.00    -0.354 N 
ATOM     51  C   UNL A   1      43.035  28.071  28.034  1.00  0.00     0.074 A 
ATOM     52  C   UNL A   1      42.167  26.914  28.095  1.00  0.00     0.031 C 
ATOM     53  C   UNL A   1      48.600  25.585  26.026  1.00  0.00     0.029 A 
ATOM     54  C   UNL A   1      48.336  26.946  26.481  1.00  0.00     0.049 A 
ATOM     55  H   UNL A   1      46.536  27.715  27.194  1.00  0.00     0.167 HD
ATOM     56  C   UNL A   1      42.666  29.322  28.401  1.00  0.00     0.031 A 
ATOM     57  C   UNL A   1      49.246  27.941  26.495  1.00  0.00     0.031 A 
ATOM     58  C   UNL A   1      43.545  30.462  28.388  1.00  0.00     0.049 A 
ATOM     59  C   UNL A   1      48.818  29.322  26.898  1.00  0.00     0.074 A 
ATOM     60  C   UNL A   1      43.264  31.773  28.730  1.00  0.00     0.029 A 
ATOM     61  N   UNL A   1      44.886  30.419  28.038  1.00  0.00    -0.354 N 
ATOM     62  N   UNL A   1      47.633  29.738  27.275  1.00  0.00    -0.248 NA
ATOM     63  C   UNL A   1      49.844  30.372  26.855  1.00  0.00     0.031 C 
ATOM     64  C   UNL A   1      44.430  32.530  28.562  1.00  0.00     0.029 A 
ATOM     65  C   UNL A   1      45.446  31.681  28.155  1.00  0.00     0.049 A 
ATOM     66  H   UNL A   1      45.369  29.612  27.749  1.00  0.00     0.167 HD
ATOM     67  C   UNL A   1      47.770  31.100  27.511  1.00  0.00     0.074 A 
ATOM     68  C   UNL A   1      49.157  31.433  27.261  1.00  0.00     0.031 C 
ATOM     69  C   UNL A   1      46.827  31.996  27.892  1.00  0.00     0.031 A 
BRANCH  56  70
ATOM     70  C   UNL A   1      41.228  29.530  28.797  1.00  0.00    -0.014 A 
ATOM     71  C   UNL A   1      40.873  29.962  30.087  1.00  0.00     0.010 A 
ATOM     72  C   UNL A   1      40.212  29.293  27.852  1.00  0.00     0.010 A 
ATOM     73  C   UNL A   1      39.527  30.105  30.440  1.00  0.00     0.020 A 
ATOM     74  C   UNL A   1      38.867  29.457  28.193  1.00  0.00     0.020 A 
ATOM     75  C   UNL A   1      38.532  29.840  29.493  1.00  0.00     0.054 A 
BRANCH  75  76
ATOM     76  S   UNL A   1      36.791  30.025  29.972  1.00  0.00     0.124 S 
ATOM     77  O   UNL A   1      36.101  29.567  28.769  1.00  0.00    -0.237 OA
ATOM     78  O   UNL A   1      36.678  29.145  31.133  1.00  0.00    -0.237 OA
ATOM     79  O   UNL A   1      36.662  31.450  30.261  1.00  0.00    -0.744 OA
ENDBRANCH  75  76
ENDBRANCH  56  70
BRANCH  57  80
ATOM     80  C   UNL A   1      50.639  27.664  26.052  1.00  0.00    -0.014 A 
ATOM     81  C   UNL A   1      51.636  27.336  26.986  1.00  0.00     0.010 A 
ATOM     82  C   UNL A   1      50.960  27.675  24.682  1.00  0.00     0.010 A 
ATOM     83  C   UNL A   1      52.927  27.013  26.557  1.00  0.00     0.020 A 
ATOM     84  C   UNL A   1      52.242  27.328  24.249  1.00  0.00     0.020 A 
ATOM     85  C   UNL A   1      53.220  27.003  25.190  1.00  0.00     0.054 A 
BRANCH  85  86
ATOM     86  S   UNL A   1      54.871  26.485  24.642  1.00  0.00     0.124 S 
ATOM     87  O   UNL A   1      54.811  26.747  23.208  1.00  0.00    -0.237 OA
ATOM     88  O   UNL A   1      55.754  27.362  25.409  1.00  0.00    -0.237 OA
ATOM     89  O   UNL A   1      54.927  25.075  25.021  1.00  0.00    -0.744 OA
ENDBRANCH  85  86
ENDBRANCH  57  80
BRANCH  69  90
ATOM     90  C   UNL A   1      47.270  33.421  28.074  1.00  0.00    -0.014 A 
ATOM     91  C   UNL A   1      47.864  33.843  29.277  1.00  0.00     0.010 A 
ATOM     92  C   UNL A   1      47.126  34.337  27.017  1.00  0.00     0.010 A 
ATOM     93  C   UNL A   1      48.283  35.168  29.429  1.00  0.00     0.020 A 
ATOM     94  C   UNL A   1      47.561  35.656  27.159  1.00  0.00     0.020 A 
ATOM     95  C   UNL A   1      48.124  36.067  28.370  1.00  0.00     0.054 A 
BRANCH  95  96
ATOM     96  S   UNL A   1      48.706  37.774  28.574  1.00  0.00     0.124 S 
ATOM     97  O   UNL A   1      49.051  37.809  29.992  1.00  0.00    -0.237 OA
ATOM     98  O   UNL A   1      49.837  37.843  27.651  1.00  0.00    -0.237 OA
ATOM     99  O   UNL A   1      47.550  38.580  28.193  1.00  0.00    -0.744 OA
ENDBRANCH  95  96
ENDBRANCH  69  90
ENDBRANCH  43  44
ENDBRANCH  36  38
ENDBRANCH  35  36
ENDBRANCH  34  35
ENDBRANCH  33  34
ENDBRANCH   1  33
TORSDOF 20
ENDMDL
MODEL 3
REMARK VINA RESULT:     -10.6      1.418      8.007
REMARK SMILES O=C(COc1ccccc1Br)Nc1cccc(C(=O)Nc2ccc(C(=O)OCCOC(=O)c3ccc(-c4c5nc(c(-c6ccc(S(=O)(=O)[O-])cc6)c6ccc([nH]6)c(-c6ccc(S(=O)(=O)[O-])cc6)c6nc(c(-c7ccc(S(=O)(=O)[O-])cc7)c7ccc4[nH]7)C=C6)C=C5)cc3)cc2)c1
REMARK SMILES IDX 27 1 25 2 26 3 24 4 21 5 22 6 94 7 23 8 93 9 20 10 18 11
REMARK SMILES IDX 19 12 17 14 13 15 14 16 95 17 15 18 16 19 12 20 1 21 2 22
REMARK SMILES IDX 3 24 4 25 5 26 6 27 10 28 7 29 9 30 11 31 8 32 28 33 29 34
REMARK SMILES IDX 30 35 31 36 32 37 33 38 34 39 92 40 35 41 91 42 36 43 37 44
REMARK SMILES IDX 38 45 85 46 39 47 90 48 84 49 86 50 40 51 89 52 83 53 82 54
REMARK SMILES IDX 41 56 71 57 52 58 70 59 53 60 56 61 69 62 87 63 54 64 55 65
REMARK SMILES IDX 68 67 88 68 57 69 42 70 43 71 51 72 44 73 50 74 45 75 46 76
REMARK SMILES IDX 47 77 48 78 49 79 72 80 73 81 81 82 74 83 80 84 75 85 76 86
REMARK SMILES IDX 77 87 78 88 79 89 58 90 59 91 67 92 60 93 66 94 61 95 62 96
REMARK SMILES IDX 63 97 64 98 65 99
REMARK H PARENT 20 13 12 23 86 55 56 66
REMARK Flexibility Score: inf
ROOT
ATOM      1  O   UNL A   1      39.816  21.870  25.843  1.00  0.00    -0.458 OA
ENDROOT
BRANCH   1   2
ATOM      2  C   UNL A   1      38.707  22.609  26.098  1.00  0.00     0.338 C 
ATOM      3  O   UNL A   1      38.701  23.707  26.634  1.00  0.00    -0.246 OA
BRANCH   2   4
ATOM      4  C   UNL A   1      37.466  21.927  25.657  1.00  0.00     0.060 A 
ATOM      5  C   UNL A   1      35.178  20.347  25.458  1.00  0.00     0.041 A 
ATOM      6  C   UNL A   1      35.085  21.611  26.032  1.00  0.00     0.027 A 
ATOM      7  C   UNL A   1      36.360  19.953  24.817  1.00  0.00     0.027 A 
ATOM      8  C   UNL A   1      36.242  22.372  26.178  1.00  0.00     0.018 A 
ATOM      9  C   UNL A   1      37.508  20.749  24.906  1.00  0.00     0.018 A 
BRANCH   5  10
ATOM     10  N   UNL A   1      34.117  19.465  25.711  1.00  0.00    -0.322 N 
ATOM     11  C   UNL A   1      32.883  19.383  25.088  1.00  0.00     0.255 C 
ATOM     12  O   UNL A   1      32.034  18.610  25.534  1.00  0.00    -0.269 OA
ATOM     13  H   UNL A   1      34.271  18.813  26.432  1.00  0.00     0.170 HD
BRANCH  11  14
ATOM     14  C   UNL A   1      32.562  20.149  23.845  1.00  0.00     0.042 A 
ATOM     15  C   UNL A   1      32.093  22.227  22.671  1.00  0.00     0.042 A 
ATOM     16  C   UNL A   1      31.781  21.493  21.524  1.00  0.00     0.026 A 
ATOM     17  C   UNL A   1      32.559  21.550  23.797  1.00  0.00     0.040 A 
ATOM     18  C   UNL A   1      31.918  20.104  21.514  1.00  0.00     0.003 A 
ATOM     19  C   UNL A   1      32.290  19.432  22.677  1.00  0.00     0.014 A 
BRANCH  15  20
ATOM     20  N   UNL A   1      31.892  23.619  22.627  1.00  0.00    -0.323 N 
ATOM     21  O   UNL A   1      34.048  24.436  22.279  1.00  0.00    -0.271 OA
ATOM     22  C   UNL A   1      32.846  24.608  22.440  1.00  0.00     0.262 C 
ATOM     23  H   UNL A   1      30.964  23.927  22.742  1.00  0.00     0.170 HD
BRANCH  22  24
ATOM     24  C   UNL A   1      32.242  26.009  22.484  1.00  0.00     0.329 C 
BRANCH  24  25
ATOM     25  O   UNL A   1      31.168  26.057  23.436  1.00  0.00    -0.483 OA
BRANCH  25  26
ATOM     26  C   UNL A   1      31.394  27.038  24.368  1.00  0.00     0.134 A 
ATOM     27  C   UNL A   1      31.926  26.641  25.597  1.00  0.00     0.047 A 
ATOM     28  C   UNL A   1      31.057  28.379  24.152  1.00  0.00     0.060 A 
ATOM     29  C   UNL A   1      32.168  27.590  26.591  1.00  0.00     0.004 A 
ATOM     30  C   UNL A   1      31.324  29.327  25.140  1.00  0.00     0.019 A 
ATOM     31  Br  UNL A   1      30.190  28.991  22.583  1.00  0.00    -0.047 Br
ATOM     32  C   UNL A   1      31.880  28.934  26.356  1.00  0.00     0.001 A 
ENDBRANCH  25  26
ENDBRANCH  24  25
ENDBRANCH  22  24
ENDBRANCH  15  20
ENDBRANCH  11  14
ENDBRANCH   5  10
ENDBRANCH   2   4
ENDBRANCH   1   2
BRANCH   1  33
ATOM     33  C   UNL A   1      40.891  22.085  26.781  1.00  0.00     0.275 C 
BRANCH  33  34
ATOM     34  C   UNL A   1      42.013  22.923  26.170  1.00  0.00     0.275 C 
BRANCH  34  35
ATOM     35  O   UNL A   1      41.661  24.318  26.164  1.00  0.00    -0.458 OA
BRANCH  35  36
ATOM     36  C   UNL A   1      42.701  25.186  26.154  1.00  0.00     0.338 C 
ATOM     37  O   UNL A   1      43.560  25.287  25.295  1.00  0.00    -0.246 OA
BRANCH  36  38
ATOM     38  C   UNL A   1      42.681  26.038  27.362  1.00  0.00     0.060 A 
ATOM     39  C   UNL A   1      41.904  25.690  28.464  1.00  0.00     0.016 A 
ATOM     40  C   UNL A   1      43.336  27.269  27.341  1.00  0.00     0.016 A 
ATOM     41  C   UNL A   1      41.678  26.612  29.486  1.00  0.00     0.010 A 
ATOM     42  C   UNL A   1      43.202  28.146  28.424  1.00  0.00     0.010 A 
ATOM     43  C   UNL A   1      42.331  27.851  29.489  1.00  0.00    -0.014 A 
BRANCH  43  44
ATOM     44  C   UNL A   1      42.074  28.856  30.562  1.00  0.00     0.031 A 
ATOM     45  C   UNL A   1      43.000  28.943  31.751  1.00  0.00     0.074 A 
ATOM     46  C   UNL A   1      41.024  29.701  30.488  1.00  0.00     0.049 A 
ATOM     47  N   UNL A   1      42.834  29.574  32.886  1.00  0.00    -0.248 NA
ATOM     48  C   UNL A   1      44.272  28.209  31.656  1.00  0.00     0.031 C 
ATOM     49  C   UNL A   1      40.070  29.781  29.380  1.00  0.00     0.029 A 
ATOM     50  N   UNL A   1      40.585  30.659  31.369  1.00  0.00    -0.354 N 
ATOM     51  C   UNL A   1      43.939  29.251  33.667  1.00  0.00     0.074 A 
ATOM     52  C   UNL A   1      44.773  28.374  32.872  1.00  0.00     0.031 C 
ATOM     53  C   UNL A   1      39.188  30.762  29.626  1.00  0.00     0.029 A 
ATOM     54  C   UNL A   1      39.451  31.315  30.951  1.00  0.00     0.049 A 
ATOM     55  H   UNL A   1      41.040  30.860  32.219  1.00  0.00     0.167 HD
ATOM     56  C   UNL A   1      44.230  29.641  34.931  1.00  0.00     0.031 A 
ATOM     57  C   UNL A   1      38.672  32.222  31.572  1.00  0.00     0.031 A 
ATOM     58  C   UNL A   1      43.427  30.553  35.702  1.00  0.00     0.049 A 
ATOM     59  C   UNL A   1      39.004  32.638  32.976  1.00  0.00     0.074 A 
ATOM     60  C   UNL A   1      43.629  31.002  36.995  1.00  0.00     0.029 A 
ATOM     61  N   UNL A   1      42.279  31.178  35.238  1.00  0.00    -0.354 N 
ATOM     62  N   UNL A   1      40.001  32.247  33.735  1.00  0.00    -0.248 NA
ATOM     63  C   UNL A   1      38.096  33.599  33.616  1.00  0.00     0.031 C 
ATOM     64  C   UNL A   1      42.588  31.879  37.323  1.00  0.00     0.029 A 
ATOM     65  C   UNL A   1      41.762  32.007  36.219  1.00  0.00     0.049 A 
ATOM     66  H   UNL A   1      41.889  31.051  34.343  1.00  0.00     0.167 HD
ATOM     67  C   UNL A   1      39.836  32.912  34.944  1.00  0.00     0.074 A 
ATOM     68  C   UNL A   1      38.662  33.749  34.806  1.00  0.00     0.031 C 
ATOM     69  C   UNL A   1      40.586  32.827  36.069  1.00  0.00     0.031 A 
BRANCH  56  70
ATOM     70  C   UNL A   1      45.447  29.035  35.578  1.00  0.00    -0.014 A 
ATOM     71  C   UNL A   1      46.711  29.645  35.491  1.00  0.00     0.010 A 
ATOM     72  C   UNL A   1      45.318  27.831  36.296  1.00  0.00     0.010 A 
ATOM     73  C   UNL A   1      47.831  29.036  36.066  1.00  0.00     0.020 A 
ATOM     74  C   UNL A   1      46.430  27.232  36.893  1.00  0.00     0.020 A 
ATOM     75  C   UNL A   1      47.685  27.827  36.754  1.00  0.00     0.054 A 
BRANCH  75  76
ATOM     76  S   UNL A   1      49.152  27.049  37.487  1.00  0.00     0.124 S 
ATOM     77  O   UNL A   1      48.765  25.641  37.506  1.00  0.00    -0.237 OA
ATOM     78  O   UNL A   1      50.211  27.396  36.542  1.00  0.00    -0.237 OA
ATOM     79  O   UNL A   1      49.260  27.684  38.797  1.00  0.00    -0.744 OA
ENDBRANCH  75  76
ENDBRANCH  56  70
BRANCH  57  80
ATOM     80  C   UNL A   1      37.464  32.746  30.880  1.00  0.00    -0.014 A 
ATOM     81  C   UNL A   1      36.195  32.207  31.146  1.00  0.00     0.010 A 
ATOM     82  C   UNL A   1      37.576  33.830  29.988  1.00  0.00     0.010 A 
ATOM     83  C   UNL A   1      35.055  32.748  30.541  1.00  0.00     0.020 A 
ATOM     84  C   UNL A   1      36.437  34.389  29.402  1.00  0.00     0.020 A 
ATOM     85  C   UNL A   1      35.184  33.841  29.679  1.00  0.00     0.054 A 
BRANCH  85  86
ATOM     86  S   UNL A   1      33.688  34.596  28.980  1.00  0.00     0.124 S 
ATOM     87  O   UNL A   1      33.227  33.561  28.060  1.00  0.00    -0.237 OA
ATOM     88  O   UNL A   1      32.855  34.811  30.160  1.00  0.00    -0.237 OA
ATOM     89  O   UNL A   1      34.188  35.817  28.350  1.00  0.00    -0.744 OA
ENDBRANCH  85  86
ENDBRANCH  57  80
BRANCH  69  90
ATOM     90  C   UNL A   1      40.166  33.675  37.237  1.00  0.00    -0.014 A 
ATOM     91  C   UNL A   1      40.626  34.997  37.371  1.00  0.00     0.010 A 
ATOM     92  C   UNL A   1      39.271  33.156  38.189  1.00  0.00     0.010 A 
ATOM     93  C   UNL A   1      40.217  35.778  38.455  1.00  0.00     0.020 A 
ATOM     94  C   UNL A   1      38.847  33.940  39.264  1.00  0.00     0.020 A 
ATOM     95  C   UNL A   1      39.333  35.243  39.398  1.00  0.00     0.054 A 
BRANCH  95  96
ATOM     96  S   UNL A   1      38.787  36.285  40.779  1.00  0.00     0.124 S 
ATOM     97  O   UNL A   1      37.684  35.505  41.330  1.00  0.00    -0.237 OA
ATOM     98  O   UNL A   1      39.982  36.363  41.617  1.00  0.00    -0.237 OA
ATOM     99  O   UNL A   1      38.405  37.539  40.135  1.00  0.00    -0.744 OA
ENDBRANCH  95  96
ENDBRANCH  69  90
ENDBRANCH  43  44
ENDBRANCH  36  38
ENDBRANCH  35  36
ENDBRANCH  34  35
ENDBRANCH  33  34
ENDBRANCH   1  33
TORSDOF 20
ENDMDL
