MODEL 1
REMARK VINA RESULT:      -9.9      0.000      0.000
REMARK SMILES Cc1nc(C[N@@H+]2CCC[C@H]2C(=O)OCCOC(=O)c2ccc(-c3c4nc(c(-c5ccc(S(=O)(=O)[O-])cc5)c5ccc([nH]5)c(-c5ccc(S(=O)(=O)[O-])cc5)c5nc(c(-c6ccc(S(=O)(=O)[O-])cc6)c6ccc3[nH]6)C=C5)C=C4)cc2)cs1
REMARK SMILES IDX 15 1 14 2 13 3 11 4 12 5 10 6 6 7 7 8 8 10 9 11 5 12 4 13
REMARK SMILES IDX 1 14 2 15 3 16 80 17 79 18 16 19 17 20 18 21 19 22 20 23
REMARK SMILES IDX 78 24 21 25 77 26 22 27 23 28 24 29 71 30 25 31 76 32 70 33
REMARK SMILES IDX 72 34 26 35 75 36 69 37 68 38 27 40 57 41 38 42 56 43 39 44
REMARK SMILES IDX 42 45 55 46 73 47 40 48 41 49 54 51 74 52 43 53 28 54 29 55
REMARK SMILES IDX 37 56 30 57 36 58 31 59 32 60 33 61 34 62 35 63 58 64 59 65
REMARK SMILES IDX 67 66 60 67 66 68 61 69 62 70 63 71 64 72 65 73 44 74 45 75
REMARK SMILES IDX 53 76 46 77 52 78 47 79 48 80 49 81 50 82 51 83
REMARK H PARENT 6 9 72 39 42 50
REMARK Flexibility Score: inf
ROOT
ATOM      1  C   UNL A   1      34.029  32.415  28.637  1.00  0.00     0.275 C 
ENDROOT
BRANCH   1   2
ATOM      2  C   UNL A   1      34.216  33.885  28.269  1.00  0.00     0.274 C 
BRANCH   2   3
ATOM      3  O   UNL A   1      34.360  34.656  29.474  1.00  0.00    -0.458 OA
BRANCH   3   4
ATOM      4  C   UNL A   1      33.260  35.358  29.878  1.00  0.00     0.365 C 
ATOM      5  O   UNL A   1      32.588  36.081  29.153  1.00  0.00    -0.245 OA
BRANCH   4   6
ATOM      6  C   UNL A   1      32.950  35.054  31.354  1.00  0.00     0.295 C 
ATOM      7  N   UNL A   1      34.202  34.809  32.092  1.00  0.00    -0.318 N 
ATOM      8  C   UNL A   1      34.631  36.098  32.626  1.00  0.00     0.263 C 
ATOM      9  H   UNL A   1      34.935  34.454  31.477  1.00  0.00     0.349 HD
ATOM     10  C   UNL A   1      33.390  36.959  32.798  1.00  0.00     0.068 C 
ATOM     11  C   UNL A   1      32.281  36.248  32.039  1.00  0.00     0.083 C 
BRANCH   7  12
ATOM     12  C   UNL A   1      34.098  33.709  33.064  1.00  0.00     0.321 C 
BRANCH  12  13
ATOM     13  C   UNL A   1      35.399  33.196  33.619  1.00  0.00     0.106 A 
ATOM     14  C   UNL A   1      37.678  33.286  36.486  1.00  0.00     0.079 C 
ATOM     15  C   UNL A   1      36.956  33.060  35.203  1.00  0.00     0.090 A 
ATOM     16  N   UNL A   1      35.834  33.657  34.859  1.00  0.00    -0.241 NA
ATOM     17  S   UNL A   1      37.578  31.948  34.051  1.00  0.00    -0.127 S 
ATOM     18  C   UNL A   1      36.225  32.247  33.046  1.00  0.00     0.096 A 
ENDBRANCH  12  13
ENDBRANCH   7  12
ENDBRANCH   4   6
ENDBRANCH   3   4
ENDBRANCH   2   3
ENDBRANCH   1   2
BRANCH   1  19
ATOM     19  O   UNL A   1      34.298  31.592  27.487  1.00  0.00    -0.458 OA
BRANCH  19  20
ATOM     20  C   UNL A   1      34.365  30.259  27.717  1.00  0.00     0.338 C 
ATOM     21  O   UNL A   1      33.465  29.443  27.661  1.00  0.00    -0.246 OA
BRANCH  20  22
ATOM     22  C   UNL A   1      35.758  29.914  28.038  1.00  0.00     0.060 A 
ATOM     23  C   UNL A   1      36.076  29.511  29.335  1.00  0.00     0.016 A 
ATOM     24  C   UNL A   1      36.754  30.039  27.072  1.00  0.00     0.016 A 
ATOM     25  C   UNL A   1      37.396  29.239  29.683  1.00  0.00     0.010 A 
ATOM     26  C   UNL A   1      38.074  29.719  27.408  1.00  0.00     0.010 A 
ATOM     27  C   UNL A   1      38.405  29.317  28.715  1.00  0.00    -0.014 A 
BRANCH  27  28
ATOM     28  C   UNL A   1      39.803  28.962  29.063  1.00  0.00     0.031 A 
ATOM     29  C   UNL A   1      40.705  29.979  29.702  1.00  0.00     0.074 A 
ATOM     30  C   UNL A   1      40.263  27.726  28.789  1.00  0.00     0.049 A 
ATOM     31  N   UNL A   1      41.990  29.906  29.936  1.00  0.00    -0.248 NA
ATOM     32  C   UNL A   1      40.083  31.240  30.135  1.00  0.00     0.031 C 
ATOM     33  C   UNL A   1      39.469  26.631  28.225  1.00  0.00     0.029 A 
ATOM     34  N   UNL A   1      41.514  27.182  28.945  1.00  0.00    -0.354 N 
ATOM     35  C   UNL A   1      42.340  31.122  30.508  1.00  0.00     0.074 A 
ATOM     36  C   UNL A   1      41.131  31.915  30.590  1.00  0.00     0.031 C 
ATOM     37  C   UNL A   1      40.248  25.545  28.094  1.00  0.00     0.029 A 
ATOM     38  C   UNL A   1      41.609  25.887  28.492  1.00  0.00     0.049 A 
ATOM     39  H   UNL A   1      42.269  27.672  29.343  1.00  0.00     0.167 HD
ATOM     40  C   UNL A   1      43.560  31.539  30.920  1.00  0.00     0.031 A 
ATOM     41  C   UNL A   1      42.680  25.080  28.365  1.00  0.00     0.031 A 
ATOM     42  C   UNL A   1      44.755  30.741  30.847  1.00  0.00     0.049 A 
ATOM     43  C   UNL A   1      44.039  25.604  28.736  1.00  0.00     0.074 A 
ATOM     44  C   UNL A   1      46.034  31.065  31.265  1.00  0.00     0.029 A 
ATOM     45  N   UNL A   1      44.821  29.463  30.314  1.00  0.00    -0.354 N 
ATOM     46  N   UNL A   1      44.357  26.762  29.261  1.00  0.00    -0.248 NA
ATOM     47  C   UNL A   1      45.183  24.722  28.469  1.00  0.00     0.031 C 
ATOM     48  C   UNL A   1      46.883  30.002  30.938  1.00  0.00     0.029 A 
ATOM     49  C   UNL A   1      46.125  28.998  30.357  1.00  0.00     0.049 A 
ATOM     50  H   UNL A   1      44.054  28.958  29.958  1.00  0.00     0.167 HD
ATOM     51  C   UNL A   1      45.741  26.749  29.388  1.00  0.00     0.074 A 
ATOM     52  C   UNL A   1      46.196  25.461  28.906  1.00  0.00     0.031 C 
ATOM     53  C   UNL A   1      46.561  27.721  29.857  1.00  0.00     0.031 A 
BRANCH  40  54
ATOM     54  C   UNL A   1      43.678  32.944  31.441  1.00  0.00    -0.014 A 
ATOM     55  C   UNL A   1      43.563  33.227  32.814  1.00  0.00     0.010 A 
ATOM     56  C   UNL A   1      43.956  33.992  30.544  1.00  0.00     0.010 A 
ATOM     57  C   UNL A   1      43.697  34.540  33.275  1.00  0.00     0.020 A 
ATOM     58  C   UNL A   1      44.108  35.302  31.004  1.00  0.00     0.020 A 
ATOM     59  C   UNL A   1      43.964  35.570  32.366  1.00  0.00     0.054 A 
BRANCH  59  60
ATOM     60  S   UNL A   1      44.156  37.262  32.995  1.00  0.00     0.124 S 
ATOM     61  O   UNL A   1      44.040  38.051  31.771  1.00  0.00    -0.237 OA
ATOM     62  O   UNL A   1      43.042  37.387  33.930  1.00  0.00    -0.237 OA
ATOM     63  O   UNL A   1      45.483  37.254  33.608  1.00  0.00    -0.744 OA
ENDBRANCH  59  60
ENDBRANCH  40  54
BRANCH  41  64
ATOM     64  C   UNL A   1      42.517  23.717  27.792  1.00  0.00    -0.014 A 
ATOM     65  C   UNL A   1      42.667  23.500  26.412  1.00  0.00     0.010 A 
ATOM     66  C   UNL A   1      42.219  22.625  28.630  1.00  0.00     0.010 A 
ATOM     67  C   UNL A   1      42.518  22.216  25.879  1.00  0.00     0.020 A 
ATOM     68  C   UNL A   1      42.094  21.338  28.104  1.00  0.00     0.020 A 
ATOM     69  C   UNL A   1      42.233  21.143  26.729  1.00  0.00     0.054 A 
BRANCH  69  70
ATOM     70  S   UNL A   1      42.101  19.475  26.028  1.00  0.00     0.124 S 
ATOM     71  O   UNL A   1      42.596  18.647  27.123  1.00  0.00    -0.237 OA
ATOM     72  O   UNL A   1      40.672  19.360  25.744  1.00  0.00    -0.237 OA
ATOM     73  O   UNL A   1      42.959  19.532  24.846  1.00  0.00    -0.744 OA
ENDBRANCH  69  70
ENDBRANCH  41  64
BRANCH  53  74
ATOM     74  C   UNL A   1      48.035  27.430  29.869  1.00  0.00    -0.014 A 
ATOM     75  C   UNL A   1      48.839  27.757  28.765  1.00  0.00     0.010 A 
ATOM     76  C   UNL A   1      48.630  26.877  31.017  1.00  0.00     0.010 A 
ATOM     77  C   UNL A   1      50.215  27.523  28.801  1.00  0.00     0.020 A 
ATOM     78  C   UNL A   1      50.009  26.660  31.064  1.00  0.00     0.020 A 
ATOM     79  C   UNL A   1      50.793  26.977  29.951  1.00  0.00     0.054 A 
BRANCH  79  80
ATOM     80  S   UNL A   1      52.590  26.737  29.999  1.00  0.00     0.124 S 
ATOM     81  O   UNL A   1      52.869  26.260  28.647  1.00  0.00    -0.237 OA
ATOM     82  O   UNL A   1      53.087  28.076  30.308  1.00  0.00    -0.237 OA
ATOM     83  O   UNL A   1      52.779  25.751  31.060  1.00  0.00    -0.744 OA
ENDBRANCH  79  80
ENDBRANCH  53  74
ENDBRANCH  27  28
ENDBRANCH  20  22
ENDBRANCH  19  20
ENDBRANCH   1  19
TORSDOF 16
ENDMDL
MODEL 2
REMARK VINA RESULT:      -9.7      1.294      2.274
REMARK SMILES Cc1nc(C[N@@H+]2CCC[C@H]2C(=O)OCCOC(=O)c2ccc(-c3c4nc(c(-c5ccc(S(=O)(=O)[O-])cc5)c5ccc([nH]5)c(-c5ccc(S(=O)(=O)[O-])cc5)c5nc(c(-c6ccc(S(=O)(=O)[O-])cc6)c6ccc3[nH]6)C=C5)C=C4)cc2)cs1
REMARK SMILES IDX 15 1 14 2 13 3 11 4 12 5 10 6 6 7 7 8 8 10 9 11 5 12 4 13
REMARK SMILES IDX 1 14 2 15 3 16 80 17 79 18 16 19 17 20 18 21 19 22 20 23
REMARK SMILES IDX 78 24 21 25 77 26 22 27 23 28 24 29 71 30 25 31 76 32 70 33
REMARK SMILES IDX 72 34 26 35 75 36 69 37 68 38 27 40 57 41 38 42 56 43 39 44
REMARK SMILES IDX 42 45 55 46 73 47 40 48 41 49 54 51 74 52 43 53 28 54 29 55
REMARK SMILES IDX 37 56 30 57 36 58 31 59 32 60 33 61 34 62 35 63 58 64 59 65
REMARK SMILES IDX 67 66 60 67 66 68 61 69 62 70 63 71 64 72 65 73 44 74 45 75
REMARK SMILES IDX 53 76 46 77 52 78 47 79 48 80 49 81 50 82 51 83
REMARK H PARENT 6 9 72 39 42 50
REMARK Flexibility Score: inf
ROOT
ATOM      1  C   UNL A   1      34.344  32.416  28.686  1.00  0.00     0.275 C 
ENDROOT
BRANCH   1   2
ATOM      2  C   UNL A   1      35.535  33.373  28.716  1.00  0.00     0.274 C 
BRANCH   2   3
ATOM      3  O   UNL A   1      36.471  32.923  29.711  1.00  0.00    -0.458 OA
BRANCH   3   4
ATOM      4  C   UNL A   1      37.493  33.778  30.009  1.00  0.00     0.365 C 
ATOM      5  O   UNL A   1      38.347  34.150  29.214  1.00  0.00    -0.245 OA
BRANCH   4   6
ATOM      6  C   UNL A   1      37.376  34.257  31.467  1.00  0.00     0.295 C 
ATOM      7  N   UNL A   1      36.623  33.270  32.262  1.00  0.00    -0.318 N 
ATOM      8  C   UNL A   1      37.607  32.349  32.824  1.00  0.00     0.263 C 
ATOM      9  H   UNL A   1      35.978  32.736  31.680  1.00  0.00     0.349 HD
ATOM     10  C   UNL A   1      38.923  33.101  32.942  1.00  0.00     0.068 C 
ATOM     11  C   UNL A   1      38.752  34.372  32.127  1.00  0.00     0.083 C 
BRANCH   7  12
ATOM     12  C   UNL A   1      35.692  33.884  33.221  1.00  0.00     0.321 C 
BRANCH  12  13
ATOM     13  C   UNL A   1      34.740  34.902  32.653  1.00  0.00     0.106 A 
ATOM     14  C   UNL A   1      33.777  38.438  32.660  1.00  0.00     0.079 C 
ATOM     15  C   UNL A   1      33.943  36.971  32.457  1.00  0.00     0.090 A 
ATOM     16  N   UNL A   1      34.810  36.218  33.103  1.00  0.00    -0.241 NA
ATOM     17  S   UNL A   1      32.968  36.145  31.310  1.00  0.00    -0.127 S 
ATOM     18  C   UNL A   1      33.799  34.691  31.664  1.00  0.00     0.096 A 
ENDBRANCH  12  13
ENDBRANCH   7  12
ENDBRANCH   4   6
ENDBRANCH   3   4
ENDBRANCH   2   3
ENDBRANCH   1   2
BRANCH   1  19
ATOM     19  O   UNL A   1      34.426  31.583  27.515  1.00  0.00    -0.458 OA
BRANCH  19  20
ATOM     20  C   UNL A   1      34.492  30.249  27.743  1.00  0.00     0.338 C 
ATOM     21  O   UNL A   1      33.589  29.435  27.694  1.00  0.00    -0.246 OA
BRANCH  20  22
ATOM     22  C   UNL A   1      35.888  29.899  28.049  1.00  0.00     0.060 A 
ATOM     23  C   UNL A   1      36.207  29.441  29.327  1.00  0.00     0.016 A 
ATOM     24  C   UNL A   1      36.884  30.075  27.091  1.00  0.00     0.016 A 
ATOM     25  C   UNL A   1      37.529  29.164  29.664  1.00  0.00     0.010 A 
ATOM     26  C   UNL A   1      38.205  29.749  27.414  1.00  0.00     0.010 A 
ATOM     27  C   UNL A   1      38.538  29.292  28.703  1.00  0.00    -0.014 A 
BRANCH  27  28
ATOM     28  C   UNL A   1      39.938  28.932  29.036  1.00  0.00     0.031 A 
ATOM     29  C   UNL A   1      40.853  29.946  29.660  1.00  0.00     0.074 A 
ATOM     30  C   UNL A   1      40.389  27.692  28.762  1.00  0.00     0.049 A 
ATOM     31  N   UNL A   1      42.139  29.869  29.880  1.00  0.00    -0.248 NA
ATOM     32  C   UNL A   1      40.241  31.213  30.095  1.00  0.00     0.031 C 
ATOM     33  C   UNL A   1      39.583  26.598  28.213  1.00  0.00     0.029 A 
ATOM     34  N   UNL A   1      41.639  27.143  28.906  1.00  0.00    -0.354 N 
ATOM     35  C   UNL A   1      42.502  31.085  30.443  1.00  0.00     0.074 A 
ATOM     36  C   UNL A   1      41.297  31.884  30.535  1.00  0.00     0.031 C 
ATOM     37  C   UNL A   1      40.356  25.508  28.077  1.00  0.00     0.029 A 
ATOM     38  C   UNL A   1      41.722  25.846  28.458  1.00  0.00     0.049 A 
ATOM     39  H   UNL A   1      42.401  27.630  29.293  1.00  0.00     0.167 HD
ATOM     40  C   UNL A   1      43.729  31.499  30.838  1.00  0.00     0.031 A 
ATOM     41  C   UNL A   1      42.788  25.033  28.322  1.00  0.00     0.031 A 
ATOM     42  C   UNL A   1      44.919  30.694  30.755  1.00  0.00     0.049 A 
ATOM     43  C   UNL A   1      44.154  25.551  28.675  1.00  0.00     0.074 A 
ATOM     44  C   UNL A   1      46.204  31.014  31.157  1.00  0.00     0.029 A 
ATOM     45  N   UNL A   1      44.972  29.413  30.228  1.00  0.00    -0.354 N 
ATOM     46  N   UNL A   1      44.484  26.710  29.192  1.00  0.00    -0.248 NA
ATOM     47  C   UNL A   1      45.291  24.663  28.399  1.00  0.00     0.031 C 
ATOM     48  C   UNL A   1      47.044  29.945  30.826  1.00  0.00     0.029 A 
ATOM     49  C   UNL A   1      46.274  28.943  30.258  1.00  0.00     0.049 A 
ATOM     50  H   UNL A   1      44.199  28.911  29.883  1.00  0.00     0.167 HD
ATOM     51  C   UNL A   1      45.869  26.691  29.303  1.00  0.00     0.074 A 
ATOM     52  C   UNL A   1      46.312  25.399  28.821  1.00  0.00     0.031 C 
ATOM     53  C   UNL A   1      46.698  27.661  29.759  1.00  0.00     0.031 A 
BRANCH  40  54
ATOM     54  C   UNL A   1      43.859  32.905  31.352  1.00  0.00    -0.014 A 
ATOM     55  C   UNL A   1      43.699  33.203  32.717  1.00  0.00     0.010 A 
ATOM     56  C   UNL A   1      44.196  33.937  30.459  1.00  0.00     0.010 A 
ATOM     57  C   UNL A   1      43.845  34.517  33.172  1.00  0.00     0.020 A 
ATOM     58  C   UNL A   1      44.361  35.248  30.913  1.00  0.00     0.020 A 
ATOM     59  C   UNL A   1      44.171  35.532  32.266  1.00  0.00     0.054 A 
BRANCH  59  60
ATOM     60  S   UNL A   1      44.379  37.224  32.887  1.00  0.00     0.124 S 
ATOM     61  O   UNL A   1      45.752  37.195  33.383  1.00  0.00    -0.237 OA
ATOM     62  O   UNL A   1      44.160  38.036  31.693  1.00  0.00    -0.237 OA
ATOM     63  O   UNL A   1      43.347  37.344  33.915  1.00  0.00    -0.744 OA
ENDBRANCH  59  60
ENDBRANCH  40  54
BRANCH  41  64
ATOM     64  C   UNL A   1      42.612  23.668  27.757  1.00  0.00    -0.014 A 
ATOM     65  C   UNL A   1      42.751  23.443  26.377  1.00  0.00     0.010 A 
ATOM     66  C   UNL A   1      42.313  22.582  28.602  1.00  0.00     0.010 A 
ATOM     67  C   UNL A   1      42.589  22.157  25.851  1.00  0.00     0.020 A 
ATOM     68  C   UNL A   1      42.176  21.294  28.084  1.00  0.00     0.020 A 
ATOM     69  C   UNL A   1      42.304  21.091  26.708  1.00  0.00     0.054 A 
BRANCH  69  70
ATOM     70  S   UNL A   1      42.155  19.420  26.017  1.00  0.00     0.124 S 
ATOM     71  O   UNL A   1      42.675  18.596  27.103  1.00  0.00    -0.237 OA
ATOM     72  O   UNL A   1      40.720  19.304  25.766  1.00  0.00    -0.237 OA
ATOM     73  O   UNL A   1      42.986  19.473  24.816  1.00  0.00    -0.744 OA
ENDBRANCH  69  70
ENDBRANCH  41  64
BRANCH  53  74
ATOM     74  C   UNL A   1      48.171  27.363  29.755  1.00  0.00    -0.014 A 
ATOM     75  C   UNL A   1      48.971  27.716  28.655  1.00  0.00     0.010 A 
ATOM     76  C   UNL A   1      48.770  26.776  30.884  1.00  0.00     0.010 A 
ATOM     77  C   UNL A   1      50.347  27.475  28.678  1.00  0.00     0.020 A 
ATOM     78  C   UNL A   1      50.148  26.552  30.918  1.00  0.00     0.020 A 
ATOM     79  C   UNL A   1      50.928  26.895  29.810  1.00  0.00     0.054 A 
BRANCH  79  80
ATOM     80  S   UNL A   1      52.724  26.646  29.842  1.00  0.00     0.124 S 
ATOM     81  O   UNL A   1      52.881  25.711  30.954  1.00  0.00    -0.237 OA
ATOM     82  O   UNL A   1      52.999  26.097  28.516  1.00  0.00    -0.237 OA
ATOM     83  O   UNL A   1      53.254  27.987  30.075  1.00  0.00    -0.744 OA
ENDBRANCH  79  80
ENDBRANCH  53  74
ENDBRANCH  27  28
ENDBRANCH  20  22
ENDBRANCH  19  20
ENDBRANCH   1  19
TORSDOF 16
ENDMDL
MODEL 3
REMARK VINA RESULT:      -9.7      2.684      3.435
REMARK SMILES Cc1nc(C[N@@H+]2CCC[C@H]2C(=O)OCCOC(=O)c2ccc(-c3c4nc(c(-c5ccc(S(=O)(=O)[O-])cc5)c5ccc([nH]5)c(-c5ccc(S(=O)(=O)[O-])cc5)c5nc(c(-c6ccc(S(=O)(=O)[O-])cc6)c6ccc3[nH]6)C=C5)C=C4)cc2)cs1
REMARK SMILES IDX 15 1 14 2 13 3 11 4 12 5 10 6 6 7 7 8 8 10 9 11 5 12 4 13
REMARK SMILES IDX 1 14 2 15 3 16 80 17 79 18 16 19 17 20 18 21 19 22 20 23
REMARK SMILES IDX 78 24 21 25 77 26 22 27 23 28 24 29 71 30 25 31 76 32 70 33
REMARK SMILES IDX 72 34 26 35 75 36 69 37 68 38 27 40 57 41 38 42 56 43 39 44
REMARK SMILES IDX 42 45 55 46 73 47 40 48 41 49 54 51 74 52 43 53 28 54 29 55
REMARK SMILES IDX 37 56 30 57 36 58 31 59 32 60 33 61 34 62 35 63 58 64 59 65
REMARK SMILES IDX 67 66 60 67 66 68 61 69 62 70 63 71 64 72 65 73 44 74 45 75
REMARK SMILES IDX 53 76 46 77 52 78 47 79 48 80 49 81 50 82 51 83
REMARK H PARENT 6 9 72 39 42 50
REMARK Flexibility Score: inf
ROOT
ATOM      1  C   UNL A   1      34.707  32.370  29.830  1.00  0.00     0.275 C 
ENDROOT
BRANCH   1   2
ATOM      2  C   UNL A   1      34.521  33.462  28.779  1.00  0.00     0.274 C 
BRANCH   2   3
ATOM      3  O   UNL A   1      34.632  34.747  29.414  1.00  0.00    -0.458 OA
BRANCH   3   4
ATOM      4  C   UNL A   1      33.483  35.260  29.946  1.00  0.00     0.365 C 
ATOM      5  O   UNL A   1      32.570  35.752  29.294  1.00  0.00    -0.245 OA
BRANCH   4   6
ATOM      6  C   UNL A   1      33.474  35.067  31.473  1.00  0.00     0.295 C 
ATOM      7  N   UNL A   1      34.681  35.673  32.064  1.00  0.00    -0.318 N 
ATOM      8  C   UNL A   1      34.331  37.048  32.408  1.00  0.00     0.263 C 
ATOM      9  H   UNL A   1      35.453  35.693  31.398  1.00  0.00     0.349 HD
ATOM     10  C   UNL A   1      32.832  37.093  32.652  1.00  0.00     0.068 C 
ATOM     11  C   UNL A   1      32.282  35.781  32.116  1.00  0.00     0.083 C 
BRANCH   7  12
ATOM     12  C   UNL A   1      35.265  34.865  33.146  1.00  0.00     0.321 C 
BRANCH  12  13
ATOM     13  C   UNL A   1      36.638  34.308  32.882  1.00  0.00     0.106 A 
ATOM     14  C   UNL A   1      39.260  33.865  30.361  1.00  0.00     0.079 C 
ATOM     15  C   UNL A   1      38.388  33.901  31.569  1.00  0.00     0.090 A 
ATOM     16  N   UNL A   1      37.164  34.386  31.595  1.00  0.00    -0.241 NA
ATOM     17  S   UNL A   1      38.965  33.285  33.065  1.00  0.00    -0.127 S 
ATOM     18  C   UNL A   1      37.495  33.748  33.811  1.00  0.00     0.096 A 
ENDBRANCH  12  13
ENDBRANCH   7  12
ENDBRANCH   4   6
ENDBRANCH   3   4
ENDBRANCH   2   3
ENDBRANCH   1   2
BRANCH   1  19
ATOM     19  O   UNL A   1      35.862  31.575  29.501  1.00  0.00    -0.458 OA
BRANCH  19  20
ATOM     20  C   UNL A   1      36.404  30.869  30.522  1.00  0.00     0.338 C 
ATOM     21  O   UNL A   1      35.894  30.582  31.588  1.00  0.00    -0.246 OA
BRANCH  20  22
ATOM     22  C   UNL A   1      37.760  30.455  30.130  1.00  0.00     0.060 A 
ATOM     23  C   UNL A   1      38.683  30.129  31.124  1.00  0.00     0.016 A 
ATOM     24  C   UNL A   1      38.131  30.440  28.788  1.00  0.00     0.016 A 
ATOM     25  C   UNL A   1      39.991  29.796  30.786  1.00  0.00     0.010 A 
ATOM     26  C   UNL A   1      39.432  30.057  28.445  1.00  0.00     0.010 A 
ATOM     27  C   UNL A   1      40.372  29.733  29.440  1.00  0.00    -0.014 A 
BRANCH  27  28
ATOM     28  C   UNL A   1      41.745  29.310  29.071  1.00  0.00     0.031 A 
ATOM     29  C   UNL A   1      42.867  30.309  29.059  1.00  0.00     0.074 A 
ATOM     30  C   UNL A   1      41.978  28.027  28.733  1.00  0.00     0.049 A 
ATOM     31  N   UNL A   1      44.090  30.167  28.620  1.00  0.00    -0.248 NA
ATOM     32  C   UNL A   1      42.575  31.642  29.612  1.00  0.00     0.031 C 
ATOM     33  C   UNL A   1      40.987  26.948  28.764  1.00  0.00     0.029 A 
ATOM     34  N   UNL A   1      43.124  27.412  28.293  1.00  0.00    -0.354 N 
ATOM     35  C   UNL A   1      44.706  31.397  28.808  1.00  0.00     0.074 A 
ATOM     36  C   UNL A   1      43.721  32.276  29.405  1.00  0.00     0.031 C 
ATOM     37  C   UNL A   1      41.571  25.804  28.371  1.00  0.00     0.029 A 
ATOM     38  C   UNL A   1      42.951  26.082  27.992  1.00  0.00     0.049 A 
ATOM     39  H   UNL A   1      43.986  27.878  28.203  1.00  0.00     0.167 HD
ATOM     40  C   UNL A   1      45.974  31.761  28.502  1.00  0.00     0.031 A 
ATOM     41  C   UNL A   1      43.793  25.195  27.427  1.00  0.00     0.031 A 
ATOM     42  C   UNL A   1      46.950  30.878  27.921  1.00  0.00     0.049 A 
ATOM     43  C   UNL A   1      45.162  25.651  27.006  1.00  0.00     0.074 A 
ATOM     44  C   UNL A   1      48.270  31.145  27.601  1.00  0.00     0.029 A 
ATOM     45  N   UNL A   1      46.711  29.560  27.564  1.00  0.00    -0.354 N 
ATOM     46  N   UNL A   1      45.725  26.823  27.175  1.00  0.00    -0.248 NA
ATOM     47  C   UNL A   1      45.995  24.674  26.292  1.00  0.00     0.031 C 
ATOM     48  C   UNL A   1      48.815  30.003  27.004  1.00  0.00     0.029 A 
ATOM     49  C   UNL A   1      47.847  29.011  26.992  1.00  0.00     0.049 A 
ATOM     50  H   UNL A   1      45.861  29.083  27.697  1.00  0.00     0.167 HD
ATOM     51  C   UNL A   1      46.981  26.724  26.589  1.00  0.00     0.074 A 
ATOM     52  C   UNL A   1      47.103  25.373  26.079  1.00  0.00     0.031 C 
ATOM     53  C   UNL A   1      47.944  27.671  26.477  1.00  0.00     0.031 A 
BRANCH  40  54
ATOM     54  C   UNL A   1      46.367  33.191  28.744  1.00  0.00    -0.014 A 
ATOM     55  C   UNL A   1      46.164  34.181  27.767  1.00  0.00     0.010 A 
ATOM     56  C   UNL A   1      46.902  33.558  29.992  1.00  0.00     0.010 A 
ATOM     57  C   UNL A   1      46.520  35.508  28.025  1.00  0.00     0.020 A 
ATOM     58  C   UNL A   1      47.242  34.886  30.260  1.00  0.00     0.020 A 
ATOM     59  C   UNL A   1      47.061  35.852  29.269  1.00  0.00     0.054 A 
BRANCH  59  60
ATOM     60  S   UNL A   1      47.491  37.586  29.586  1.00  0.00     0.124 S 
ATOM     61  O   UNL A   1      48.430  37.463  30.698  1.00  0.00    -0.237 OA
ATOM     62  O   UNL A   1      48.074  38.011  28.317  1.00  0.00    -0.237 OA
ATOM     63  O   UNL A   1      46.210  38.205  29.918  1.00  0.00    -0.744 OA
ENDBRANCH  59  60
ENDBRANCH  40  54
BRANCH  41  64
ATOM     64  C   UNL A   1      43.336  23.805  27.159  1.00  0.00    -0.014 A 
ATOM     65  C   UNL A   1      43.155  22.896  28.215  1.00  0.00     0.010 A 
ATOM     66  C   UNL A   1      43.069  23.387  25.841  1.00  0.00     0.010 A 
ATOM     67  C   UNL A   1      42.720  21.592  27.959  1.00  0.00     0.020 A 
ATOM     68  C   UNL A   1      42.612  22.093  25.584  1.00  0.00     0.020 A 
ATOM     69  C   UNL A   1      42.450  21.200  26.645  1.00  0.00     0.054 A 
BRANCH  69  70
ATOM     70  S   UNL A   1      41.831  19.522  26.336  1.00  0.00     0.124 S 
ATOM     71  O   UNL A   1      42.255  18.817  27.541  1.00  0.00    -0.237 OA
ATOM     72  O   UNL A   1      40.391  19.733  26.200  1.00  0.00    -0.237 OA
ATOM     73  O   UNL A   1      42.513  19.128  25.106  1.00  0.00    -0.744 OA
ENDBRANCH  69  70
ENDBRANCH  41  64
BRANCH  53  74
ATOM     74  C   UNL A   1      49.214  27.280  25.775  1.00  0.00    -0.014 A 
ATOM     75  C   UNL A   1      49.330  27.408  24.380  1.00  0.00     0.010 A 
ATOM     76  C   UNL A   1      50.319  26.836  26.522  1.00  0.00     0.010 A 
ATOM     77  C   UNL A   1      50.528  27.084  23.740  1.00  0.00     0.020 A 
ATOM     78  C   UNL A   1      51.525  26.530  25.887  1.00  0.00     0.020 A 
ATOM     79  C   UNL A   1      51.620  26.647  24.498  1.00  0.00     0.054 A 
BRANCH  79  80
ATOM     80  S   UNL A   1      53.185  26.289  23.653  1.00  0.00     0.124 S 
ATOM     81  O   UNL A   1      52.755  26.153  22.264  1.00  0.00    -0.237 OA
ATOM     82  O   UNL A   1      53.990  27.472  23.949  1.00  0.00    -0.237 OA
ATOM     83  O   UNL A   1      53.646  25.057  24.288  1.00  0.00    -0.744 OA
ENDBRANCH  79  80
ENDBRANCH  53  74
ENDBRANCH  27  28
ENDBRANCH  20  22
ENDBRANCH  19  20
ENDBRANCH   1  19
TORSDOF 16
ENDMDL
