MODEL 1
REMARK VINA RESULT:     -10.3      0.000      0.000
REMARK SMILES C[C@@H](C(=O)OCCOC(=O)c1ccc(-c2c3nc(c(-c4ccc(S(=O)(=O)[O-])cc4)c4ccc([nH]4)c(-c4ccc(S(=O)(=O)[O-])cc4)c4nc(c(-c5ccc(S(=O)(=O)[O-])cc5)c5ccc2[nH]5)C=C4)C=C3)cc1)c1ccc2c(c1)[nH]c1ccc(Cl)cc12
REMARK SMILES IDX 7 1 6 2 5 3 3 4 4 5 2 6 1 7 71 8 72 9 76 10 73 11 75 12
REMARK SMILES IDX 74 13 77 14 84 15 78 16 83 18 79 19 81 20 80 21 82 22 8 23
REMARK SMILES IDX 9 24 10 25 11 26 12 27 70 28 13 29 69 30 14 31 15 32 16 33
REMARK SMILES IDX 63 34 17 35 68 36 62 37 64 38 18 39 67 40 61 41 60 42 19 44
REMARK SMILES IDX 49 45 30 46 48 47 31 48 34 49 47 50 65 51 32 52 33 53 46 55
REMARK SMILES IDX 66 56 35 57 20 58 21 59 29 60 22 61 28 62 23 63 24 64 25 65
REMARK SMILES IDX 26 66 27 67 50 68 51 69 59 70 52 71 58 72 53 73 54 74 55 75
REMARK SMILES IDX 56 76 57 77 36 78 37 79 45 80 38 81 44 82 39 83 40 84 41 85
REMARK SMILES IDX 42 86 43 87
REMARK H PARENT 77 17 64 43 34 54
REMARK Flexibility Score: inf
ROOT
ATOM      1  C   UNL A   1      34.111  33.239  27.958  1.00  0.00     0.275 C 
ENDROOT
BRANCH   1   2
ATOM      2  C   UNL A   1      33.311  34.318  28.679  1.00  0.00     0.274 C 
BRANCH   2   3
ATOM      3  O   UNL A   1      33.657  34.342  30.078  1.00  0.00    -0.462 OA
BRANCH   3   4
ATOM      4  C   UNL A   1      33.234  35.420  30.796  1.00  0.00     0.313 C 
ATOM      5  O   UNL A   1      32.670  36.392  30.305  1.00  0.00    -0.252 OA
BRANCH   4   6
ATOM      6  C   UNL A   1      33.587  35.314  32.284  1.00  0.00     0.126 C 
ATOM      7  C   UNL A   1      33.833  36.669  32.957  1.00  0.00     0.025 C 
BRANCH   6   8
ATOM      8  C   UNL A   1      34.706  34.302  32.530  1.00  0.00    -0.032 A 
ATOM      9  C   UNL A   1      34.471  32.951  32.227  1.00  0.00     0.005 A 
ATOM     10  C   UNL A   1      35.972  34.686  33.011  1.00  0.00     0.031 A 
ATOM     11  C   UNL A   1      35.464  31.977  32.395  1.00  0.00     0.011 A 
ATOM     12  C   UNL A   1      36.950  33.694  33.187  1.00  0.00     0.047 A 
ATOM     13  C   UNL A   1      36.729  32.353  32.882  1.00  0.00     0.007 A 
ATOM     14  N   UNL A   1      38.248  33.793  33.633  1.00  0.00    -0.355 N 
ATOM     15  C   UNL A   1      37.949  31.647  33.126  1.00  0.00     0.009 A 
ATOM     16  C   UNL A   1      38.867  32.565  33.631  1.00  0.00     0.047 A 
ATOM     17  H   UNL A   1      38.678  34.634  33.915  1.00  0.00     0.167 HD
ATOM     18  C   UNL A   1      38.357  30.307  32.955  1.00  0.00     0.031 A 
ATOM     19  C   UNL A   1      40.162  32.206  34.020  1.00  0.00     0.028 A 
ATOM     20  C   UNL A   1      39.657  29.941  33.313  1.00  0.00     0.041 A 
ATOM     21  C   UNL A   1      40.542  30.871  33.850  1.00  0.00     0.022 A 
ATOM     22  Cl  UNL A   1      40.166  28.310  33.094  1.00  0.00    -0.084 Cl
ENDBRANCH   6   8
ENDBRANCH   4   6
ENDBRANCH   3   4
ENDBRANCH   2   3
ENDBRANCH   1   2
BRANCH   1  23
ATOM     23  O   UNL A   1      34.244  32.093  28.816  1.00  0.00    -0.458 OA
BRANCH  23  24
ATOM     24  C   UNL A   1      34.235  30.889  28.209  1.00  0.00     0.338 C 
ATOM     25  O   UNL A   1      33.295  30.349  27.638  1.00  0.00    -0.246 OA
BRANCH  24  26
ATOM     26  C   UNL A   1      35.565  30.274  28.320  1.00  0.00     0.060 A 
ATOM     27  C   UNL A   1      35.997  29.794  29.551  1.00  0.00     0.016 A 
ATOM     28  C   UNL A   1      36.436  30.287  27.228  1.00  0.00     0.016 A 
ATOM     29  C   UNL A   1      37.332  29.430  29.718  1.00  0.00     0.010 A 
ATOM     30  C   UNL A   1      37.752  29.829  27.382  1.00  0.00     0.010 A 
ATOM     31  C   UNL A   1      38.237  29.451  28.645  1.00  0.00    -0.014 A 
BRANCH  31  32
ATOM     32  C   UNL A   1      39.681  29.142  28.884  1.00  0.00     0.031 A 
ATOM     33  C   UNL A   1      40.590  30.150  29.553  1.00  0.00     0.074 A 
ATOM     34  C   UNL A   1      40.175  27.922  28.582  1.00  0.00     0.049 A 
ATOM     35  N   UNL A   1      41.871  30.060  29.819  1.00  0.00    -0.248 NA
ATOM     36  C   UNL A   1      39.989  31.428  29.973  1.00  0.00     0.031 C 
ATOM     37  C   UNL A   1      39.421  26.835  27.954  1.00  0.00     0.029 A 
ATOM     38  N   UNL A   1      41.422  27.382  28.785  1.00  0.00    -0.354 N 
ATOM     39  C   UNL A   1      42.217  31.248  30.453  1.00  0.00     0.074 A 
ATOM     40  C   UNL A   1      41.034  32.080  30.464  1.00  0.00     0.031 C 
ATOM     41  C   UNL A   1      40.199  25.745  27.879  1.00  0.00     0.029 A 
ATOM     42  C   UNL A   1      41.530  26.073  28.377  1.00  0.00     0.049 A 
ATOM     43  H   UNL A   1      42.169  27.884  29.186  1.00  0.00     0.167 HD
ATOM     44  C   UNL A   1      43.392  31.601  31.028  1.00  0.00     0.031 A 
ATOM     45  C   UNL A   1      42.582  25.230  28.368  1.00  0.00     0.031 A 
ATOM     46  C   UNL A   1      44.573  30.782  31.050  1.00  0.00     0.049 A 
ATOM     47  C   UNL A   1      43.916  25.704  28.862  1.00  0.00     0.074 A 
ATOM     48  C   UNL A   1      45.810  31.071  31.601  1.00  0.00     0.029 A 
ATOM     49  N   UNL A   1      44.666  29.510  30.509  1.00  0.00    -0.354 N 
ATOM     50  N   UNL A   1      44.229  26.854  29.407  1.00  0.00    -0.248 NA
ATOM     51  C   UNL A   1      45.047  24.777  28.712  1.00  0.00     0.031 C 
ATOM     52  C   UNL A   1      46.665  29.992  31.351  1.00  0.00     0.029 A 
ATOM     53  C   UNL A   1      45.949  29.017  30.679  1.00  0.00     0.049 A 
ATOM     54  H   UNL A   1      43.928  29.029  30.068  1.00  0.00     0.167 HD
ATOM     55  C   UNL A   1      45.592  26.789  29.666  1.00  0.00     0.074 A 
ATOM     56  C   UNL A   1      46.042  25.482  29.233  1.00  0.00     0.031 C 
ATOM     57  C   UNL A   1      46.399  27.732  30.212  1.00  0.00     0.031 A 
BRANCH  44  58
ATOM     58  C   UNL A   1      43.449  32.939  31.714  1.00  0.00    -0.014 A 
ATOM     59  C   UNL A   1      43.464  33.017  33.119  1.00  0.00     0.010 A 
ATOM     60  C   UNL A   1      43.541  34.120  30.959  1.00  0.00     0.010 A 
ATOM     61  C   UNL A   1      43.538  34.256  33.758  1.00  0.00     0.020 A 
ATOM     62  C   UNL A   1      43.632  35.362  31.596  1.00  0.00     0.020 A 
ATOM     63  C   UNL A   1      43.616  35.422  32.991  1.00  0.00     0.054 A 
BRANCH  63  64
ATOM     64  S   UNL A   1      43.725  37.016  33.852  1.00  0.00     0.124 S 
ATOM     65  O   UNL A   1      44.994  36.885  34.562  1.00  0.00    -0.237 OA
ATOM     66  O   UNL A   1      43.719  37.976  32.750  1.00  0.00    -0.237 OA
ATOM     67  O   UNL A   1      42.535  37.035  34.699  1.00  0.00    -0.744 OA
ENDBRANCH  63  64
ENDBRANCH  44  58
BRANCH  45  68
ATOM     68  C   UNL A   1      42.420  23.863  27.802  1.00  0.00    -0.014 A 
ATOM     69  C   UNL A   1      42.676  23.608  26.444  1.00  0.00     0.010 A 
ATOM     70  C   UNL A   1      42.038  22.798  28.640  1.00  0.00     0.010 A 
ATOM     71  C   UNL A   1      42.561  22.310  25.936  1.00  0.00     0.020 A 
ATOM     72  C   UNL A   1      41.949  21.497  28.141  1.00  0.00     0.020 A 
ATOM     73  C   UNL A   1      42.203  21.261  26.790  1.00  0.00     0.054 A 
BRANCH  73  74
ATOM     74  S   UNL A   1      42.149  19.565  26.146  1.00  0.00     0.124 S 
ATOM     75  O   UNL A   1      40.742  19.420  25.791  1.00  0.00    -0.237 OA
ATOM     76  O   UNL A   1      43.084  19.613  25.024  1.00  0.00    -0.237 OA
ATOM     77  O   UNL A   1      42.598  18.762  27.281  1.00  0.00    -0.744 OA
ENDBRANCH  73  74
ENDBRANCH  45  68
BRANCH  57  78
ATOM     78  C   UNL A   1      47.855  27.391  30.351  1.00  0.00    -0.014 A 
ATOM     79  C   UNL A   1      48.766  27.720  29.332  1.00  0.00     0.010 A 
ATOM     80  C   UNL A   1      48.325  26.769  31.520  1.00  0.00     0.010 A 
ATOM     81  C   UNL A   1      50.120  27.407  29.467  1.00  0.00     0.020 A 
ATOM     82  C   UNL A   1      49.684  26.470  31.667  1.00  0.00     0.020 A 
ATOM     83  C   UNL A   1      50.571  26.779  30.632  1.00  0.00     0.054 A 
BRANCH  83  84
ATOM     84  S   UNL A   1      52.339  26.413  30.803  1.00  0.00     0.124 S 
ATOM     85  O   UNL A   1      52.320  25.198  31.613  1.00  0.00    -0.237 OA
ATOM     86  O   UNL A   1      52.770  26.236  29.418  1.00  0.00    -0.237 OA
ATOM     87  O   UNL A   1      52.875  27.598  31.468  1.00  0.00    -0.744 OA
ENDBRANCH  83  84
ENDBRANCH  57  78
ENDBRANCH  31  32
ENDBRANCH  24  26
ENDBRANCH  23  24
ENDBRANCH   1  23
TORSDOF 15
ENDMDL
MODEL 2
REMARK VINA RESULT:     -10.1      2.641     11.476
REMARK SMILES C[C@@H](C(=O)OCCOC(=O)c1ccc(-c2c3nc(c(-c4ccc(S(=O)(=O)[O-])cc4)c4ccc([nH]4)c(-c4ccc(S(=O)(=O)[O-])cc4)c4nc(c(-c5ccc(S(=O)(=O)[O-])cc5)c5ccc2[nH]5)C=C4)C=C3)cc1)c1ccc2c(c1)[nH]c1ccc(Cl)cc12
REMARK SMILES IDX 7 1 6 2 5 3 3 4 4 5 2 6 1 7 71 8 72 9 76 10 73 11 75 12
REMARK SMILES IDX 74 13 77 14 84 15 78 16 83 18 79 19 81 20 80 21 82 22 8 23
REMARK SMILES IDX 9 24 10 25 11 26 12 27 70 28 13 29 69 30 14 31 15 32 16 33
REMARK SMILES IDX 63 34 17 35 68 36 62 37 64 38 18 39 67 40 61 41 60 42 19 44
REMARK SMILES IDX 49 45 30 46 48 47 31 48 34 49 47 50 65 51 32 52 33 53 46 55
REMARK SMILES IDX 66 56 35 57 20 58 21 59 29 60 22 61 28 62 23 63 24 64 25 65
REMARK SMILES IDX 26 66 27 67 50 68 51 69 59 70 52 71 58 72 53 73 54 74 55 75
REMARK SMILES IDX 56 76 57 77 36 78 37 79 45 80 38 81 44 82 39 83 40 84 41 85
REMARK SMILES IDX 42 86 43 87
REMARK H PARENT 77 17 64 43 34 54
REMARK Flexibility Score: inf
ROOT
ATOM      1  C   UNL A   1      40.476  19.846  26.167  1.00  0.00     0.275 C 
ENDROOT
BRANCH   1   2
ATOM      2  C   UNL A   1      41.955  19.596  26.439  1.00  0.00     0.274 C 
BRANCH   2   3
ATOM      3  O   UNL A   1      42.757  20.142  25.372  1.00  0.00    -0.462 OA
BRANCH   3   4
ATOM      4  C   UNL A   1      43.959  19.545  25.142  1.00  0.00     0.313 C 
ATOM      5  O   UNL A   1      44.213  18.380  25.430  1.00  0.00    -0.252 OA
BRANCH   4   6
ATOM      6  C   UNL A   1      44.986  20.504  24.530  1.00  0.00     0.126 C 
ATOM      7  C   UNL A   1      46.436  20.027  24.672  1.00  0.00     0.025 C 
BRANCH   6   8
ATOM      8  C   UNL A   1      44.772  21.941  25.004  1.00  0.00    -0.032 A 
ATOM      9  C   UNL A   1      45.717  22.511  25.874  1.00  0.00     0.005 A 
ATOM     10  C   UNL A   1      43.685  22.722  24.567  1.00  0.00     0.031 A 
ATOM     11  C   UNL A   1      45.601  23.835  26.320  1.00  0.00     0.011 A 
ATOM     12  C   UNL A   1      43.578  24.041  25.036  1.00  0.00     0.047 A 
ATOM     13  C   UNL A   1      44.513  24.618  25.892  1.00  0.00     0.007 A 
ATOM     14  N   UNL A   1      42.633  25.006  24.770  1.00  0.00    -0.355 N 
ATOM     15  C   UNL A   1      44.121  25.976  26.111  1.00  0.00     0.009 A 
ATOM     16  C   UNL A   1      42.922  26.177  25.429  1.00  0.00     0.047 A 
ATOM     17  H   UNL A   1      41.851  24.874  24.185  1.00  0.00     0.167 HD
ATOM     18  C   UNL A   1      44.685  27.056  26.823  1.00  0.00     0.031 A 
ATOM     19  C   UNL A   1      42.229  27.392  25.458  1.00  0.00     0.028 A 
ATOM     20  C   UNL A   1      44.016  28.283  26.837  1.00  0.00     0.041 A 
ATOM     21  C   UNL A   1      42.802  28.446  26.178  1.00  0.00     0.022 A 
ATOM     22  Cl  UNL A   1      44.705  29.610  27.693  1.00  0.00    -0.084 Cl
ENDBRANCH   6   8
ENDBRANCH   4   6
ENDBRANCH   3   4
ENDBRANCH   2   3
ENDBRANCH   1   2
BRANCH   1  23
ATOM     23  O   UNL A   1      40.019  20.932  26.991  1.00  0.00    -0.458 OA
BRANCH  23  24
ATOM     24  C   UNL A   1      39.440  21.967  26.346  1.00  0.00     0.338 C 
ATOM     25  O   UNL A   1      38.605  21.915  25.452  1.00  0.00    -0.246 OA
BRANCH  24  26
ATOM     26  C   UNL A   1      39.964  23.232  26.881  1.00  0.00     0.060 A 
ATOM     27  C   UNL A   1      41.128  23.225  27.640  1.00  0.00     0.016 A 
ATOM     28  C   UNL A   1      39.229  24.411  26.735  1.00  0.00     0.016 A 
ATOM     29  C   UNL A   1      41.498  24.369  28.344  1.00  0.00     0.010 A 
ATOM     30  C   UNL A   1      39.662  25.583  27.370  1.00  0.00     0.010 A 
ATOM     31  C   UNL A   1      40.770  25.565  28.234  1.00  0.00    -0.014 A 
BRANCH  31  32
ATOM     32  C   UNL A   1      41.144  26.743  29.075  1.00  0.00     0.031 A 
ATOM     33  C   UNL A   1      42.488  26.807  29.767  1.00  0.00     0.074 A 
ATOM     34  C   UNL A   1      40.319  27.809  29.160  1.00  0.00     0.049 A 
ATOM     35  N   UNL A   1      42.971  27.740  30.552  1.00  0.00    -0.248 NA
ATOM     36  C   UNL A   1      43.410  25.677  29.559  1.00  0.00     0.031 C 
ATOM     37  C   UNL A   1      38.999  27.910  28.532  1.00  0.00     0.029 A 
ATOM     38  N   UNL A   1      40.477  29.021  29.786  1.00  0.00    -0.354 N 
ATOM     39  C   UNL A   1      44.248  27.323  30.907  1.00  0.00     0.074 A 
ATOM     40  C   UNL A   1      44.443  26.016  30.318  1.00  0.00     0.031 C 
ATOM     41  C   UNL A   1      38.498  29.134  28.754  1.00  0.00     0.029 A 
ATOM     42  C   UNL A   1      39.418  29.879  29.605  1.00  0.00     0.049 A 
ATOM     43  H   UNL A   1      41.275  29.255  30.316  1.00  0.00     0.167 HD
ATOM     44  C   UNL A   1      45.202  27.984  31.608  1.00  0.00     0.031 A 
ATOM     45  C   UNL A   1      39.184  31.115  30.089  1.00  0.00     0.031 A 
ATOM     46  C   UNL A   1      45.039  29.292  32.181  1.00  0.00     0.049 A 
ATOM     47  C   UNL A   1      40.189  31.758  31.000  1.00  0.00     0.074 A 
ATOM     48  C   UNL A   1      45.953  30.027  32.918  1.00  0.00     0.029 A 
ATOM     49  N   UNL A   1      43.897  30.068  32.074  1.00  0.00    -0.354 N 
ATOM     50  N   UNL A   1      41.368  31.316  31.364  1.00  0.00    -0.248 NA
ATOM     51  C   UNL A   1      39.818  33.053  31.589  1.00  0.00     0.031 C 
ATOM     52  C   UNL A   1      45.344  31.229  33.298  1.00  0.00     0.029 A 
ATOM     53  C   UNL A   1      44.067  31.257  32.764  1.00  0.00     0.049 A 
ATOM     54  H   UNL A   1      43.083  29.811  31.582  1.00  0.00     0.167 HD
ATOM     55  C   UNL A   1      41.881  32.279  32.223  1.00  0.00     0.074 A 
ATOM     56  C   UNL A   1      40.893  33.334  32.313  1.00  0.00     0.031 C 
ATOM     57  C   UNL A   1      43.066  32.284  32.881  1.00  0.00     0.031 A 
BRANCH  44  58
ATOM     58  C   UNL A   1      46.533  27.303  31.772  1.00  0.00    -0.014 A 
ATOM     59  C   UNL A   1      47.629  27.682  30.975  1.00  0.00     0.010 A 
ATOM     60  C   UNL A   1      46.709  26.318  32.758  1.00  0.00     0.010 A 
ATOM     61  C   UNL A   1      48.870  27.066  31.140  1.00  0.00     0.020 A 
ATOM     62  C   UNL A   1      47.956  25.710  32.937  1.00  0.00     0.020 A 
ATOM     63  C   UNL A   1      49.025  26.078  32.117  1.00  0.00     0.054 A 
BRANCH  63  64
ATOM     64  S   UNL A   1      50.655  25.306  32.316  1.00  0.00     0.124 S 
ATOM     65  O   UNL A   1      50.631  24.918  33.724  1.00  0.00    -0.237 OA
ATOM     66  O   UNL A   1      50.606  24.202  31.360  1.00  0.00    -0.237 OA
ATOM     67  O   UNL A   1      51.589  26.378  31.980  1.00  0.00    -0.744 OA
ENDBRANCH  63  64
ENDBRANCH  44  58
BRANCH  45  68
ATOM     68  C   UNL A   1      37.900  31.796  29.770  1.00  0.00    -0.014 A 
ATOM     69  C   UNL A   1      36.718  31.469  30.456  1.00  0.00     0.010 A 
ATOM     70  C   UNL A   1      37.867  32.808  28.792  1.00  0.00     0.010 A 
ATOM     71  C   UNL A   1      35.527  32.147  30.175  1.00  0.00     0.020 A 
ATOM     72  C   UNL A   1      36.686  33.506  28.528  1.00  0.00     0.020 A 
ATOM     73  C   UNL A   1      35.521  33.166  29.216  1.00  0.00     0.054 A 
BRANCH  73  74
ATOM     74  S   UNL A   1      33.997  34.107  28.924  1.00  0.00     0.124 S 
ATOM     75  O   UNL A   1      33.481  34.276  30.279  1.00  0.00    -0.237 OA
ATOM     76  O   UNL A   1      34.485  35.322  28.276  1.00  0.00    -0.237 OA
ATOM     77  O   UNL A   1      33.218  33.224  28.060  1.00  0.00    -0.744 OA
ENDBRANCH  73  74
ENDBRANCH  45  68
BRANCH  57  78
ATOM     78  C   UNL A   1      43.349  33.458  33.774  1.00  0.00    -0.014 A 
ATOM     79  C   UNL A   1      43.022  33.410  35.141  1.00  0.00     0.010 A 
ATOM     80  C   UNL A   1      43.973  34.605  33.256  1.00  0.00     0.010 A 
ATOM     81  C   UNL A   1      43.291  34.501  35.971  1.00  0.00     0.020 A 
ATOM     82  C   UNL A   1      44.262  35.693  34.087  1.00  0.00     0.020 A 
ATOM     83  C   UNL A   1      43.905  35.639  35.437  1.00  0.00     0.054 A 
BRANCH  83  84
ATOM     84  S   UNL A   1      44.279  37.032  36.538  1.00  0.00     0.124 S 
ATOM     85  O   UNL A   1      43.970  38.180  35.690  1.00  0.00    -0.237 OA
ATOM     86  O   UNL A   1      43.365  36.816  37.657  1.00  0.00    -0.237 OA
ATOM     87  O   UNL A   1      45.693  36.852  36.854  1.00  0.00    -0.744 OA
ENDBRANCH  83  84
ENDBRANCH  57  78
ENDBRANCH  31  32
ENDBRANCH  24  26
ENDBRANCH  23  24
ENDBRANCH   1  23
TORSDOF 15
ENDMDL
MODEL 3
REMARK VINA RESULT:     -10.0      2.259      2.967
REMARK SMILES C[C@@H](C(=O)OCCOC(=O)c1ccc(-c2c3nc(c(-c4ccc(S(=O)(=O)[O-])cc4)c4ccc([nH]4)c(-c4ccc(S(=O)(=O)[O-])cc4)c4nc(c(-c5ccc(S(=O)(=O)[O-])cc5)c5ccc2[nH]5)C=C4)C=C3)cc1)c1ccc2c(c1)[nH]c1ccc(Cl)cc12
REMARK SMILES IDX 7 1 6 2 5 3 3 4 4 5 2 6 1 7 71 8 72 9 76 10 73 11 75 12
REMARK SMILES IDX 74 13 77 14 84 15 78 16 83 18 79 19 81 20 80 21 82 22 8 23
REMARK SMILES IDX 9 24 10 25 11 26 12 27 70 28 13 29 69 30 14 31 15 32 16 33
REMARK SMILES IDX 63 34 17 35 68 36 62 37 64 38 18 39 67 40 61 41 60 42 19 44
REMARK SMILES IDX 49 45 30 46 48 47 31 48 34 49 47 50 65 51 32 52 33 53 46 55
REMARK SMILES IDX 66 56 35 57 20 58 21 59 29 60 22 61 28 62 23 63 24 64 25 65
REMARK SMILES IDX 26 66 27 67 50 68 51 69 59 70 52 71 58 72 53 73 54 74 55 75
REMARK SMILES IDX 56 76 57 77 36 78 37 79 45 80 38 81 44 82 39 83 40 84 41 85
REMARK SMILES IDX 42 86 43 87
REMARK H PARENT 77 17 64 43 34 54
REMARK Flexibility Score: inf
ROOT
ATOM      1  C   UNL A   1      33.261  34.580  28.398  1.00  0.00     0.275 C 
ENDROOT
BRANCH   1   2
ATOM      2  C   UNL A   1      33.392  36.039  28.820  1.00  0.00     0.274 C 
BRANCH   2   3
ATOM      3  O   UNL A   1      33.802  36.124  30.200  1.00  0.00    -0.462 OA
BRANCH   3   4
ATOM      4  C   UNL A   1      32.812  36.121  31.136  1.00  0.00     0.313 C 
ATOM      5  O   UNL A   1      31.629  36.316  30.882  1.00  0.00    -0.252 OA
BRANCH   4   6
ATOM      6  C   UNL A   1      33.344  35.901  32.556  1.00  0.00     0.126 C 
ATOM      7  C   UNL A   1      34.023  37.137  33.158  1.00  0.00     0.025 C 
BRANCH   6   8
ATOM      8  C   UNL A   1      34.195  34.635  32.654  1.00  0.00    -0.032 A 
ATOM      9  C   UNL A   1      34.013  33.626  31.694  1.00  0.00     0.005 A 
ATOM     10  C   UNL A   1      35.179  34.467  33.647  1.00  0.00     0.031 A 
ATOM     11  C   UNL A   1      34.783  32.455  31.703  1.00  0.00     0.011 A 
ATOM     12  C   UNL A   1      35.931  33.281  33.649  1.00  0.00     0.047 A 
ATOM     13  C   UNL A   1      35.763  32.278  32.697  1.00  0.00     0.007 A 
ATOM     14  N   UNL A   1      36.939  32.868  34.490  1.00  0.00    -0.355 N 
ATOM     15  C   UNL A   1      36.727  31.256  32.969  1.00  0.00     0.009 A 
ATOM     16  C   UNL A   1      37.420  31.635  34.118  1.00  0.00     0.047 A 
ATOM     17  H   UNL A   1      37.272  33.388  35.258  1.00  0.00     0.167 HD
ATOM     18  C   UNL A   1      37.077  30.046  32.335  1.00  0.00     0.031 A 
ATOM     19  C   UNL A   1      38.417  30.842  34.696  1.00  0.00     0.028 A 
ATOM     20  C   UNL A   1      38.091  29.258  32.887  1.00  0.00     0.041 A 
ATOM     21  C   UNL A   1      38.741  29.642  34.055  1.00  0.00     0.022 A 
ATOM     22  Cl  UNL A   1      38.533  27.785  32.111  1.00  0.00    -0.084 Cl
ENDBRANCH   6   8
ENDBRANCH   4   6
ENDBRANCH   3   4
ENDBRANCH   2   3
ENDBRANCH   1   2
BRANCH   1  23
ATOM     23  O   UNL A   1      34.569  34.042  28.138  1.00  0.00    -0.458 OA
BRANCH  23  24
ATOM     24  C   UNL A   1      34.644  32.704  27.982  1.00  0.00     0.338 C 
ATOM     25  O   UNL A   1      33.748  31.944  27.637  1.00  0.00    -0.246 OA
BRANCH  24  26
ATOM     26  C   UNL A   1      36.007  32.250  28.290  1.00  0.00     0.060 A 
ATOM     27  C   UNL A   1      36.292  30.889  28.290  1.00  0.00     0.016 A 
ATOM     28  C   UNL A   1      36.974  33.169  28.704  1.00  0.00     0.016 A 
ATOM     29  C   UNL A   1      37.504  30.439  28.807  1.00  0.00     0.010 A 
ATOM     30  C   UNL A   1      38.227  32.712  29.135  1.00  0.00     0.010 A 
ATOM     31  C   UNL A   1      38.490  31.337  29.250  1.00  0.00    -0.014 A 
BRANCH  31  32
ATOM     32  C   UNL A   1      39.740  30.815  29.884  1.00  0.00     0.031 A 
ATOM     33  C   UNL A   1      40.328  31.483  31.107  1.00  0.00     0.074 A 
ATOM     34  C   UNL A   1      40.316  29.684  29.421  1.00  0.00     0.049 A 
ATOM     35  N   UNL A   1      41.416  31.179  31.773  1.00  0.00    -0.248 NA
ATOM     36  C   UNL A   1      39.608  32.646  31.653  1.00  0.00     0.031 C 
ATOM     37  C   UNL A   1      39.857  28.911  28.265  1.00  0.00     0.029 A 
ATOM     38  N   UNL A   1      41.398  28.973  29.882  1.00  0.00    -0.354 N 
ATOM     39  C   UNL A   1      41.495  32.090  32.820  1.00  0.00     0.074 A 
ATOM     40  C   UNL A   1      40.390  33.011  32.660  1.00  0.00     0.031 C 
ATOM     41  C   UNL A   1      40.610  27.808  28.144  1.00  0.00     0.029 A 
ATOM     42  C   UNL A   1      41.656  27.831  29.161  1.00  0.00     0.049 A 
ATOM     43  H   UNL A   1      41.938  29.254  30.657  1.00  0.00     0.167 HD
ATOM     44  C   UNL A   1      42.366  32.132  33.856  1.00  0.00     0.031 A 
ATOM     45  C   UNL A   1      42.638  26.914  29.271  1.00  0.00     0.031 A 
ATOM     46  C   UNL A   1      43.457  31.215  34.048  1.00  0.00     0.049 A 
ATOM     47  C   UNL A   1      43.689  27.076  30.330  1.00  0.00     0.074 A 
ATOM     48  C   UNL A   1      44.396  31.196  35.066  1.00  0.00     0.029 A 
ATOM     49  N   UNL A   1      43.750  30.147  33.215  1.00  0.00    -0.354 N 
ATOM     50  N   UNL A   1      43.770  27.981  31.275  1.00  0.00    -0.248 NA
ATOM     51  C   UNL A   1      44.797  26.111  30.319  1.00  0.00     0.031 C 
ATOM     52  C   UNL A   1      45.286  30.144  34.822  1.00  0.00     0.029 A 
ATOM     53  C   UNL A   1      44.878  29.487  33.674  1.00  0.00     0.049 A 
ATOM     54  H   UNL A   1      43.234  29.897  32.415  1.00  0.00     0.167 HD
ATOM     55  C   UNL A   1      44.936  27.694  31.971  1.00  0.00     0.074 A 
ATOM     56  C   UNL A   1      45.521  26.523  31.351  1.00  0.00     0.031 C 
ATOM     57  C   UNL A   1      45.475  28.346  33.030  1.00  0.00     0.031 A 
BRANCH  44  58
ATOM     58  C   UNL A   1      42.157  33.204  34.891  1.00  0.00    -0.014 A 
ATOM     59  C   UNL A   1      41.301  32.978  35.985  1.00  0.00     0.010 A 
ATOM     60  C   UNL A   1      42.855  34.420  34.804  1.00  0.00     0.010 A 
ATOM     61  C   UNL A   1      41.121  33.964  36.957  1.00  0.00     0.020 A 
ATOM     62  C   UNL A   1      42.690  35.403  35.785  1.00  0.00     0.020 A 
ATOM     63  C   UNL A   1      41.813  35.174  36.847  1.00  0.00     0.054 A 
BRANCH  63  64
ATOM     64  S   UNL A   1      41.568  36.429  38.135  1.00  0.00     0.124 S 
ATOM     65  O   UNL A   1      41.748  35.644  39.354  1.00  0.00    -0.237 OA
ATOM     66  O   UNL A   1      42.627  37.394  37.848  1.00  0.00    -0.237 OA
ATOM     67  O   UNL A   1      40.209  36.908  37.898  1.00  0.00    -0.744 OA
ENDBRANCH  63  64
ENDBRANCH  44  58
BRANCH  45  68
ATOM     68  C   UNL A   1      42.706  25.792  28.296  1.00  0.00    -0.014 A 
ATOM     69  C   UNL A   1      43.461  25.903  27.116  1.00  0.00     0.010 A 
ATOM     70  C   UNL A   1      42.034  24.584  28.569  1.00  0.00     0.010 A 
ATOM     71  C   UNL A   1      43.550  24.825  26.230  1.00  0.00     0.020 A 
ATOM     72  C   UNL A   1      42.143  23.497  27.699  1.00  0.00     0.020 A 
ATOM     73  C   UNL A   1      42.894  23.627  26.531  1.00  0.00     0.054 A 
BRANCH  73  74
ATOM     74  S   UNL A   1      43.091  22.200  25.426  1.00  0.00     0.124 S 
ATOM     75  O   UNL A   1      44.278  21.553  25.975  1.00  0.00    -0.237 OA
ATOM     76  O   UNL A   1      41.835  21.475  25.604  1.00  0.00    -0.237 OA
ATOM     77  O   UNL A   1      43.261  22.815  24.112  1.00  0.00    -0.744 OA
ENDBRANCH  73  74
ENDBRANCH  45  68
BRANCH  57  78
ATOM     78  C   UNL A   1      46.774  27.821  33.571  1.00  0.00    -0.014 A 
ATOM     79  C   UNL A   1      46.785  26.812  34.550  1.00  0.00     0.010 A 
ATOM     80  C   UNL A   1      47.994  28.313  33.076  1.00  0.00     0.010 A 
ATOM     81  C   UNL A   1      47.995  26.322  35.046  1.00  0.00     0.020 A 
ATOM     82  C   UNL A   1      49.208  27.811  33.557  1.00  0.00     0.020 A 
ATOM     83  C   UNL A   1      49.200  26.828  34.550  1.00  0.00     0.054 A 
BRANCH  83  84
ATOM     84  S   UNL A   1      50.761  26.154  35.182  1.00  0.00     0.124 S 
ATOM     85  O   UNL A   1      51.040  25.086  34.226  1.00  0.00    -0.237 OA
ATOM     86  O   UNL A   1      51.661  27.303  35.120  1.00  0.00    -0.237 OA
ATOM     87  O   UNL A   1      50.424  25.709  36.532  1.00  0.00    -0.744 OA
ENDBRANCH  83  84
ENDBRANCH  57  78
ENDBRANCH  31  32
ENDBRANCH  24  26
ENDBRANCH  23  24
ENDBRANCH   1  23
TORSDOF 15
ENDMDL
