MODEL 1
REMARK VINA RESULT:     -12.0      0.000      0.000
REMARK SMILES CC1CC[NH+]([C@H](c2ccc(F)cc2)c2ccc([C@@H](C)C(=O)OCCOC(=O)c3ccc(-c4c5nc(c(-c6ccc(S(=O)(=O)[O-])cc6)c6ccc([nH]6)c(-c6ccc(S(=O)(=O)[O-])cc6)c6nc(c(-c7ccc(S(=O)(=O)[O-])cc7)c7ccc4[nH]7)C=C6)C=C5)cc3)cc2-c2ccc(C(F)(F)F)cc2)CC1
REMARK SMILES IDX 23 1 22 2 20 3 21 4 18 5 19 6 17 7 14 8 15 9 89 10 16 11
REMARK SMILES IDX 88 12 6 13 5 14 1 15 2 16 3 17 101 18 4 19 100 20 7 22 8 23
REMARK SMILES IDX 13 24 9 25 12 26 10 27 11 28 90 29 91 30 99 31 92 32 98 33
REMARK SMILES IDX 93 34 94 35 95 36 96 37 97 38 24 39 25 40 26 41 27 42 28 43
REMARK SMILES IDX 29 44 87 45 30 46 86 47 31 48 32 49 33 50 80 51 34 52 85 53
REMARK SMILES IDX 79 54 81 55 35 56 84 57 78 58 77 59 36 61 66 62 47 63 65 64
REMARK SMILES IDX 48 65 51 66 64 67 82 68 49 69 50 70 63 72 83 73 52 74 37 75
REMARK SMILES IDX 38 76 46 77 39 78 45 79 40 80 41 81 42 82 43 83 44 84 67 85
REMARK SMILES IDX 68 86 76 87 69 88 75 89 70 90 71 91 72 92 73 93 74 94 53 95
REMARK SMILES IDX 54 96 62 97 55 98 61 99 56 100 57 101 58 102 59 103 60 104
REMARK H PARENT 5 21 81 60 51 71
REMARK Flexibility Score: inf
ROOT
ATOM      1  C   UNL A   1      34.719  33.423  30.127  1.00  0.00     0.274 C 
ENDROOT
BRANCH   1   2
ATOM      2  O   UNL A   1      34.058  32.657  29.103  1.00  0.00    -0.462 OA
BRANCH   2   3
ATOM      3  C   UNL A   1      34.835  31.940  28.247  1.00  0.00     0.313 C 
ATOM      4  O   UNL A   1      35.662  32.438  27.491  1.00  0.00    -0.252 OA
BRANCH   3   5
ATOM      5  C   UNL A   1      34.540  30.437  28.268  1.00  0.00     0.126 C 
ATOM      6  C   UNL A   1      35.853  29.658  28.273  1.00  0.00     0.025 C 
BRANCH   5   7
ATOM      7  C   UNL A   1      33.585  29.946  27.188  1.00  0.00    -0.033 A 
ATOM      8  C   UNL A   1      31.721  29.042  25.205  1.00  0.00     0.022 A 
ATOM      9  C   UNL A   1      32.109  30.391  25.327  1.00  0.00     0.011 A 
ATOM     10  C   UNL A   1      32.310  28.117  26.113  1.00  0.00    -0.009 A 
ATOM     11  C   UNL A   1      33.037  30.829  26.266  1.00  0.00     0.005 A 
ATOM     12  C   UNL A   1      33.221  28.594  27.092  1.00  0.00     0.013 A 
BRANCH   8  13
ATOM     13  C   UNL A   1      30.731  28.591  24.090  1.00  0.00     0.247 C 
BRANCH  13  14
ATOM     14  N   UNL A   1      31.228  27.620  23.054  1.00  0.00    -0.325 N 
ATOM     15  C   UNL A   1      33.314  23.980  21.742  1.00  0.00     0.008 C 
ATOM     16  C   UNL A   1      32.680  25.144  22.495  1.00  0.00    -0.003 C 
ATOM     17  C   UNL A   1      31.169  25.197  22.288  1.00  0.00     0.065 C 
ATOM     18  C   UNL A   1      33.246  26.481  22.027  1.00  0.00     0.065 C 
ATOM     19  C   UNL A   1      30.533  26.331  23.098  1.00  0.00     0.263 C 
ATOM     20  C   UNL A   1      32.679  27.634  22.854  1.00  0.00     0.263 C 
ATOM     21  H   UNL A   1      30.937  27.975  22.142  1.00  0.00     0.348 HD
ENDBRANCH  13  14
BRANCH  13  22
ATOM     22  C   UNL A   1      29.952  29.739  23.426  1.00  0.00     0.014 A 
ATOM     23  C   UNL A   1      29.660  29.744  22.049  1.00  0.00     0.013 A 
ATOM     24  C   UNL A   1      29.493  30.812  24.215  1.00  0.00     0.013 A 
ATOM     25  C   UNL A   1      28.921  30.786  21.483  1.00  0.00     0.040 A 
ATOM     26  C   UNL A   1      28.775  31.863  23.642  1.00  0.00     0.040 A 
ATOM     27  C   UNL A   1      28.488  31.834  22.285  1.00  0.00     0.123 A 
ATOM     28  F   UNL A   1      27.773  32.827  21.740  1.00  0.00    -0.207 F 
ENDBRANCH  13  22
ENDBRANCH   8  13
BRANCH  10  29
ATOM     29  C   UNL A   1      32.017  26.669  26.100  1.00  0.00    -0.018 A 
ATOM     30  C   UNL A   1      30.703  26.203  26.272  1.00  0.00     0.009 A 
ATOM     31  C   UNL A   1      33.035  25.723  25.915  1.00  0.00     0.009 A 
ATOM     32  C   UNL A   1      30.409  24.836  26.213  1.00  0.00     0.014 A 
ATOM     33  C   UNL A   1      32.744  24.357  25.848  1.00  0.00     0.014 A 
ATOM     34  C   UNL A   1      31.425  23.899  25.980  1.00  0.00     0.056 A 
BRANCH  34  35
ATOM     35  C   UNL A   1      31.098  22.427  25.884  1.00  0.00     0.416 C 
ATOM     36  F   UNL A   1      29.897  22.123  26.444  1.00  0.00    -0.166 F 
ATOM     37  F   UNL A   1      31.049  21.982  24.600  1.00  0.00    -0.166 F 
ATOM     38  F   UNL A   1      32.014  21.636  26.514  1.00  0.00    -0.166 F 
ENDBRANCH  34  35
ENDBRANCH  10  29
ENDBRANCH   5   7
ENDBRANCH   3   5
ENDBRANCH   2   3
ENDBRANCH   1   2
BRANCH   1  39
ATOM     39  C   UNL A   1      35.188  32.512  31.261  1.00  0.00     0.275 C 
BRANCH  39  40
ATOM     40  O   UNL A   1      36.563  32.140  31.068  1.00  0.00    -0.458 OA
BRANCH  40  41
ATOM     41  C   UNL A   1      36.900  30.904  31.500  1.00  0.00     0.338 C 
ATOM     42  O   UNL A   1      36.204  30.108  32.104  1.00  0.00    -0.246 OA
BRANCH  41  43
ATOM     43  C   UNL A   1      38.253  30.594  31.018  1.00  0.00     0.060 A 
ATOM     44  C   UNL A   1      38.531  30.781  29.664  1.00  0.00     0.016 A 
ATOM     45  C   UNL A   1      39.218  30.075  31.879  1.00  0.00     0.016 A 
ATOM     46  C   UNL A   1      39.779  30.441  29.152  1.00  0.00     0.010 A 
ATOM     47  C   UNL A   1      40.475  29.740  31.368  1.00  0.00     0.010 A 
ATOM     48  C   UNL A   1      40.757  29.909  30.000  1.00  0.00    -0.014 A 
BRANCH  48  49
ATOM     49  C   UNL A   1      42.056  29.474  29.438  1.00  0.00     0.031 A 
ATOM     50  C   UNL A   1      43.180  30.461  29.319  1.00  0.00     0.074 A 
ATOM     51  C   UNL A   1      42.223  28.201  29.041  1.00  0.00     0.049 A 
ATOM     52  N   UNL A   1      44.366  30.301  28.793  1.00  0.00    -0.248 NA
ATOM     53  C   UNL A   1      42.933  31.806  29.860  1.00  0.00     0.031 C 
ATOM     54  C   UNL A   1      41.214  27.146  29.140  1.00  0.00     0.029 A 
ATOM     55  N   UNL A   1      43.303  27.581  28.466  1.00  0.00    -0.354 N 
ATOM     56  C   UNL A   1      44.998  31.533  28.910  1.00  0.00     0.074 A 
ATOM     57  C   UNL A   1      44.058  32.431  29.547  1.00  0.00     0.031 C 
ATOM     58  C   UNL A   1      41.721  26.010  28.634  1.00  0.00     0.029 A 
ATOM     59  C   UNL A   1      43.070  26.268  28.138  1.00  0.00     0.049 A 
ATOM     60  H   UNL A   1      44.162  28.034  28.304  1.00  0.00     0.167 HD
ATOM     61  C   UNL A   1      46.245  31.883  28.514  1.00  0.00     0.031 A 
ATOM     62  C   UNL A   1      43.843  25.380  27.483  1.00  0.00     0.031 A 
ATOM     63  C   UNL A   1      47.169  30.987  27.873  1.00  0.00     0.049 A 
ATOM     64  C   UNL A   1      45.210  25.796  27.022  1.00  0.00     0.074 A 
ATOM     65  C   UNL A   1      48.464  31.237  27.454  1.00  0.00     0.029 A 
ATOM     66  N   UNL A   1      46.892  29.666  27.548  1.00  0.00    -0.354 N 
ATOM     67  N   UNL A   1      45.802  26.961  27.153  1.00  0.00    -0.248 NA
ATOM     68  C   UNL A   1      46.015  24.782  26.329  1.00  0.00     0.031 C 
ATOM     69  C   UNL A   1      48.953  30.082  26.832  1.00  0.00     0.029 A 
ATOM     70  C   UNL A   1      47.981  29.096  26.909  1.00  0.00     0.049 A 
ATOM     71  H   UNL A   1      46.047  29.203  27.743  1.00  0.00     0.167 HD
ATOM     72  C   UNL A   1      47.054  26.818  26.567  1.00  0.00     0.074 A 
ATOM     73  C   UNL A   1      47.140  25.448  26.096  1.00  0.00     0.031 C 
ATOM     74  C   UNL A   1      48.043  27.736  26.431  1.00  0.00     0.031 A 
BRANCH  61  75
ATOM     75  C   UNL A   1      46.643  33.322  28.713  1.00  0.00    -0.014 A 
ATOM     76  C   UNL A   1      47.374  33.735  29.843  1.00  0.00     0.010 A 
ATOM     77  C   UNL A   1      46.256  34.281  27.760  1.00  0.00     0.010 A 
ATOM     78  C   UNL A   1      47.653  35.090  30.047  1.00  0.00     0.020 A 
ATOM     79  C   UNL A   1      46.556  35.632  27.948  1.00  0.00     0.020 A 
ATOM     80  C   UNL A   1      47.230  36.031  29.104  1.00  0.00     0.054 A 
BRANCH  80  81
ATOM     81  S   UNL A   1      47.575  37.787  29.399  1.00  0.00     0.124 S 
ATOM     82  O   UNL A   1      48.098  37.765  30.762  1.00  0.00    -0.237 OA
ATOM     83  O   UNL A   1      48.548  38.107  28.357  1.00  0.00    -0.237 OA
ATOM     84  O   UNL A   1      46.270  38.427  29.243  1.00  0.00    -0.744 OA
ENDBRANCH  80  81
ENDBRANCH  61  75
BRANCH  62  85
ATOM     85  C   UNL A   1      43.308  24.020  27.210  1.00  0.00    -0.014 A 
ATOM     86  C   UNL A   1      43.237  23.057  28.229  1.00  0.00     0.010 A 
ATOM     87  C   UNL A   1      42.791  23.711  25.937  1.00  0.00     0.010 A 
ATOM     88  C   UNL A   1      42.646  21.812  27.985  1.00  0.00     0.020 A 
ATOM     89  C   UNL A   1      42.180  22.478  25.695  1.00  0.00     0.020 A 
ATOM     90  C   UNL A   1      42.111  21.536  26.723  1.00  0.00     0.054 A 
BRANCH  90  91
ATOM     91  S   UNL A   1      41.246  19.961  26.461  1.00  0.00     0.124 S 
ATOM     92  O   UNL A   1      39.906  20.409  26.092  1.00  0.00    -0.237 OA
ATOM     93  O   UNL A   1      42.025  19.346  25.390  1.00  0.00    -0.237 OA
ATOM     94  O   UNL A   1      41.351  19.295  27.757  1.00  0.00    -0.744 OA
ENDBRANCH  90  91
ENDBRANCH  62  85
BRANCH  74  95
ATOM     95  C   UNL A   1      49.311  27.289  25.755  1.00  0.00    -0.014 A 
ATOM     96  C   UNL A   1      49.496  27.466  24.372  1.00  0.00     0.010 A 
ATOM     97  C   UNL A   1      50.350  26.733  26.523  1.00  0.00     0.010 A 
ATOM     98  C   UNL A   1      50.691  27.069  23.765  1.00  0.00     0.020 A 
ATOM     99  C   UNL A   1      51.554  26.357  25.922  1.00  0.00     0.020 A 
ATOM    100  C   UNL A   1      51.712  26.514  24.543  1.00  0.00     0.054 A 
BRANCH 100 101
ATOM    101  S   UNL A   1      53.270  26.047  23.740  1.00  0.00     0.124 S 
ATOM    102  O   UNL A   1      53.577  24.777  24.392  1.00  0.00    -0.237 OA
ATOM    103  O   UNL A   1      52.894  25.957  22.332  1.00  0.00    -0.237 OA
ATOM    104  O   UNL A   1      54.171  27.150  24.068  1.00  0.00    -0.744 OA
ENDBRANCH 100 101
ENDBRANCH  74  95
ENDBRANCH  48  49
ENDBRANCH  41  43
ENDBRANCH  40  41
ENDBRANCH  39  40
ENDBRANCH   1  39
TORSDOF 20
ENDMDL
MODEL 2
REMARK VINA RESULT:     -12.0      0.577      7.566
REMARK SMILES CC1CC[NH+]([C@H](c2ccc(F)cc2)c2ccc([C@@H](C)C(=O)OCCOC(=O)c3ccc(-c4c5nc(c(-c6ccc(S(=O)(=O)[O-])cc6)c6ccc([nH]6)c(-c6ccc(S(=O)(=O)[O-])cc6)c6nc(c(-c7ccc(S(=O)(=O)[O-])cc7)c7ccc4[nH]7)C=C6)C=C5)cc3)cc2-c2ccc(C(F)(F)F)cc2)CC1
REMARK SMILES IDX 23 1 22 2 20 3 21 4 18 5 19 6 17 7 14 8 15 9 89 10 16 11
REMARK SMILES IDX 88 12 6 13 5 14 1 15 2 16 3 17 101 18 4 19 100 20 7 22 8 23
REMARK SMILES IDX 13 24 9 25 12 26 10 27 11 28 90 29 91 30 99 31 92 32 98 33
REMARK SMILES IDX 93 34 94 35 95 36 96 37 97 38 24 39 25 40 26 41 27 42 28 43
REMARK SMILES IDX 29 44 87 45 30 46 86 47 31 48 32 49 33 50 80 51 34 52 85 53
REMARK SMILES IDX 79 54 81 55 35 56 84 57 78 58 77 59 36 61 66 62 47 63 65 64
REMARK SMILES IDX 48 65 51 66 64 67 82 68 49 69 50 70 63 72 83 73 52 74 37 75
REMARK SMILES IDX 38 76 46 77 39 78 45 79 40 80 41 81 42 82 43 83 44 84 67 85
REMARK SMILES IDX 68 86 76 87 69 88 75 89 70 90 71 91 72 92 73 93 74 94 53 95
REMARK SMILES IDX 54 96 62 97 55 98 61 99 56 100 57 101 58 102 59 103 60 104
REMARK H PARENT 5 21 81 60 51 71
REMARK Flexibility Score: inf
ROOT
ATOM      1  C   UNL A   1      34.960  33.166  30.204  1.00  0.00     0.274 C 
ENDROOT
BRANCH   1   2
ATOM      2  O   UNL A   1      34.334  32.188  29.353  1.00  0.00    -0.462 OA
BRANCH   2   3
ATOM      3  C   UNL A   1      35.078  31.654  28.349  1.00  0.00     0.313 C 
ATOM      4  O   UNL A   1      35.762  32.315  27.574  1.00  0.00    -0.252 OA
BRANCH   3   5
ATOM      5  C   UNL A   1      34.939  30.133  28.228  1.00  0.00     0.126 C 
ATOM      6  C   UNL A   1      36.320  29.505  28.052  1.00  0.00     0.025 C 
BRANCH   5   7
ATOM      7  C   UNL A   1      33.951  29.652  27.174  1.00  0.00    -0.033 A 
ATOM      8  C   UNL A   1      32.026  28.763  25.242  1.00  0.00     0.022 A 
ATOM      9  C   UNL A   1      32.408  30.113  25.371  1.00  0.00     0.011 A 
ATOM     10  C   UNL A   1      32.651  27.830  26.116  1.00  0.00    -0.009 A 
ATOM     11  C   UNL A   1      33.365  30.544  26.285  1.00  0.00     0.005 A 
ATOM     12  C   UNL A   1      33.592  28.299  27.070  1.00  0.00     0.013 A 
BRANCH   8  13
ATOM     13  C   UNL A   1      31.000  28.322  24.156  1.00  0.00     0.247 C 
BRANCH  13  14
ATOM     14  N   UNL A   1      31.467  27.367  23.091  1.00  0.00    -0.325 N 
ATOM     15  C   UNL A   1      33.472  23.723  21.667  1.00  0.00     0.008 C 
ATOM     16  C   UNL A   1      32.869  24.881  22.455  1.00  0.00    -0.003 C 
ATOM     17  C   UNL A   1      31.356  24.964  22.270  1.00  0.00     0.065 C 
ATOM     18  C   UNL A   1      33.451  26.218  22.010  1.00  0.00     0.065 C 
ATOM     19  C   UNL A   1      30.750  26.089  23.115  1.00  0.00     0.263 C 
ATOM     20  C   UNL A   1      32.915  27.361  22.871  1.00  0.00     0.263 C 
ATOM     21  H   UNL A   1      31.169  27.747  22.191  1.00  0.00     0.348 HD
ENDBRANCH  13  14
BRANCH  13  22
ATOM     22  C   UNL A   1      30.195  29.474  23.533  1.00  0.00     0.014 A 
ATOM     23  C   UNL A   1      29.922  29.534  22.154  1.00  0.00     0.013 A 
ATOM     24  C   UNL A   1      29.690  30.495  24.364  1.00  0.00     0.013 A 
ATOM     25  C   UNL A   1      29.158  30.578  21.625  1.00  0.00     0.040 A 
ATOM     26  C   UNL A   1      28.946  31.548  23.829  1.00  0.00     0.040 A 
ATOM     27  C   UNL A   1      28.680  31.574  22.467  1.00  0.00     0.123 A 
ATOM     28  F   UNL A   1      27.941  32.568  21.958  1.00  0.00    -0.207 F 
ENDBRANCH  13  22
ENDBRANCH   8  13
BRANCH  10  29
ATOM     29  C   UNL A   1      32.367  26.380  26.092  1.00  0.00    -0.018 A 
ATOM     30  C   UNL A   1      31.081  25.897  26.387  1.00  0.00     0.009 A 
ATOM     31  C   UNL A   1      33.366  25.449  25.774  1.00  0.00     0.009 A 
ATOM     32  C   UNL A   1      30.791  24.530  26.319  1.00  0.00     0.014 A 
ATOM     33  C   UNL A   1      33.077  24.082  25.698  1.00  0.00     0.014 A 
ATOM     34  C   UNL A   1      31.783  23.609  25.954  1.00  0.00     0.056 A 
BRANCH  34  35
ATOM     35  C   UNL A   1      31.456  22.138  25.849  1.00  0.00     0.416 C 
ATOM     36  F   UNL A   1      31.602  21.660  24.584  1.00  0.00    -0.166 F 
ATOM     37  F   UNL A   1      32.243  21.366  26.646  1.00  0.00    -0.166 F 
ATOM     38  F   UNL A   1      30.172  21.851  26.210  1.00  0.00    -0.166 F 
ENDBRANCH  34  35
ENDBRANCH  10  29
ENDBRANCH   5   7
ENDBRANCH   3   5
ENDBRANCH   2   3
ENDBRANCH   1   2
BRANCH   1  39
ATOM     39  C   UNL A   1      35.457  32.515  31.495  1.00  0.00     0.275 C 
BRANCH  39  40
ATOM     40  O   UNL A   1      36.843  32.152  31.370  1.00  0.00    -0.458 OA
BRANCH  40  41
ATOM     41  C   UNL A   1      37.112  30.831  31.479  1.00  0.00     0.338 C 
ATOM     42  O   UNL A   1      36.372  29.949  31.875  1.00  0.00    -0.246 OA
BRANCH  41  43
ATOM     43  C   UNL A   1      38.447  30.580  30.920  1.00  0.00     0.060 A 
ATOM     44  C   UNL A   1      38.632  30.747  29.547  1.00  0.00     0.016 A 
ATOM     45  C   UNL A   1      39.490  30.135  31.731  1.00  0.00     0.016 A 
ATOM     46  C   UNL A   1      39.862  30.459  28.967  1.00  0.00     0.010 A 
ATOM     47  C   UNL A   1      40.729  29.853  31.150  1.00  0.00     0.010 A 
ATOM     48  C   UNL A   1      40.917  30.000  29.763  1.00  0.00    -0.014 A 
BRANCH  48  49
ATOM     49  C   UNL A   1      42.201  29.619  29.131  1.00  0.00     0.031 A 
ATOM     50  C   UNL A   1      42.379  28.231  28.592  1.00  0.00     0.074 A 
ATOM     51  C   UNL A   1      43.197  30.518  29.040  1.00  0.00     0.049 A 
ATOM     52  N   UNL A   1      43.442  27.679  28.069  1.00  0.00    -0.248 NA
ATOM     53  C   UNL A   1      41.206  27.345  28.657  1.00  0.00     0.031 C 
ATOM     54  C   UNL A   1      43.126  31.906  29.497  1.00  0.00     0.029 A 
ATOM     55  N   UNL A   1      44.467  30.392  28.538  1.00  0.00    -0.354 N 
ATOM     56  C   UNL A   1      43.078  26.372  27.769  1.00  0.00     0.074 A 
ATOM     57  C   UNL A   1      41.700  26.212  28.181  1.00  0.00     0.031 C 
ATOM     58  C   UNL A   1      44.306  32.502  29.261  1.00  0.00     0.029 A 
ATOM     59  C   UNL A   1      45.226  31.529  28.679  1.00  0.00     0.049 A 
ATOM     60  H   UNL A   1      44.802  29.568  28.118  1.00  0.00     0.167 HD
ATOM     61  C   UNL A   1      43.829  25.393  27.209  1.00  0.00     0.031 A 
ATOM     62  C   UNL A   1      46.524  31.753  28.400  1.00  0.00     0.031 A 
ATOM     63  C   UNL A   1      45.202  25.557  26.812  1.00  0.00     0.049 A 
ATOM     64  C   UNL A   1      47.350  30.646  27.810  1.00  0.00     0.074 A 
ATOM     65  C   UNL A   1      46.043  24.635  26.214  1.00  0.00     0.029 A 
ATOM     66  N   UNL A   1      45.939  26.721  26.980  1.00  0.00    -0.354 N 
ATOM     67  N   UNL A   1      46.989  29.418  27.518  1.00  0.00    -0.248 NA
ATOM     68  C   UNL A   1      48.755  30.952  27.511  1.00  0.00     0.031 C 
ATOM     69  C   UNL A   1      47.303  25.226  26.067  1.00  0.00     0.029 A 
ATOM     70  C   UNL A   1      47.234  26.533  26.524  1.00  0.00     0.049 A 
ATOM     71  H   UNL A   1      45.593  27.557  27.367  1.00  0.00     0.167 HD
ATOM     72  C   UNL A   1      48.120  28.806  26.990  1.00  0.00     0.074 A 
ATOM     73  C   UNL A   1      49.172  29.804  26.988  1.00  0.00     0.031 C 
ATOM     74  C   UNL A   1      48.273  27.533  26.547  1.00  0.00     0.031 A 
BRANCH  61  75
ATOM     75  C   UNL A   1      43.183  24.041  27.060  1.00  0.00    -0.014 A 
ATOM     76  C   UNL A   1      43.110  23.136  28.135  1.00  0.00     0.010 A 
ATOM     77  C   UNL A   1      42.662  23.662  25.810  1.00  0.00     0.010 A 
ATOM     78  C   UNL A   1      42.584  21.854  27.945  1.00  0.00     0.020 A 
ATOM     79  C   UNL A   1      42.112  22.391  25.623  1.00  0.00     0.020 A 
ATOM     80  C   UNL A   1      42.102  21.486  26.686  1.00  0.00     0.054 A 
BRANCH  80  81
ATOM     81  S   UNL A   1      41.451  19.809  26.450  1.00  0.00     0.124 S 
ATOM     82  O   UNL A   1      41.769  19.181  27.730  1.00  0.00    -0.237 OA
ATOM     83  O   UNL A   1      40.031  20.044  26.199  1.00  0.00    -0.237 OA
ATOM     84  O   UNL A   1      42.206  19.304  25.304  1.00  0.00    -0.744 OA
ENDBRANCH  80  81
ENDBRANCH  61  75
BRANCH  62  85
ATOM     85  C   UNL A   1      47.111  33.083  28.711  1.00  0.00    -0.014 A 
ATOM     86  C   UNL A   1      47.633  33.359  29.985  1.00  0.00     0.010 A 
ATOM     87  C   UNL A   1      47.219  34.056  27.700  1.00  0.00     0.010 A 
ATOM     88  C   UNL A   1      48.267  34.580  30.239  1.00  0.00     0.020 A 
ATOM     89  C   UNL A   1      47.872  35.268  27.943  1.00  0.00     0.020 A 
ATOM     90  C   UNL A   1      48.392  35.521  29.213  1.00  0.00     0.054 A 
BRANCH  90  91
ATOM     91  S   UNL A   1      49.319  37.050  29.531  1.00  0.00     0.124 S 
ATOM     92  O   UNL A   1      49.938  37.305  28.234  1.00  0.00    -0.237 OA
ATOM     93  O   UNL A   1      48.266  37.982  29.925  1.00  0.00    -0.237 OA
ATOM     94  O   UNL A   1      50.238  36.674  30.602  1.00  0.00    -0.744 OA
ENDBRANCH  90  91
ENDBRANCH  62  85
BRANCH  74  95
ATOM     95  C   UNL A   1      49.626  27.148  26.011  1.00  0.00    -0.014 A 
ATOM     96  C   UNL A   1      50.567  26.490  26.823  1.00  0.00     0.010 A 
ATOM     97  C   UNL A   1      49.938  27.401  24.663  1.00  0.00     0.010 A 
ATOM     98  C   UNL A   1      51.809  26.116  26.302  1.00  0.00     0.020 A 
ATOM     99  C   UNL A   1      51.169  27.007  24.134  1.00  0.00     0.020 A 
ATOM    100  C   UNL A   1      52.103  26.379  24.960  1.00  0.00     0.054 A 
BRANCH 100 101
ATOM    101  S   UNL A   1      53.704  25.845  24.294  1.00  0.00     0.124 S 
ATOM    102  O   UNL A   1      53.491  25.973  22.855  1.00  0.00    -0.237 OA
ATOM    103  O   UNL A   1      54.635  26.806  24.881  1.00  0.00    -0.237 OA
ATOM    104  O   UNL A   1      53.842  24.476  24.785  1.00  0.00    -0.744 OA
ENDBRANCH 100 101
ENDBRANCH  74  95
ENDBRANCH  48  49
ENDBRANCH  41  43
ENDBRANCH  40  41
ENDBRANCH  39  40
ENDBRANCH   1  39
TORSDOF 20
ENDMDL
MODEL 3
REMARK VINA RESULT:     -11.5      5.583      8.006
REMARK SMILES CC1CC[NH+]([C@H](c2ccc(F)cc2)c2ccc([C@@H](C)C(=O)OCCOC(=O)c3ccc(-c4c5nc(c(-c6ccc(S(=O)(=O)[O-])cc6)c6ccc([nH]6)c(-c6ccc(S(=O)(=O)[O-])cc6)c6nc(c(-c7ccc(S(=O)(=O)[O-])cc7)c7ccc4[nH]7)C=C6)C=C5)cc3)cc2-c2ccc(C(F)(F)F)cc2)CC1
REMARK SMILES IDX 23 1 22 2 20 3 21 4 18 5 19 6 17 7 14 8 15 9 89 10 16 11
REMARK SMILES IDX 88 12 6 13 5 14 1 15 2 16 3 17 101 18 4 19 100 20 7 22 8 23
REMARK SMILES IDX 13 24 9 25 12 26 10 27 11 28 90 29 91 30 99 31 92 32 98 33
REMARK SMILES IDX 93 34 94 35 95 36 96 37 97 38 24 39 25 40 26 41 27 42 28 43
REMARK SMILES IDX 29 44 87 45 30 46 86 47 31 48 32 49 33 50 80 51 34 52 85 53
REMARK SMILES IDX 79 54 81 55 35 56 84 57 78 58 77 59 36 61 66 62 47 63 65 64
REMARK SMILES IDX 48 65 51 66 64 67 82 68 49 69 50 70 63 72 83 73 52 74 37 75
REMARK SMILES IDX 38 76 46 77 39 78 45 79 40 80 41 81 42 82 43 83 44 84 67 85
REMARK SMILES IDX 68 86 76 87 69 88 75 89 70 90 71 91 72 92 73 93 74 94 53 95
REMARK SMILES IDX 54 96 62 97 55 98 61 99 56 100 57 101 58 102 59 103 60 104
REMARK H PARENT 5 21 81 60 51 71
REMARK Flexibility Score: inf
ROOT
ATOM      1  C   UNL A   1      33.458  34.199  27.873  1.00  0.00     0.274 C 
ENDROOT
BRANCH   1   2
ATOM      2  O   UNL A   1      33.535  32.860  28.398  1.00  0.00    -0.462 OA
BRANCH   2   3
ATOM      3  C   UNL A   1      34.537  32.060  27.947  1.00  0.00     0.313 C 
ATOM      4  O   UNL A   1      35.513  32.466  27.326  1.00  0.00    -0.252 OA
BRANCH   3   5
ATOM      5  C   UNL A   1      34.308  30.573  28.235  1.00  0.00     0.126 C 
ATOM      6  C   UNL A   1      35.647  29.893  28.515  1.00  0.00     0.025 C 
BRANCH   5   7
ATOM      7  C   UNL A   1      33.492  29.826  27.189  1.00  0.00    -0.033 A 
ATOM      8  C   UNL A   1      31.887  28.424  25.269  1.00  0.00     0.022 A 
ATOM      9  C   UNL A   1      31.951  29.831  25.327  1.00  0.00     0.011 A 
ATOM     10  C   UNL A   1      32.674  27.704  26.211  1.00  0.00    -0.009 A 
ATOM     11  C   UNL A   1      32.753  30.514  26.235  1.00  0.00     0.005 A 
ATOM     12  C   UNL A   1      33.450  28.423  27.157  1.00  0.00     0.013 A 
BRANCH   8  13
ATOM     13  C   UNL A   1      31.027  27.705  24.187  1.00  0.00     0.247 C 
BRANCH  13  14
ATOM     14  N   UNL A   1      31.728  26.791  23.221  1.00  0.00    -0.325 N 
ATOM     15  C   UNL A   1      34.320  23.396  22.178  1.00  0.00     0.008 C 
ATOM     16  C   UNL A   1      33.491  24.488  22.846  1.00  0.00    -0.003 C 
ATOM     17  C   UNL A   1      32.011  24.372  22.490  1.00  0.00     0.065 C 
ATOM     18  C   UNL A   1      33.951  25.876  22.416  1.00  0.00     0.065 C 
ATOM     19  C   UNL A   1      31.177  25.433  23.215  1.00  0.00     0.263 C 
ATOM     20  C   UNL A   1      33.182  26.963  23.165  1.00  0.00     0.263 C 
ATOM     21  H   UNL A   1      31.492  27.107  22.279  1.00  0.00     0.348 HD
ENDBRANCH  13  14
BRANCH  13  22
ATOM     22  C   UNL A   1      30.039  28.621  23.445  1.00  0.00     0.014 A 
ATOM     23  C   UNL A   1      30.471  29.728  22.691  1.00  0.00     0.013 A 
ATOM     24  C   UNL A   1      28.659  28.339  23.497  1.00  0.00     0.013 A 
ATOM     25  C   UNL A   1      29.550  30.520  22.001  1.00  0.00     0.040 A 
ATOM     26  C   UNL A   1      27.739  29.146  22.825  1.00  0.00     0.040 A 
ATOM     27  C   UNL A   1      28.195  30.222  22.077  1.00  0.00     0.123 A 
ATOM     28  F   UNL A   1      27.316  30.979  21.407  1.00  0.00    -0.207 F 
ENDBRANCH  13  22
ENDBRANCH   8  13
BRANCH  10  29
ATOM     29  C   UNL A   1      32.724  26.228  26.266  1.00  0.00    -0.018 A 
ATOM     30  C   UNL A   1      31.571  25.482  26.563  1.00  0.00     0.009 A 
ATOM     31  C   UNL A   1      33.918  25.532  26.024  1.00  0.00     0.009 A 
ATOM     32  C   UNL A   1      31.599  24.083  26.569  1.00  0.00     0.014 A 
ATOM     33  C   UNL A   1      33.947  24.133  26.023  1.00  0.00     0.014 A 
ATOM     34  C   UNL A   1      32.784  23.394  26.279  1.00  0.00     0.056 A 
BRANCH  34  35
ATOM     35  C   UNL A   1      32.800  21.883  26.255  1.00  0.00     0.416 C 
ATOM     36  F   UNL A   1      33.742  21.386  25.408  1.00  0.00    -0.166 F 
ATOM     37  F   UNL A   1      33.054  21.339  27.475  1.00  0.00    -0.166 F 
ATOM     38  F   UNL A   1      31.614  21.344  25.850  1.00  0.00    -0.166 F 
ENDBRANCH  34  35
ENDBRANCH  10  29
ENDBRANCH   5   7
ENDBRANCH   3   5
ENDBRANCH   2   3
ENDBRANCH   1   2
BRANCH   1  39
ATOM     39  C   UNL A   1      33.293  35.211  29.007  1.00  0.00     0.275 C 
BRANCH  39  40
ATOM     40  O   UNL A   1      32.708  34.581  30.158  1.00  0.00    -0.458 OA
BRANCH  40  41
ATOM     41  C   UNL A   1      33.102  35.072  31.356  1.00  0.00     0.338 C 
ATOM     42  O   UNL A   1      32.491  35.826  32.091  1.00  0.00    -0.246 OA
BRANCH  41  43
ATOM     43  C   UNL A   1      34.382  34.449  31.716  1.00  0.00     0.060 A 
ATOM     44  C   UNL A   1      34.384  33.101  32.076  1.00  0.00     0.016 A 
ATOM     45  C   UNL A   1      35.557  35.198  31.751  1.00  0.00     0.016 A 
ATOM     46  C   UNL A   1      35.564  32.488  32.485  1.00  0.00     0.010 A 
ATOM     47  C   UNL A   1      36.744  34.581  32.155  1.00  0.00     0.010 A 
ATOM     48  C   UNL A   1      36.751  33.227  32.537  1.00  0.00    -0.014 A 
BRANCH  48  49
ATOM     49  C   UNL A   1      37.987  32.593  33.048  1.00  0.00     0.031 A 
ATOM     50  C   UNL A   1      38.427  32.856  34.458  1.00  0.00     0.074 A 
ATOM     51  C   UNL A   1      38.706  31.784  32.250  1.00  0.00     0.049 A 
ATOM     52  N   UNL A   1      39.510  32.457  35.072  1.00  0.00    -0.248 NA
ATOM     53  C   UNL A   1      37.532  33.682  35.282  1.00  0.00     0.031 C 
ATOM     54  C   UNL A   1      38.358  31.427  30.874  1.00  0.00     0.029 A 
ATOM     55  N   UNL A   1      39.884  31.121  32.482  1.00  0.00    -0.354 N 
ATOM     56  C   UNL A   1      39.443  33.008  36.346  1.00  0.00     0.074 A 
ATOM     57  C   UNL A   1      38.219  33.778  36.410  1.00  0.00     0.031 C 
ATOM     58  C   UNL A   1      39.308  30.617  30.381  1.00  0.00     0.029 A 
ATOM     59  C   UNL A   1      40.350  30.433  31.388  1.00  0.00     0.049 A 
ATOM     60  H   UNL A   1      40.352  31.138  33.348  1.00  0.00     0.167 HD
ATOM     61  C   UNL A   1      40.328  32.888  37.366  1.00  0.00     0.031 A 
ATOM     62  C   UNL A   1      41.500  29.756  31.205  1.00  0.00     0.031 A 
ATOM     63  C   UNL A   1      41.547  32.128  37.290  1.00  0.00     0.049 A 
ATOM     64  C   UNL A   1      42.483  29.662  32.336  1.00  0.00     0.074 A 
ATOM     65  C   UNL A   1      42.498  31.925  38.274  1.00  0.00     0.029 A 
ATOM     66  N   UNL A   1      41.988  31.453  36.161  1.00  0.00    -0.354 N 
ATOM     67  N   UNL A   1      42.401  30.175  33.542  1.00  0.00    -0.248 NA
ATOM     68  C   UNL A   1      43.712  28.897  32.086  1.00  0.00     0.031 C 
ATOM     69  C   UNL A   1      43.540  31.168  37.724  1.00  0.00     0.029 A 
ATOM     70  C   UNL A   1      43.213  30.855  36.414  1.00  0.00     0.049 A 
ATOM     71  H   UNL A   1      41.503  31.406  35.306  1.00  0.00     0.167 HD
ATOM     72  C   UNL A   1      43.563  29.788  34.199  1.00  0.00     0.074 A 
ATOM     73  C   UNL A   1      44.323  28.983  33.261  1.00  0.00     0.031 C 
ATOM     74  C   UNL A   1      43.964  30.072  35.463  1.00  0.00     0.031 A 
BRANCH  61  75
ATOM     75  C   UNL A   1      40.024  33.656  38.624  1.00  0.00    -0.014 A 
ATOM     76  C   UNL A   1      40.456  34.984  38.801  1.00  0.00     0.010 A 
ATOM     77  C   UNL A   1      39.311  33.025  39.660  1.00  0.00     0.010 A 
ATOM     78  C   UNL A   1      40.236  35.643  40.014  1.00  0.00     0.020 A 
ATOM     79  C   UNL A   1      39.067  33.690  40.864  1.00  0.00     0.020 A 
ATOM     80  C   UNL A   1      39.555  34.986  41.043  1.00  0.00     0.054 A 
BRANCH  80  81
ATOM     81  S   UNL A   1      39.305  35.846  42.621  1.00  0.00     0.124 S 
ATOM     82  O   UNL A   1      40.289  35.191  43.478  1.00  0.00    -0.237 OA
ATOM     83  O   UNL A   1      39.592  37.237  42.281  1.00  0.00    -0.237 OA
ATOM     84  O   UNL A   1      37.908  35.565  42.949  1.00  0.00    -0.744 OA
ENDBRANCH  80  81
ENDBRANCH  61  75
BRANCH  62  85
ATOM     85  C   UNL A   1      41.775  29.145  29.878  1.00  0.00    -0.014 A 
ATOM     86  C   UNL A   1      41.560  27.775  29.659  1.00  0.00     0.010 A 
ATOM     87  C   UNL A   1      42.182  29.957  28.802  1.00  0.00     0.010 A 
ATOM     88  C   UNL A   1      41.733  27.228  28.382  1.00  0.00     0.020 A 
ATOM     89  C   UNL A   1      42.333  29.420  27.521  1.00  0.00     0.020 A 
ATOM     90  C   UNL A   1      42.107  28.058  27.320  1.00  0.00     0.054 A 
BRANCH  90  91
ATOM     91  S   UNL A   1      42.212  27.351  25.650  1.00  0.00     0.124 S 
ATOM     92  O   UNL A   1      41.016  26.515  25.599  1.00  0.00    -0.237 OA
ATOM     93  O   UNL A   1      42.190  28.540  24.802  1.00  0.00    -0.237 OA
ATOM     94  O   UNL A   1      43.482  26.631  25.665  1.00  0.00    -0.744 OA
ENDBRANCH  90  91
ENDBRANCH  62  85
BRANCH  74  95
ATOM     95  C   UNL A   1      45.281  29.500  35.913  1.00  0.00    -0.014 A 
ATOM     96  C   UNL A   1      46.475  30.228  35.767  1.00  0.00     0.010 A 
ATOM     97  C   UNL A   1      45.315  28.240  36.539  1.00  0.00     0.010 A 
ATOM     98  C   UNL A   1      47.686  29.693  36.216  1.00  0.00     0.020 A 
ATOM     99  C   UNL A   1      46.521  27.714  37.009  1.00  0.00     0.020 A 
ATOM    100  C   UNL A   1      47.702  28.437  36.831  1.00  0.00     0.054 A 
BRANCH 100 101
ATOM    101  S   UNL A   1      49.278  27.782  37.444  1.00  0.00     0.124 S 
ATOM    102  O   UNL A   1      49.030  27.688  38.880  1.00  0.00    -0.237 OA
ATOM    103  O   UNL A   1      49.394  26.507  36.740  1.00  0.00    -0.237 OA
ATOM    104  O   UNL A   1      50.252  28.796  37.045  1.00  0.00    -0.744 OA
ENDBRANCH 100 101
ENDBRANCH  74  95
ENDBRANCH  48  49
ENDBRANCH  41  43
ENDBRANCH  40  41
ENDBRANCH  39  40
ENDBRANCH   1  39
TORSDOF 20
ENDMDL
