MODEL 1
REMARK VINA RESULT:     -10.3      0.000      0.000
REMARK SMILES [NH3+]C1(C(=O)N2[C@@H](C(=O)OCCOC(=O)c3ccc(-c4c5nc(c(-c6ccc(S(=O)(=O)[O-])cc6)c6ccc([nH]6)c(-c6ccc(S(=O)(=O)[O-])cc6)c6nc(c(-c7ccc(S(=O)(=O)[O-])cc7)c7ccc4[nH]7)C=C6)C=C5)cc3)CC[C@@H]3CCCC[C@@H]32)CC1
REMARK SMILES IDX 10 1 9 2 7 3 8 4 6 5 5 6 82 7 75 8 77 9 81 10 76 11 78 12
REMARK SMILES IDX 80 13 79 14 3 15 4 16 2 17 83 18 84 19 1 20 11 24 12 25
REMARK SMILES IDX 13 26 14 27 15 28 16 29 74 30 17 31 73 32 18 33 19 34 20 35
REMARK SMILES IDX 67 36 21 37 72 38 66 39 68 40 22 41 71 42 65 43 64 44 23 46
REMARK SMILES IDX 53 47 34 48 52 49 35 50 38 51 51 52 69 53 36 54 37 55 50 57
REMARK SMILES IDX 70 58 39 59 24 60 25 61 33 62 26 63 32 64 27 65 28 66 29 67
REMARK SMILES IDX 30 68 31 69 54 70 55 71 63 72 56 73 62 74 57 75 58 76 59 77
REMARK SMILES IDX 60 78 61 79 40 80 41 81 49 82 42 83 48 84 43 85 44 86 45 87
REMARK SMILES IDX 46 88 47 89
REMARK H PARENT 1 21 1 22 1 23 68 45 38 56
REMARK Flexibility Score: inf
ROOT
ATOM      1  C   UNL A   1      32.165  27.546  25.815  1.00  0.00     0.274 C 
ENDROOT
BRANCH   1   2
ATOM      2  O   UNL A   1      33.071  26.443  26.010  1.00  0.00    -0.461 OA
BRANCH   2   3
ATOM      3  C   UNL A   1      32.480  25.266  26.356  1.00  0.00     0.328 C 
ATOM      4  O   UNL A   1      31.384  25.194  26.900  1.00  0.00    -0.250 OA
BRANCH   3   5
ATOM      5  C   UNL A   1      33.292  24.028  25.921  1.00  0.00     0.195 C 
ATOM      6  N   UNL A   1      33.453  23.644  24.502  1.00  0.00    -0.320 N 
ATOM      7  C   UNL A   1      34.489  22.635  24.214  1.00  0.00     0.089 C 
ATOM      8  C   UNL A   1      33.101  22.796  26.818  1.00  0.00     0.037 C 
ATOM      9  C   UNL A   1      34.384  21.411  25.152  1.00  0.00     0.012 C 
ATOM     10  C   UNL A   1      35.884  23.285  24.200  1.00  0.00     0.025 C 
ATOM     11  C   UNL A   1      34.274  21.829  26.625  1.00  0.00     0.008 C 
ATOM     12  C   UNL A   1      35.546  20.435  24.919  1.00  0.00     0.006 C 
ATOM     13  C   UNL A   1      37.006  22.273  23.998  1.00  0.00     0.002 C 
ATOM     14  C   UNL A   1      36.915  21.106  24.974  1.00  0.00     0.000 C 
BRANCH   6  15
ATOM     15  C   UNL A   1      32.397  23.715  23.604  1.00  0.00     0.284 C 
ATOM     16  O   UNL A   1      31.721  22.744  23.271  1.00  0.00    -0.268 OA
BRANCH  15  17
ATOM     17  C   UNL A   1      32.211  25.018  22.844  1.00  0.00     0.174 C 
ATOM     18  C   UNL A   1      32.804  25.042  21.437  1.00  0.00     0.086 C 
ATOM     19  C   UNL A   1      33.341  25.953  22.486  1.00  0.00     0.086 C 
BRANCH  17  20
ATOM     20  N   UNL A   1      30.844  25.579  23.007  1.00  0.00    -0.345 N 
ATOM     21  H   UNL A   1      30.883  26.392  23.621  1.00  0.00     0.345 HD
ATOM     22  H   UNL A   1      30.234  24.872  23.418  1.00  0.00     0.345 HD
ATOM     23  H   UNL A   1      30.479  25.857  22.097  1.00  0.00     0.345 HD
ENDBRANCH  17  20
ENDBRANCH  15  17
ENDBRANCH   6  15
ENDBRANCH   3   5
ENDBRANCH   2   3
ENDBRANCH   1   2
BRANCH   1  24
ATOM     24  C   UNL A   1      32.346  28.670  26.848  1.00  0.00     0.275 C 
BRANCH  24  25
ATOM     25  O   UNL A   1      33.656  28.691  27.451  1.00  0.00    -0.458 OA
BRANCH  25  26
ATOM     26  C   UNL A   1      34.156  29.931  27.677  1.00  0.00     0.338 C 
ATOM     27  O   UNL A   1      33.527  30.977  27.648  1.00  0.00    -0.246 OA
BRANCH  26  28
ATOM     28  C   UNL A   1      35.554  29.879  28.153  1.00  0.00     0.060 A 
ATOM     29  C   UNL A   1      36.547  30.082  27.191  1.00  0.00     0.016 A 
ATOM     30  C   UNL A   1      35.912  29.542  29.460  1.00  0.00     0.016 A 
ATOM     31  C   UNL A   1      37.892  29.958  27.513  1.00  0.00     0.010 A 
ATOM     32  C   UNL A   1      37.272  29.388  29.782  1.00  0.00     0.010 A 
ATOM     33  C   UNL A   1      38.268  29.581  28.806  1.00  0.00    -0.014 A 
BRANCH  33  34
ATOM     34  C   UNL A   1      39.701  29.283  29.050  1.00  0.00     0.031 A 
ATOM     35  C   UNL A   1      40.564  30.304  29.739  1.00  0.00     0.074 A 
ATOM     36  C   UNL A   1      40.193  28.059  28.780  1.00  0.00     0.049 A 
ATOM     37  N   UNL A   1      41.818  30.218  30.101  1.00  0.00    -0.248 NA
ATOM     38  C   UNL A   1      39.926  31.587  30.074  1.00  0.00     0.031 C 
ATOM     39  C   UNL A   1      39.438  26.959  28.181  1.00  0.00     0.029 A 
ATOM     40  N   UNL A   1      41.441  27.531  28.997  1.00  0.00    -0.354 N 
ATOM     41  C   UNL A   1      42.125  31.435  30.697  1.00  0.00     0.074 A 
ATOM     42  C   UNL A   1      40.931  32.251  30.628  1.00  0.00     0.031 C 
ATOM     43  C   UNL A   1      40.235  25.882  28.089  1.00  0.00     0.029 A 
ATOM     44  C   UNL A   1      41.565  26.224  28.590  1.00  0.00     0.049 A 
ATOM     45  H   UNL A   1      42.178  28.040  29.407  1.00  0.00     0.167 HD
ATOM     46  C   UNL A   1      43.292  31.838  31.255  1.00  0.00     0.031 A 
ATOM     47  C   UNL A   1      42.630  25.399  28.604  1.00  0.00     0.031 A 
ATOM     48  C   UNL A   1      44.483  31.032  31.315  1.00  0.00     0.049 A 
ATOM     49  C   UNL A   1      43.932  25.885  29.179  1.00  0.00     0.074 A 
ATOM     50  C   UNL A   1      45.723  31.364  31.832  1.00  0.00     0.029 A 
ATOM     51  N   UNL A   1      44.581  29.730  30.845  1.00  0.00    -0.354 N 
ATOM     52  N   UNL A   1      44.214  27.051  29.712  1.00  0.00    -0.248 NA
ATOM     53  C   UNL A   1      45.059  24.942  29.163  1.00  0.00     0.031 C 
ATOM     54  C   UNL A   1      46.583  30.276  31.638  1.00  0.00     0.029 A 
ATOM     55  C   UNL A   1      45.863  29.248  31.051  1.00  0.00     0.049 A 
ATOM     56  H   UNL A   1      43.847  29.224  30.427  1.00  0.00     0.167 HD
ATOM     57  C   UNL A   1      45.543  26.974  30.111  1.00  0.00     0.074 A 
ATOM     58  C   UNL A   1      46.006  25.643  29.775  1.00  0.00     0.031 C 
ATOM     59  C   UNL A   1      46.311  27.922  30.705  1.00  0.00     0.031 A 
BRANCH  46  60
ATOM     60  C   UNL A   1      43.342  33.239  31.803  1.00  0.00    -0.014 A 
ATOM     61  C   UNL A   1      43.733  34.324  30.997  1.00  0.00     0.010 A 
ATOM     62  C   UNL A   1      42.988  33.474  33.144  1.00  0.00     0.010 A 
ATOM     63  C   UNL A   1      43.816  35.611  31.537  1.00  0.00     0.020 A 
ATOM     64  C   UNL A   1      43.047  34.763  33.681  1.00  0.00     0.020 A 
ATOM     65  C   UNL A   1      43.482  35.819  32.879  1.00  0.00     0.054 A 
BRANCH  65  66
ATOM     66  S   UNL A   1      43.608  37.497  33.561  1.00  0.00     0.124 S 
ATOM     67  O   UNL A   1      44.826  37.404  34.362  1.00  0.00    -0.237 OA
ATOM     68  O   UNL A   1      43.707  38.325  32.363  1.00  0.00    -0.237 OA
ATOM     69  O   UNL A   1      42.372  37.654  34.323  1.00  0.00    -0.744 OA
ENDBRANCH  65  66
ENDBRANCH  46  60
BRANCH  47  70
ATOM     70  C   UNL A   1      42.508  24.031  28.031  1.00  0.00    -0.014 A 
ATOM     71  C   UNL A   1      42.298  22.914  28.857  1.00  0.00     0.010 A 
ATOM     72  C   UNL A   1      42.574  23.848  26.637  1.00  0.00     0.010 A 
ATOM     73  C   UNL A   1      42.162  21.638  28.300  1.00  0.00     0.020 A 
ATOM     74  C   UNL A   1      42.413  22.579  26.075  1.00  0.00     0.020 A 
ATOM     75  C   UNL A   1      42.215  21.480  26.912  1.00  0.00     0.054 A 
BRANCH  75  76
ATOM     76  S   UNL A   1      41.959  19.829  26.202  1.00  0.00     0.124 S 
ATOM     77  O   UNL A   1      40.536  19.856  25.878  1.00  0.00    -0.237 OA
ATOM     78  O   UNL A   1      42.870  19.830  25.061  1.00  0.00    -0.237 OA
ATOM     79  O   UNL A   1      42.337  18.929  27.289  1.00  0.00    -0.744 OA
ENDBRANCH  75  76
ENDBRANCH  47  70
BRANCH  59  80
ATOM     80  C   UNL A   1      47.725  27.543  31.060  1.00  0.00    -0.014 A 
ATOM     81  C   UNL A   1      48.788  27.772  30.169  1.00  0.00     0.010 A 
ATOM     82  C   UNL A   1      47.997  26.985  32.322  1.00  0.00     0.010 A 
ATOM     83  C   UNL A   1      50.094  27.416  30.520  1.00  0.00     0.020 A 
ATOM     84  C   UNL A   1      49.303  26.649  32.687  1.00  0.00     0.020 A 
ATOM     85  C   UNL A   1      50.342  26.851  31.775  1.00  0.00     0.054 A 
BRANCH  85  86
ATOM     86  S   UNL A   1      52.047  26.420  32.222  1.00  0.00     0.124 S 
ATOM     87  O   UNL A   1      51.872  25.123  32.866  1.00  0.00    -0.237 OA
ATOM     88  O   UNL A   1      52.723  26.393  30.927  1.00  0.00    -0.237 OA
ATOM     89  O   UNL A   1      52.458  27.508  33.107  1.00  0.00    -0.744 OA
ENDBRANCH  85  86
ENDBRANCH  59  80
ENDBRANCH  33  34
ENDBRANCH  26  28
ENDBRANCH  25  26
ENDBRANCH  24  25
ENDBRANCH   1  24
TORSDOF 17
ENDMDL
MODEL 2
REMARK VINA RESULT:     -10.0      2.578      9.136
REMARK SMILES [NH3+]C1(C(=O)N2[C@@H](C(=O)OCCOC(=O)c3ccc(-c4c5nc(c(-c6ccc(S(=O)(=O)[O-])cc6)c6ccc([nH]6)c(-c6ccc(S(=O)(=O)[O-])cc6)c6nc(c(-c7ccc(S(=O)(=O)[O-])cc7)c7ccc4[nH]7)C=C6)C=C5)cc3)CC[C@@H]3CCCC[C@@H]32)CC1
REMARK SMILES IDX 10 1 9 2 7 3 8 4 6 5 5 6 82 7 75 8 77 9 81 10 76 11 78 12
REMARK SMILES IDX 80 13 79 14 3 15 4 16 2 17 83 18 84 19 1 20 11 24 12 25
REMARK SMILES IDX 13 26 14 27 15 28 16 29 74 30 17 31 73 32 18 33 19 34 20 35
REMARK SMILES IDX 67 36 21 37 72 38 66 39 68 40 22 41 71 42 65 43 64 44 23 46
REMARK SMILES IDX 53 47 34 48 52 49 35 50 38 51 51 52 69 53 36 54 37 55 50 57
REMARK SMILES IDX 70 58 39 59 24 60 25 61 33 62 26 63 32 64 27 65 28 66 29 67
REMARK SMILES IDX 30 68 31 69 54 70 55 71 63 72 56 73 62 74 57 75 58 76 59 77
REMARK SMILES IDX 60 78 61 79 40 80 41 81 49 82 42 83 48 84 43 85 44 86 45 87
REMARK SMILES IDX 46 88 47 89
REMARK H PARENT 1 21 1 22 1 23 68 45 38 56
REMARK Flexibility Score: inf
ROOT
ATOM      1  C   UNL A   1      35.466  23.227  24.395  1.00  0.00     0.274 C 
ENDROOT
BRANCH   1   2
ATOM      2  O   UNL A   1      34.596  24.325  24.729  1.00  0.00    -0.461 OA
BRANCH   2   3
ATOM      3  C   UNL A   1      34.090  25.004  23.662  1.00  0.00     0.328 C 
ATOM      4  O   UNL A   1      34.170  24.604  22.506  1.00  0.00    -0.250 OA
BRANCH   3   5
ATOM      5  C   UNL A   1      33.334  26.289  24.063  1.00  0.00     0.195 C 
ATOM      6  N   UNL A   1      32.076  26.259  24.838  1.00  0.00    -0.320 N 
ATOM      7  C   UNL A   1      31.630  27.545  25.407  1.00  0.00     0.089 C 
ATOM      8  C   UNL A   1      33.297  27.370  22.973  1.00  0.00     0.037 C 
ATOM      9  C   UNL A   1      31.656  28.682  24.360  1.00  0.00     0.012 C 
ATOM     10  C   UNL A   1      32.416  27.867  26.689  1.00  0.00     0.025 C 
ATOM     11  C   UNL A   1      32.992  28.732  23.605  1.00  0.00     0.008 C 
ATOM     12  C   UNL A   1      31.311  30.033  25.003  1.00  0.00     0.006 C 
ATOM     13  C   UNL A   1      32.063  29.231  27.273  1.00  0.00     0.002 C 
ATOM     14  C   UNL A   1      32.154  30.344  26.236  1.00  0.00     0.000 C 
BRANCH   6  15
ATOM     15  C   UNL A   1      31.083  25.324  24.579  1.00  0.00     0.284 C 
ATOM     16  O   UNL A   1      30.075  25.568  23.920  1.00  0.00    -0.268 OA
BRANCH  15  17
ATOM     17  C   UNL A   1      31.154  24.003  25.326  1.00  0.00     0.174 C 
ATOM     18  C   UNL A   1      30.183  23.862  26.496  1.00  0.00     0.086 C 
ATOM     19  C   UNL A   1      31.651  23.863  26.745  1.00  0.00     0.086 C 
BRANCH  17  20
ATOM     20  N   UNL A   1      31.275  22.839  24.409  1.00  0.00    -0.345 N 
ATOM     21  H   UNL A   1      30.346  22.478  24.194  1.00  0.00     0.345 HD
ATOM     22  H   UNL A   1      31.827  22.108  24.859  1.00  0.00     0.345 HD
ATOM     23  H   UNL A   1      31.734  23.131  23.547  1.00  0.00     0.345 HD
ENDBRANCH  17  20
ENDBRANCH  15  17
ENDBRANCH   6  15
ENDBRANCH   3   5
ENDBRANCH   2   3
ENDBRANCH   1   2
BRANCH   1  24
ATOM     24  C   UNL A   1      36.947  23.515  24.692  1.00  0.00     0.275 C 
BRANCH  24  25
ATOM     25  O   UNL A   1      37.255  23.552  26.101  1.00  0.00    -0.458 OA
BRANCH  25  26
ATOM     26  C   UNL A   1      38.543  23.263  26.408  1.00  0.00     0.338 C 
ATOM     27  O   UNL A   1      39.144  22.244  26.106  1.00  0.00    -0.246 OA
BRANCH  26  28
ATOM     28  C   UNL A   1      39.233  24.420  27.016  1.00  0.00     0.060 A 
ATOM     29  C   UNL A   1      38.968  24.664  28.366  1.00  0.00     0.016 A 
ATOM     30  C   UNL A   1      40.029  25.310  26.292  1.00  0.00     0.016 A 
ATOM     31  C   UNL A   1      39.488  25.780  29.007  1.00  0.00     0.010 A 
ATOM     32  C   UNL A   1      40.534  26.456  26.932  1.00  0.00     0.010 A 
ATOM     33  C   UNL A   1      40.253  26.704  28.290  1.00  0.00    -0.014 A 
BRANCH  33  34
ATOM     34  C   UNL A   1      40.629  27.968  28.970  1.00  0.00     0.031 A 
ATOM     35  C   UNL A   1      42.037  28.152  29.466  1.00  0.00     0.074 A 
ATOM     36  C   UNL A   1      39.757  28.992  29.025  1.00  0.00     0.049 A 
ATOM     37  N   UNL A   1      42.585  29.199  30.029  1.00  0.00    -0.248 NA
ATOM     38  C   UNL A   1      42.950  27.012  29.295  1.00  0.00     0.031 C 
ATOM     39  C   UNL A   1      38.387  28.964  28.511  1.00  0.00     0.029 A 
ATOM     40  N   UNL A   1      39.905  30.266  29.516  1.00  0.00    -0.354 N 
ATOM     41  C   UNL A   1      43.902  28.843  30.290  1.00  0.00     0.074 A 
ATOM     42  C   UNL A   1      44.065  27.475  29.843  1.00  0.00     0.031 C 
ATOM     43  C   UNL A   1      37.824  30.167  28.705  1.00  0.00     0.029 A 
ATOM     44  C   UNL A   1      38.779  31.041  29.385  1.00  0.00     0.049 A 
ATOM     45  H   UNL A   1      40.740  30.592  29.923  1.00  0.00     0.167 HD
ATOM     46  C   UNL A   1      44.889  29.585  30.846  1.00  0.00     0.031 A 
ATOM     47  C   UNL A   1      38.535  32.306  29.778  1.00  0.00     0.031 A 
ATOM     48  C   UNL A   1      44.726  30.941  31.300  1.00  0.00     0.049 A 
ATOM     49  C   UNL A   1      39.629  33.095  30.444  1.00  0.00     0.074 A 
ATOM     50  C   UNL A   1      45.658  31.766  31.907  1.00  0.00     0.029 A 
ATOM     51  N   UNL A   1      43.552  31.675  31.195  1.00  0.00    -0.354 N 
ATOM     52  N   UNL A   1      40.862  32.732  30.710  1.00  0.00    -0.248 NA
ATOM     53  C   UNL A   1      39.303  34.468  30.856  1.00  0.00     0.031 C 
ATOM     54  C   UNL A   1      45.036  32.984  32.204  1.00  0.00     0.029 A 
ATOM     55  C   UNL A   1      43.734  32.938  31.733  1.00  0.00     0.049 A 
ATOM     56  H   UNL A   1      42.715  31.345  30.797  1.00  0.00     0.167 HD
ATOM     57  C   UNL A   1      41.463  33.838  31.302  1.00  0.00     0.074 A 
ATOM     58  C   UNL A   1      40.465  34.888  31.340  1.00  0.00     0.031 C 
ATOM     59  C   UNL A   1      42.729  33.971  31.770  1.00  0.00     0.031 A 
BRANCH  46  60
ATOM     60  C   UNL A   1      46.225  28.918  31.035  1.00  0.00    -0.014 A 
ATOM     61  C   UNL A   1      47.252  29.058  30.084  1.00  0.00     0.010 A 
ATOM     62  C   UNL A   1      46.458  28.143  32.186  1.00  0.00     0.010 A 
ATOM     63  C   UNL A   1      48.470  28.392  30.256  1.00  0.00     0.020 A 
ATOM     64  C   UNL A   1      47.682  27.496  32.374  1.00  0.00     0.020 A 
ATOM     65  C   UNL A   1      48.672  27.607  31.396  1.00  0.00     0.054 A 
BRANCH  65  66
ATOM     66  S   UNL A   1      50.257  26.746  31.593  1.00  0.00     0.124 S 
ATOM     67  O   UNL A   1      49.889  25.367  31.281  1.00  0.00    -0.237 OA
ATOM     68  O   UNL A   1      51.108  27.406  30.607  1.00  0.00    -0.237 OA
ATOM     69  O   UNL A   1      50.615  26.995  32.987  1.00  0.00    -0.744 OA
ENDBRANCH  65  66
ENDBRANCH  46  60
BRANCH  47  70
ATOM     70  C   UNL A   1      37.183  32.894  29.570  1.00  0.00    -0.014 A 
ATOM     71  C   UNL A   1      36.275  33.023  30.635  1.00  0.00     0.010 A 
ATOM     72  C   UNL A   1      36.810  33.355  28.294  1.00  0.00     0.010 A 
ATOM     73  C   UNL A   1      35.018  33.598  30.426  1.00  0.00     0.020 A 
ATOM     74  C   UNL A   1      35.565  33.954  28.087  1.00  0.00     0.020 A 
ATOM     75  C   UNL A   1      34.673  34.064  29.155  1.00  0.00     0.054 A 
BRANCH  75  76
ATOM     76  S   UNL A   1      33.067  34.878  28.920  1.00  0.00     0.124 S 
ATOM     77  O   UNL A   1      32.402  33.973  27.988  1.00  0.00    -0.237 OA
ATOM     78  O   UNL A   1      32.524  34.905  30.276  1.00  0.00    -0.237 OA
ATOM     79  O   UNL A   1      33.425  36.186  28.376  1.00  0.00    -0.744 OA
ENDBRANCH  75  76
ENDBRANCH  47  70
BRANCH  59  80
ATOM     80  C   UNL A   1      43.119  35.312  32.336  1.00  0.00    -0.014 A 
ATOM     81  C   UNL A   1      42.829  35.654  33.669  1.00  0.00     0.010 A 
ATOM     82  C   UNL A   1      43.823  36.225  31.531  1.00  0.00     0.010 A 
ATOM     83  C   UNL A   1      43.203  36.902  34.175  1.00  0.00     0.020 A 
ATOM     84  C   UNL A   1      44.220  37.464  32.040  1.00  0.00     0.020 A 
ATOM     85  C   UNL A   1      43.891  37.802  33.355  1.00  0.00     0.054 A 
BRANCH  85  86
ATOM     86  S   UNL A   1      44.392  39.406  34.039  1.00  0.00     0.124 S 
ATOM     87  O   UNL A   1      45.408  39.838  33.086  1.00  0.00    -0.237 OA
ATOM     88  O   UNL A   1      43.146  40.169  34.019  1.00  0.00    -0.237 OA
ATOM     89  O   UNL A   1      44.887  39.074  35.373  1.00  0.00    -0.744 OA
ENDBRANCH  85  86
ENDBRANCH  59  80
ENDBRANCH  33  34
ENDBRANCH  26  28
ENDBRANCH  25  26
ENDBRANCH  24  25
ENDBRANCH   1  24
TORSDOF 17
ENDMDL
MODEL 3
REMARK VINA RESULT:      -9.9      0.758      8.338
REMARK SMILES [NH3+]C1(C(=O)N2[C@@H](C(=O)OCCOC(=O)c3ccc(-c4c5nc(c(-c6ccc(S(=O)(=O)[O-])cc6)c6ccc([nH]6)c(-c6ccc(S(=O)(=O)[O-])cc6)c6nc(c(-c7ccc(S(=O)(=O)[O-])cc7)c7ccc4[nH]7)C=C6)C=C5)cc3)CC[C@@H]3CCCC[C@@H]32)CC1
REMARK SMILES IDX 10 1 9 2 7 3 8 4 6 5 5 6 82 7 75 8 77 9 81 10 76 11 78 12
REMARK SMILES IDX 80 13 79 14 3 15 4 16 2 17 83 18 84 19 1 20 11 24 12 25
REMARK SMILES IDX 13 26 14 27 15 28 16 29 74 30 17 31 73 32 18 33 19 34 20 35
REMARK SMILES IDX 67 36 21 37 72 38 66 39 68 40 22 41 71 42 65 43 64 44 23 46
REMARK SMILES IDX 53 47 34 48 52 49 35 50 38 51 51 52 69 53 36 54 37 55 50 57
REMARK SMILES IDX 70 58 39 59 24 60 25 61 33 62 26 63 32 64 27 65 28 66 29 67
REMARK SMILES IDX 30 68 31 69 54 70 55 71 63 72 56 73 62 74 57 75 58 76 59 77
REMARK SMILES IDX 60 78 61 79 40 80 41 81 49 82 42 83 48 84 43 85 44 86 45 87
REMARK SMILES IDX 46 88 47 89
REMARK H PARENT 1 21 1 22 1 23 68 45 38 56
REMARK Flexibility Score: inf
ROOT
ATOM      1  C   UNL A   1      31.739  28.443  27.328  1.00  0.00     0.274 C 
ENDROOT
BRANCH   1   2
ATOM      2  O   UNL A   1      32.165  27.493  26.332  1.00  0.00    -0.461 OA
BRANCH   2   3
ATOM      3  C   UNL A   1      31.457  26.329  26.307  1.00  0.00     0.328 C 
ATOM      4  O   UNL A   1      30.245  26.271  26.480  1.00  0.00    -0.250 OA
BRANCH   3   5
ATOM      5  C   UNL A   1      32.322  25.099  25.958  1.00  0.00     0.195 C 
ATOM      6  N   UNL A   1      32.719  24.778  24.571  1.00  0.00    -0.320 N 
ATOM      7  C   UNL A   1      33.782  23.768  24.415  1.00  0.00     0.089 C 
ATOM      8  C   UNL A   1      31.972  23.832  26.750  1.00  0.00     0.037 C 
ATOM      9  C   UNL A   1      33.510  22.504  25.263  1.00  0.00     0.012 C 
ATOM     10  C   UNL A   1      35.164  24.396  24.669  1.00  0.00     0.025 C 
ATOM     11  C   UNL A   1      33.154  22.856  26.714  1.00  0.00     0.008 C 
ATOM     12  C   UNL A   1      34.687  21.521  25.184  1.00  0.00     0.006 C 
ATOM     13  C   UNL A   1      36.297  23.377  24.612  1.00  0.00     0.002 C 
ATOM     14  C   UNL A   1      36.032  22.168  25.502  1.00  0.00     0.000 C 
BRANCH   6  15
ATOM     15  C   UNL A   1      31.832  24.906  23.511  1.00  0.00     0.284 C 
ATOM     16  O   UNL A   1      31.023  24.037  23.193  1.00  0.00    -0.268 OA
BRANCH  15  17
ATOM     17  C   UNL A   1      32.022  26.091  22.578  1.00  0.00     0.174 C 
ATOM     18  C   UNL A   1      32.627  25.758  21.217  1.00  0.00     0.086 C 
ATOM     19  C   UNL A   1      33.371  26.631  22.167  1.00  0.00     0.086 C 
BRANCH  17  20
ATOM     20  N   UNL A   1      30.857  27.013  22.589  1.00  0.00    -0.345 N 
ATOM     21  H   UNL A   1      30.368  26.932  23.480  1.00  0.00     0.345 HD
ATOM     22  H   UNL A   1      30.221  26.766  21.829  1.00  0.00     0.345 HD
ATOM     23  H   UNL A   1      31.180  27.972  22.465  1.00  0.00     0.345 HD
ENDBRANCH  17  20
ENDBRANCH  15  17
ENDBRANCH   6  15
ENDBRANCH   3   5
ENDBRANCH   2   3
ENDBRANCH   1   2
BRANCH   1  24
ATOM     24  C   UNL A   1      32.329  29.847  27.118  1.00  0.00     0.275 C 
BRANCH  24  25
ATOM     25  O   UNL A   1      33.757  29.846  26.911  1.00  0.00    -0.458 OA
BRANCH  25  26
ATOM     26  C   UNL A   1      34.457  30.607  27.787  1.00  0.00     0.338 C 
ATOM     27  O   UNL A   1      34.017  31.538  28.444  1.00  0.00    -0.246 OA
BRANCH  26  28
ATOM     28  C   UNL A   1      35.816  30.073  28.013  1.00  0.00     0.060 A 
ATOM     29  C   UNL A   1      36.117  29.667  29.316  1.00  0.00     0.016 A 
ATOM     30  C   UNL A   1      36.812  30.060  27.034  1.00  0.00     0.016 A 
ATOM     31  C   UNL A   1      37.394  29.242  29.656  1.00  0.00     0.010 A 
ATOM     32  C   UNL A   1      38.113  29.657  27.383  1.00  0.00     0.010 A 
ATOM     33  C   UNL A   1      38.413  29.260  28.700  1.00  0.00    -0.014 A 
BRANCH  33  34
ATOM     34  C   UNL A   1      39.796  28.975  29.158  1.00  0.00     0.031 A 
ATOM     35  C   UNL A   1      40.428  27.651  28.825  1.00  0.00     0.074 A 
ATOM     36  C   UNL A   1      40.526  29.939  29.748  1.00  0.00     0.049 A 
ATOM     37  N   UNL A   1      41.641  27.228  29.075  1.00  0.00    -0.248 NA
ATOM     38  C   UNL A   1      39.588  26.682  28.107  1.00  0.00     0.031 C 
ATOM     39  C   UNL A   1      40.051  31.289  30.056  1.00  0.00     0.029 A 
ATOM     40  N   UNL A   1      41.833  29.939  30.170  1.00  0.00    -0.354 N 
ATOM     41  C   UNL A   1      41.709  25.941  28.556  1.00  0.00     0.074 A 
ATOM     42  C   UNL A   1      40.407  25.645  27.995  1.00  0.00     0.031 C 
ATOM     43  C   UNL A   1      41.055  31.989  30.609  1.00  0.00     0.029 A 
ATOM     44  C   UNL A   1      42.233  31.130  30.725  1.00  0.00     0.049 A 
ATOM     45  H   UNL A   1      42.426  29.158  30.083  1.00  0.00     0.167 HD
ATOM     46  C   UNL A   1      42.757  25.084  28.542  1.00  0.00     0.031 A 
ATOM     47  C   UNL A   1      43.409  31.488  31.277  1.00  0.00     0.031 A 
ATOM     48  C   UNL A   1      44.049  25.374  29.108  1.00  0.00     0.049 A 
ATOM     49  C   UNL A   1      44.544  30.502  31.300  1.00  0.00     0.074 A 
ATOM     50  C   UNL A   1      45.165  24.557  29.171  1.00  0.00     0.029 A 
ATOM     51  N   UNL A   1      44.398  26.576  29.706  1.00  0.00    -0.354 N 
ATOM     52  N   UNL A   1      44.581  29.277  30.830  1.00  0.00    -0.248 NA
ATOM     53  C   UNL A   1      45.800  30.948  31.919  1.00  0.00     0.031 C 
ATOM     54  C   UNL A   1      46.177  25.253  29.843  1.00  0.00     0.029 A 
ATOM     55  C   UNL A   1      45.709  26.520  30.150  1.00  0.00     0.049 A 
ATOM     56  H   UNL A   1      43.802  27.353  29.801  1.00  0.00     0.167 HD
ATOM     57  C   UNL A   1      45.868  28.814  31.080  1.00  0.00     0.074 A 
ATOM     58  C   UNL A   1      46.584  29.895  31.727  1.00  0.00     0.031 C 
ATOM     59  C   UNL A   1      46.408  27.602  30.798  1.00  0.00     0.031 A 
BRANCH  46  60
ATOM     60  C   UNL A   1      42.526  23.728  27.930  1.00  0.00    -0.014 A 
ATOM     61  C   UNL A   1      41.946  22.682  28.672  1.00  0.00     0.010 A 
ATOM     62  C   UNL A   1      42.892  23.498  26.591  1.00  0.00     0.010 A 
ATOM     63  C   UNL A   1      41.782  21.417  28.099  1.00  0.00     0.020 A 
ATOM     64  C   UNL A   1      42.707  22.242  26.008  1.00  0.00     0.020 A 
ATOM     65  C   UNL A   1      42.173  21.204  26.773  1.00  0.00     0.054 A 
BRANCH  65  66
ATOM     66  S   UNL A   1      41.959  19.551  26.055  1.00  0.00     0.124 S 
ATOM     67  O   UNL A   1      42.901  19.585  24.939  1.00  0.00    -0.237 OA
ATOM     68  O   UNL A   1      42.327  18.669  27.159  1.00  0.00    -0.237 OA
ATOM     69  O   UNL A   1      40.548  19.517  25.679  1.00  0.00    -0.744 OA
ENDBRANCH  65  66
ENDBRANCH  46  60
BRANCH  47  70
ATOM     70  C   UNL A   1      43.557  32.843  31.875  1.00  0.00    -0.014 A 
ATOM     71  C   UNL A   1      43.285  33.071  33.235  1.00  0.00     0.010 A 
ATOM     72  C   UNL A   1      44.004  33.914  31.079  1.00  0.00     0.010 A 
ATOM     73  C   UNL A   1      43.452  34.345  33.786  1.00  0.00     0.020 A 
ATOM     74  C   UNL A   1      44.196  35.183  31.631  1.00  0.00     0.020 A 
ATOM     75  C   UNL A   1      43.911  35.392  32.982  1.00  0.00     0.054 A 
BRANCH  75  76
ATOM     76  S   UNL A   1      44.196  37.020  33.732  1.00  0.00     0.124 S 
ATOM     77  O   UNL A   1      45.242  36.726  34.707  1.00  0.00    -0.237 OA
ATOM     78  O   UNL A   1      44.606  37.829  32.587  1.00  0.00    -0.237 OA
ATOM     79  O   UNL A   1      42.894  37.368  34.295  1.00  0.00    -0.744 OA
ENDBRANCH  75  76
ENDBRANCH  47  70
BRANCH  59  80
ATOM     80  C   UNL A   1      47.855  27.389  31.157  1.00  0.00    -0.014 A 
ATOM     81  C   UNL A   1      48.886  27.719  30.259  1.00  0.00     0.010 A 
ATOM     82  C   UNL A   1      48.187  26.889  32.429  1.00  0.00     0.010 A 
ATOM     83  C   UNL A   1      50.223  27.516  30.614  1.00  0.00     0.020 A 
ATOM     84  C   UNL A   1      49.523  26.708  32.796  1.00  0.00     0.020 A 
ATOM     85  C   UNL A   1      50.533  27.006  31.879  1.00  0.00     0.054 A 
BRANCH  85  86
ATOM     86  S   UNL A   1      52.275  26.776  32.330  1.00  0.00     0.124 S 
ATOM     87  O   UNL A   1      52.783  28.143  32.281  1.00  0.00    -0.237 OA
ATOM     88  O   UNL A   1      52.188  26.185  33.663  1.00  0.00    -0.237 OA
ATOM     89  O   UNL A   1      52.785  25.882  31.293  1.00  0.00    -0.744 OA
ENDBRANCH  85  86
ENDBRANCH  59  80
ENDBRANCH  33  34
ENDBRANCH  26  28
ENDBRANCH  25  26
ENDBRANCH  24  25
ENDBRANCH   1  24
TORSDOF 17
ENDMDL
