MODEL 1
REMARK VINA RESULT:     -11.1      0.000      0.000
REMARK SMILES O=C(OCCOC(=O)c1ccc(-c2c3nc(c(-c4ccc(S(=O)(=O)[O-])cc4)c4ccc([nH]4)c(-c4ccc(S(=O)(=O)[O-])cc4)c4nc(c(-c5ccc(S(=O)(=O)[O-])cc5)c5ccc2[nH]5)C=C4)C=C3)cc1)c1ccc(C[C@H]2CCN(C(=O)Cc3cccc(O)c3)C2)cc1
REMARK SMILES IDX 3 1 2 2 1 3 69 4 70 5 90 6 71 7 89 8 72 9 73 10 74 11 75 12
REMARK SMILES IDX 88 13 76 14 77 15 78 16 79 17 80 18 81 19 82 20 87 21 83 22
REMARK SMILES IDX 85 23 84 24 86 25 4 27 5 28 6 29 7 30 8 31 9 32 10 33 68 34
REMARK SMILES IDX 11 35 67 36 12 37 13 38 14 39 61 40 15 41 66 42 60 43 62 44
REMARK SMILES IDX 16 45 65 46 59 47 58 48 17 50 47 51 28 52 46 53 29 54 32 55
REMARK SMILES IDX 45 56 63 57 30 58 31 59 44 61 64 62 33 63 18 64 19 65 27 66
REMARK SMILES IDX 20 67 26 68 21 69 22 70 23 71 24 72 25 73 48 74 49 75 57 76
REMARK SMILES IDX 50 77 56 78 51 79 52 80 53 81 54 82 55 83 34 84 35 85 43 86
REMARK SMILES IDX 36 87 42 88 37 89 38 90 39 91 40 92 41 93
REMARK H PARENT 86 26 62 49 32 60
REMARK Flexibility Score: inf
ROOT
ATOM      1  O   UNL A   1      41.037  22.158  26.578  1.00  0.00    -0.458 OA
ENDROOT
BRANCH   1   2
ATOM      2  C   UNL A   1      40.027  21.329  26.202  1.00  0.00     0.338 C 
ATOM      3  O   UNL A   1      40.254  20.124  26.119  1.00  0.00    -0.246 OA
BRANCH   2   4
ATOM      4  C   UNL A   1      38.684  21.825  25.752  1.00  0.00     0.060 A 
ATOM      5  C   UNL A   1      37.752  21.056  25.078  1.00  0.00     0.016 A 
ATOM      6  C   UNL A   1      38.288  23.131  26.103  1.00  0.00     0.016 A 
ATOM      7  C   UNL A   1      36.463  21.510  24.851  1.00  0.00     0.004 A 
ATOM      8  C   UNL A   1      37.019  23.638  25.751  1.00  0.00     0.004 A 
ATOM      9  C   UNL A   1      36.095  22.826  25.091  1.00  0.00    -0.048 A 
BRANCH   9  10
ATOM     10  C   UNL A   1      34.738  23.299  24.616  1.00  0.00     0.041 C 
BRANCH  10  11
ATOM     11  C   UNL A   1      34.538  24.823  24.791  1.00  0.00     0.015 C 
ATOM     12  C   UNL A   1      33.863  25.545  23.611  1.00  0.00     0.027 C 
ATOM     13  C   UNL A   1      33.598  25.192  25.948  1.00  0.00     0.123 C 
ATOM     14  C   UNL A   1      33.373  26.833  24.207  1.00  0.00     0.120 C 
ATOM     15  N   UNL A   1      32.970  26.449  25.542  1.00  0.00    -0.342 N 
BRANCH  15  16
ATOM     16  C   UNL A   1      32.096  27.134  26.358  1.00  0.00     0.227 C 
ATOM     17  O   UNL A   1      31.408  26.555  27.200  1.00  0.00    -0.275 OA
BRANCH  16  18
ATOM     18  C   UNL A   1      31.972  28.643  26.160  1.00  0.00     0.135 C 
BRANCH  18  19
ATOM     19  C   UNL A   1      33.060  29.499  26.781  1.00  0.00    -0.035 A 
ATOM     20  C   UNL A   1      34.286  28.903  27.119  1.00  0.00     0.004 A 
ATOM     21  C   UNL A   1      32.882  30.867  27.046  1.00  0.00     0.050 A 
ATOM     22  C   UNL A   1      35.287  29.643  27.754  1.00  0.00     0.004 A 
ATOM     23  C   UNL A   1      33.867  31.581  27.723  1.00  0.00     0.115 A 
ATOM     24  C   UNL A   1      35.070  30.982  28.071  1.00  0.00     0.046 A 
BRANCH  23  25
ATOM     25  O   UNL A   1      33.669  32.878  28.090  1.00  0.00    -0.508 OA
ATOM     26  H   UNL A   1      33.626  33.549  27.436  1.00  0.00     0.293 HD
ENDBRANCH  23  25
ENDBRANCH  18  19
ENDBRANCH  16  18
ENDBRANCH  15  16
ENDBRANCH  10  11
ENDBRANCH   9  10
ENDBRANCH   2   4
ENDBRANCH   1   2
BRANCH   1  27
ATOM     27  C   UNL A   1      42.094  22.726  25.775  1.00  0.00     0.275 C 
BRANCH  27  28
ATOM     28  C   UNL A   1      42.389  24.197  26.132  1.00  0.00     0.275 C 
BRANCH  28  29
ATOM     29  O   UNL A   1      41.385  24.776  26.991  1.00  0.00    -0.458 OA
BRANCH  29  30
ATOM     30  C   UNL A   1      40.942  26.003  26.614  1.00  0.00     0.338 C 
ATOM     31  O   UNL A   1      40.783  26.373  25.460  1.00  0.00    -0.246 OA
BRANCH  30  32
ATOM     32  C   UNL A   1      40.521  26.812  27.791  1.00  0.00     0.060 A 
ATOM     33  C   UNL A   1      41.110  28.072  27.947  1.00  0.00     0.016 A 
ATOM     34  C   UNL A   1      39.579  26.375  28.731  1.00  0.00     0.016 A 
ATOM     35  C   UNL A   1      40.822  28.858  29.067  1.00  0.00     0.010 A 
ATOM     36  C   UNL A   1      39.263  27.183  29.838  1.00  0.00     0.010 A 
ATOM     37  C   UNL A   1      39.927  28.406  30.045  1.00  0.00    -0.014 A 
BRANCH  37  38
ATOM     38  C   UNL A   1      39.854  29.123  31.352  1.00  0.00     0.031 A 
ATOM     39  C   UNL A   1      40.931  28.874  32.383  1.00  0.00     0.074 A 
ATOM     40  C   UNL A   1      38.909  30.049  31.611  1.00  0.00     0.049 A 
ATOM     41  N   UNL A   1      41.157  29.496  33.514  1.00  0.00    -0.248 NA
ATOM     42  C   UNL A   1      41.874  27.780  32.102  1.00  0.00     0.031 C 
ATOM     43  C   UNL A   1      37.806  30.413  30.723  1.00  0.00     0.029 A 
ATOM     44  N   UNL A   1      38.742  30.869  32.705  1.00  0.00    -0.354 N 
ATOM     45  C   UNL A   1      42.270  28.875  34.070  1.00  0.00     0.074 A 
ATOM     46  C   UNL A   1      42.634  27.791  33.185  1.00  0.00     0.031 C 
ATOM     47  C   UNL A   1      37.090  31.399  31.298  1.00  0.00     0.029 A 
ATOM     48  C   UNL A   1      37.679  31.734  32.595  1.00  0.00     0.049 A 
ATOM     49  H   UNL A   1      39.331  30.840  33.493  1.00  0.00     0.167 HD
ATOM     50  C   UNL A   1      42.952  29.184  35.199  1.00  0.00     0.031 A 
ATOM     51  C   UNL A   1      37.239  32.700  33.430  1.00  0.00     0.031 A 
ATOM     52  C   UNL A   1      42.611  30.254  36.095  1.00  0.00     0.049 A 
ATOM     53  C   UNL A   1      37.987  33.001  34.705  1.00  0.00     0.074 A 
ATOM     54  C   UNL A   1      43.275  30.661  37.240  1.00  0.00     0.029 A 
ATOM     55  N   UNL A   1      41.507  31.078  35.959  1.00  0.00    -0.354 N 
ATOM     56  N   UNL A   1      39.086  32.457  35.170  1.00  0.00    -0.248 NA
ATOM     57  C   UNL A   1      37.446  34.073  35.556  1.00  0.00     0.031 C 
ATOM     58  C   UNL A   1      42.544  31.700  37.825  1.00  0.00     0.029 A 
ATOM     59  C   UNL A   1      41.457  31.977  37.012  1.00  0.00     0.049 A 
ATOM     60  H   UNL A   1      40.855  31.033  35.224  1.00  0.00     0.167 HD
ATOM     61  C   UNL A   1      39.392  33.155  36.336  1.00  0.00     0.074 A 
ATOM     62  C   UNL A   1      38.363  34.158  36.509  1.00  0.00     0.031 C 
ATOM     63  C   UNL A   1      40.442  32.986  37.179  1.00  0.00     0.031 A 
BRANCH  50  64
ATOM     64  C   UNL A   1      44.145  28.329  35.531  1.00  0.00    -0.014 A 
ATOM     65  C   UNL A   1      44.020  27.199  36.360  1.00  0.00     0.010 A 
ATOM     66  C   UNL A   1      45.406  28.655  34.999  1.00  0.00     0.010 A 
ATOM     67  C   UNL A   1      45.144  26.443  36.695  1.00  0.00     0.020 A 
ATOM     68  C   UNL A   1      46.528  27.885  35.311  1.00  0.00     0.020 A 
ATOM     69  C   UNL A   1      46.393  26.797  36.175  1.00  0.00     0.054 A 
BRANCH  69  70
ATOM     70  S   UNL A   1      47.840  25.803  36.633  1.00  0.00     0.124 S 
ATOM     71  O   UNL A   1      47.471  25.333  37.965  1.00  0.00    -0.237 OA
ATOM     72  O   UNL A   1      47.871  24.780  35.591  1.00  0.00    -0.237 OA
ATOM     73  O   UNL A   1      48.943  26.761  36.595  1.00  0.00    -0.744 OA
ENDBRANCH  69  70
ENDBRANCH  50  64
BRANCH  51  74
ATOM     74  C   UNL A   1      36.034  33.503  33.076  1.00  0.00    -0.014 A 
ATOM     75  C   UNL A   1      36.169  34.787  32.518  1.00  0.00     0.010 A 
ATOM     76  C   UNL A   1      34.747  33.001  33.334  1.00  0.00     0.010 A 
ATOM     77  C   UNL A   1      35.039  35.565  32.247  1.00  0.00     0.020 A 
ATOM     78  C   UNL A   1      33.613  33.767  33.043  1.00  0.00     0.020 A 
ATOM     79  C   UNL A   1      33.767  35.050  32.514  1.00  0.00     0.054 A 
BRANCH  79  80
ATOM     80  S   UNL A   1      32.312  36.061  32.124  1.00  0.00     0.124 S 
ATOM     81  O   UNL A   1      32.414  36.194  30.675  1.00  0.00    -0.237 OA
ATOM     82  O   UNL A   1      31.211  35.233  32.610  1.00  0.00    -0.237 OA
ATOM     83  O   UNL A   1      32.538  37.289  32.885  1.00  0.00    -0.744 OA
ENDBRANCH  79  80
ENDBRANCH  51  74
BRANCH  63  84
ATOM     84  C   UNL A   1      40.582  33.942  38.337  1.00  0.00    -0.014 A 
ATOM     85  C   UNL A   1      41.365  35.107  38.247  1.00  0.00     0.010 A 
ATOM     86  C   UNL A   1      39.869  33.691  39.525  1.00  0.00     0.010 A 
ATOM     87  C   UNL A   1      41.462  35.981  39.335  1.00  0.00     0.020 A 
ATOM     88  C   UNL A   1      39.941  34.577  40.605  1.00  0.00     0.020 A 
ATOM     89  C   UNL A   1      40.752  35.709  40.510  1.00  0.00     0.054 A 
BRANCH  89  90
ATOM     90  S   UNL A   1      40.868  36.872  41.897  1.00  0.00     0.124 S 
ATOM     91  O   UNL A   1      39.689  37.709  41.691  1.00  0.00    -0.237 OA
ATOM     92  O   UNL A   1      40.819  35.992  43.062  1.00  0.00    -0.237 OA
ATOM     93  O   UNL A   1      42.150  37.539  41.683  1.00  0.00    -0.744 OA
ENDBRANCH  89  90
ENDBRANCH  63  84
ENDBRANCH  37  38
ENDBRANCH  30  32
ENDBRANCH  29  30
ENDBRANCH  28  29
ENDBRANCH  27  28
ENDBRANCH   1  27
TORSDOF 20
ENDMDL
MODEL 2
REMARK VINA RESULT:     -11.0      1.801      2.759
REMARK SMILES O=C(OCCOC(=O)c1ccc(-c2c3nc(c(-c4ccc(S(=O)(=O)[O-])cc4)c4ccc([nH]4)c(-c4ccc(S(=O)(=O)[O-])cc4)c4nc(c(-c5ccc(S(=O)(=O)[O-])cc5)c5ccc2[nH]5)C=C4)C=C3)cc1)c1ccc(C[C@H]2CCN(C(=O)Cc3cccc(O)c3)C2)cc1
REMARK SMILES IDX 3 1 2 2 1 3 69 4 70 5 90 6 71 7 89 8 72 9 73 10 74 11 75 12
REMARK SMILES IDX 88 13 76 14 77 15 78 16 79 17 80 18 81 19 82 20 87 21 83 22
REMARK SMILES IDX 85 23 84 24 86 25 4 27 5 28 6 29 7 30 8 31 9 32 10 33 68 34
REMARK SMILES IDX 11 35 67 36 12 37 13 38 14 39 61 40 15 41 66 42 60 43 62 44
REMARK SMILES IDX 16 45 65 46 59 47 58 48 17 50 47 51 28 52 46 53 29 54 32 55
REMARK SMILES IDX 45 56 63 57 30 58 31 59 44 61 64 62 33 63 18 64 19 65 27 66
REMARK SMILES IDX 20 67 26 68 21 69 22 70 23 71 24 72 25 73 48 74 49 75 57 76
REMARK SMILES IDX 50 77 56 78 51 79 52 80 53 81 54 82 55 83 34 84 35 85 43 86
REMARK SMILES IDX 36 87 42 88 37 89 38 90 39 91 40 92 41 93
REMARK H PARENT 86 26 62 49 32 60
REMARK Flexibility Score: inf
ROOT
ATOM      1  O   UNL A   1      41.683  22.061  26.704  1.00  0.00    -0.458 OA
ENDROOT
BRANCH   1   2
ATOM      2  C   UNL A   1      40.554  21.411  26.317  1.00  0.00     0.338 C 
ATOM      3  O   UNL A   1      40.627  20.215  26.043  1.00  0.00    -0.246 OA
BRANCH   2   4
ATOM      4  C   UNL A   1      39.247  22.109  26.078  1.00  0.00     0.060 A 
ATOM      5  C   UNL A   1      38.146  21.523  25.478  1.00  0.00     0.016 A 
ATOM      6  C   UNL A   1      39.077  23.421  26.562  1.00  0.00     0.016 A 
ATOM      7  C   UNL A   1      36.913  22.154  25.449  1.00  0.00     0.004 A 
ATOM      8  C   UNL A   1      37.856  24.113  26.411  1.00  0.00     0.004 A 
ATOM      9  C   UNL A   1      36.759  23.482  25.822  1.00  0.00    -0.048 A 
BRANCH   9  10
ATOM     10  C   UNL A   1      35.433  24.161  25.558  1.00  0.00     0.041 C 
BRANCH  10  11
ATOM     11  C   UNL A   1      34.861  23.837  24.158  1.00  0.00     0.015 C 
ATOM     12  C   UNL A   1      33.561  23.012  24.145  1.00  0.00     0.027 C 
ATOM     13  C   UNL A   1      34.437  25.081  23.362  1.00  0.00     0.123 C 
ATOM     14  C   UNL A   1      32.995  23.249  22.775  1.00  0.00     0.120 C 
ATOM     15  N   UNL A   1      33.337  24.629  22.508  1.00  0.00    -0.342 N 
BRANCH  15  16
ATOM     16  C   UNL A   1      32.726  25.459  21.594  1.00  0.00     0.227 C 
ATOM     17  O   UNL A   1      33.233  25.698  20.496  1.00  0.00    -0.275 OA
BRANCH  16  18
ATOM     18  C   UNL A   1      31.407  26.114  21.998  1.00  0.00     0.135 C 
BRANCH  18  19
ATOM     19  C   UNL A   1      31.424  26.943  23.269  1.00  0.00    -0.035 A 
ATOM     20  C   UNL A   1      31.884  28.269  23.212  1.00  0.00     0.004 A 
ATOM     21  C   UNL A   1      31.010  26.428  24.508  1.00  0.00     0.050 A 
ATOM     22  C   UNL A   1      31.978  29.041  24.373  1.00  0.00     0.004 A 
ATOM     23  C   UNL A   1      31.154  27.190  25.663  1.00  0.00     0.115 A 
ATOM     24  C   UNL A   1      31.627  28.494  25.604  1.00  0.00     0.046 A 
BRANCH  23  25
ATOM     25  O   UNL A   1      30.864  26.671  26.890  1.00  0.00    -0.508 OA
ATOM     26  H   UNL A   1      31.307  25.901  27.189  1.00  0.00     0.293 HD
ENDBRANCH  23  25
ENDBRANCH  18  19
ENDBRANCH  16  18
ENDBRANCH  15  16
ENDBRANCH  10  11
ENDBRANCH   9  10
ENDBRANCH   2   4
ENDBRANCH   1   2
BRANCH   1  27
ATOM     27  C   UNL A   1      43.001  22.023  26.116  1.00  0.00     0.275 C 
BRANCH  27  28
ATOM     28  C   UNL A   1      43.190  23.077  25.006  1.00  0.00     0.275 C 
BRANCH  28  29
ATOM     29  O   UNL A   1      42.795  24.402  25.420  1.00  0.00    -0.458 OA
BRANCH  29  30
ATOM     30  C   UNL A   1      43.643  25.012  26.287  1.00  0.00     0.338 C 
ATOM     31  O   UNL A   1      44.863  24.980  26.223  1.00  0.00    -0.246 OA
BRANCH  30  32
ATOM     32  C   UNL A   1      42.904  25.865  27.257  1.00  0.00     0.060 A 
ATOM     33  C   UNL A   1      43.359  27.176  27.435  1.00  0.00     0.016 A 
ATOM     34  C   UNL A   1      41.793  25.422  27.987  1.00  0.00     0.016 A 
ATOM     35  C   UNL A   1      42.764  28.014  28.384  1.00  0.00     0.010 A 
ATOM     36  C   UNL A   1      41.172  26.277  28.914  1.00  0.00     0.010 A 
ATOM     37  C   UNL A   1      41.691  27.562  29.162  1.00  0.00    -0.014 A 
BRANCH  37  38
ATOM     38  C   UNL A   1      41.263  28.362  30.348  1.00  0.00     0.031 A 
ATOM     39  C   UNL A   1      42.076  28.274  31.619  1.00  0.00     0.074 A 
ATOM     40  C   UNL A   1      40.228  29.224  30.296  1.00  0.00     0.049 A 
ATOM     41  N   UNL A   1      41.987  28.990  32.712  1.00  0.00    -0.248 NA
ATOM     42  C   UNL A   1      43.125  27.243  31.663  1.00  0.00     0.031 C 
ATOM     43  C   UNL A   1      39.350  29.434  29.148  1.00  0.00     0.029 A 
ATOM     44  N   UNL A   1      39.755  30.103  31.245  1.00  0.00    -0.354 N 
ATOM     45  C   UNL A   1      42.970  28.503  33.566  1.00  0.00     0.074 A 
ATOM     46  C   UNL A   1      43.602  27.392  32.889  1.00  0.00     0.031 C 
ATOM     47  C   UNL A   1      38.458  30.397  29.450  1.00  0.00     0.029 A 
ATOM     48  C   UNL A   1      38.698  30.870  30.814  1.00  0.00     0.049 A 
ATOM     49  H   UNL A   1      40.139  30.177  32.148  1.00  0.00     0.167 HD
ATOM     50  C   UNL A   1      43.342  28.945  34.790  1.00  0.00     0.031 A 
ATOM     51  C   UNL A   1      38.012  31.854  31.435  1.00  0.00     0.031 A 
ATOM     52  C   UNL A   1      42.731  30.045  35.485  1.00  0.00     0.049 A 
ATOM     53  C   UNL A   1      38.414  32.304  32.818  1.00  0.00     0.074 A 
ATOM     54  C   UNL A   1      43.077  30.584  36.713  1.00  0.00     0.029 A 
ATOM     55  N   UNL A   1      41.644  30.766  35.023  1.00  0.00    -0.354 N 
ATOM     56  N   UNL A   1      39.401  31.885  33.572  1.00  0.00    -0.248 NA
ATOM     57  C   UNL A   1      37.619  33.387  33.422  1.00  0.00     0.031 C 
ATOM     58  C   UNL A   1      42.164  31.600  37.017  1.00  0.00     0.029 A 
ATOM     59  C   UNL A   1      41.288  31.729  35.952  1.00  0.00     0.049 A 
ATOM     60  H   UNL A   1      41.190  30.615  34.162  1.00  0.00     0.167 HD
ATOM     61  C   UNL A   1      39.376  32.686  34.712  1.00  0.00     0.074 A 
ATOM     62  C   UNL A   1      38.276  33.612  34.551  1.00  0.00     0.031 C 
ATOM     63  C   UNL A   1      40.202  32.663  35.788  1.00  0.00     0.031 A 
BRANCH  50  64
ATOM     64  C   UNL A   1      44.472  28.215  35.466  1.00  0.00    -0.014 A 
ATOM     65  C   UNL A   1      44.221  27.169  36.372  1.00  0.00     0.010 A 
ATOM     66  C   UNL A   1      45.802  28.575  35.182  1.00  0.00     0.010 A 
ATOM     67  C   UNL A   1      45.278  26.532  37.024  1.00  0.00     0.020 A 
ATOM     68  C   UNL A   1      46.863  27.921  35.813  1.00  0.00     0.020 A 
ATOM     69  C   UNL A   1      46.593  26.919  36.747  1.00  0.00     0.054 A 
BRANCH  69  70
ATOM     70  S   UNL A   1      47.948  26.082  37.614  1.00  0.00     0.124 S 
ATOM     71  O   UNL A   1      47.376  24.761  37.858  1.00  0.00    -0.237 OA
ATOM     72  O   UNL A   1      49.032  26.127  36.636  1.00  0.00    -0.237 OA
ATOM     73  O   UNL A   1      48.154  26.902  38.806  1.00  0.00    -0.744 OA
ENDBRANCH  69  70
ENDBRANCH  50  64
BRANCH  51  74
ATOM     74  C   UNL A   1      36.880  32.529  30.740  1.00  0.00    -0.014 A 
ATOM     75  C   UNL A   1      37.104  33.669  29.947  1.00  0.00     0.010 A 
ATOM     76  C   UNL A   1      35.565  32.058  30.903  1.00  0.00     0.010 A 
ATOM     77  C   UNL A   1      36.033  34.340  29.350  1.00  0.00     0.020 A 
ATOM     78  C   UNL A   1      34.493  32.713  30.289  1.00  0.00     0.020 A 
ATOM     79  C   UNL A   1      34.733  33.858  29.527  1.00  0.00     0.054 A 
BRANCH  79  80
ATOM     80  S   UNL A   1      33.360  34.723  28.715  1.00  0.00     0.124 S 
ATOM     81  O   UNL A   1      32.502  35.060  29.846  1.00  0.00    -0.237 OA
ATOM     82  O   UNL A   1      34.032  35.850  28.071  1.00  0.00    -0.237 OA
ATOM     83  O   UNL A   1      32.822  33.722  27.796  1.00  0.00    -0.744 OA
ENDBRANCH  79  80
ENDBRANCH  51  74
BRANCH  63  84
ATOM     84  C   UNL A   1      40.002  33.707  36.857  1.00  0.00    -0.014 A 
ATOM     85  C   UNL A   1      40.562  34.993  36.754  1.00  0.00     0.010 A 
ATOM     86  C   UNL A   1      39.189  33.406  37.968  1.00  0.00     0.010 A 
ATOM     87  C   UNL A   1      40.345  35.943  37.757  1.00  0.00     0.020 A 
ATOM     88  C   UNL A   1      38.947  34.362  38.959  1.00  0.00     0.020 A 
ATOM     89  C   UNL A   1      39.541  35.621  38.856  1.00  0.00     0.054 A 
BRANCH  89  90
ATOM     90  S   UNL A   1      39.247  36.879  40.130  1.00  0.00     0.124 S 
ATOM     91  O   UNL A   1      38.640  37.958  39.357  1.00  0.00    -0.237 OA
ATOM     92  O   UNL A   1      38.356  36.193  41.062  1.00  0.00    -0.237 OA
ATOM     93  O   UNL A   1      40.583  37.162  40.651  1.00  0.00    -0.744 OA
ENDBRANCH  89  90
ENDBRANCH  63  84
ENDBRANCH  37  38
ENDBRANCH  30  32
ENDBRANCH  29  30
ENDBRANCH  28  29
ENDBRANCH  27  28
ENDBRANCH   1  27
TORSDOF 20
ENDMDL
MODEL 3
REMARK VINA RESULT:     -11.0      1.949      2.907
REMARK SMILES O=C(OCCOC(=O)c1ccc(-c2c3nc(c(-c4ccc(S(=O)(=O)[O-])cc4)c4ccc([nH]4)c(-c4ccc(S(=O)(=O)[O-])cc4)c4nc(c(-c5ccc(S(=O)(=O)[O-])cc5)c5ccc2[nH]5)C=C4)C=C3)cc1)c1ccc(C[C@H]2CCN(C(=O)Cc3cccc(O)c3)C2)cc1
REMARK SMILES IDX 3 1 2 2 1 3 69 4 70 5 90 6 71 7 89 8 72 9 73 10 74 11 75 12
REMARK SMILES IDX 88 13 76 14 77 15 78 16 79 17 80 18 81 19 82 20 87 21 83 22
REMARK SMILES IDX 85 23 84 24 86 25 4 27 5 28 6 29 7 30 8 31 9 32 10 33 68 34
REMARK SMILES IDX 11 35 67 36 12 37 13 38 14 39 61 40 15 41 66 42 60 43 62 44
REMARK SMILES IDX 16 45 65 46 59 47 58 48 17 50 47 51 28 52 46 53 29 54 32 55
REMARK SMILES IDX 45 56 63 57 30 58 31 59 44 61 64 62 33 63 18 64 19 65 27 66
REMARK SMILES IDX 20 67 26 68 21 69 22 70 23 71 24 72 25 73 48 74 49 75 57 76
REMARK SMILES IDX 50 77 56 78 51 79 52 80 53 81 54 82 55 83 34 84 35 85 43 86
REMARK SMILES IDX 36 87 42 88 37 89 38 90 39 91 40 92 41 93
REMARK H PARENT 86 26 62 49 32 60
REMARK Flexibility Score: inf
ROOT
ATOM      1  O   UNL A   1      41.345  21.798  25.774  1.00  0.00    -0.458 OA
ENDROOT
BRANCH   1   2
ATOM      2  C   UNL A   1      40.271  21.921  26.598  1.00  0.00     0.338 C 
ATOM      3  O   UNL A   1      40.417  21.685  27.795  1.00  0.00    -0.246 OA
BRANCH   2   4
ATOM      4  C   UNL A   1      38.883  22.199  26.099  1.00  0.00     0.060 A 
ATOM      5  C   UNL A   1      38.254  23.428  26.184  1.00  0.00     0.016 A 
ATOM      6  C   UNL A   1      38.186  21.180  25.420  1.00  0.00     0.016 A 
ATOM      7  C   UNL A   1      37.049  23.674  25.545  1.00  0.00     0.004 A 
ATOM      8  C   UNL A   1      36.897  21.395  24.886  1.00  0.00     0.004 A 
ATOM      9  C   UNL A   1      36.303  22.655  24.969  1.00  0.00    -0.048 A 
BRANCH   9  10
ATOM     10  C   UNL A   1      34.903  22.965  24.485  1.00  0.00     0.041 C 
BRANCH  10  11
ATOM     11  C   UNL A   1      34.327  24.260  25.104  1.00  0.00     0.015 C 
ATOM     12  C   UNL A   1      34.305  25.488  24.175  1.00  0.00     0.027 C 
ATOM     13  C   UNL A   1      32.846  24.151  25.495  1.00  0.00     0.123 C 
ATOM     14  C   UNL A   1      33.310  26.410  24.817  1.00  0.00     0.120 C 
ATOM     15  N   UNL A   1      32.312  25.506  25.347  1.00  0.00    -0.342 N 
BRANCH  15  16
ATOM     16  C   UNL A   1      31.011  25.825  25.668  1.00  0.00     0.227 C 
ATOM     17  O   UNL A   1      30.693  26.178  26.805  1.00  0.00    -0.275 OA
BRANCH  16  18
ATOM     18  C   UNL A   1      29.954  25.688  24.574  1.00  0.00     0.135 C 
BRANCH  18  19
ATOM     19  C   UNL A   1      29.425  26.979  23.979  1.00  0.00    -0.035 A 
ATOM     20  C   UNL A   1      30.311  28.051  23.778  1.00  0.00     0.004 A 
ATOM     21  C   UNL A   1      28.074  27.149  23.633  1.00  0.00     0.050 A 
ATOM     22  C   UNL A   1      29.847  29.277  23.295  1.00  0.00     0.004 A 
ATOM     23  C   UNL A   1      27.617  28.390  23.199  1.00  0.00     0.115 A 
ATOM     24  C   UNL A   1      28.493  29.452  23.020  1.00  0.00     0.046 A 
BRANCH  23  25
ATOM     25  O   UNL A   1      26.292  28.609  22.965  1.00  0.00    -0.508 OA
ATOM     26  H   UNL A   1      25.812  28.029  22.406  1.00  0.00     0.293 HD
ENDBRANCH  23  25
ENDBRANCH  18  19
ENDBRANCH  16  18
ENDBRANCH  15  16
ENDBRANCH  10  11
ENDBRANCH   9  10
ENDBRANCH   2   4
ENDBRANCH   1   2
BRANCH   1  27
ATOM     27  C   UNL A   1      42.710  22.217  25.989  1.00  0.00     0.275 C 
BRANCH  27  28
ATOM     28  C   UNL A   1      43.104  23.433  25.127  1.00  0.00     0.275 C 
BRANCH  28  29
ATOM     29  O   UNL A   1      42.455  24.651  25.549  1.00  0.00    -0.458 OA
BRANCH  29  30
ATOM     30  C   UNL A   1      43.273  25.570  26.124  1.00  0.00     0.338 C 
ATOM     31  O   UNL A   1      44.421  25.809  25.780  1.00  0.00    -0.246 OA
BRANCH  30  32
ATOM     32  C   UNL A   1      42.549  26.375  27.146  1.00  0.00     0.060 A 
ATOM     33  C   UNL A   1      42.962  27.699  27.329  1.00  0.00     0.016 A 
ATOM     34  C   UNL A   1      41.493  25.874  27.918  1.00  0.00     0.016 A 
ATOM     35  C   UNL A   1      42.381  28.495  28.322  1.00  0.00     0.010 A 
ATOM     36  C   UNL A   1      40.885  26.686  28.891  1.00  0.00     0.010 A 
ATOM     37  C   UNL A   1      41.365  27.985  29.141  1.00  0.00    -0.014 A 
BRANCH  37  38
ATOM     38  C   UNL A   1      40.964  28.745  30.362  1.00  0.00     0.031 A 
ATOM     39  C   UNL A   1      41.773  28.573  31.627  1.00  0.00     0.074 A 
ATOM     40  C   UNL A   1      39.959  29.643  30.351  1.00  0.00     0.049 A 
ATOM     41  N   UNL A   1      41.708  29.242  32.751  1.00  0.00    -0.248 NA
ATOM     42  C   UNL A   1      42.787  27.506  31.623  1.00  0.00     0.031 C 
ATOM     43  C   UNL A   1      39.088  29.934  29.214  1.00  0.00     0.029 A 
ATOM     44  N   UNL A   1      39.515  30.494  31.338  1.00  0.00    -0.354 N 
ATOM     45  C   UNL A   1      42.674  28.684  33.581  1.00  0.00     0.074 A 
ATOM     46  C   UNL A   1      43.268  27.584  32.853  1.00  0.00     0.031 C 
ATOM     47  C   UNL A   1      38.229  30.912  29.560  1.00  0.00     0.029 A 
ATOM     48  C   UNL A   1      38.484  31.315  30.944  1.00  0.00     0.049 A 
ATOM     49  H   UNL A   1      39.901  30.515  32.243  1.00  0.00     0.167 HD
ATOM     50  C   UNL A   1      43.061  29.058  34.824  1.00  0.00     0.031 A 
ATOM     51  C   UNL A   1      37.832  32.292  31.609  1.00  0.00     0.031 A 
ATOM     52  C   UNL A   1      42.487  30.145  35.567  1.00  0.00     0.049 A 
ATOM     53  C   UNL A   1      38.249  32.666  33.011  1.00  0.00     0.074 A 
ATOM     54  C   UNL A   1      42.850  30.617  36.818  1.00  0.00     0.029 A 
ATOM     55  N   UNL A   1      41.425  30.922  35.140  1.00  0.00    -0.354 N 
ATOM     56  N   UNL A   1      39.221  32.180  33.744  1.00  0.00    -0.248 NA
ATOM     57  C   UNL A   1      37.491  33.746  33.664  1.00  0.00     0.031 C 
ATOM     58  C   UNL A   1      41.972  31.648  37.169  1.00  0.00     0.029 A 
ATOM     59  C   UNL A   1      41.101  31.855  36.112  1.00  0.00     0.049 A 
ATOM     60  H   UNL A   1      40.966  30.826  34.274  1.00  0.00     0.167 HD
ATOM     61  C   UNL A   1      39.223  32.930  34.919  1.00  0.00     0.074 A 
ATOM     62  C   UNL A   1      38.154  33.899  34.801  1.00  0.00     0.031 C 
ATOM     63  C   UNL A   1      40.048  32.830  35.991  1.00  0.00     0.031 A 
BRANCH  50  64
ATOM     64  C   UNL A   1      44.165  28.260  35.464  1.00  0.00    -0.014 A 
ATOM     65  C   UNL A   1      43.879  27.179  36.315  1.00  0.00     0.010 A 
ATOM     66  C   UNL A   1      45.506  28.593  35.202  1.00  0.00     0.010 A 
ATOM     67  C   UNL A   1      44.914  26.478  36.938  1.00  0.00     0.020 A 
ATOM     68  C   UNL A   1      46.545  27.877  35.801  1.00  0.00     0.020 A 
ATOM     69  C   UNL A   1      46.241  26.838  36.683  1.00  0.00     0.054 A 
BRANCH  69  70
ATOM     70  S   UNL A   1      47.567  25.917  37.510  1.00  0.00     0.124 S 
ATOM     71  O   UNL A   1      48.465  25.623  36.396  1.00  0.00    -0.237 OA
ATOM     72  O   UNL A   1      48.069  26.882  38.484  1.00  0.00    -0.237 OA
ATOM     73  O   UNL A   1      46.881  24.760  38.079  1.00  0.00    -0.744 OA
ENDBRANCH  69  70
ENDBRANCH  50  64
BRANCH  51  74
ATOM     74  C   UNL A   1      36.723  33.036  30.948  1.00  0.00    -0.014 A 
ATOM     75  C   UNL A   1      35.402  32.913  31.414  1.00  0.00     0.010 A 
ATOM     76  C   UNL A   1      36.979  33.839  29.823  1.00  0.00     0.010 A 
ATOM     77  C   UNL A   1      34.353  33.559  30.752  1.00  0.00     0.020 A 
ATOM     78  C   UNL A   1      35.936  34.506  29.172  1.00  0.00     0.020 A 
ATOM     79  C   UNL A   1      34.628  34.350  29.633  1.00  0.00     0.054 A 
BRANCH  79  80
ATOM     80  S   UNL A   1      33.257  35.208  28.809  1.00  0.00     0.124 S 
ATOM     81  O   UNL A   1      32.467  35.678  29.941  1.00  0.00    -0.237 OA
ATOM     82  O   UNL A   1      33.947  36.244  28.043  1.00  0.00    -0.237 OA
ATOM     83  O   UNL A   1      32.636  34.160  28.002  1.00  0.00    -0.744 OA
ENDBRANCH  79  80
ENDBRANCH  51  74
BRANCH  63  84
ATOM     84  C   UNL A   1      39.882  33.831  37.107  1.00  0.00    -0.014 A 
ATOM     85  C   UNL A   1      40.483  35.102  37.059  1.00  0.00     0.010 A 
ATOM     86  C   UNL A   1      39.062  33.507  38.205  1.00  0.00     0.010 A 
ATOM     87  C   UNL A   1      40.298  36.013  38.104  1.00  0.00     0.020 A 
ATOM     88  C   UNL A   1      38.852  34.425  39.239  1.00  0.00     0.020 A 
ATOM     89  C   UNL A   1      39.486  35.668  39.190  1.00  0.00     0.054 A 
BRANCH  89  90
ATOM     90  S   UNL A   1      39.235  36.877  40.520  1.00  0.00     0.124 S 
ATOM     91  O   UNL A   1      38.419  36.122  41.467  1.00  0.00    -0.237 OA
ATOM     92  O   UNL A   1      40.599  37.166  40.955  1.00  0.00    -0.237 OA
ATOM     93  O   UNL A   1      38.553  37.985  39.855  1.00  0.00    -0.744 OA
ENDBRANCH  89  90
ENDBRANCH  63  84
ENDBRANCH  37  38
ENDBRANCH  30  32
ENDBRANCH  29  30
ENDBRANCH  28  29
ENDBRANCH  27  28
ENDBRANCH   1  27
TORSDOF 20
ENDMDL
