MODEL 1
REMARK VINA RESULT:     -10.7      0.000      0.000
REMARK SMILES CCC[NH2+][C@]1(C(=O)OCCOC(=O)c2ccc(-c3c4nc(c(-c5ccc(S(=O)(=O)[O-])cc5)c5ccc([nH]5)c(-c5ccc(S(=O)(=O)[O-])cc5)c5nc(c(-c6ccc(S(=O)(=O)[O-])cc6)c6ccc3[nH]6)C=C5)C=C4)cc2)CC[C@H](n2nc(C)c(CC)c2C)C1
REMARK SMILES IDX 9 1 8 2 6 3 7 4 5 5 74 6 86 7 75 8 76 9 4 10 3 13 2 14 1 15
REMARK SMILES IDX 77 16 78 17 84 18 79 19 81 20 85 21 80 22 82 23 83 24 10 25
REMARK SMILES IDX 11 26 12 27 13 28 14 29 15 30 73 31 16 32 72 33 17 34 18 35
REMARK SMILES IDX 19 36 66 37 20 38 71 39 65 40 67 41 21 42 70 43 64 44 63 45
REMARK SMILES IDX 22 47 52 48 33 49 51 50 34 51 37 52 50 53 68 54 35 55 36 56
REMARK SMILES IDX 49 58 69 59 38 60 23 61 24 62 32 63 25 64 31 65 26 66 27 67
REMARK SMILES IDX 28 68 29 69 30 70 53 71 54 72 62 73 55 74 61 75 56 76 57 77
REMARK SMILES IDX 58 78 59 79 60 80 39 81 40 82 48 83 41 84 47 85 42 86 43 87
REMARK SMILES IDX 44 88 45 89 46 90
REMARK H PARENT 4 11 4 12 67 46 37 57
REMARK Flexibility Score: inf
ROOT
ATOM      1  C   UNL A   1      33.024  30.170  27.279  1.00  0.00     0.274 C 
ENDROOT
BRANCH   1   2
ATOM      2  O   UNL A   1      32.472  28.855  27.070  1.00  0.00    -0.457 OA
BRANCH   2   3
ATOM      3  C   UNL A   1      31.955  28.636  25.827  1.00  0.00     0.368 C 
ATOM      4  O   UNL A   1      31.266  29.447  25.218  1.00  0.00    -0.245 OA
BRANCH   3   5
ATOM      5  C   UNL A   1      32.379  27.272  25.248  1.00  0.00     0.196 C 
ATOM      6  C   UNL A   1      32.773  27.353  23.771  1.00  0.00     0.083 C 
ATOM      7  C   UNL A   1      33.761  26.878  25.837  1.00  0.00     0.108 C 
ATOM      8  C   UNL A   1      33.620  26.097  23.544  1.00  0.00     0.034 C 
ATOM      9  C   UNL A   1      34.323  25.804  24.897  1.00  0.00     0.115 C 
BRANCH   5  10
ATOM     10  N   UNL A   1      31.427  26.195  25.592  1.00  0.00    -0.332 N 
ATOM     11  H   UNL A   1      31.903  25.311  25.422  1.00  0.00     0.347 HD
ATOM     12  H   UNL A   1      31.168  26.399  26.558  1.00  0.00     0.347 HD
BRANCH  10  13
ATOM     13  C   UNL A   1      30.148  26.131  24.899  1.00  0.00     0.261 C 
BRANCH  13  14
ATOM     14  C   UNL A   1      30.173  25.000  23.860  1.00  0.00     0.058 C 
ATOM     15  C   UNL A   1      30.808  23.708  24.351  1.00  0.00     0.010 C 
ENDBRANCH  13  14
ENDBRANCH  10  13
ENDBRANCH   5  10
BRANCH   9  16
ATOM     16  N   UNL A   1      34.290  24.386  25.245  1.00  0.00    -0.266 N 
ATOM     17  N   UNL A   1      33.730  24.119  26.454  1.00  0.00    -0.178 NA
ATOM     18  C   UNL A   1      34.611  23.227  24.571  1.00  0.00     0.039 A 
ATOM     19  C   UNL A   1      33.712  22.788  26.550  1.00  0.00     0.063 A 
ATOM     20  C   UNL A   1      34.258  22.175  25.404  1.00  0.00    -0.004 A 
ATOM     21  C   UNL A   1      35.183  23.075  23.215  1.00  0.00     0.066 C 
ATOM     22  C   UNL A   1      33.146  22.147  27.761  1.00  0.00     0.069 C 
BRANCH  20  23
ATOM     23  C   UNL A   1      34.417  20.715  25.117  1.00  0.00     0.036 C 
ATOM     24  C   UNL A   1      33.164  19.923  25.460  1.00  0.00     0.009 C 
ENDBRANCH  20  23
ENDBRANCH   9  16
ENDBRANCH   3   5
ENDBRANCH   2   3
ENDBRANCH   1   2
BRANCH   1  25
ATOM     25  C   UNL A   1      34.533  30.154  27.046  1.00  0.00     0.275 C 
BRANCH  25  26
ATOM     26  O   UNL A   1      35.179  29.443  28.117  1.00  0.00    -0.458 OA
BRANCH  26  27
ATOM     27  C   UNL A   1      35.954  30.187  28.941  1.00  0.00     0.338 C 
ATOM     28  O   UNL A   1      35.578  31.075  29.687  1.00  0.00    -0.246 OA
BRANCH  27  29
ATOM     29  C   UNL A   1      37.373  29.773  28.817  1.00  0.00     0.060 A 
ATOM     30  C   UNL A   1      38.041  29.818  27.593  1.00  0.00     0.016 A 
ATOM     31  C   UNL A   1      38.034  29.277  29.945  1.00  0.00     0.016 A 
ATOM     32  C   UNL A   1      39.348  29.335  27.494  1.00  0.00     0.010 A 
ATOM     33  C   UNL A   1      39.372  28.872  29.854  1.00  0.00     0.010 A 
ATOM     34  C   UNL A   1      40.048  28.885  28.624  1.00  0.00    -0.014 A 
BRANCH  34  35
ATOM     35  C   UNL A   1      41.485  28.481  28.536  1.00  0.00     0.031 A 
ATOM     36  C   UNL A   1      42.593  29.488  28.734  1.00  0.00     0.074 A 
ATOM     37  C   UNL A   1      41.812  27.206  28.234  1.00  0.00     0.049 A 
ATOM     38  N   UNL A   1      43.868  29.375  28.458  1.00  0.00    -0.248 NA
ATOM     39  C   UNL A   1      42.220  30.792  29.304  1.00  0.00     0.031 C 
ATOM     40  C   UNL A   1      40.862  26.105  28.049  1.00  0.00     0.029 A 
ATOM     41  N   UNL A   1      43.037  26.617  28.025  1.00  0.00    -0.354 N 
ATOM     42  C   UNL A   1      44.439  30.607  28.760  1.00  0.00     0.074 A 
ATOM     43  C   UNL A   1      43.371  31.452  29.254  1.00  0.00     0.031 C 
ATOM     44  C   UNL A   1      41.536  24.974  27.802  1.00  0.00     0.029 A 
ATOM     45  C   UNL A   1      42.955  25.285  27.691  1.00  0.00     0.049 A 
ATOM     46  H   UNL A   1      43.889  27.101  28.108  1.00  0.00     0.167 HD
ATOM     47  C   UNL A   1      45.730  31.002  28.626  1.00  0.00     0.031 A 
ATOM     48  C   UNL A   1      43.893  24.413  27.272  1.00  0.00     0.031 A 
ATOM     49  C   UNL A   1      46.799  30.147  28.173  1.00  0.00     0.049 A 
ATOM     50  C   UNL A   1      45.301  24.885  27.074  1.00  0.00     0.074 A 
ATOM     51  C   UNL A   1      48.143  30.453  28.033  1.00  0.00     0.029 A 
ATOM     52  N   UNL A   1      46.653  28.822  27.794  1.00  0.00    -0.354 N 
ATOM     53  N   UNL A   1      45.809  26.071  27.305  1.00  0.00    -0.248 NA
ATOM     54  C   UNL A   1      46.255  23.912  26.522  1.00  0.00     0.031 C 
ATOM     55  C   UNL A   1      48.801  29.328  27.526  1.00  0.00     0.029 A 
ATOM     56  C   UNL A   1      47.874  28.306  27.393  1.00  0.00     0.049 A 
ATOM     57  H   UNL A   1      45.806  28.322  27.808  1.00  0.00     0.167 HD
ATOM     58  C   UNL A   1      47.140  25.991  26.915  1.00  0.00     0.074 A 
ATOM     59  C   UNL A   1      47.366  24.633  26.463  1.00  0.00     0.031 C 
ATOM     60  C   UNL A   1      48.084  26.962  26.923  1.00  0.00     0.031 A 
BRANCH  47  61
ATOM     61  C   UNL A   1      46.064  32.439  28.925  1.00  0.00    -0.014 A 
ATOM     62  C   UNL A   1      45.989  33.436  27.937  1.00  0.00     0.010 A 
ATOM     63  C   UNL A   1      46.389  32.807  30.245  1.00  0.00     0.010 A 
ATOM     64  C   UNL A   1      46.261  34.770  28.258  1.00  0.00     0.020 A 
ATOM     65  C   UNL A   1      46.641  34.142  30.574  1.00  0.00     0.020 A 
ATOM     66  C   UNL A   1      46.590  35.114  29.573  1.00  0.00     0.054 A 
BRANCH  66  67
ATOM     67  S   UNL A   1      46.911  36.856  29.971  1.00  0.00     0.124 S 
ATOM     68  O   UNL A   1      48.352  36.953  29.755  1.00  0.00    -0.237 OA
ATOM     69  O   UNL A   1      46.082  37.566  28.999  1.00  0.00    -0.237 OA
ATOM     70  O   UNL A   1      46.479  36.981  31.360  1.00  0.00    -0.744 OA
ENDBRANCH  66  67
ENDBRANCH  47  61
BRANCH  48  71
ATOM     71  C   UNL A   1      43.492  23.024  26.924  1.00  0.00    -0.014 A 
ATOM     72  C   UNL A   1      44.006  22.395  25.777  1.00  0.00     0.010 A 
ATOM     73  C   UNL A   1      42.635  22.302  27.776  1.00  0.00     0.010 A 
ATOM     74  C   UNL A   1      43.680  21.065  25.497  1.00  0.00     0.020 A 
ATOM     75  C   UNL A   1      42.330  20.965  27.515  1.00  0.00     0.020 A 
ATOM     76  C   UNL A   1      42.851  20.355  26.373  1.00  0.00     0.054 A 
BRANCH  76  77
ATOM     77  S   UNL A   1      42.521  18.600  26.051  1.00  0.00     0.124 S 
ATOM     78  O   UNL A   1      43.375  18.338  24.898  1.00  0.00    -0.237 OA
ATOM     79  O   UNL A   1      42.928  17.963  27.300  1.00  0.00    -0.237 OA
ATOM     80  O   UNL A   1      41.083  18.570  25.788  1.00  0.00    -0.744 OA
ENDBRANCH  76  77
ENDBRANCH  48  71
BRANCH  60  81
ATOM     81  C   UNL A   1      49.451  26.592  26.418  1.00  0.00    -0.014 A 
ATOM     82  C   UNL A   1      50.392  25.993  27.274  1.00  0.00     0.010 A 
ATOM     83  C   UNL A   1      49.782  26.805  25.068  1.00  0.00     0.010 A 
ATOM     84  C   UNL A   1      51.653  25.632  26.792  1.00  0.00     0.020 A 
ATOM     85  C   UNL A   1      51.035  26.426  24.578  1.00  0.00     0.020 A 
ATOM     86  C   UNL A   1      51.967  25.852  25.447  1.00  0.00     0.054 A 
BRANCH  86  87
ATOM     87  S   UNL A   1      53.593  25.332  24.833  1.00  0.00     0.124 S 
ATOM     88  O   UNL A   1      53.619  25.928  23.500  1.00  0.00    -0.237 OA
ATOM     89  O   UNL A   1      54.509  25.926  25.804  1.00  0.00    -0.237 OA
ATOM     90  O   UNL A   1      53.523  23.873  24.862  1.00  0.00    -0.744 OA
ENDBRANCH  86  87
ENDBRANCH  60  81
ENDBRANCH  34  35
ENDBRANCH  27  29
ENDBRANCH  26  27
ENDBRANCH  25  26
ENDBRANCH   1  25
TORSDOF 19
ENDMDL
MODEL 2
REMARK VINA RESULT:     -10.6      5.069     10.796
REMARK SMILES CCC[NH2+][C@]1(C(=O)OCCOC(=O)c2ccc(-c3c4nc(c(-c5ccc(S(=O)(=O)[O-])cc5)c5ccc([nH]5)c(-c5ccc(S(=O)(=O)[O-])cc5)c5nc(c(-c6ccc(S(=O)(=O)[O-])cc6)c6ccc3[nH]6)C=C5)C=C4)cc2)CC[C@H](n2nc(C)c(CC)c2C)C1
REMARK SMILES IDX 9 1 8 2 6 3 7 4 5 5 74 6 86 7 75 8 76 9 4 10 3 13 2 14 1 15
REMARK SMILES IDX 77 16 78 17 84 18 79 19 81 20 85 21 80 22 82 23 83 24 10 25
REMARK SMILES IDX 11 26 12 27 13 28 14 29 15 30 73 31 16 32 72 33 17 34 18 35
REMARK SMILES IDX 19 36 66 37 20 38 71 39 65 40 67 41 21 42 70 43 64 44 63 45
REMARK SMILES IDX 22 47 52 48 33 49 51 50 34 51 37 52 50 53 68 54 35 55 36 56
REMARK SMILES IDX 49 58 69 59 38 60 23 61 24 62 32 63 25 64 31 65 26 66 27 67
REMARK SMILES IDX 28 68 29 69 30 70 53 71 54 72 62 73 55 74 61 75 56 76 57 77
REMARK SMILES IDX 58 78 59 79 60 80 39 81 40 82 48 83 41 84 47 85 42 86 43 87
REMARK SMILES IDX 44 88 45 89 46 90
REMARK H PARENT 4 11 4 12 67 46 37 57
REMARK Flexibility Score: inf
ROOT
ATOM      1  C   UNL A   1      36.171  22.023  25.374  1.00  0.00     0.274 C 
ENDROOT
BRANCH   1   2
ATOM      2  O   UNL A   1      34.809  22.018  24.899  1.00  0.00    -0.457 OA
BRANCH   2   3
ATOM      3  C   UNL A   1      33.898  22.569  25.751  1.00  0.00     0.368 C 
ATOM      4  O   UNL A   1      33.857  22.340  26.955  1.00  0.00    -0.245 OA
BRANCH   3   5
ATOM      5  C   UNL A   1      32.954  23.559  25.040  1.00  0.00     0.196 C 
ATOM      6  C   UNL A   1      31.806  22.859  24.307  1.00  0.00     0.083 C 
ATOM      7  C   UNL A   1      32.122  24.323  26.105  1.00  0.00     0.108 C 
ATOM      8  C   UNL A   1      30.753  23.958  24.134  1.00  0.00     0.034 C 
ATOM      9  C   UNL A   1      30.919  24.907  25.353  1.00  0.00     0.115 C 
BRANCH   5  10
ATOM     10  N   UNL A   1      33.692  24.565  24.247  1.00  0.00    -0.332 N 
ATOM     11  H   UNL A   1      33.316  25.478  24.502  1.00  0.00     0.347 HD
ATOM     12  H   UNL A   1      34.669  24.390  24.481  1.00  0.00     0.347 HD
BRANCH  10  13
ATOM     13  C   UNL A   1      33.665  24.483  22.794  1.00  0.00     0.261 C 
BRANCH  13  14
ATOM     14  C   UNL A   1      33.416  25.876  22.195  1.00  0.00     0.058 C 
ATOM     15  C   UNL A   1      32.080  26.025  21.484  1.00  0.00     0.010 C 
ENDBRANCH  13  14
ENDBRANCH  10  13
ENDBRANCH   5  10
BRANCH   9  16
ATOM     16  N   UNL A   1      30.863  26.315  24.972  1.00  0.00    -0.266 N 
ATOM     17  N   UNL A   1      31.991  27.018  25.258  1.00  0.00    -0.178 NA
ATOM     18  C   UNL A   1      29.949  27.087  24.285  1.00  0.00     0.039 A 
ATOM     19  C   UNL A   1      31.782  28.240  24.763  1.00  0.00     0.063 A 
ATOM     20  C   UNL A   1      30.517  28.345  24.149  1.00  0.00    -0.004 A 
ATOM     21  C   UNL A   1      28.630  26.692  23.743  1.00  0.00     0.066 C 
ATOM     22  C   UNL A   1      32.835  29.275  24.894  1.00  0.00     0.069 C 
BRANCH  20  23
ATOM     23  C   UNL A   1      29.906  29.534  23.477  1.00  0.00     0.036 C 
ATOM     24  C   UNL A   1      30.210  29.570  21.987  1.00  0.00     0.009 C 
ENDBRANCH  20  23
ENDBRANCH   9  16
ENDBRANCH   3   5
ENDBRANCH   2   3
ENDBRANCH   1   2
BRANCH   1  25
ATOM     25  C   UNL A   1      36.711  23.452  25.415  1.00  0.00     0.275 C 
BRANCH  25  26
ATOM     26  O   UNL A   1      38.089  23.458  25.004  1.00  0.00    -0.458 OA
BRANCH  26  27
ATOM     27  C   UNL A   1      38.992  23.095  25.946  1.00  0.00     0.338 C 
ATOM     28  O   UNL A   1      39.466  21.984  26.108  1.00  0.00    -0.246 OA
BRANCH  27  29
ATOM     29  C   UNL A   1      39.342  24.261  26.792  1.00  0.00     0.060 A 
ATOM     30  C   UNL A   1      38.899  24.365  28.111  1.00  0.00     0.016 A 
ATOM     31  C   UNL A   1      40.089  25.303  26.234  1.00  0.00     0.016 A 
ATOM     32  C   UNL A   1      39.170  25.519  28.850  1.00  0.00     0.010 A 
ATOM     33  C   UNL A   1      40.428  26.420  27.008  1.00  0.00     0.010 A 
ATOM     34  C   UNL A   1      39.965  26.551  28.327  1.00  0.00    -0.014 A 
BRANCH  34  35
ATOM     35  C   UNL A   1      40.353  27.729  29.161  1.00  0.00     0.031 A 
ATOM     36  C   UNL A   1      41.629  27.728  29.968  1.00  0.00     0.074 A 
ATOM     37  C   UNL A   1      39.537  28.803  29.235  1.00  0.00     0.049 A 
ATOM     38  N   UNL A   1      42.001  28.545  30.922  1.00  0.00    -0.248 NA
ATOM     39  C   UNL A   1      42.608  26.670  29.674  1.00  0.00     0.031 C 
ATOM     40  C   UNL A   1      38.287  28.976  28.489  1.00  0.00     0.029 A 
ATOM     41  N   UNL A   1      39.634  29.956  29.978  1.00  0.00    -0.354 N 
ATOM     42  C   UNL A   1      43.222  28.066  31.386  1.00  0.00     0.074 A 
ATOM     43  C   UNL A   1      43.536  26.892  30.597  1.00  0.00     0.031 C 
ATOM     44  C   UNL A   1      37.761  30.174  28.775  1.00  0.00     0.029 A 
ATOM     45  C   UNL A   1      38.567  30.808  29.811  1.00  0.00     0.049 A 
ATOM     46  H   UNL A   1      40.394  30.153  30.571  1.00  0.00     0.167 HD
ATOM     47  C   UNL A   1      44.002  28.551  32.383  1.00  0.00     0.031 A 
ATOM     48  C   UNL A   1      38.220  31.939  30.456  1.00  0.00     0.031 A 
ATOM     49  C   UNL A   1      43.708  29.743  33.140  1.00  0.00     0.049 A 
ATOM     50  C   UNL A   1      39.064  32.425  31.595  1.00  0.00     0.074 A 
ATOM     51  C   UNL A   1      44.457  30.326  34.150  1.00  0.00     0.029 A 
ATOM     52  N   UNL A   1      42.586  30.538  32.968  1.00  0.00    -0.354 N 
ATOM     53  N   UNL A   1      40.182  31.923  32.059  1.00  0.00    -0.248 NA
ATOM     54  C   UNL A   1      38.580  33.608  32.321  1.00  0.00     0.031 C 
ATOM     55  C   UNL A   1      43.764  31.447  34.619  1.00  0.00     0.029 A 
ATOM     56  C   UNL A   1      42.606  31.589  33.871  1.00  0.00     0.049 A 
ATOM     57  H   UNL A   1      41.879  30.380  32.302  1.00  0.00     0.167 HD
ATOM     58  C   UNL A   1      40.530  32.722  33.142  1.00  0.00     0.074 A 
ATOM     59  C   UNL A   1      39.521  33.757  33.243  1.00  0.00     0.031 C 
ATOM     60  C   UNL A   1      41.587  32.599  33.980  1.00  0.00     0.031 A 
BRANCH  47  61
ATOM     61  C   UNL A   1      45.234  27.772  32.761  1.00  0.00    -0.014 A 
ATOM     62  C   UNL A   1      45.182  26.704  33.672  1.00  0.00     0.010 A 
ATOM     63  C   UNL A   1      46.456  28.072  32.128  1.00  0.00     0.010 A 
ATOM     64  C   UNL A   1      46.336  25.970  33.967  1.00  0.00     0.020 A 
ATOM     65  C   UNL A   1      47.607  27.327  32.403  1.00  0.00     0.020 A 
ATOM     66  C   UNL A   1      47.542  26.289  33.334  1.00  0.00     0.054 A 
BRANCH  66  67
ATOM     67  S   UNL A   1      49.019  25.303  33.710  1.00  0.00     0.124 S 
ATOM     68  O   UNL A   1      49.537  25.017  32.375  1.00  0.00    -0.237 OA
ATOM     69  O   UNL A   1      49.824  26.222  34.512  1.00  0.00    -0.237 OA
ATOM     70  O   UNL A   1      48.491  24.150  34.434  1.00  0.00    -0.744 OA
ENDBRANCH  66  67
ENDBRANCH  47  61
BRANCH  48  71
ATOM     71  C   UNL A   1      36.955  32.629  30.088  1.00  0.00    -0.014 A 
ATOM     72  C   UNL A   1      35.805  32.492  30.884  1.00  0.00     0.010 A 
ATOM     73  C   UNL A   1      36.914  33.477  28.966  1.00  0.00     0.010 A 
ATOM     74  C   UNL A   1      34.642  33.201  30.570  1.00  0.00     0.020 A 
ATOM     75  C   UNL A   1      35.764  34.209  28.666  1.00  0.00     0.020 A 
ATOM     76  C   UNL A   1      34.632  34.063  29.469  1.00  0.00     0.054 A 
BRANCH  76  77
ATOM     77  S   UNL A   1      33.150  35.054  29.135  1.00  0.00     0.124 S 
ATOM     78  O   UNL A   1      32.487  34.269  28.100  1.00  0.00    -0.237 OA
ATOM     79  O   UNL A   1      32.483  35.081  30.435  1.00  0.00    -0.237 OA
ATOM     80  O   UNL A   1      33.694  36.339  28.699  1.00  0.00    -0.744 OA
ENDBRANCH  76  77
ENDBRANCH  48  71
BRANCH  60  81
ATOM     81  C   UNL A   1      41.702  33.606  35.089  1.00  0.00    -0.014 A 
ATOM     82  C   UNL A   1      42.301  34.858  34.861  1.00  0.00     0.010 A 
ATOM     83  C   UNL A   1      41.168  33.318  36.358  1.00  0.00     0.010 A 
ATOM     84  C   UNL A   1      42.385  35.798  35.892  1.00  0.00     0.020 A 
ATOM     85  C   UNL A   1      41.232  34.264  37.385  1.00  0.00     0.020 A 
ATOM     86  C   UNL A   1      41.851  35.493  37.147  1.00  0.00     0.054 A 
BRANCH  86  87
ATOM     87  S   UNL A   1      41.929  36.748  38.457  1.00  0.00     0.124 S 
ATOM     88  O   UNL A   1      42.152  35.930  39.647  1.00  0.00    -0.237 OA
ATOM     89  O   UNL A   1      43.059  37.576  38.043  1.00  0.00    -0.237 OA
ATOM     90  O   UNL A   1      40.625  37.403  38.386  1.00  0.00    -0.744 OA
ENDBRANCH  86  87
ENDBRANCH  60  81
ENDBRANCH  34  35
ENDBRANCH  27  29
ENDBRANCH  26  27
ENDBRANCH  25  26
ENDBRANCH   1  25
TORSDOF 19
ENDMDL
MODEL 3
REMARK VINA RESULT:     -10.4      1.432      2.034
REMARK SMILES CCC[NH2+][C@]1(C(=O)OCCOC(=O)c2ccc(-c3c4nc(c(-c5ccc(S(=O)(=O)[O-])cc5)c5ccc([nH]5)c(-c5ccc(S(=O)(=O)[O-])cc5)c5nc(c(-c6ccc(S(=O)(=O)[O-])cc6)c6ccc3[nH]6)C=C5)C=C4)cc2)CC[C@H](n2nc(C)c(CC)c2C)C1
REMARK SMILES IDX 9 1 8 2 6 3 7 4 5 5 74 6 86 7 75 8 76 9 4 10 3 13 2 14 1 15
REMARK SMILES IDX 77 16 78 17 84 18 79 19 81 20 85 21 80 22 82 23 83 24 10 25
REMARK SMILES IDX 11 26 12 27 13 28 14 29 15 30 73 31 16 32 72 33 17 34 18 35
REMARK SMILES IDX 19 36 66 37 20 38 71 39 65 40 67 41 21 42 70 43 64 44 63 45
REMARK SMILES IDX 22 47 52 48 33 49 51 50 34 51 37 52 50 53 68 54 35 55 36 56
REMARK SMILES IDX 49 58 69 59 38 60 23 61 24 62 32 63 25 64 31 65 26 66 27 67
REMARK SMILES IDX 28 68 29 69 30 70 53 71 54 72 62 73 55 74 61 75 56 76 57 77
REMARK SMILES IDX 58 78 59 79 60 80 39 81 40 82 48 83 41 84 47 85 42 86 43 87
REMARK SMILES IDX 44 88 45 89 46 90
REMARK H PARENT 4 11 4 12 67 46 37 57
REMARK Flexibility Score: inf
ROOT
ATOM      1  C   UNL A   1      32.991  29.352  26.091  1.00  0.00     0.274 C 
ENDROOT
BRANCH   1   2
ATOM      2  O   UNL A   1      32.601  28.521  24.980  1.00  0.00    -0.457 OA
BRANCH   2   3
ATOM      3  C   UNL A   1      31.845  27.434  25.309  1.00  0.00     0.368 C 
ATOM      4  O   UNL A   1      30.753  27.499  25.863  1.00  0.00    -0.245 OA
BRANCH   3   5
ATOM      5  C   UNL A   1      32.492  26.111  24.854  1.00  0.00     0.196 C 
ATOM      6  C   UNL A   1      33.999  26.242  24.614  1.00  0.00     0.083 C 
ATOM      7  C   UNL A   1      32.532  25.126  26.054  1.00  0.00     0.108 C 
ATOM      8  C   UNL A   1      34.513  24.801  24.691  1.00  0.00     0.034 C 
ATOM      9  C   UNL A   1      33.576  24.064  25.687  1.00  0.00     0.115 C 
BRANCH   5  10
ATOM     10  N   UNL A   1      31.731  25.458  23.768  1.00  0.00    -0.332 N 
ATOM     11  H   UNL A   1      32.387  24.865  23.260  1.00  0.00     0.347 HD
ATOM     12  H   UNL A   1      30.969  24.987  24.255  1.00  0.00     0.347 HD
BRANCH  10  13
ATOM     13  C   UNL A   1      31.052  26.285  22.781  1.00  0.00     0.261 C 
BRANCH  13  14
ATOM     14  C   UNL A   1      31.684  26.074  21.397  1.00  0.00     0.058 C 
ATOM     15  C   UNL A   1      32.845  25.091  21.378  1.00  0.00     0.010 C 
ENDBRANCH  13  14
ENDBRANCH  10  13
ENDBRANCH   5  10
BRANCH   9  16
ATOM     16  N   UNL A   1      33.189  22.740  25.209  1.00  0.00    -0.266 N 
ATOM     17  N   UNL A   1      32.753  22.714  23.922  1.00  0.00    -0.178 NA
ATOM     18  C   UNL A   1      33.260  21.470  25.743  1.00  0.00     0.039 A 
ATOM     19  C   UNL A   1      32.535  21.426  23.648  1.00  0.00     0.063 A 
ATOM     20  C   UNL A   1      32.827  20.600  24.752  1.00  0.00    -0.004 A 
ATOM     21  C   UNL A   1      33.733  21.057  27.082  1.00  0.00     0.066 C 
ATOM     22  C   UNL A   1      32.055  21.034  22.301  1.00  0.00     0.069 C 
BRANCH  20  23
ATOM     23  C   UNL A   1      32.720  19.111  24.854  1.00  0.00     0.036 C 
ATOM     24  C   UNL A   1      33.973  18.410  24.352  1.00  0.00     0.009 C 
ENDBRANCH  20  23
ENDBRANCH   9  16
ENDBRANCH   3   5
ENDBRANCH   2   3
ENDBRANCH   1   2
BRANCH   1  25
ATOM     25  C   UNL A   1      34.294  28.840  26.702  1.00  0.00     0.275 C 
BRANCH  25  26
ATOM     26  O   UNL A   1      34.328  29.162  28.104  1.00  0.00    -0.458 OA
BRANCH  26  27
ATOM     27  C   UNL A   1      35.072  30.239  28.448  1.00  0.00     0.338 C 
ATOM     28  O   UNL A   1      34.667  31.375  28.626  1.00  0.00    -0.246 OA
BRANCH  27  29
ATOM     29  C   UNL A   1      36.498  29.852  28.582  1.00  0.00     0.060 A 
ATOM     30  C   UNL A   1      37.001  29.323  29.771  1.00  0.00     0.016 A 
ATOM     31  C   UNL A   1      37.363  30.074  27.507  1.00  0.00     0.016 A 
ATOM     32  C   UNL A   1      38.366  29.055  29.893  1.00  0.00     0.010 A 
ATOM     33  C   UNL A   1      38.716  29.724  27.609  1.00  0.00     0.010 A 
ATOM     34  C   UNL A   1      39.242  29.218  28.808  1.00  0.00    -0.014 A 
BRANCH  34  35
ATOM     35  C   UNL A   1      40.679  28.817  28.906  1.00  0.00     0.031 A 
ATOM     36  C   UNL A   1      41.743  29.813  29.301  1.00  0.00     0.074 A 
ATOM     37  C   UNL A   1      41.051  27.555  28.599  1.00  0.00     0.049 A 
ATOM     38  N   UNL A   1      43.045  29.711  29.203  1.00  0.00    -0.248 NA
ATOM     39  C   UNL A   1      41.286  31.092  29.869  1.00  0.00     0.031 C 
ATOM     40  C   UNL A   1      40.143  26.465  28.235  1.00  0.00     0.029 A 
ATOM     41  N   UNL A   1      42.296  26.975  28.539  1.00  0.00    -0.354 N 
ATOM     42  C   UNL A   1      43.562  30.928  29.634  1.00  0.00     0.074 A 
ATOM     43  C   UNL A   1      42.430  31.752  30.009  1.00  0.00     0.031 C 
ATOM     44  C   UNL A   1      40.850  25.345  28.036  1.00  0.00     0.029 A 
ATOM     45  C   UNL A   1      42.269  25.659  28.140  1.00  0.00     0.049 A 
ATOM     46  H   UNL A   1      43.126  27.455  28.762  1.00  0.00     0.167 HD
ATOM     47  C   UNL A   1      44.856  31.327  29.700  1.00  0.00     0.031 A 
ATOM     48  C   UNL A   1      43.261  24.804  27.820  1.00  0.00     0.031 A 
ATOM     49  C   UNL A   1      45.983  30.492  29.366  1.00  0.00     0.049 A 
ATOM     50  C   UNL A   1      44.681  25.283  27.842  1.00  0.00     0.074 A 
ATOM     51  C   UNL A   1      47.332  30.802  29.430  1.00  0.00     0.029 A 
ATOM     52  N   UNL A   1      45.898  29.184  28.914  1.00  0.00    -0.354 N 
ATOM     53  N   UNL A   1      45.145  26.458  28.193  1.00  0.00    -0.248 NA
ATOM     54  C   UNL A   1      45.708  24.334  27.389  1.00  0.00     0.031 C 
ATOM     55  C   UNL A   1      48.059  29.699  28.973  1.00  0.00     0.029 A 
ATOM     56  C   UNL A   1      47.166  28.685  28.667  1.00  0.00     0.049 A 
ATOM     57  H   UNL A   1      45.060  28.685  28.787  1.00  0.00     0.167 HD
ATOM     58  C   UNL A   1      46.518  26.393  27.991  1.00  0.00     0.074 A 
ATOM     59  C   UNL A   1      46.813  25.056  27.517  1.00  0.00     0.031 C 
ATOM     60  C   UNL A   1      47.447  27.362  28.173  1.00  0.00     0.031 A 
BRANCH  47  61
ATOM     61  C   UNL A   1      45.138  32.750  30.105  1.00  0.00    -0.014 A 
ATOM     62  C   UNL A   1      45.167  33.793  29.164  1.00  0.00     0.010 A 
ATOM     63  C   UNL A   1      45.304  33.055  31.470  1.00  0.00     0.010 A 
ATOM     64  C   UNL A   1      45.385  35.112  29.578  1.00  0.00     0.020 A 
ATOM     65  C   UNL A   1      45.501  34.373  31.890  1.00  0.00     0.020 A 
ATOM     66  C   UNL A   1      45.556  35.392  30.938  1.00  0.00     0.054 A 
BRANCH  66  67
ATOM     67  S   UNL A   1      45.809  37.115  31.453  1.00  0.00     0.124 S 
ATOM     68  O   UNL A   1      46.678  37.620  30.393  1.00  0.00    -0.237 OA
ATOM     69  O   UNL A   1      44.450  37.652  31.459  1.00  0.00    -0.237 OA
ATOM     70  O   UNL A   1      46.434  36.996  32.767  1.00  0.00    -0.744 OA
ENDBRANCH  66  67
ENDBRANCH  47  61
BRANCH  48  71
ATOM     71  C   UNL A   1      42.920  23.432  27.359  1.00  0.00    -0.014 A 
ATOM     72  C   UNL A   1      42.916  23.115  25.991  1.00  0.00     0.010 A 
ATOM     73  C   UNL A   1      42.653  22.418  28.299  1.00  0.00     0.010 A 
ATOM     74  C   UNL A   1      42.665  21.805  25.572  1.00  0.00     0.020 A 
ATOM     75  C   UNL A   1      42.431  21.103  27.886  1.00  0.00     0.020 A 
ATOM     76  C   UNL A   1      42.434  20.806  26.522  1.00  0.00     0.054 A 
BRANCH  76  77
ATOM     77  S   UNL A   1      42.212  19.092  25.968  1.00  0.00     0.124 S 
ATOM     78  O   UNL A   1      40.777  19.040  25.714  1.00  0.00    -0.237 OA
ATOM     79  O   UNL A   1      43.068  19.025  24.786  1.00  0.00    -0.237 OA
ATOM     80  O   UNL A   1      42.678  18.305  27.108  1.00  0.00    -0.744 OA
ENDBRANCH  76  77
ENDBRANCH  48  71
BRANCH  60  81
ATOM     81  C   UNL A   1      48.872  27.013  27.851  1.00  0.00    -0.014 A 
ATOM     82  C   UNL A   1      49.475  27.480  26.669  1.00  0.00     0.010 A 
ATOM     83  C   UNL A   1      49.630  26.248  28.756  1.00  0.00     0.010 A 
ATOM     84  C   UNL A   1      50.808  27.170  26.387  1.00  0.00     0.020 A 
ATOM     85  C   UNL A   1      50.970  25.953  28.486  1.00  0.00     0.020 A 
ATOM     86  C   UNL A   1      51.546  26.407  27.297  1.00  0.00     0.054 A 
BRANCH  86  87
ATOM     87  S   UNL A   1      53.288  26.056  26.931  1.00  0.00     0.124 S 
ATOM     88  O   UNL A   1      53.604  27.084  25.944  1.00  0.00    -0.237 OA
ATOM     89  O   UNL A   1      53.930  26.218  28.234  1.00  0.00    -0.237 OA
ATOM     90  O   UNL A   1      53.265  24.687  26.421  1.00  0.00    -0.744 OA
ENDBRANCH  86  87
ENDBRANCH  60  81
ENDBRANCH  34  35
ENDBRANCH  27  29
ENDBRANCH  26  27
ENDBRANCH  25  26
ENDBRANCH   1  25
TORSDOF 19
ENDMDL
