MODEL 1
REMARK VINA RESULT:      -8.5      0.000      0.000
REMARK SMILES C[C@@H](C(=O)OCCOC(=O)c1ccc(-c2c3nc(c(-c4ccc(S(=O)(=O)[O-])cc4)c4ccc([nH]4)c(-c4ccc(S(=O)(=O)[O-])cc4)c4nc(c(-c5ccc(S(=O)(=O)[O-])cc5)c5ccc2[nH]5)C=C4)C=C3)cc1)c1ccn(C(F)F)c(=O)c1
REMARK SMILES IDX 7 1 6 2 5 3 3 4 4 5 2 6 1 7 71 8 72 9 80 10 73 11 78 12
REMARK SMILES IDX 74 13 79 14 75 15 76 16 77 17 8 18 9 19 10 20 11 21 12 22
REMARK SMILES IDX 70 23 13 24 69 25 14 26 15 27 16 28 63 29 17 30 68 31 62 32
REMARK SMILES IDX 64 33 18 34 67 35 61 36 60 37 19 39 49 40 30 41 48 42 31 43
REMARK SMILES IDX 34 44 47 45 65 46 32 47 33 48 46 50 66 51 35 52 20 53 21 54
REMARK SMILES IDX 29 55 22 56 28 57 23 58 24 59 25 60 26 61 27 62 50 63 51 64
REMARK SMILES IDX 59 65 52 66 58 67 53 68 54 69 55 70 56 71 57 72 36 73 37 74
REMARK SMILES IDX 45 75 38 76 44 77 39 78 40 79 41 80 42 81 43 82
REMARK H PARENT 64 38 34 49
REMARK Flexibility Score: inf
ROOT
ATOM      1  C   UNL A   1      33.121  31.926  27.619  1.00  0.00     0.275 C 
ENDROOT
BRANCH   1   2
ATOM      2  C   UNL A   1      33.688  33.176  28.288  1.00  0.00     0.274 C 
BRANCH   2   3
ATOM      3  O   UNL A   1      34.609  32.817  29.340  1.00  0.00    -0.462 OA
BRANCH   3   4
ATOM      4  C   UNL A   1      35.128  33.839  30.079  1.00  0.00     0.313 C 
ATOM      5  O   UNL A   1      34.440  34.642  30.698  1.00  0.00    -0.252 OA
BRANCH   4   6
ATOM      6  C   UNL A   1      36.673  33.924  29.977  1.00  0.00     0.126 C 
ATOM      7  C   UNL A   1      37.197  33.183  28.737  1.00  0.00     0.025 C 
BRANCH   6   8
ATOM      8  C   UNL A   1      37.358  33.530  31.296  1.00  0.00    -0.027 A 
ATOM      9  C   UNL A   1      38.315  34.415  31.946  1.00  0.00     0.023 A 
ATOM     10  C   UNL A   1      37.111  32.348  31.897  1.00  0.00     0.076 A 
ATOM     11  C   UNL A   1      39.012  34.012  33.016  1.00  0.00     0.095 A 
ATOM     12  C   UNL A   1      37.840  31.902  33.123  1.00  0.00     0.255 A 
ATOM     13  N   UNL A   1      38.830  32.758  33.569  1.00  0.00    -0.258 N 
ATOM     14  O   UNL A   1      37.524  30.831  33.625  1.00  0.00    -0.269 OA
BRANCH  13  15
ATOM     15  C   UNL A   1      39.677  32.359  34.679  1.00  0.00     0.451 C 
ATOM     16  F   UNL A   1      40.583  31.413  34.354  1.00  0.00    -0.185 F 
ATOM     17  F   UNL A   1      40.393  33.443  35.090  1.00  0.00    -0.185 F 
ENDBRANCH  13  15
ENDBRANCH   6   8
ENDBRANCH   4   6
ENDBRANCH   3   4
ENDBRANCH   2   3
ENDBRANCH   1   2
BRANCH   1  18
ATOM     18  O   UNL A   1      34.192  31.153  27.052  1.00  0.00    -0.458 OA
BRANCH  18  19
ATOM     19  C   UNL A   1      34.370  29.917  27.572  1.00  0.00     0.338 C 
ATOM     20  O   UNL A   1      33.575  28.995  27.598  1.00  0.00    -0.246 OA
BRANCH  19  21
ATOM     21  C   UNL A   1      35.764  29.799  28.021  1.00  0.00     0.060 A 
ATOM     22  C   UNL A   1      36.764  29.953  27.068  1.00  0.00     0.016 A 
ATOM     23  C   UNL A   1      36.086  29.445  29.332  1.00  0.00     0.016 A 
ATOM     24  C   UNL A   1      38.089  29.708  27.403  1.00  0.00     0.010 A 
ATOM     25  C   UNL A   1      37.430  29.239  29.677  1.00  0.00     0.010 A 
ATOM     26  C   UNL A   1      38.443  29.340  28.706  1.00  0.00    -0.014 A 
BRANCH  26  27
ATOM     27  C   UNL A   1      39.859  28.982  28.991  1.00  0.00     0.031 A 
ATOM     28  C   UNL A   1      40.728  29.930  29.776  1.00  0.00     0.074 A 
ATOM     29  C   UNL A   1      40.342  27.768  28.658  1.00  0.00     0.049 A 
ATOM     30  N   UNL A   1      41.999  29.833  30.074  1.00  0.00    -0.248 NA
ATOM     31  C   UNL A   1      40.079  31.143  30.300  1.00  0.00     0.031 C 
ATOM     32  C   UNL A   1      39.578  26.699  28.012  1.00  0.00     0.029 A 
ATOM     33  N   UNL A   1      41.584  27.213  28.855  1.00  0.00    -0.354 N 
ATOM     34  C   UNL A   1      42.310  30.985  30.787  1.00  0.00     0.074 A 
ATOM     35  C   UNL A   1      41.096  31.767  30.876  1.00  0.00     0.031 C 
ATOM     36  C   UNL A   1      40.349  25.604  27.918  1.00  0.00     0.029 A 
ATOM     37  C   UNL A   1      41.684  25.912  28.421  1.00  0.00     0.049 A 
ATOM     38  H   UNL A   1      42.332  27.702  29.269  1.00  0.00     0.167 HD
ATOM     39  C   UNL A   1      43.501  31.362  31.312  1.00  0.00     0.031 A 
ATOM     40  C   UNL A   1      42.736  25.070  28.403  1.00  0.00     0.031 A 
ATOM     41  C   UNL A   1      44.704  30.578  31.244  1.00  0.00     0.049 A 
ATOM     42  C   UNL A   1      44.071  25.550  28.905  1.00  0.00     0.074 A 
ATOM     43  C   UNL A   1      45.969  30.902  31.706  1.00  0.00     0.029 A 
ATOM     44  N   UNL A   1      44.792  29.310  30.693  1.00  0.00    -0.354 N 
ATOM     45  N   UNL A   1      44.375  26.685  29.489  1.00  0.00    -0.248 NA
ATOM     46  C   UNL A   1      45.214  24.644  28.717  1.00  0.00     0.031 C 
ATOM     47  C   UNL A   1      46.831  29.845  31.396  1.00  0.00     0.029 A 
ATOM     48  C   UNL A   1      46.094  28.845  30.783  1.00  0.00     0.049 A 
ATOM     49  H   UNL A   1      44.041  28.813  30.296  1.00  0.00     0.167 HD
ATOM     50  C   UNL A   1      45.741  26.626  29.742  1.00  0.00     0.074 A 
ATOM     51  C   UNL A   1      46.201  25.336  29.271  1.00  0.00     0.031 C 
ATOM     52  C   UNL A   1      46.543  27.563  30.306  1.00  0.00     0.031 A 
BRANCH  39  53
ATOM     53  C   UNL A   1      43.572  32.723  31.945  1.00  0.00    -0.014 A 
ATOM     54  C   UNL A   1      43.374  32.904  33.324  1.00  0.00     0.010 A 
ATOM     55  C   UNL A   1      43.864  33.839  31.138  1.00  0.00     0.010 A 
ATOM     56  C   UNL A   1      43.433  34.186  33.881  1.00  0.00     0.020 A 
ATOM     57  C   UNL A   1      43.943  35.117  31.693  1.00  0.00     0.020 A 
ATOM     58  C   UNL A   1      43.708  35.285  33.059  1.00  0.00     0.054 A 
BRANCH  58  59
ATOM     59  S   UNL A   1      43.784  36.937  33.803  1.00  0.00     0.124 S 
ATOM     60  O   UNL A   1      43.961  37.787  32.628  1.00  0.00    -0.237 OA
ATOM     61  O   UNL A   1      42.490  37.052  34.471  1.00  0.00    -0.237 OA
ATOM     62  O   UNL A   1      44.938  36.864  34.696  1.00  0.00    -0.744 OA
ENDBRANCH  58  59
ENDBRANCH  39  53
BRANCH  40  63
ATOM     63  C   UNL A   1      42.593  23.703  27.830  1.00  0.00    -0.014 A 
ATOM     64  C   UNL A   1      42.278  22.607  28.653  1.00  0.00     0.010 A 
ATOM     65  C   UNL A   1      42.791  23.488  26.453  1.00  0.00     0.010 A 
ATOM     66  C   UNL A   1      42.185  21.319  28.113  1.00  0.00     0.020 A 
ATOM     67  C   UNL A   1      42.671  22.208  25.906  1.00  0.00     0.020 A 
ATOM     68  C   UNL A   1      42.385  21.128  26.743  1.00  0.00     0.054 A 
BRANCH  68  69
ATOM     69  S   UNL A   1      42.229  19.458  26.049  1.00  0.00     0.124 S 
ATOM     70  O   UNL A   1      43.116  19.528  24.892  1.00  0.00    -0.237 OA
ATOM     71  O   UNL A   1      42.687  18.606  27.144  1.00  0.00    -0.237 OA
ATOM     72  O   UNL A   1      40.805  19.349  25.740  1.00  0.00    -0.744 OA
ENDBRANCH  68  69
ENDBRANCH  40  63
BRANCH  52  73
ATOM     73  C   UNL A   1      48.002  27.227  30.456  1.00  0.00    -0.014 A 
ATOM     74  C   UNL A   1      48.923  27.544  29.442  1.00  0.00     0.010 A 
ATOM     75  C   UNL A   1      48.465  26.639  31.647  1.00  0.00     0.010 A 
ATOM     76  C   UNL A   1      50.281  27.259  29.609  1.00  0.00     0.020 A 
ATOM     77  C   UNL A   1      49.825  26.372  31.824  1.00  0.00     0.020 A 
ATOM     78  C   UNL A   1      50.723  26.673  30.798  1.00  0.00     0.054 A 
BRANCH  78  79
ATOM     79  S   UNL A   1      52.498  26.359  31.013  1.00  0.00     0.124 S 
ATOM     80  O   UNL A   1      52.497  25.109  31.767  1.00  0.00    -0.237 OA
ATOM     81  O   UNL A   1      52.979  26.264  29.638  1.00  0.00    -0.237 OA
ATOM     82  O   UNL A   1      52.969  27.531  31.750  1.00  0.00    -0.744 OA
ENDBRANCH  78  79
ENDBRANCH  52  73
ENDBRANCH  26  27
ENDBRANCH  19  21
ENDBRANCH  18  19
ENDBRANCH   1  18
TORSDOF 16
ENDMDL
MODEL 2
REMARK VINA RESULT:      -8.4      5.487     11.554
REMARK SMILES C[C@@H](C(=O)OCCOC(=O)c1ccc(-c2c3nc(c(-c4ccc(S(=O)(=O)[O-])cc4)c4ccc([nH]4)c(-c4ccc(S(=O)(=O)[O-])cc4)c4nc(c(-c5ccc(S(=O)(=O)[O-])cc5)c5ccc2[nH]5)C=C4)C=C3)cc1)c1ccn(C(F)F)c(=O)c1
REMARK SMILES IDX 7 1 6 2 5 3 3 4 4 5 2 6 1 7 71 8 72 9 80 10 73 11 78 12
REMARK SMILES IDX 74 13 79 14 75 15 76 16 77 17 8 18 9 19 10 20 11 21 12 22
REMARK SMILES IDX 70 23 13 24 69 25 14 26 15 27 16 28 63 29 17 30 68 31 62 32
REMARK SMILES IDX 64 33 18 34 67 35 61 36 60 37 19 39 49 40 30 41 48 42 31 43
REMARK SMILES IDX 34 44 47 45 65 46 32 47 33 48 46 50 66 51 35 52 20 53 21 54
REMARK SMILES IDX 29 55 22 56 28 57 23 58 24 59 25 60 26 61 27 62 50 63 51 64
REMARK SMILES IDX 59 65 52 66 58 67 53 68 54 69 55 70 56 71 57 72 36 73 37 74
REMARK SMILES IDX 45 75 38 76 44 77 39 78 40 79 41 80 42 81 43 82
REMARK H PARENT 64 38 34 49
REMARK Flexibility Score: inf
ROOT
ATOM      1  C   UNL A   1      36.141  23.734  25.716  1.00  0.00     0.275 C 
ENDROOT
BRANCH   1   2
ATOM      2  C   UNL A   1      35.168  24.430  24.767  1.00  0.00     0.274 C 
BRANCH   2   3
ATOM      3  O   UNL A   1      33.920  23.707  24.698  1.00  0.00    -0.462 OA
BRANCH   3   4
ATOM      4  C   UNL A   1      33.635  23.079  23.521  1.00  0.00     0.313 C 
ATOM      5  O   UNL A   1      34.338  23.169  22.522  1.00  0.00    -0.252 OA
BRANCH   4   6
ATOM      6  C   UNL A   1      32.284  22.318  23.563  1.00  0.00     0.126 C 
ATOM      7  C   UNL A   1      31.327  22.926  24.600  1.00  0.00     0.025 C 
BRANCH   6   8
ATOM      8  C   UNL A   1      32.485  20.799  23.689  1.00  0.00    -0.027 A 
ATOM      9  C   UNL A   1      33.010  20.203  24.909  1.00  0.00     0.023 A 
ATOM     10  C   UNL A   1      32.196  19.960  22.672  1.00  0.00     0.076 A 
ATOM     11  C   UNL A   1      33.315  18.901  24.966  1.00  0.00     0.095 A 
ATOM     12  C   UNL A   1      32.480  18.494  22.736  1.00  0.00     0.255 A 
ATOM     13  N   UNL A   1      33.113  18.061  23.886  1.00  0.00    -0.258 N 
ATOM     14  O   UNL A   1      32.149  17.800  21.782  1.00  0.00    -0.269 OA
BRANCH  13  15
ATOM     15  C   UNL A   1      33.541  16.678  23.992  1.00  0.00     0.451 C 
ATOM     16  F   UNL A   1      34.348  16.283  22.985  1.00  0.00    -0.185 F 
ATOM     17  F   UNL A   1      34.267  16.535  25.136  1.00  0.00    -0.185 F 
ENDBRANCH  13  15
ENDBRANCH   6   8
ENDBRANCH   4   6
ENDBRANCH   3   4
ENDBRANCH   2   3
ENDBRANCH   1   2
BRANCH   1  18
ATOM     18  O   UNL A   1      37.480  23.850  25.205  1.00  0.00    -0.458 OA
BRANCH  18  19
ATOM     19  C   UNL A   1      38.450  23.276  25.952  1.00  0.00     0.338 C 
ATOM     20  O   UNL A   1      38.814  22.114  25.940  1.00  0.00    -0.246 OA
BRANCH  19  21
ATOM     21  C   UNL A   1      39.114  24.326  26.737  1.00  0.00     0.060 A 
ATOM     22  C   UNL A   1      38.813  24.405  28.092  1.00  0.00     0.016 A 
ATOM     23  C   UNL A   1      39.939  25.280  26.141  1.00  0.00     0.016 A 
ATOM     24  C   UNL A   1      39.294  25.463  28.852  1.00  0.00     0.010 A 
ATOM     25  C   UNL A   1      40.458  26.323  26.921  1.00  0.00     0.010 A 
ATOM     26  C   UNL A   1      40.115  26.441  28.280  1.00  0.00    -0.014 A 
BRANCH  26  27
ATOM     27  C   UNL A   1      40.517  27.613  29.105  1.00  0.00     0.031 A 
ATOM     28  C   UNL A   1      41.906  27.680  29.683  1.00  0.00     0.074 A 
ATOM     29  C   UNL A   1      39.693  28.671  29.244  1.00  0.00     0.049 A 
ATOM     30  N   UNL A   1      42.429  28.580  30.477  1.00  0.00    -0.248 NA
ATOM     31  C   UNL A   1      42.831  26.596  29.314  1.00  0.00     0.031 C 
ATOM     32  C   UNL A   1      38.369  28.802  28.632  1.00  0.00     0.029 A 
ATOM     33  N   UNL A   1      39.866  29.859  29.914  1.00  0.00    -0.354 N 
ATOM     34  C   UNL A   1      43.727  28.154  30.731  1.00  0.00     0.074 A 
ATOM     35  C   UNL A   1      43.914  26.914  30.008  1.00  0.00     0.031 C 
ATOM     36  C   UNL A   1      37.877  30.020  28.908  1.00  0.00     0.029 A 
ATOM     37  C   UNL A   1      38.809  30.728  29.781  1.00  0.00     0.049 A 
ATOM     38  H   UNL A   1      40.672  30.067  30.440  1.00  0.00     0.167 HD
ATOM     39  C   UNL A   1      44.675  28.737  31.504  1.00  0.00     0.031 A 
ATOM     40  C   UNL A   1      38.598  31.945  30.320  1.00  0.00     0.031 A 
ATOM     41  C   UNL A   1      44.502  29.979  32.207  1.00  0.00     0.049 A 
ATOM     42  C   UNL A   1      39.628  32.525  31.251  1.00  0.00     0.074 A 
ATOM     43  C   UNL A   1      45.391  30.621  33.052  1.00  0.00     0.029 A 
ATOM     44  N   UNL A   1      43.370  30.775  32.137  1.00  0.00    -0.354 N 
ATOM     45  N   UNL A   1      40.816  32.062  31.562  1.00  0.00    -0.248 NA
ATOM     46  C   UNL A   1      39.275  33.782  31.930  1.00  0.00     0.031 C 
ATOM     47  C   UNL A   1      44.780  31.786  33.526  1.00  0.00     0.029 A 
ATOM     48  C   UNL A   1      43.529  31.893  32.941  1.00  0.00     0.049 A 
ATOM     49  H   UNL A   1      42.572  30.577  31.597  1.00  0.00     0.167 HD
ATOM     50  C   UNL A   1      41.351  32.971  32.466  1.00  0.00     0.074 A 
ATOM     51  C   UNL A   1      40.371  34.024  32.635  1.00  0.00     0.031 C 
ATOM     52  C   UNL A   1      42.546  32.931  33.107  1.00  0.00     0.031 A 
BRANCH  39  53
ATOM     53  C   UNL A   1      45.967  27.990  31.685  1.00  0.00    -0.014 A 
ATOM     54  C   UNL A   1      46.200  27.184  32.812  1.00  0.00     0.010 A 
ATOM     55  C   UNL A   1      46.958  28.086  30.690  1.00  0.00     0.010 A 
ATOM     56  C   UNL A   1      47.419  26.514  32.957  1.00  0.00     0.020 A 
ATOM     57  C   UNL A   1      48.169  27.403  30.822  1.00  0.00     0.020 A 
ATOM     58  C   UNL A   1      48.398  26.635  31.965  1.00  0.00     0.054 A 
BRANCH  58  59
ATOM     59  S   UNL A   1      49.969  25.753  32.173  1.00  0.00     0.124 S 
ATOM     60  O   UNL A   1      50.735  26.692  32.990  1.00  0.00    -0.237 OA
ATOM     61  O   UNL A   1      49.563  24.522  32.846  1.00  0.00    -0.237 OA
ATOM     62  O   UNL A   1      50.454  25.581  30.805  1.00  0.00    -0.744 OA
ENDBRANCH  58  59
ENDBRANCH  39  53
BRANCH  40  63
ATOM     63  C   UNL A   1      37.329  32.676  30.048  1.00  0.00    -0.014 A 
ATOM     64  C   UNL A   1      36.218  32.528  30.896  1.00  0.00     0.010 A 
ATOM     65  C   UNL A   1      37.221  33.514  28.923  1.00  0.00     0.010 A 
ATOM     66  C   UNL A   1      35.016  33.186  30.612  1.00  0.00     0.020 A 
ATOM     67  C   UNL A   1      36.032  34.196  28.652  1.00  0.00     0.020 A 
ATOM     68  C   UNL A   1      34.931  34.015  29.490  1.00  0.00     0.054 A 
BRANCH  68  69
ATOM     69  S   UNL A   1      33.378  34.890  29.150  1.00  0.00     0.124 S 
ATOM     70  O   UNL A   1      32.750  34.915  30.468  1.00  0.00    -0.237 OA
ATOM     71  O   UNL A   1      33.836  36.182  28.645  1.00  0.00    -0.237 OA
ATOM     72  O   UNL A   1      32.719  34.042  28.159  1.00  0.00    -0.744 OA
ENDBRANCH  68  69
ENDBRANCH  40  63
BRANCH  52  73
ATOM     73  C   UNL A   1      42.868  34.063  34.044  1.00  0.00    -0.014 A 
ATOM     74  C   UNL A   1      42.660  33.934  35.428  1.00  0.00     0.010 A 
ATOM     75  C   UNL A   1      43.439  35.246  33.542  1.00  0.00     0.010 A 
ATOM     76  C   UNL A   1      42.997  34.980  36.293  1.00  0.00     0.020 A 
ATOM     77  C   UNL A   1      43.796  36.285  34.406  1.00  0.00     0.020 A 
ATOM     78  C   UNL A   1      43.561  36.149  35.776  1.00  0.00     0.054 A 
BRANCH  78  79
ATOM     79  S   UNL A   1      44.038  37.473  36.921  1.00  0.00     0.124 S 
ATOM     80  O   UNL A   1      45.251  36.931  37.526  1.00  0.00    -0.237 OA
ATOM     81  O   UNL A   1      44.236  38.615  36.033  1.00  0.00    -0.237 OA
ATOM     82  O   UNL A   1      42.889  37.584  37.818  1.00  0.00    -0.744 OA
ENDBRANCH  78  79
ENDBRANCH  52  73
ENDBRANCH  26  27
ENDBRANCH  19  21
ENDBRANCH  18  19
ENDBRANCH   1  18
TORSDOF 16
ENDMDL
MODEL 3
REMARK VINA RESULT:      -8.4      4.136      6.044
REMARK SMILES C[C@@H](C(=O)OCCOC(=O)c1ccc(-c2c3nc(c(-c4ccc(S(=O)(=O)[O-])cc4)c4ccc([nH]4)c(-c4ccc(S(=O)(=O)[O-])cc4)c4nc(c(-c5ccc(S(=O)(=O)[O-])cc5)c5ccc2[nH]5)C=C4)C=C3)cc1)c1ccn(C(F)F)c(=O)c1
REMARK SMILES IDX 7 1 6 2 5 3 3 4 4 5 2 6 1 7 71 8 72 9 80 10 73 11 78 12
REMARK SMILES IDX 74 13 79 14 75 15 76 16 77 17 8 18 9 19 10 20 11 21 12 22
REMARK SMILES IDX 70 23 13 24 69 25 14 26 15 27 16 28 63 29 17 30 68 31 62 32
REMARK SMILES IDX 64 33 18 34 67 35 61 36 60 37 19 39 49 40 30 41 48 42 31 43
REMARK SMILES IDX 34 44 47 45 65 46 32 47 33 48 46 50 66 51 35 52 20 53 21 54
REMARK SMILES IDX 29 55 22 56 28 57 23 58 24 59 25 60 26 61 27 62 50 63 51 64
REMARK SMILES IDX 59 65 52 66 58 67 53 68 54 69 55 70 56 71 57 72 36 73 37 74
REMARK SMILES IDX 45 75 38 76 44 77 39 78 40 79 41 80 42 81 43 82
REMARK H PARENT 64 38 34 49
REMARK Flexibility Score: inf
ROOT
ATOM      1  C   UNL A   1      33.079  29.501  26.768  1.00  0.00     0.275 C 
ENDROOT
BRANCH   1   2
ATOM      2  C   UNL A   1      33.446  28.223  26.019  1.00  0.00     0.274 C 
BRANCH   2   3
ATOM      3  O   UNL A   1      32.259  27.476  25.674  1.00  0.00    -0.462 OA
BRANCH   3   4
ATOM      4  C   UNL A   1      32.245  26.872  24.451  1.00  0.00     0.313 C 
ATOM      5  O   UNL A   1      33.237  26.765  23.740  1.00  0.00    -0.252 OA
BRANCH   4   6
ATOM      6  C   UNL A   1      30.823  26.419  24.027  1.00  0.00     0.126 C 
ATOM      7  C   UNL A   1      30.870  25.140  23.176  1.00  0.00     0.025 C 
BRANCH   6   8
ATOM      8  C   UNL A   1      30.015  27.572  23.408  1.00  0.00    -0.027 A 
ATOM      9  C   UNL A   1      30.670  28.651  22.682  1.00  0.00     0.023 A 
ATOM     10  C   UNL A   1      28.672  27.637  23.523  1.00  0.00     0.076 A 
ATOM     11  C   UNL A   1      29.981  29.721  22.266  1.00  0.00     0.095 A 
ATOM     12  C   UNL A   1      27.879  28.799  23.019  1.00  0.00     0.255 A 
ATOM     13  N   UNL A   1      28.619  29.833  22.477  1.00  0.00    -0.258 N 
ATOM     14  O   UNL A   1      26.660  28.757  23.131  1.00  0.00    -0.269 OA
BRANCH  13  15
ATOM     15  C   UNL A   1      27.952  31.057  22.071  1.00  0.00     0.451 C 
ATOM     16  F   UNL A   1      27.394  31.734  23.097  1.00  0.00    -0.185 F 
ATOM     17  F   UNL A   1      28.876  31.894  21.524  1.00  0.00    -0.185 F 
ENDBRANCH  13  15
ENDBRANCH   6   8
ENDBRANCH   4   6
ENDBRANCH   3   4
ENDBRANCH   2   3
ENDBRANCH   1   2
BRANCH   1  18
ATOM     18  O   UNL A   1      34.180  30.423  26.720  1.00  0.00    -0.458 OA
BRANCH  18  19
ATOM     19  C   UNL A   1      34.672  30.822  27.915  1.00  0.00     0.338 C 
ATOM     20  O   UNL A   1      34.123  31.510  28.757  1.00  0.00    -0.246 OA
BRANCH  19  21
ATOM     21  C   UNL A   1      35.981  30.185  28.115  1.00  0.00     0.060 A 
ATOM     22  C   UNL A   1      36.254  29.656  29.371  1.00  0.00     0.016 A 
ATOM     23  C   UNL A   1      36.962  30.193  27.124  1.00  0.00     0.016 A 
ATOM     24  C   UNL A   1      37.523  29.174  29.663  1.00  0.00     0.010 A 
ATOM     25  C   UNL A   1      38.231  29.667  27.409  1.00  0.00     0.010 A 
ATOM     26  C   UNL A   1      38.532  29.180  28.693  1.00  0.00    -0.014 A 
BRANCH  26  27
ATOM     27  C   UNL A   1      39.905  28.755  29.083  1.00  0.00     0.031 A 
ATOM     28  C   UNL A   1      40.731  29.632  29.986  1.00  0.00     0.074 A 
ATOM     29  C   UNL A   1      40.374  27.541  28.732  1.00  0.00     0.049 A 
ATOM     30  N   UNL A   1      41.966  29.474  30.390  1.00  0.00    -0.248 NA
ATOM     31  C   UNL A   1      40.079  30.843  30.513  1.00  0.00     0.031 C 
ATOM     32  C   UNL A   1      39.635  26.533  27.969  1.00  0.00     0.029 A 
ATOM     33  N   UNL A   1      41.575  26.931  29.009  1.00  0.00    -0.354 N 
ATOM     34  C   UNL A   1      42.252  30.578  31.183  1.00  0.00     0.074 A 
ATOM     35  C   UNL A   1      41.061  31.401  31.206  1.00  0.00     0.031 C 
ATOM     36  C   UNL A   1      40.375  25.415  27.888  1.00  0.00     0.029 A 
ATOM     37  C   UNL A   1      41.669  25.649  28.521  1.00  0.00     0.049 A 
ATOM     38  H   UNL A   1      42.299  27.371  29.511  1.00  0.00     0.167 HD
ATOM     39  C   UNL A   1      43.403  30.885  31.828  1.00  0.00     0.031 A 
ATOM     40  C   UNL A   1      42.690  24.770  28.553  1.00  0.00     0.031 A 
ATOM     41  C   UNL A   1      44.581  30.060  31.827  1.00  0.00     0.049 A 
ATOM     42  C   UNL A   1      43.991  25.175  29.193  1.00  0.00     0.074 A 
ATOM     43  C   UNL A   1      45.809  30.314  32.413  1.00  0.00     0.029 A 
ATOM     44  N   UNL A   1      44.675  28.817  31.223  1.00  0.00    -0.354 N 
ATOM     45  N   UNL A   1      44.279  26.269  29.857  1.00  0.00    -0.248 NA
ATOM     46  C   UNL A   1      45.115  24.236  29.061  1.00  0.00     0.031 C 
ATOM     47  C   UNL A   1      46.660  29.240  32.127  1.00  0.00     0.029 A 
ATOM     48  C   UNL A   1      45.947  28.299  31.403  1.00  0.00     0.049 A 
ATOM     49  H   UNL A   1      43.946  28.368  30.737  1.00  0.00     0.167 HD
ATOM     50  C   UNL A   1      45.614  26.146  30.225  1.00  0.00     0.074 A 
ATOM     51  C   UNL A   1      46.071  24.864  29.732  1.00  0.00     0.031 C 
ATOM     52  C   UNL A   1      46.393  27.025  30.903  1.00  0.00     0.031 A 
BRANCH  39  53
ATOM     53  C   UNL A   1      43.463  32.211  32.533  1.00  0.00    -0.014 A 
ATOM     54  C   UNL A   1      43.138  32.337  33.894  1.00  0.00     0.010 A 
ATOM     55  C   UNL A   1      43.874  33.349  31.814  1.00  0.00     0.010 A 
ATOM     56  C   UNL A   1      43.191  33.588  34.517  1.00  0.00     0.020 A 
ATOM     57  C   UNL A   1      43.946  34.597  32.438  1.00  0.00     0.020 A 
ATOM     58  C   UNL A   1      43.586  34.711  33.782  1.00  0.00     0.054 A 
BRANCH  58  59
ATOM     59  S   UNL A   1      43.651  36.322  34.611  1.00  0.00     0.124 S 
ATOM     60  O   UNL A   1      42.694  37.101  33.828  1.00  0.00    -0.237 OA
ATOM     61  O   UNL A   1      43.233  36.003  35.973  1.00  0.00    -0.237 OA
ATOM     62  O   UNL A   1      45.047  36.730  34.471  1.00  0.00    -0.744 OA
ENDBRANCH  58  59
ENDBRANCH  39  53
BRANCH  40  63
ATOM     63  C   UNL A   1      42.552  23.437  27.902  1.00  0.00    -0.014 A 
ATOM     64  C   UNL A   1      42.068  22.331  28.622  1.00  0.00     0.010 A 
ATOM     65  C   UNL A   1      42.926  23.265  26.556  1.00  0.00     0.010 A 
ATOM     66  C   UNL A   1      41.980  21.073  28.015  1.00  0.00     0.020 A 
ATOM     67  C   UNL A   1      42.813  22.017  25.938  1.00  0.00     0.020 A 
ATOM     68  C   UNL A   1      42.356  20.924  26.677  1.00  0.00     0.054 A 
BRANCH  68  69
ATOM     69  S   UNL A   1      42.207  19.295  25.890  1.00  0.00     0.124 S 
ATOM     70  O   UNL A   1      43.004  19.471  24.679  1.00  0.00    -0.237 OA
ATOM     71  O   UNL A   1      42.772  18.396  26.892  1.00  0.00    -0.237 OA
ATOM     72  O   UNL A   1      40.768  19.151  25.677  1.00  0.00    -0.744 OA
ENDBRANCH  68  69
ENDBRANCH  40  63
BRANCH  52  73
ATOM     73  C   UNL A   1      47.821  26.627  31.163  1.00  0.00    -0.014 A 
ATOM     74  C   UNL A   1      48.850  27.024  30.292  1.00  0.00     0.010 A 
ATOM     75  C   UNL A   1      48.144  25.898  32.321  1.00  0.00     0.010 A 
ATOM     76  C   UNL A   1      50.178  26.679  30.563  1.00  0.00     0.020 A 
ATOM     77  C   UNL A   1      49.472  25.569  32.606  1.00  0.00     0.020 A 
ATOM     78  C   UNL A   1      50.480  25.952  31.718  1.00  0.00     0.054 A 
BRANCH  78  79
ATOM     79  S   UNL A   1      52.214  25.559  32.077  1.00  0.00     0.124 S 
ATOM     80  O   UNL A   1      52.142  24.140  32.413  1.00  0.00    -0.237 OA
ATOM     81  O   UNL A   1      52.885  25.872  30.818  1.00  0.00    -0.237 OA
ATOM     82  O   UNL A   1      52.547  26.447  33.189  1.00  0.00    -0.744 OA
ENDBRANCH  78  79
ENDBRANCH  52  73
ENDBRANCH  26  27
ENDBRANCH  19  21
ENDBRANCH  18  19
ENDBRANCH   1  18
TORSDOF 16
ENDMDL
