MODEL 1
REMARK VINA RESULT:     -11.8      0.000      0.000
REMARK SMILES CCc1cc(S(F)(F)(F)(F)F)cc2c1O[C@@H](C(F)(F)F)C(C(=O)OCCOC(=O)c1ccc(-c3c4nc(c(-c5ccc(S(=O)(=O)[O-])cc5)c5ccc([nH]5)c(-c5ccc(S(=O)(=O)[O-])cc5)c5nc(c(-c6ccc(S(=O)(=O)[O-])cc6)c6ccc3[nH]6)C=C5)C=C4)cc1)=C2
REMARK SMILES IDX 26 1 25 2 24 3 22 4 23 5 21 6 3 7 4 8 14 9 5 10 13 11 15 12
REMARK SMILES IDX 12 13 90 14 16 15 2 16 1 17 6 18 7 19 8 20 9 21 10 22 11 23
REMARK SMILES IDX 17 24 18 25 19 26 20 27 27 28 28 29 29 30 30 31 31 32 89 33
REMARK SMILES IDX 32 34 88 35 33 36 34 37 35 38 82 39 36 40 87 41 81 42 83 43
REMARK SMILES IDX 37 44 86 45 80 46 79 47 38 49 68 50 49 51 67 52 50 53 53 54
REMARK SMILES IDX 66 55 84 56 51 57 52 58 65 60 85 61 54 62 39 63 40 64 48 65
REMARK SMILES IDX 41 66 47 67 42 68 43 69 44 70 45 71 46 72 69 73 70 74 78 75
REMARK SMILES IDX 71 76 77 77 72 78 73 79 74 80 75 81 76 82 55 83 56 84 64 85
REMARK SMILES IDX 57 86 63 87 58 88 59 89 60 90 61 91 62 92
REMARK H PARENT 83 48 53 59
REMARK Flexibility Score: inf
ROOT
ATOM      1  C   UNL A   1      33.474  29.662  25.983  1.00  0.00     0.275 C 
ENDROOT
BRANCH   1   2
ATOM      2  C   UNL A   1      31.989  29.979  26.060  1.00  0.00     0.275 C 
BRANCH   2   3
ATOM      3  O   UNL A   1      31.241  28.852  25.632  1.00  0.00    -0.459 OA
BRANCH   3   4
ATOM      4  C   UNL A   1      31.410  27.599  26.281  1.00  0.00     0.338 C 
ATOM      5  O   UNL A   1      31.031  27.452  27.485  1.00  0.00    -0.246 OA
BRANCH   4   6
ATOM      6  C   UNL A   1      32.044  26.436  25.536  1.00  0.00     0.087 C 
ATOM      7  C   UNL A   1      33.444  22.943  23.723  1.00  0.00    -0.004 A 
ATOM      8  C   UNL A   1      34.703  22.461  24.034  1.00  0.00     0.032 A 
ATOM      9  C   UNL A   1      32.987  24.064  24.373  1.00  0.00     0.131 A 
ATOM     10  C   UNL A   1      35.482  23.081  24.975  1.00  0.00     0.108 A 
ATOM     11  C   UNL A   1      33.754  24.727  25.316  1.00  0.00     0.019 A 
ATOM     12  O   UNL A   1      31.695  24.464  24.138  1.00  0.00    -0.475 OA
ATOM     13  C   UNL A   1      35.012  24.213  25.608  1.00  0.00     0.036 A 
ATOM     14  C   UNL A   1      33.166  25.880  25.975  1.00  0.00     0.027 C 
ATOM     15  C   UNL A   1      31.407  25.884  24.268  1.00  0.00     0.316 C 
BRANCH   7  16
ATOM     16  C   UNL A   1      32.621  22.374  22.579  1.00  0.00     0.036 C 
ATOM     17  C   UNL A   1      32.198  20.953  22.917  1.00  0.00     0.009 C 
ENDBRANCH   7  16
BRANCH  10  18
ATOM     18  S   UNL A   1      37.116  22.420  25.385  1.00  0.00     0.310 S 
ATOM     19  F   UNL A   1      37.430  21.651  24.033  1.00  0.00    -0.094 F 
ATOM     20  F   UNL A   1      36.489  21.078  25.921  1.00  0.00    -0.094 F 
ATOM     21  F   UNL A   1      38.525  21.991  25.883  1.00  0.00    -0.094 F 
ATOM     22  F   UNL A   1      37.751  23.703  24.719  1.00  0.00    -0.094 F 
ATOM     23  F   UNL A   1      35.712  22.814  24.775  1.00  0.00    -0.094 F 
ENDBRANCH  10  18
BRANCH  15  24
ATOM     24  C   UNL A   1      29.901  26.080  24.345  1.00  0.00     0.430 C 
ATOM     25  F   UNL A   1      29.298  25.216  23.534  1.00  0.00    -0.167 F 
ATOM     26  F   UNL A   1      29.491  25.875  25.594  1.00  0.00    -0.167 F 
ATOM     27  F   UNL A   1      29.595  27.321  23.977  1.00  0.00    -0.167 F 
ENDBRANCH  15  24
ENDBRANCH   4   6
ENDBRANCH   3   4
ENDBRANCH   2   3
ENDBRANCH   1   2
BRANCH   1  28
ATOM     28  O   UNL A   1      33.964  29.370  27.283  1.00  0.00    -0.458 OA
BRANCH  28  29
ATOM     29  C   UNL A   1      34.721  30.343  27.991  1.00  0.00     0.338 C 
ATOM     30  O   UNL A   1      34.178  31.435  28.345  1.00  0.00    -0.246 OA
BRANCH  29  31
ATOM     31  C   UNL A   1      36.180  30.076  28.322  1.00  0.00     0.060 A 
ATOM     32  C   UNL A   1      37.160  30.254  27.360  1.00  0.00     0.016 A 
ATOM     33  C   UNL A   1      36.472  29.586  29.522  1.00  0.00     0.016 A 
ATOM     34  C   UNL A   1      38.384  29.611  27.663  1.00  0.00     0.010 A 
ATOM     35  C   UNL A   1      37.729  29.098  29.791  1.00  0.00     0.010 A 
ATOM     36  C   UNL A   1      38.731  29.188  28.865  1.00  0.00    -0.014 A 
BRANCH  36  37
ATOM     37  C   UNL A   1      40.167  28.821  29.202  1.00  0.00     0.031 A 
ATOM     38  C   UNL A   1      40.584  27.539  28.840  1.00  0.00     0.074 A 
ATOM     39  C   UNL A   1      40.999  29.778  29.756  1.00  0.00     0.049 A 
ATOM     40  N   UNL A   1      41.814  27.030  28.924  1.00  0.00    -0.248 NA
ATOM     41  C   UNL A   1      39.695  26.508  28.283  1.00  0.00     0.031 C 
ATOM     42  C   UNL A   1      40.587  31.077  30.115  1.00  0.00     0.029 A 
ATOM     43  N   UNL A   1      42.338  29.663  30.056  1.00  0.00    -0.354 N 
ATOM     44  C   UNL A   1      41.827  25.777  28.463  1.00  0.00     0.074 A 
ATOM     45  C   UNL A   1      40.463  25.422  28.051  1.00  0.00     0.031 C 
ATOM     46  C   UNL A   1      41.659  31.729  30.636  1.00  0.00     0.029 A 
ATOM     47  C   UNL A   1      42.760  30.851  30.609  1.00  0.00     0.049 A 
ATOM     48  H   UNL A   1      42.897  28.868  29.902  1.00  0.00     0.167 HD
ATOM     49  C   UNL A   1      42.924  24.918  28.371  1.00  0.00     0.031 A 
ATOM     50  C   UNL A   1      44.026  31.171  31.071  1.00  0.00     0.031 A 
ATOM     51  C   UNL A   1      44.200  25.252  28.794  1.00  0.00     0.049 A 
ATOM     52  C   UNL A   1      45.110  30.290  31.032  1.00  0.00     0.074 A 
ATOM     53  C   UNL A   1      45.318  24.401  28.701  1.00  0.00     0.029 A 
ATOM     54  N   UNL A   1      44.616  26.432  29.370  1.00  0.00    -0.354 N 
ATOM     55  N   UNL A   1      45.132  29.052  30.536  1.00  0.00    -0.248 NA
ATOM     56  C   UNL A   1      46.448  30.607  31.550  1.00  0.00     0.031 C 
ATOM     57  C   UNL A   1      46.390  25.054  29.221  1.00  0.00     0.029 A 
ATOM     58  C   UNL A   1      45.960  26.325  29.649  1.00  0.00     0.049 A 
ATOM     59  H   UNL A   1      44.050  27.218  29.550  1.00  0.00     0.167 HD
ATOM     60  C   UNL A   1      46.353  28.530  30.659  1.00  0.00     0.074 A 
ATOM     61  C   UNL A   1      47.216  29.518  31.319  1.00  0.00     0.031 C 
ATOM     62  C   UNL A   1      46.784  27.268  30.243  1.00  0.00     0.031 A 
BRANCH  49  63
ATOM     63  C   UNL A   1      42.704  23.537  27.773  1.00  0.00    -0.014 A 
ATOM     64  C   UNL A   1      42.108  22.549  28.537  1.00  0.00     0.010 A 
ATOM     65  C   UNL A   1      43.077  23.308  26.519  1.00  0.00     0.010 A 
ATOM     66  C   UNL A   1      42.210  21.253  27.979  1.00  0.00     0.020 A 
ATOM     67  C   UNL A   1      43.022  22.040  25.995  1.00  0.00     0.020 A 
ATOM     68  C   UNL A   1      42.499  21.003  26.715  1.00  0.00     0.054 A 
BRANCH  68  69
ATOM     69  S   UNL A   1      42.219  19.374  25.977  1.00  0.00     0.124 S 
ATOM     70  O   UNL A   1      43.001  19.267  24.665  1.00  0.00    -0.237 OA
ATOM     71  O   UNL A   1      42.693  18.287  26.943  1.00  0.00    -0.237 OA
ATOM     72  O   UNL A   1      40.551  19.170  25.663  1.00  0.00    -0.744 OA
ENDBRANCH  68  69
ENDBRANCH  49  63
BRANCH  50  73
ATOM     73  C   UNL A   1      44.248  32.557  31.655  1.00  0.00    -0.014 A 
ATOM     74  C   UNL A   1      44.027  32.772  33.004  1.00  0.00     0.010 A 
ATOM     75  C   UNL A   1      44.640  33.542  30.855  1.00  0.00     0.010 A 
ATOM     76  C   UNL A   1      43.968  34.139  33.365  1.00  0.00     0.020 A 
ATOM     77  C   UNL A   1      44.689  34.837  31.312  1.00  0.00     0.020 A 
ATOM     78  C   UNL A   1      44.425  35.130  32.621  1.00  0.00     0.054 A 
BRANCH  78  79
ATOM     79  S   UNL A   1      44.687  36.788  33.299  1.00  0.00     0.124 S 
ATOM     80  O   UNL A   1      45.584  37.590  32.352  1.00  0.00    -0.237 OA
ATOM     81  O   UNL A   1      43.340  37.498  33.448  1.00  0.00    -0.237 OA
ATOM     82  O   UNL A   1      45.439  36.666  34.830  1.00  0.00    -0.744 OA
ENDBRANCH  78  79
ENDBRANCH  50  73
BRANCH  62  83
ATOM     83  C   UNL A   1      48.245  26.907  30.457  1.00  0.00    -0.014 A 
ATOM     84  C   UNL A   1      48.676  26.351  31.650  1.00  0.00     0.010 A 
ATOM     85  C   UNL A   1      49.106  27.245  29.504  1.00  0.00     0.010 A 
ATOM     86  C   UNL A   1      50.070  26.457  31.862  1.00  0.00     0.020 A 
ATOM     87  C   UNL A   1      50.459  27.195  29.734  1.00  0.00     0.020 A 
ATOM     88  C   UNL A   1      50.955  26.712  30.914  1.00  0.00     0.054 A 
BRANCH  88  89
ATOM     89  S   UNL A   1      52.726  26.436  31.163  1.00  0.00     0.124 S 
ATOM     90  O   UNL A   1      52.935  25.143  31.956  1.00  0.00    -0.237 OA
ATOM     91  O   UNL A   1      53.421  26.319  29.804  1.00  0.00    -0.237 OA
ATOM     92  O   UNL A   1      53.390  27.750  32.032  1.00  0.00    -0.744 OA
ENDBRANCH  88  89
ENDBRANCH  62  83
ENDBRANCH  36  37
ENDBRANCH  29  31
ENDBRANCH  28  29
ENDBRANCH   1  28
TORSDOF 17
ENDMDL
MODEL 2
REMARK VINA RESULT:     -11.5      2.733      3.386
REMARK SMILES CCc1cc(S(F)(F)(F)(F)F)cc2c1O[C@@H](C(F)(F)F)C(C(=O)OCCOC(=O)c1ccc(-c3c4nc(c(-c5ccc(S(=O)(=O)[O-])cc5)c5ccc([nH]5)c(-c5ccc(S(=O)(=O)[O-])cc5)c5nc(c(-c6ccc(S(=O)(=O)[O-])cc6)c6ccc3[nH]6)C=C5)C=C4)cc1)=C2
REMARK SMILES IDX 26 1 25 2 24 3 22 4 23 5 21 6 3 7 4 8 14 9 5 10 13 11 15 12
REMARK SMILES IDX 12 13 90 14 16 15 2 16 1 17 6 18 7 19 8 20 9 21 10 22 11 23
REMARK SMILES IDX 17 24 18 25 19 26 20 27 27 28 28 29 29 30 30 31 31 32 89 33
REMARK SMILES IDX 32 34 88 35 33 36 34 37 35 38 82 39 36 40 87 41 81 42 83 43
REMARK SMILES IDX 37 44 86 45 80 46 79 47 38 49 68 50 49 51 67 52 50 53 53 54
REMARK SMILES IDX 66 55 84 56 51 57 52 58 65 60 85 61 54 62 39 63 40 64 48 65
REMARK SMILES IDX 41 66 47 67 42 68 43 69 44 70 45 71 46 72 69 73 70 74 78 75
REMARK SMILES IDX 71 76 77 77 72 78 73 79 74 80 75 81 76 82 55 83 56 84 64 85
REMARK SMILES IDX 57 86 63 87 58 88 59 89 60 90 61 91 62 92
REMARK H PARENT 83 48 53 59
REMARK Flexibility Score: inf
ROOT
ATOM      1  C   UNL A   1      34.448  29.349  27.613  1.00  0.00     0.275 C 
ENDROOT
BRANCH   1   2
ATOM      2  C   UNL A   1      33.152  30.041  27.225  1.00  0.00     0.275 C 
BRANCH   2   3
ATOM      3  O   UNL A   1      32.465  29.255  26.263  1.00  0.00    -0.459 OA
BRANCH   3   4
ATOM      4  C   UNL A   1      32.088  27.921  26.574  1.00  0.00     0.338 C 
ATOM      5  O   UNL A   1      31.314  27.694  27.557  1.00  0.00    -0.246 OA
BRANCH   4   6
ATOM      6  C   UNL A   1      32.608  26.768  25.733  1.00  0.00     0.087 C 
ATOM      7  C   UNL A   1      33.640  23.331  23.596  1.00  0.00    -0.004 A 
ATOM      8  C   UNL A   1      34.790  22.633  23.924  1.00  0.00     0.032 A 
ATOM      9  C   UNL A   1      33.297  24.427  24.349  1.00  0.00     0.131 A 
ATOM     10  C   UNL A   1      35.571  23.020  24.981  1.00  0.00     0.108 A 
ATOM     11  C   UNL A   1      34.072  24.857  25.412  1.00  0.00     0.019 A 
ATOM     12  O   UNL A   1      32.097  25.040  24.084  1.00  0.00    -0.475 OA
ATOM     13  C   UNL A   1      35.217  24.131  25.717  1.00  0.00     0.036 A 
ATOM     14  C   UNL A   1      33.602  26.004  26.170  1.00  0.00     0.027 C 
ATOM     15  C   UNL A   1      32.003  26.464  24.369  1.00  0.00     0.316 C 
BRANCH   7  16
ATOM     16  C   UNL A   1      32.840  23.024  22.341  1.00  0.00     0.036 C 
ATOM     17  C   UNL A   1      32.161  21.672  22.492  1.00  0.00     0.009 C 
ENDBRANCH   7  16
BRANCH  10  18
ATOM     18  S   UNL A   1      37.057  22.079  25.407  1.00  0.00     0.310 S 
ATOM     19  F   UNL A   1      37.378  21.447  23.988  1.00  0.00    -0.094 F 
ATOM     20  F   UNL A   1      36.207  20.788  25.713  1.00  0.00    -0.094 F 
ATOM     21  F   UNL A   1      38.345  21.389  25.938  1.00  0.00    -0.094 F 
ATOM     22  F   UNL A   1      37.917  23.327  24.966  1.00  0.00    -0.094 F 
ATOM     23  F   UNL A   1      35.779  22.749  24.762  1.00  0.00    -0.094 F 
ENDBRANCH  10  18
BRANCH  15  24
ATOM     24  C   UNL A   1      30.539  26.873  24.375  1.00  0.00     0.430 C 
ATOM     25  F   UNL A   1      30.448  28.199  24.337  1.00  0.00    -0.167 F 
ATOM     26  F   UNL A   1      29.930  26.356  23.312  1.00  0.00    -0.167 F 
ATOM     27  F   UNL A   1      29.956  26.421  25.482  1.00  0.00    -0.167 F 
ENDBRANCH  15  24
ENDBRANCH   4   6
ENDBRANCH   3   4
ENDBRANCH   2   3
ENDBRANCH   1   2
BRANCH   1  28
ATOM     28  O   UNL A   1      35.487  30.312  27.719  1.00  0.00    -0.458 OA
BRANCH  28  29
ATOM     29  C   UNL A   1      36.374  30.280  28.827  1.00  0.00     0.338 C 
ATOM     30  O   UNL A   1      35.981  30.679  29.967  1.00  0.00    -0.246 OA
BRANCH  29  31
ATOM     31  C   UNL A   1      37.795  29.769  28.648  1.00  0.00     0.060 A 
ATOM     32  C   UNL A   1      38.601  29.544  29.751  1.00  0.00     0.016 A 
ATOM     33  C   UNL A   1      38.262  29.633  27.413  1.00  0.00     0.016 A 
ATOM     34  C   UNL A   1      39.980  29.457  29.445  1.00  0.00     0.010 A 
ATOM     35  C   UNL A   1      39.601  29.414  27.192  1.00  0.00     0.010 A 
ATOM     36  C   UNL A   1      40.467  29.242  28.236  1.00  0.00    -0.014 A 
BRANCH  36  37
ATOM     37  C   UNL A   1      41.911  28.822  28.018  1.00  0.00     0.031 A 
ATOM     38  C   UNL A   1      42.136  27.466  27.773  1.00  0.00     0.074 A 
ATOM     39  C   UNL A   1      42.901  29.789  27.986  1.00  0.00     0.049 A 
ATOM     40  N   UNL A   1      43.288  26.880  27.442  1.00  0.00    -0.248 NA
ATOM     41  C   UNL A   1      41.094  26.431  27.841  1.00  0.00     0.031 C 
ATOM     42  C   UNL A   1      42.679  31.161  28.223  1.00  0.00     0.029 A 
ATOM     43  N   UNL A   1      44.242  29.618  27.726  1.00  0.00    -0.354 N 
ATOM     44  C   UNL A   1      43.105  25.569  27.269  1.00  0.00     0.074 A 
ATOM     45  C   UNL A   1      41.693  25.261  27.530  1.00  0.00     0.031 C 
ATOM     46  C   UNL A   1      43.872  31.804  28.121  1.00  0.00     0.029 A 
ATOM     47  C   UNL A   1      44.859  30.846  27.816  1.00  0.00     0.049 A 
ATOM     48  H   UNL A   1      44.684  28.765  27.514  1.00  0.00     0.167 HD
ATOM     49  C   UNL A   1      44.061  24.620  26.903  1.00  0.00     0.031 A 
ATOM     50  C   UNL A   1      46.203  31.137  27.647  1.00  0.00     0.031 A 
ATOM     51  C   UNL A   1      45.398  24.916  26.693  1.00  0.00     0.049 A 
ATOM     52  C   UNL A   1      47.170  30.176  27.338  1.00  0.00     0.074 A 
ATOM     53  C   UNL A   1      46.373  23.972  26.315  1.00  0.00     0.029 A 
ATOM     54  N   UNL A   1      46.018  26.141  26.807  1.00  0.00    -0.354 N 
ATOM     55  N   UNL A   1      46.980  28.873  27.127  1.00  0.00    -0.248 NA
ATOM     56  C   UNL A   1      48.602  30.466  27.189  1.00  0.00     0.031 C 
ATOM     57  C   UNL A   1      47.566  24.616  26.213  1.00  0.00     0.029 A 
ATOM     58  C   UNL A   1      47.357  25.973  26.525  1.00  0.00     0.049 A 
ATOM     59  H   UNL A   1      45.581  26.989  27.047  1.00  0.00     0.167 HD
ATOM     60  C   UNL A   1      48.140  28.281  26.837  1.00  0.00     0.074 A 
ATOM     61  C   UNL A   1      49.201  29.295  26.880  1.00  0.00     0.031 C 
ATOM     62  C   UNL A   1      48.354  26.935  26.534  1.00  0.00     0.031 A 
BRANCH  49  63
ATOM     63  C   UNL A   1      43.609  23.179  26.727  1.00  0.00    -0.014 A 
ATOM     64  C   UNL A   1      43.110  22.482  27.815  1.00  0.00     0.010 A 
ATOM     65  C   UNL A   1      43.688  22.617  25.527  1.00  0.00     0.010 A 
ATOM     66  C   UNL A   1      42.987  21.089  27.596  1.00  0.00     0.020 A 
ATOM     67  C   UNL A   1      43.421  21.280  25.362  1.00  0.00     0.020 A 
ATOM     68  C   UNL A   1      42.981  20.517  26.407  1.00  0.00     0.054 A 
BRANCH  68  69
ATOM     69  S   UNL A   1      42.419  18.811  26.173  1.00  0.00     0.124 S 
ATOM     70  O   UNL A   1      43.277  18.135  25.100  1.00  0.00    -0.237 OA
ATOM     71  O   UNL A   1      42.553  18.044  27.490  1.00  0.00    -0.237 OA
ATOM     72  O   UNL A   1      40.783  18.813  25.676  1.00  0.00    -0.744 OA
ENDBRANCH  68  69
ENDBRANCH  49  63
BRANCH  50  73
ATOM     73  C   UNL A   1      46.651  32.580  27.807  1.00  0.00    -0.014 A 
ATOM     74  C   UNL A   1      46.775  33.385  26.687  1.00  0.00     0.010 A 
ATOM     75  C   UNL A   1      46.930  33.041  29.021  1.00  0.00     0.010 A 
ATOM     76  C   UNL A   1      47.481  34.588  26.921  1.00  0.00     0.020 A 
ATOM     77  C   UNL A   1      47.495  34.283  29.185  1.00  0.00     0.020 A 
ATOM     78  C   UNL A   1      47.700  35.109  28.114  1.00  0.00     0.054 A 
BRANCH  78  79
ATOM     79  S   UNL A   1      48.241  36.823  28.322  1.00  0.00     0.124 S 
ATOM     80  O   UNL A   1      47.058  37.765  28.086  1.00  0.00    -0.237 OA
ATOM     81  O   UNL A   1      48.774  37.022  29.743  1.00  0.00    -0.237 OA
ATOM     82  O   UNL A   1      49.480  37.171  27.196  1.00  0.00    -0.744 OA
ENDBRANCH  78  79
ENDBRANCH  50  73
BRANCH  62  83
ATOM     83  C   UNL A   1      49.771  26.497  26.195  1.00  0.00    -0.014 A 
ATOM     84  C   UNL A   1      50.655  26.111  27.188  1.00  0.00     0.010 A 
ATOM     85  C   UNL A   1      50.159  26.604  24.930  1.00  0.00     0.010 A 
ATOM     86  C   UNL A   1      52.012  26.138  26.790  1.00  0.00     0.020 A 
ATOM     87  C   UNL A   1      51.486  26.484  24.594  1.00  0.00     0.020 A 
ATOM     88  C   UNL A   1      52.424  26.162  25.535  1.00  0.00     0.054 A 
BRANCH  88  89
ATOM     89  S   UNL A   1      54.138  25.790  25.086  1.00  0.00     0.124 S 
ATOM     90  O   UNL A   1      55.084  26.446  26.096  1.00  0.00    -0.237 OA
ATOM     91  O   UNL A   1      54.350  24.274  25.099  1.00  0.00    -0.237 OA
ATOM     92  O   UNL A   1      54.462  26.399  23.523  1.00  0.00    -0.744 OA
ENDBRANCH  88  89
ENDBRANCH  62  83
ENDBRANCH  36  37
ENDBRANCH  29  31
ENDBRANCH  28  29
ENDBRANCH   1  28
TORSDOF 17
ENDMDL
MODEL 3
REMARK VINA RESULT:     -11.3      0.697      8.052
REMARK SMILES CCc1cc(S(F)(F)(F)(F)F)cc2c1O[C@@H](C(F)(F)F)C(C(=O)OCCOC(=O)c1ccc(-c3c4nc(c(-c5ccc(S(=O)(=O)[O-])cc5)c5ccc([nH]5)c(-c5ccc(S(=O)(=O)[O-])cc5)c5nc(c(-c6ccc(S(=O)(=O)[O-])cc6)c6ccc3[nH]6)C=C5)C=C4)cc1)=C2
REMARK SMILES IDX 26 1 25 2 24 3 22 4 23 5 21 6 3 7 4 8 14 9 5 10 13 11 15 12
REMARK SMILES IDX 12 13 90 14 16 15 2 16 1 17 6 18 7 19 8 20 9 21 10 22 11 23
REMARK SMILES IDX 17 24 18 25 19 26 20 27 27 28 28 29 29 30 30 31 31 32 89 33
REMARK SMILES IDX 32 34 88 35 33 36 34 37 35 38 82 39 36 40 87 41 81 42 83 43
REMARK SMILES IDX 37 44 86 45 80 46 79 47 38 49 68 50 49 51 67 52 50 53 53 54
REMARK SMILES IDX 66 55 84 56 51 57 52 58 65 60 85 61 54 62 39 63 40 64 48 65
REMARK SMILES IDX 41 66 47 67 42 68 43 69 44 70 45 71 46 72 69 73 70 74 78 75
REMARK SMILES IDX 71 76 77 77 72 78 73 79 74 80 75 81 76 82 55 83 56 84 64 85
REMARK SMILES IDX 57 86 63 87 58 88 59 89 60 90 61 91 62 92
REMARK H PARENT 83 48 53 59
REMARK Flexibility Score: inf
ROOT
ATOM      1  C   UNL A   1      33.639  29.921  26.445  1.00  0.00     0.275 C 
ENDROOT
BRANCH   1   2
ATOM      2  C   UNL A   1      32.138  30.066  26.632  1.00  0.00     0.275 C 
BRANCH   2   3
ATOM      3  O   UNL A   1      31.472  29.016  25.948  1.00  0.00    -0.459 OA
BRANCH   3   4
ATOM      4  C   UNL A   1      31.503  27.695  26.471  1.00  0.00     0.338 C 
ATOM      5  O   UNL A   1      31.026  27.459  27.625  1.00  0.00    -0.246 OA
BRANCH   4   6
ATOM      6  C   UNL A   1      32.105  26.567  25.651  1.00  0.00     0.087 C 
ATOM      7  C   UNL A   1      33.419  23.161  23.621  1.00  0.00    -0.004 A 
ATOM      8  C   UNL A   1      34.676  22.644  23.881  1.00  0.00     0.032 A 
ATOM      9  C   UNL A   1      32.991  24.250  24.341  1.00  0.00     0.131 A 
ATOM     10  C   UNL A   1      35.481  23.200  24.840  1.00  0.00     0.108 A 
ATOM     11  C   UNL A   1      33.785  24.848  25.304  1.00  0.00     0.019 A 
ATOM     12  O   UNL A   1      31.701  24.681  24.152  1.00  0.00    -0.475 OA
ATOM     13  C   UNL A   1      35.040  24.302  25.543  1.00  0.00     0.036 A 
ATOM     14  C   UNL A   1      33.227  25.971  26.037  1.00  0.00     0.027 C 
ATOM     15  C   UNL A   1      31.437  26.096  24.366  1.00  0.00     0.316 C 
BRANCH   7  16
ATOM     16  C   UNL A   1      32.567  22.668  22.463  1.00  0.00     0.036 C 
ATOM     17  C   UNL A   1      32.152  21.227  22.716  1.00  0.00     0.009 C 
ENDBRANCH   7  16
BRANCH  10  18
ATOM     18  S   UNL A   1      37.112  22.494  25.181  1.00  0.00     0.310 S 
ATOM     19  F   UNL A   1      37.487  23.323  26.480  1.00  0.00    -0.094 F 
ATOM     20  F   UNL A   1      37.825  23.619  24.341  1.00  0.00    -0.094 F 
ATOM     21  F   UNL A   1      38.457  21.733  25.355  1.00  0.00    -0.094 F 
ATOM     22  F   UNL A   1      36.410  21.452  26.137  1.00  0.00    -0.094 F 
ATOM     23  F   UNL A   1      35.764  23.315  25.108  1.00  0.00    -0.094 F 
ENDBRANCH  10  18
BRANCH  15  24
ATOM     24  C   UNL A   1      29.936  26.308  24.482  1.00  0.00     0.430 C 
ATOM     25  F   UNL A   1      29.310  25.563  23.576  1.00  0.00    -0.167 F 
ATOM     26  F   UNL A   1      29.532  25.957  25.701  1.00  0.00    -0.167 F 
ATOM     27  F   UNL A   1      29.652  27.591  24.275  1.00  0.00    -0.167 F 
ENDBRANCH  15  24
ENDBRANCH   4   6
ENDBRANCH   3   4
ENDBRANCH   2   3
ENDBRANCH   1   2
BRANCH   1  28
ATOM     28  O   UNL A   1      34.213  29.369  27.621  1.00  0.00    -0.458 OA
BRANCH  28  29
ATOM     29  C   UNL A   1      35.125  30.138  28.393  1.00  0.00     0.338 C 
ATOM     30  O   UNL A   1      34.727  31.188  28.986  1.00  0.00    -0.246 OA
BRANCH  29  31
ATOM     31  C   UNL A   1      36.577  29.703  28.508  1.00  0.00     0.060 A 
ATOM     32  C   UNL A   1      37.098  29.325  29.734  1.00  0.00     0.016 A 
ATOM     33  C   UNL A   1      37.344  29.782  27.427  1.00  0.00     0.016 A 
ATOM     34  C   UNL A   1      38.513  29.327  29.780  1.00  0.00     0.010 A 
ATOM     35  C   UNL A   1      38.707  29.640  27.525  1.00  0.00     0.010 A 
ATOM     36  C   UNL A   1      39.297  29.325  28.717  1.00  0.00    -0.014 A 
BRANCH  36  37
ATOM     37  C   UNL A   1      40.776  28.987  28.815  1.00  0.00     0.031 A 
ATOM     38  C   UNL A   1      41.614  29.991  29.304  1.00  0.00     0.074 A 
ATOM     39  C   UNL A   1      41.202  27.707  28.506  1.00  0.00     0.049 A 
ATOM     40  N   UNL A   1      42.914  29.900  29.586  1.00  0.00    -0.248 NA
ATOM     41  C   UNL A   1      41.172  31.363  29.600  1.00  0.00     0.031 C 
ATOM     42  C   UNL A   1      40.360  26.686  28.020  1.00  0.00     0.029 A 
ATOM     43  N   UNL A   1      42.475  27.191  28.606  1.00  0.00    -0.354 N 
ATOM     44  C   UNL A   1      43.368  31.065  30.053  1.00  0.00     0.074 A 
ATOM     45  C   UNL A   1      42.255  32.024  30.062  1.00  0.00     0.031 C 
ATOM     46  C   UNL A   1      41.118  25.576  27.818  1.00  0.00     0.029 A 
ATOM     47  C   UNL A   1      42.445  25.883  28.176  1.00  0.00     0.049 A 
ATOM     48  H   UNL A   1      43.269  27.675  28.928  1.00  0.00     0.167 HD
ATOM     49  C   UNL A   1      44.666  31.364  30.473  1.00  0.00     0.031 A 
ATOM     50  C   UNL A   1      43.503  24.993  28.092  1.00  0.00     0.031 A 
ATOM     51  C   UNL A   1      45.715  30.461  30.428  1.00  0.00     0.049 A 
ATOM     52  C   UNL A   1      44.814  25.311  28.457  1.00  0.00     0.074 A 
ATOM     53  C   UNL A   1      47.027  30.744  30.855  1.00  0.00     0.029 A 
ATOM     54  N   UNL A   1      45.690  29.160  29.975  1.00  0.00    -0.354 N 
ATOM     55  N   UNL A   1      45.259  26.463  28.960  1.00  0.00    -0.248 NA
ATOM     56  C   UNL A   1      45.949  24.386  28.340  1.00  0.00     0.031 C 
ATOM     57  C   UNL A   1      47.785  29.634  30.652  1.00  0.00     0.029 A 
ATOM     58  C   UNL A   1      46.959  28.638  30.096  1.00  0.00     0.049 A 
ATOM     59  H   UNL A   1      44.902  28.686  29.626  1.00  0.00     0.167 HD
ATOM     60  C   UNL A   1      46.568  26.383  29.203  1.00  0.00     0.074 A 
ATOM     61  C   UNL A   1      47.033  25.049  28.802  1.00  0.00     0.031 C 
ATOM     62  C   UNL A   1      47.393  27.369  29.747  1.00  0.00     0.031 A 
BRANCH  49  63
ATOM     63  C   UNL A   1      44.942  32.760  31.007  1.00  0.00    -0.014 A 
ATOM     64  C   UNL A   1      44.791  33.016  32.360  1.00  0.00     0.010 A 
ATOM     65  C   UNL A   1      45.338  33.709  30.167  1.00  0.00     0.010 A 
ATOM     66  C   UNL A   1      44.805  34.392  32.688  1.00  0.00     0.020 A 
ATOM     67  C   UNL A   1      45.462  35.010  30.590  1.00  0.00     0.020 A 
ATOM     68  C   UNL A   1      45.269  35.345  31.901  1.00  0.00     0.054 A 
BRANCH  68  69
ATOM     69  S   UNL A   1      45.632  37.005  32.525  1.00  0.00     0.124 S 
ATOM     70  O   UNL A   1      46.128  36.910  33.969  1.00  0.00    -0.237 OA
ATOM     71  O   UNL A   1      46.713  37.652  31.656  1.00  0.00    -0.237 OA
ATOM     72  O   UNL A   1      44.212  37.956  32.472  1.00  0.00    -0.744 OA
ENDBRANCH  68  69
ENDBRANCH  49  63
BRANCH  50  73
ATOM     73  C   UNL A   1      43.223  23.592  27.572  1.00  0.00    -0.014 A 
ATOM     74  C   UNL A   1      43.454  23.301  26.239  1.00  0.00     0.010 A 
ATOM     75  C   UNL A   1      42.748  22.674  28.406  1.00  0.00     0.010 A 
ATOM     76  C   UNL A   1      42.877  22.082  25.810  1.00  0.00     0.020 A 
ATOM     77  C   UNL A   1      42.328  21.453  27.937  1.00  0.00     0.020 A 
ATOM     78  C   UNL A   1      42.472  21.120  26.618  1.00  0.00     0.054 A 
BRANCH  78  79
ATOM     79  S   UNL A   1      42.126  19.449  26.014  1.00  0.00     0.124 S 
ATOM     80  O   UNL A   1      40.626  19.303  25.747  1.00  0.00    -0.237 OA
ATOM     81  O   UNL A   1      42.901  19.204  24.717  1.00  0.00    -0.237 OA
ATOM     82  O   UNL A   1      42.610  18.306  27.190  1.00  0.00    -0.744 OA
ENDBRANCH  78  79
ENDBRANCH  50  73
BRANCH  62  83
ATOM     83  C   UNL A   1      48.859  27.030  29.969  1.00  0.00    -0.014 A 
ATOM     84  C   UNL A   1      49.303  26.546  31.188  1.00  0.00     0.010 A 
ATOM     85  C   UNL A   1      49.710  27.319  28.991  1.00  0.00     0.010 A 
ATOM     86  C   UNL A   1      50.699  26.674  31.382  1.00  0.00     0.020 A 
ATOM     87  C   UNL A   1      51.065  27.292  29.213  1.00  0.00     0.020 A 
ATOM     88  C   UNL A   1      51.574  26.880  30.414  1.00  0.00     0.054 A 
BRANCH  88  89
ATOM     89  S   UNL A   1      53.349  26.631  30.664  1.00  0.00     0.124 S 
ATOM     90  O   UNL A   1      54.026  26.391  29.311  1.00  0.00    -0.237 OA
ATOM     91  O   UNL A   1      53.951  27.876  31.320  1.00  0.00    -0.237 OA
ATOM     92  O   UNL A   1      53.598  25.276  31.675  1.00  0.00    -0.744 OA
ENDBRANCH  88  89
ENDBRANCH  62  83
ENDBRANCH  36  37
ENDBRANCH  29  31
ENDBRANCH  28  29
ENDBRANCH   1  28
TORSDOF 17
ENDMDL
