MODEL 1
REMARK VINA RESULT:     -10.2      0.000      0.000
REMARK SMILES CC[C@@](C)(NS(=O)(=O)c1ccc(F)c(F)c1)C(=O)OCCOC(=O)c1ccc(-c2c3nc(c(-c4ccc(S(=O)(=O)[O-])cc4)c4ccc([nH]4)c(-c4ccc(S(=O)(=O)[O-])cc4)c4nc(c(-c5ccc(S(=O)(=O)[O-])cc5)c5ccc2[nH]5)C=C4)C=C3)cc1
REMARK SMILES IDX 20 1 19 2 17 3 18 4 3 5 4 6 2 7 1 8 5 9 6 11 7 12 8 13 9 14
REMARK SMILES IDX 10 15 16 16 11 17 14 18 12 19 15 20 13 21 21 22 22 23 23 24
REMARK SMILES IDX 24 25 25 26 26 27 84 28 27 29 83 30 28 31 29 32 30 33 77 34
REMARK SMILES IDX 31 35 82 36 76 37 78 38 32 39 81 40 75 41 74 42 33 44 63 45
REMARK SMILES IDX 44 46 62 47 45 48 48 49 61 50 79 51 46 52 47 53 60 55 80 56
REMARK SMILES IDX 49 57 34 58 35 59 43 60 36 61 42 62 37 63 38 64 39 65 40 66
REMARK SMILES IDX 41 67 64 68 65 69 73 70 66 71 72 72 67 73 68 74 69 75 70 76
REMARK SMILES IDX 71 77 50 78 51 79 59 80 52 81 58 82 53 83 54 84 55 85 56 86
REMARK SMILES IDX 57 87
REMARK H PARENT 5 10 78 43 48 54
REMARK Flexibility Score: inf
ROOT
ATOM      1  C   UNL A   1      31.791  28.100  27.568  1.00  0.00     0.274 C 
ENDROOT
BRANCH   1   2
ATOM      2  O   UNL A   1      31.045  27.660  26.409  1.00  0.00    -0.461 OA
BRANCH   2   3
ATOM      3  C   UNL A   1      31.267  26.381  26.004  1.00  0.00     0.327 C 
ATOM      4  O   UNL A   1      31.545  25.473  26.779  1.00  0.00    -0.250 OA
BRANCH   3   5
ATOM      5  C   UNL A   1      31.128  26.205  24.477  1.00  0.00     0.127 C 
ATOM      6  C   UNL A   1      29.644  25.958  24.175  1.00  0.00     0.042 C 
BRANCH   5   7
ATOM      7  C   UNL A   1      31.564  27.494  23.703  1.00  0.00     0.032 C 
ATOM      8  C   UNL A   1      30.724  27.913  22.502  1.00  0.00     0.006 C 
ENDBRANCH   5   7
BRANCH   5   9
ATOM      9  N   UNL A   1      31.992  25.130  23.907  1.00  0.00    -0.194 NA
ATOM     10  H   UNL A   1      31.516  24.850  23.049  1.00  0.00     0.142 HD
BRANCH   9  11
ATOM     11  S   UNL A   1      33.598  25.192  23.487  1.00  0.00     0.241 S 
ATOM     12  O   UNL A   1      33.738  25.371  22.061  1.00  0.00    -0.207 OA
ATOM     13  O   UNL A   1      34.199  26.136  24.407  1.00  0.00    -0.207 OA
BRANCH  11  14
ATOM     14  C   UNL A   1      34.280  23.599  23.885  1.00  0.00     0.085 A 
ATOM     15  C   UNL A   1      33.429  22.574  24.327  1.00  0.00     0.025 A 
ATOM     16  C   UNL A   1      35.665  23.419  23.886  1.00  0.00     0.064 A 
ATOM     17  C   UNL A   1      33.964  21.349  24.735  1.00  0.00     0.044 A 
ATOM     18  C   UNL A   1      36.182  22.185  24.271  1.00  0.00     0.160 A 
ATOM     19  C   UNL A   1      35.341  21.159  24.693  1.00  0.00     0.158 A 
ATOM     20  F   UNL A   1      37.504  21.981  24.207  1.00  0.00    -0.204 F 
ATOM     21  F   UNL A   1      35.852  19.972  25.047  1.00  0.00    -0.204 F 
ENDBRANCH  11  14
ENDBRANCH   9  11
ENDBRANCH   5   9
ENDBRANCH   3   5
ENDBRANCH   2   3
ENDBRANCH   1   2
BRANCH   1  22
ATOM     22  C   UNL A   1      32.540  29.393  27.227  1.00  0.00     0.275 C 
BRANCH  22  23
ATOM     23  O   UNL A   1      33.937  29.219  27.514  1.00  0.00    -0.458 OA
BRANCH  23  24
ATOM     24  C   UNL A   1      34.560  30.325  27.987  1.00  0.00     0.338 C 
ATOM     25  O   UNL A   1      34.060  31.375  28.353  1.00  0.00    -0.246 OA
BRANCH  24  26
ATOM     26  C   UNL A   1      35.918  29.897  28.342  1.00  0.00     0.060 A 
ATOM     27  C   UNL A   1      36.881  30.017  27.341  1.00  0.00     0.016 A 
ATOM     28  C   UNL A   1      36.265  29.460  29.613  1.00  0.00     0.016 A 
ATOM     29  C   UNL A   1      38.198  29.659  27.575  1.00  0.00     0.010 A 
ATOM     30  C   UNL A   1      37.604  29.150  29.869  1.00  0.00     0.010 A 
ATOM     31  C   UNL A   1      38.577  29.248  28.853  1.00  0.00    -0.014 A 
BRANCH  31  32
ATOM     32  C   UNL A   1      39.995  28.929  29.140  1.00  0.00     0.031 A 
ATOM     33  C   UNL A   1      40.907  30.020  29.612  1.00  0.00     0.074 A 
ATOM     34  C   UNL A   1      40.457  27.678  28.940  1.00  0.00     0.049 A 
ATOM     35  N   UNL A   1      42.209  30.028  29.682  1.00  0.00    -0.248 NA
ATOM     36  C   UNL A   1      40.268  31.270  30.058  1.00  0.00     0.031 C 
ATOM     37  C   UNL A   1      39.644  26.518  28.561  1.00  0.00     0.029 A 
ATOM     38  N   UNL A   1      41.734  27.178  29.003  1.00  0.00    -0.354 N 
ATOM     39  C   UNL A   1      42.553  31.302  30.119  1.00  0.00     0.074 A 
ATOM     40  C   UNL A   1      41.322  32.033  30.317  1.00  0.00     0.031 C 
ATOM     41  C   UNL A   1      40.442  25.450  28.410  1.00  0.00     0.029 A 
ATOM     42  C   UNL A   1      41.827  25.868  28.590  1.00  0.00     0.049 A 
ATOM     43  H   UNL A   1      42.506  27.704  29.312  1.00  0.00     0.167 HD
ATOM     44  C   UNL A   1      43.791  31.810  30.313  1.00  0.00     0.031 A 
ATOM     45  C   UNL A   1      42.907  25.111  28.312  1.00  0.00     0.031 A 
ATOM     46  C   UNL A   1      45.000  31.053  30.126  1.00  0.00     0.049 A 
ATOM     47  C   UNL A   1      44.272  25.730  28.457  1.00  0.00     0.074 A 
ATOM     48  C   UNL A   1      46.307  31.462  30.323  1.00  0.00     0.029 A 
ATOM     49  N   UNL A   1      45.052  29.736  29.692  1.00  0.00    -0.354 N 
ATOM     50  N   UNL A   1      44.590  26.935  28.873  1.00  0.00    -0.248 NA
ATOM     51  C   UNL A   1      45.424  24.899  28.082  1.00  0.00     0.031 C 
ATOM     52  C   UNL A   1      47.150  30.417  29.937  1.00  0.00     0.029 A 
ATOM     53  C   UNL A   1      46.368  29.332  29.570  1.00  0.00     0.049 A 
ATOM     54  H   UNL A   1      44.267  29.174  29.499  1.00  0.00     0.167 HD
ATOM     55  C   UNL A   1      45.978  26.997  28.823  1.00  0.00     0.074 A 
ATOM     56  C   UNL A   1      46.440  25.703  28.363  1.00  0.00     0.031 C 
ATOM     57  C   UNL A   1      46.799  28.034  29.120  1.00  0.00     0.031 A 
BRANCH  44  58
ATOM     58  C   UNL A   1      43.915  33.262  30.680  1.00  0.00    -0.014 A 
ATOM     59  C   UNL A   1      43.987  33.685  32.018  1.00  0.00     0.010 A 
ATOM     60  C   UNL A   1      44.050  34.214  29.650  1.00  0.00     0.010 A 
ATOM     61  C   UNL A   1      44.182  35.038  32.319  1.00  0.00     0.020 A 
ATOM     62  C   UNL A   1      44.270  35.561  29.947  1.00  0.00     0.020 A 
ATOM     63  C   UNL A   1      44.330  35.965  31.282  1.00  0.00     0.054 A 
BRANCH  63  64
ATOM     64  S   UNL A   1      44.654  37.699  31.702  1.00  0.00     0.124 S 
ATOM     65  O   UNL A   1      43.797  38.405  30.752  1.00  0.00    -0.237 OA
ATOM     66  O   UNL A   1      44.233  37.771  33.099  1.00  0.00    -0.237 OA
ATOM     67  O   UNL A   1      46.089  37.851  31.476  1.00  0.00    -0.744 OA
ENDBRANCH  63  64
ENDBRANCH  44  58
BRANCH  45  68
ATOM     68  C   UNL A   1      42.748  23.733  27.768  1.00  0.00    -0.014 A 
ATOM     69  C   UNL A   1      42.974  23.460  26.408  1.00  0.00     0.010 A 
ATOM     70  C   UNL A   1      42.329  22.684  28.610  1.00  0.00     0.010 A 
ATOM     71  C   UNL A   1      42.749  22.178  25.894  1.00  0.00     0.020 A 
ATOM     72  C   UNL A   1      42.139  21.393  28.109  1.00  0.00     0.020 A 
ATOM     73  C   UNL A   1      42.331  21.153  26.748  1.00  0.00     0.054 A 
BRANCH  73  74
ATOM     74  S   UNL A   1      42.050  19.497  26.063  1.00  0.00     0.124 S 
ATOM     75  O   UNL A   1      40.611  19.508  25.826  1.00  0.00    -0.237 OA
ATOM     76  O   UNL A   1      42.891  19.505  24.867  1.00  0.00    -0.237 OA
ATOM     77  O   UNL A   1      42.505  18.605  27.127  1.00  0.00    -0.744 OA
ENDBRANCH  73  74
ENDBRANCH  45  68
BRANCH  57  78
ATOM     78  C   UNL A   1      48.280  27.805  28.987  1.00  0.00    -0.014 A 
ATOM     79  C   UNL A   1      48.962  28.136  27.804  1.00  0.00     0.010 A 
ATOM     80  C   UNL A   1      49.008  27.329  30.092  1.00  0.00     0.010 A 
ATOM     81  C   UNL A   1      50.347  27.980  27.723  1.00  0.00     0.020 A 
ATOM     82  C   UNL A   1      50.397  27.201  30.025  1.00  0.00     0.020 A 
ATOM     83  C   UNL A   1      51.056  27.520  28.837  1.00  0.00     0.054 A 
BRANCH  83  84
ATOM     84  S   UNL A   1      52.862  27.398  28.728  1.00  0.00     0.124 S 
ATOM     85  O   UNL A   1      53.156  26.356  29.707  1.00  0.00    -0.237 OA
ATOM     86  O   UNL A   1      53.072  27.026  27.331  1.00  0.00    -0.237 OA
ATOM     87  O   UNL A   1      53.324  28.737  29.086  1.00  0.00    -0.744 OA
ENDBRANCH  83  84
ENDBRANCH  57  78
ENDBRANCH  31  32
ENDBRANCH  24  26
ENDBRANCH  23  24
ENDBRANCH  22  23
ENDBRANCH   1  22
TORSDOF 18
ENDMDL
MODEL 2
REMARK VINA RESULT:     -10.2      5.394     10.664
REMARK SMILES CC[C@@](C)(NS(=O)(=O)c1ccc(F)c(F)c1)C(=O)OCCOC(=O)c1ccc(-c2c3nc(c(-c4ccc(S(=O)(=O)[O-])cc4)c4ccc([nH]4)c(-c4ccc(S(=O)(=O)[O-])cc4)c4nc(c(-c5ccc(S(=O)(=O)[O-])cc5)c5ccc2[nH]5)C=C4)C=C3)cc1
REMARK SMILES IDX 20 1 19 2 17 3 18 4 3 5 4 6 2 7 1 8 5 9 6 11 7 12 8 13 9 14
REMARK SMILES IDX 10 15 16 16 11 17 14 18 12 19 15 20 13 21 21 22 22 23 23 24
REMARK SMILES IDX 24 25 25 26 26 27 84 28 27 29 83 30 28 31 29 32 30 33 77 34
REMARK SMILES IDX 31 35 82 36 76 37 78 38 32 39 81 40 75 41 74 42 33 44 63 45
REMARK SMILES IDX 44 46 62 47 45 48 48 49 61 50 79 51 46 52 47 53 60 55 80 56
REMARK SMILES IDX 49 57 34 58 35 59 43 60 36 61 42 62 37 63 38 64 39 65 40 66
REMARK SMILES IDX 41 67 64 68 65 69 73 70 66 71 72 72 67 73 68 74 69 75 70 76
REMARK SMILES IDX 71 77 50 78 51 79 59 80 52 81 58 82 53 83 54 84 55 85 56 86
REMARK SMILES IDX 57 87
REMARK H PARENT 5 10 78 43 48 54
REMARK Flexibility Score: inf
ROOT
ATOM      1  C   UNL A   1      37.943  22.298  25.382  1.00  0.00     0.274 C 
ENDROOT
BRANCH   1   2
ATOM      2  O   UNL A   1      36.641  22.057  25.964  1.00  0.00    -0.461 OA
BRANCH   2   3
ATOM      3  C   UNL A   1      35.699  23.011  25.739  1.00  0.00     0.327 C 
ATOM      4  O   UNL A   1      35.972  24.194  25.569  1.00  0.00    -0.250 OA
BRANCH   3   5
ATOM      5  C   UNL A   1      34.264  22.442  25.721  1.00  0.00     0.127 C 
ATOM      6  C   UNL A   1      33.996  21.825  27.099  1.00  0.00     0.042 C 
BRANCH   5   7
ATOM      7  C   UNL A   1      33.199  23.565  25.486  1.00  0.00     0.032 C 
ATOM      8  C   UNL A   1      32.354  23.996  26.679  1.00  0.00     0.006 C 
ENDBRANCH   5   7
BRANCH   5   9
ATOM      9  N   UNL A   1      34.010  21.465  24.621  1.00  0.00    -0.194 NA
ATOM     10  H   UNL A   1      34.831  20.859  24.625  1.00  0.00     0.142 HD
BRANCH   9  11
ATOM     11  S   UNL A   1      32.731  20.426  24.421  1.00  0.00     0.241 S 
ATOM     12  O   UNL A   1      31.696  20.711  25.387  1.00  0.00    -0.207 OA
ATOM     13  O   UNL A   1      32.437  20.447  23.003  1.00  0.00    -0.207 OA
BRANCH  11  14
ATOM     14  C   UNL A   1      33.349  18.798  24.780  1.00  0.00     0.085 A 
ATOM     15  C   UNL A   1      34.674  18.473  24.448  1.00  0.00     0.025 A 
ATOM     16  C   UNL A   1      32.480  17.816  25.263  1.00  0.00     0.064 A 
ATOM     17  C   UNL A   1      35.141  17.170  24.636  1.00  0.00     0.044 A 
ATOM     18  C   UNL A   1      32.966  16.529  25.468  1.00  0.00     0.160 A 
ATOM     19  C   UNL A   1      34.285  16.206  25.157  1.00  0.00     0.158 A 
ATOM     20  F   UNL A   1      32.159  15.601  25.998  1.00  0.00    -0.204 F 
ATOM     21  F   UNL A   1      34.744  14.966  25.375  1.00  0.00    -0.204 F 
ENDBRANCH  11  14
ENDBRANCH   9  11
ENDBRANCH   5   9
ENDBRANCH   3   5
ENDBRANCH   2   3
ENDBRANCH   1   2
BRANCH   1  22
ATOM     22  C   UNL A   1      38.976  22.464  26.502  1.00  0.00     0.275 C 
BRANCH  22  23
ATOM     23  O   UNL A   1      39.219  23.864  26.717  1.00  0.00    -0.458 OA
BRANCH  23  24
ATOM     24  C   UNL A   1      40.525  24.218  26.725  1.00  0.00     0.338 C 
ATOM     25  O   UNL A   1      41.405  23.875  25.953  1.00  0.00    -0.246 OA
BRANCH  24  26
ATOM     26  C   UNL A   1      40.616  25.392  27.600  1.00  0.00     0.060 A 
ATOM     27  C   UNL A   1      39.652  25.485  28.603  1.00  0.00     0.016 A 
ATOM     28  C   UNL A   1      41.632  26.332  27.503  1.00  0.00     0.016 A 
ATOM     29  C   UNL A   1      39.655  26.543  29.496  1.00  0.00     0.010 A 
ATOM     30  C   UNL A   1      41.672  27.371  28.437  1.00  0.00     0.010 A 
ATOM     31  C   UNL A   1      40.685  27.483  29.439  1.00  0.00    -0.014 A 
BRANCH  31  32
ATOM     32  C   UNL A   1      40.744  28.581  30.430  1.00  0.00     0.031 A 
ATOM     33  C   UNL A   1      41.710  28.481  31.572  1.00  0.00     0.074 A 
ATOM     34  C   UNL A   1      39.910  29.635  30.319  1.00  0.00     0.049 A 
ATOM     35  N   UNL A   1      41.759  29.185  32.669  1.00  0.00    -0.248 NA
ATOM     36  C   UNL A   1      42.754  27.448  31.467  1.00  0.00     0.031 C 
ATOM     37  C   UNL A   1      38.987  29.877  29.206  1.00  0.00     0.029 A 
ATOM     38  N   UNL A   1      39.686  30.689  31.169  1.00  0.00    -0.354 N 
ATOM     39  C   UNL A   1      42.797  28.641  33.416  1.00  0.00     0.074 A 
ATOM     40  C   UNL A   1      43.364  27.563  32.639  1.00  0.00     0.031 C 
ATOM     41  C   UNL A   1      38.287  30.996  29.450  1.00  0.00     0.029 A 
ATOM     42  C   UNL A   1      38.644  31.497  30.773  1.00  0.00     0.049 A 
ATOM     43  H   UNL A   1      40.217  30.851  31.982  1.00  0.00     0.167 HD
ATOM     44  C   UNL A   1      43.215  29.006  34.649  1.00  0.00     0.031 A 
ATOM     45  C   UNL A   1      37.997  32.479  31.430  1.00  0.00     0.031 A 
ATOM     46  C   UNL A   1      42.644  30.097  35.393  1.00  0.00     0.049 A 
ATOM     47  C   UNL A   1      38.431  32.807  32.834  1.00  0.00     0.074 A 
ATOM     48  C   UNL A   1      43.012  30.570  36.640  1.00  0.00     0.029 A 
ATOM     49  N   UNL A   1      41.581  30.878  34.963  1.00  0.00    -0.354 N 
ATOM     50  N   UNL A   1      39.415  32.291  33.534  1.00  0.00    -0.248 NA
ATOM     51  C   UNL A   1      37.661  33.836  33.546  1.00  0.00     0.031 C 
ATOM     52  C   UNL A   1      42.124  31.589  36.995  1.00  0.00     0.029 A 
ATOM     53  C   UNL A   1      41.250  31.800  35.940  1.00  0.00     0.049 A 
ATOM     54  H   UNL A   1      41.130  30.789  34.093  1.00  0.00     0.167 HD
ATOM     55  C   UNL A   1      39.389  32.945  34.760  1.00  0.00     0.074 A 
ATOM     56  C   UNL A   1      38.312  33.911  34.698  1.00  0.00     0.031 C 
ATOM     57  C   UNL A   1      40.178  32.758  35.846  1.00  0.00     0.031 A 
BRANCH  44  58
ATOM     58  C   UNL A   1      44.292  28.188  35.307  1.00  0.00    -0.014 A 
ATOM     59  C   UNL A   1      43.992  27.069  36.100  1.00  0.00     0.010 A 
ATOM     60  C   UNL A   1      45.639  28.505  35.047  1.00  0.00     0.010 A 
ATOM     61  C   UNL A   1      45.022  26.285  36.631  1.00  0.00     0.020 A 
ATOM     62  C   UNL A   1      46.670  27.710  35.553  1.00  0.00     0.020 A 
ATOM     63  C   UNL A   1      46.354  26.607  36.348  1.00  0.00     0.054 A 
BRANCH  63  64
ATOM     64  S   UNL A   1      47.666  25.531  36.989  1.00  0.00     0.124 S 
ATOM     65  O   UNL A   1      48.225  24.971  35.760  1.00  0.00    -0.237 OA
ATOM     66  O   UNL A   1      48.530  26.472  37.698  1.00  0.00    -0.237 OA
ATOM     67  O   UNL A   1      46.954  24.579  37.838  1.00  0.00    -0.744 OA
ENDBRANCH  63  64
ENDBRANCH  44  58
BRANCH  45  68
ATOM     68  C   UNL A   1      36.810  33.144  30.822  1.00  0.00    -0.014 A 
ATOM     69  C   UNL A   1      36.939  33.952  29.679  1.00  0.00     0.010 A 
ATOM     70  C   UNL A   1      35.538  33.001  31.412  1.00  0.00     0.010 A 
ATOM     71  C   UNL A   1      35.830  34.631  29.162  1.00  0.00     0.020 A 
ATOM     72  C   UNL A   1      34.421  33.647  30.877  1.00  0.00     0.020 A 
ATOM     73  C   UNL A   1      34.579  34.475  29.765  1.00  0.00     0.054 A 
BRANCH  73  74
ATOM     74  S   UNL A   1      33.153  35.361  29.075  1.00  0.00     0.124 S 
ATOM     75  O   UNL A   1      33.795  36.467  28.373  1.00  0.00    -0.237 OA
ATOM     76  O   UNL A   1      32.534  34.345  28.227  1.00  0.00    -0.237 OA
ATOM     77  O   UNL A   1      32.377  35.733  30.256  1.00  0.00    -0.744 OA
ENDBRANCH  73  74
ENDBRANCH  45  68
BRANCH  57  78
ATOM     78  C   UNL A   1      39.928  33.633  37.044  1.00  0.00    -0.014 A 
ATOM     79  C   UNL A   1      40.548  34.888  37.168  1.00  0.00     0.010 A 
ATOM     80  C   UNL A   1      38.998  33.224  38.017  1.00  0.00     0.010 A 
ATOM     81  C   UNL A   1      40.253  35.714  38.253  1.00  0.00     0.020 A 
ATOM     82  C   UNL A   1      38.677  34.062  39.087  1.00  0.00     0.020 A 
ATOM     83  C   UNL A   1      39.313  35.299  39.202  1.00  0.00     0.054 A 
BRANCH  83  84
ATOM     84  S   UNL A   1      38.894  36.425  40.561  1.00  0.00     0.124 S 
ATOM     85  O   UNL A   1      40.148  36.483  41.304  1.00  0.00    -0.237 OA
ATOM     86  O   UNL A   1      38.522  37.649  39.857  1.00  0.00    -0.237 OA
ATOM     87  O   UNL A   1      37.795  35.747  41.246  1.00  0.00    -0.744 OA
ENDBRANCH  83  84
ENDBRANCH  57  78
ENDBRANCH  31  32
ENDBRANCH  24  26
ENDBRANCH  23  24
ENDBRANCH  22  23
ENDBRANCH   1  22
TORSDOF 18
ENDMDL
MODEL 3
REMARK VINA RESULT:     -10.1      3.933      9.790
REMARK SMILES CC[C@@](C)(NS(=O)(=O)c1ccc(F)c(F)c1)C(=O)OCCOC(=O)c1ccc(-c2c3nc(c(-c4ccc(S(=O)(=O)[O-])cc4)c4ccc([nH]4)c(-c4ccc(S(=O)(=O)[O-])cc4)c4nc(c(-c5ccc(S(=O)(=O)[O-])cc5)c5ccc2[nH]5)C=C4)C=C3)cc1
REMARK SMILES IDX 20 1 19 2 17 3 18 4 3 5 4 6 2 7 1 8 5 9 6 11 7 12 8 13 9 14
REMARK SMILES IDX 10 15 16 16 11 17 14 18 12 19 15 20 13 21 21 22 22 23 23 24
REMARK SMILES IDX 24 25 25 26 26 27 84 28 27 29 83 30 28 31 29 32 30 33 77 34
REMARK SMILES IDX 31 35 82 36 76 37 78 38 32 39 81 40 75 41 74 42 33 44 63 45
REMARK SMILES IDX 44 46 62 47 45 48 48 49 61 50 79 51 46 52 47 53 60 55 80 56
REMARK SMILES IDX 49 57 34 58 35 59 43 60 36 61 42 62 37 63 38 64 39 65 40 66
REMARK SMILES IDX 41 67 64 68 65 69 73 70 66 71 72 72 67 73 68 74 69 75 70 76
REMARK SMILES IDX 71 77 50 78 51 79 59 80 52 81 58 82 53 83 54 84 55 85 56 86
REMARK SMILES IDX 57 87
REMARK H PARENT 5 10 78 43 48 54
REMARK Flexibility Score: inf
ROOT
ATOM      1  C   UNL A   1      35.712  22.908  25.570  1.00  0.00     0.274 C 
ENDROOT
BRANCH   1   2
ATOM      2  O   UNL A   1      34.842  22.281  24.599  1.00  0.00    -0.461 OA
BRANCH   2   3
ATOM      3  C   UNL A   1      34.686  22.942  23.422  1.00  0.00     0.327 C 
ATOM      4  O   UNL A   1      35.628  23.305  22.727  1.00  0.00    -0.250 OA
BRANCH   3   5
ATOM      5  C   UNL A   1      33.203  23.180  23.062  1.00  0.00     0.127 C 
ATOM      6  C   UNL A   1      33.065  23.009  21.543  1.00  0.00     0.042 C 
BRANCH   5   7
ATOM      7  C   UNL A   1      32.266  22.130  23.746  1.00  0.00     0.032 C 
ATOM      8  C   UNL A   1      32.235  20.723  23.159  1.00  0.00     0.006 C 
ENDBRANCH   5   7
BRANCH   5   9
ATOM      9  N   UNL A   1      32.669  24.496  23.519  1.00  0.00    -0.194 NA
ATOM     10  H   UNL A   1      33.167  24.684  24.389  1.00  0.00     0.142 HD
BRANCH   9  11
ATOM     11  S   UNL A   1      32.661  25.954  22.724  1.00  0.00     0.241 S 
ATOM     12  O   UNL A   1      33.937  26.189  22.091  1.00  0.00    -0.207 OA
ATOM     13  O   UNL A   1      31.442  25.957  21.940  1.00  0.00    -0.207 OA
BRANCH  11  14
ATOM     14  C   UNL A   1      32.457  27.202  23.973  1.00  0.00     0.085 A 
ATOM     15  C   UNL A   1      31.682  28.339  23.694  1.00  0.00     0.025 A 
ATOM     16  C   UNL A   1      33.175  27.111  25.168  1.00  0.00     0.064 A 
ATOM     17  C   UNL A   1      31.594  29.372  24.632  1.00  0.00     0.044 A 
ATOM     18  C   UNL A   1      33.057  28.136  26.103  1.00  0.00     0.160 A 
ATOM     19  C   UNL A   1      32.276  29.257  25.839  1.00  0.00     0.158 A 
ATOM     20  F   UNL A   1      33.685  28.021  27.280  1.00  0.00    -0.204 F 
ATOM     21  F   UNL A   1      32.160  30.229  26.754  1.00  0.00    -0.204 F 
ENDBRANCH  11  14
ENDBRANCH   9  11
ENDBRANCH   5   9
ENDBRANCH   3   5
ENDBRANCH   2   3
ENDBRANCH   1   2
BRANCH   1  22
ATOM     22  C   UNL A   1      37.145  22.401  25.367  1.00  0.00     0.275 C 
BRANCH  22  23
ATOM     23  O   UNL A   1      38.059  23.500  25.511  1.00  0.00    -0.458 OA
BRANCH  23  24
ATOM     24  C   UNL A   1      39.164  23.225  26.243  1.00  0.00     0.338 C 
ATOM     25  O   UNL A   1      39.910  22.264  26.154  1.00  0.00    -0.246 OA
BRANCH  24  26
ATOM     26  C   UNL A   1      39.525  24.482  26.908  1.00  0.00     0.060 A 
ATOM     27  C   UNL A   1      39.006  24.671  28.188  1.00  0.00     0.016 A 
ATOM     28  C   UNL A   1      40.387  25.415  26.347  1.00  0.00     0.016 A 
ATOM     29  C   UNL A   1      39.298  25.814  28.912  1.00  0.00     0.010 A 
ATOM     30  C   UNL A   1      40.729  26.543  27.097  1.00  0.00     0.010 A 
ATOM     31  C   UNL A   1      40.187  26.750  28.383  1.00  0.00    -0.014 A 
BRANCH  31  32
ATOM     32  C   UNL A   1      40.566  27.943  29.173  1.00  0.00     0.031 A 
ATOM     33  C   UNL A   1      41.806  27.897  30.015  1.00  0.00     0.074 A 
ATOM     34  C   UNL A   1      39.781  29.039  29.157  1.00  0.00     0.049 A 
ATOM     35  N   UNL A   1      42.187  28.713  30.959  1.00  0.00    -0.248 NA
ATOM     36  C   UNL A   1      42.734  26.782  29.765  1.00  0.00     0.031 C 
ATOM     37  C   UNL A   1      38.596  29.227  28.313  1.00  0.00     0.029 A 
ATOM     38  N   UNL A   1      39.846  30.195  29.895  1.00  0.00    -0.354 N 
ATOM     39  C   UNL A   1      43.367  28.178  31.462  1.00  0.00     0.074 A 
ATOM     40  C   UNL A   1      43.650  26.979  30.705  1.00  0.00     0.031 C 
ATOM     41  C   UNL A   1      38.040  30.416  28.592  1.00  0.00     0.029 A 
ATOM     42  C   UNL A   1      38.771  31.031  29.694  1.00  0.00     0.049 A 
ATOM     43  H   UNL A   1      40.588  30.405  30.506  1.00  0.00     0.167 HD
ATOM     44  C   UNL A   1      44.126  28.644  32.479  1.00  0.00     0.031 A 
ATOM     45  C   UNL A   1      38.374  32.127  30.371  1.00  0.00     0.031 A 
ATOM     46  C   UNL A   1      43.830  29.851  33.204  1.00  0.00     0.049 A 
ATOM     47  C   UNL A   1      39.194  32.575  31.552  1.00  0.00     0.074 A 
ATOM     48  C   UNL A   1      44.549  30.430  34.234  1.00  0.00     0.029 A 
ATOM     49  N   UNL A   1      42.725  30.659  32.981  1.00  0.00    -0.354 N 
ATOM     50  N   UNL A   1      40.310  32.066  32.020  1.00  0.00    -0.248 NA
ATOM     51  C   UNL A   1      38.697  33.732  32.308  1.00  0.00     0.031 C 
ATOM     52  C   UNL A   1      43.840  31.547  34.683  1.00  0.00     0.029 A 
ATOM     53  C   UNL A   1      42.717  31.705  33.884  1.00  0.00     0.049 A 
ATOM     54  H   UNL A   1      42.047  30.508  32.283  1.00  0.00     0.167 HD
ATOM     55  C   UNL A   1      40.654  32.852  33.114  1.00  0.00     0.074 A 
ATOM     56  C   UNL A   1      39.644  33.885  33.222  1.00  0.00     0.031 C 
ATOM     57  C   UNL A   1      41.704  32.726  33.962  1.00  0.00     0.031 A 
BRANCH  44  58
ATOM     58  C   UNL A   1      45.306  27.824  32.921  1.00  0.00    -0.014 A 
ATOM     59  C   UNL A   1      45.192  26.835  33.912  1.00  0.00     0.010 A 
ATOM     60  C   UNL A   1      46.537  27.995  32.260  1.00  0.00     0.010 A 
ATOM     61  C   UNL A   1      46.294  26.037  34.241  1.00  0.00     0.020 A 
ATOM     62  C   UNL A   1      47.632  27.184  32.567  1.00  0.00     0.020 A 
ATOM     63  C   UNL A   1      47.504  26.213  33.561  1.00  0.00     0.054 A 
BRANCH  63  64
ATOM     64  S   UNL A   1      48.894  25.116  33.957  1.00  0.00     0.124 S 
ATOM     65  O   UNL A   1      49.765  25.302  32.799  1.00  0.00    -0.237 OA
ATOM     66  O   UNL A   1      49.391  25.675  35.212  1.00  0.00    -0.237 OA
ATOM     67  O   UNL A   1      48.277  23.797  34.066  1.00  0.00    -0.744 OA
ENDBRANCH  63  64
ENDBRANCH  44  58
BRANCH  45  68
ATOM     68  C   UNL A   1      37.096  32.810  30.026  1.00  0.00    -0.014 A 
ATOM     69  C   UNL A   1      37.066  33.869  29.102  1.00  0.00     0.010 A 
ATOM     70  C   UNL A   1      35.895  32.423  30.654  1.00  0.00     0.010 A 
ATOM     71  C   UNL A   1      35.872  34.551  28.842  1.00  0.00     0.020 A 
ATOM     72  C   UNL A   1      34.693  33.077  30.368  1.00  0.00     0.020 A 
ATOM     73  C   UNL A   1      34.694  34.151  29.479  1.00  0.00     0.054 A 
BRANCH  73  74
ATOM     74  S   UNL A   1      33.155  35.045  29.123  1.00  0.00     0.124 S 
ATOM     75  O   UNL A   1      33.655  36.298  28.569  1.00  0.00    -0.237 OA
ATOM     76  O   UNL A   1      32.486  34.155  28.177  1.00  0.00    -0.237 OA
ATOM     77  O   UNL A   1      32.511  35.150  30.430  1.00  0.00    -0.744 OA
ENDBRANCH  73  74
ENDBRANCH  45  68
BRANCH  57  78
ATOM     78  C   UNL A   1      41.834  33.745  35.061  1.00  0.00    -0.014 A 
ATOM     79  C   UNL A   1      41.367  33.475  36.359  1.00  0.00     0.010 A 
ATOM     80  C   UNL A   1      42.504  34.955  34.807  1.00  0.00     0.010 A 
ATOM     81  C   UNL A   1      41.557  34.406  37.382  1.00  0.00     0.020 A 
ATOM     82  C   UNL A   1      42.723  35.875  35.834  1.00  0.00     0.020 A 
ATOM     83  C   UNL A   1      42.240  35.597  37.114  1.00  0.00     0.054 A 
BRANCH  83  84
ATOM     84  S   UNL A   1      42.537  36.754  38.478  1.00  0.00     0.124 S 
ATOM     85  O   UNL A   1      41.210  37.326  38.686  1.00  0.00    -0.237 OA
ATOM     86  O   UNL A   1      43.018  35.877  39.542  1.00  0.00    -0.237 OA
ATOM     87  O   UNL A   1      43.535  37.677  37.940  1.00  0.00    -0.744 OA
ENDBRANCH  83  84
ENDBRANCH  57  78
ENDBRANCH  31  32
ENDBRANCH  24  26
ENDBRANCH  23  24
ENDBRANCH  22  23
ENDBRANCH   1  22
TORSDOF 18
ENDMDL
