MODEL 1
REMARK VINA RESULT:      -8.5      0.000      0.000
REMARK SMILES CCCCOc1ccc(-c2nc(C)c(C(=O)OCCOC(=O)c3ccc(-c4c5nc(c(-c6ccc(S(=O)(=O)[O-])cc6)c6ccc([nH]6)c(-c6ccc(S(=O)(=O)[O-])cc6)c6nc(c(-c7ccc(S(=O)(=O)[O-])cc7)c7ccc4[nH]7)C=C6)C=C5)cc3)s2)cc1OC
REMARK SMILES IDX 18 1 17 2 15 3 16 4 14 5 10 6 11 7 83 8 12 9 13 10 9 11 6 12
REMARK SMILES IDX 7 13 85 14 8 15 84 16 5 17 4 18 3 19 2 20 1 21 86 22 87 23
REMARK SMILES IDX 19 24 20 25 21 26 22 27 23 28 24 29 82 30 25 31 81 32 26 33
REMARK SMILES IDX 27 34 28 35 75 36 29 37 80 38 74 39 76 40 30 41 79 42 73 43
REMARK SMILES IDX 72 44 31 46 61 47 42 48 60 49 43 50 46 51 59 52 77 53 44 54
REMARK SMILES IDX 45 55 58 57 78 58 47 59 32 60 33 61 41 62 34 63 40 64 35 65
REMARK SMILES IDX 36 66 37 67 38 68 39 69 62 70 63 71 71 72 64 73 70 74 65 75
REMARK SMILES IDX 66 76 67 77 68 78 69 79 48 80 49 81 57 82 50 83 56 84 51 85
REMARK SMILES IDX 52 86 53 87 54 88 55 89
REMARK H PARENT 76 45 46 56
REMARK Flexibility Score: inf
ROOT
ATOM      1  C   UNL A   1      34.600  32.953  29.652  1.00  0.00     0.275 C 
ENDROOT
BRANCH   1   2
ATOM      2  O   UNL A   1      35.454  32.453  30.704  1.00  0.00    -0.458 OA
BRANCH   2   3
ATOM      3  C   UNL A   1      34.976  32.528  31.980  1.00  0.00     0.350 C 
ATOM      4  O   UNL A   1      33.799  32.756  32.246  1.00  0.00    -0.245 OA
BRANCH   3   5
ATOM      5  C   UNL A   1      36.013  32.230  32.950  1.00  0.00     0.135 A 
ATOM      6  C   UNL A   1      38.020  31.302  33.984  1.00  0.00     0.124 A 
ATOM      7  N   UNL A   1      37.568  32.309  34.703  1.00  0.00    -0.240 NA
ATOM      8  S   UNL A   1      36.973  30.807  32.728  1.00  0.00    -0.106 S 
ATOM      9  C   UNL A   1      36.429  32.861  34.115  1.00  0.00     0.064 A 
ATOM     10  C   UNL A   1      35.813  34.014  34.824  1.00  0.00     0.068 C 
BRANCH   6  11
ATOM     11  C   UNL A   1      39.275  30.588  34.232  1.00  0.00     0.014 A 
ATOM     12  C   UNL A   1      41.535  29.030  34.854  1.00  0.00     0.161 A 
ATOM     13  C   UNL A   1      40.773  28.754  33.710  1.00  0.00     0.051 A 
ATOM     14  C   UNL A   1      41.248  30.162  35.626  1.00  0.00     0.161 A 
ATOM     15  C   UNL A   1      39.644  29.519  33.409  1.00  0.00     0.015 A 
ATOM     16  C   UNL A   1      40.098  30.909  35.326  1.00  0.00     0.061 A 
BRANCH  12  17
ATOM     17  O   UNL A   1      42.549  28.179  35.198  1.00  0.00    -0.490 OA
BRANCH  17  18
ATOM     18  C   UNL A   1      43.577  28.082  34.198  1.00  0.00     0.230 C 
BRANCH  18  19
ATOM     19  C   UNL A   1      44.406  26.796  34.325  1.00  0.00     0.041 C 
BRANCH  19  20
ATOM     20  C   UNL A   1      43.751  25.514  33.799  1.00  0.00     0.000 C 
ATOM     21  C   UNL A   1      44.683  24.620  32.999  1.00  0.00     0.004 C 
ENDBRANCH  19  20
ENDBRANCH  18  19
ENDBRANCH  17  18
ENDBRANCH  12  17
BRANCH  14  22
ATOM     22  O   UNL A   1      41.900  30.591  36.752  1.00  0.00    -0.493 OA
ATOM     23  C   UNL A   1      41.790  31.962  37.117  1.00  0.00     0.278 C 
ENDBRANCH  14  22
ENDBRANCH   6  11
ENDBRANCH   3   5
ENDBRANCH   2   3
ENDBRANCH   1   2
BRANCH   1  24
ATOM     24  C   UNL A   1      34.862  32.251  28.314  1.00  0.00     0.275 C 
BRANCH  24  25
ATOM     25  O   UNL A   1      34.036  31.084  28.156  1.00  0.00    -0.458 OA
BRANCH  25  26
ATOM     26  C   UNL A   1      34.642  30.048  27.531  1.00  0.00     0.338 C 
ATOM     27  O   UNL A   1      34.233  29.438  26.558  1.00  0.00    -0.246 OA
BRANCH  26  28
ATOM     28  C   UNL A   1      35.987  29.847  28.086  1.00  0.00     0.060 A 
ATOM     29  C   UNL A   1      37.057  30.057  27.221  1.00  0.00     0.016 A 
ATOM     30  C   UNL A   1      36.207  29.351  29.368  1.00  0.00     0.016 A 
ATOM     31  C   UNL A   1      38.350  29.727  27.595  1.00  0.00     0.010 A 
ATOM     32  C   UNL A   1      37.519  29.061  29.768  1.00  0.00     0.010 A 
ATOM     33  C   UNL A   1      38.599  29.227  28.878  1.00  0.00    -0.014 A 
BRANCH  33  34
ATOM     34  C   UNL A   1      39.984  28.843  29.252  1.00  0.00     0.031 A 
ATOM     35  C   UNL A   1      40.845  29.798  30.032  1.00  0.00     0.074 A 
ATOM     36  C   UNL A   1      40.453  27.621  28.927  1.00  0.00     0.049 A 
ATOM     37  N   UNL A   1      42.105  29.688  30.369  1.00  0.00    -0.248 NA
ATOM     38  C   UNL A   1      40.209  31.046  30.485  1.00  0.00     0.031 C 
ATOM     39  C   UNL A   1      39.694  26.580  28.230  1.00  0.00     0.029 A 
ATOM     40  N   UNL A   1      41.680  27.044  29.147  1.00  0.00    -0.354 N 
ATOM     41  C   UNL A   1      42.422  30.864  31.041  1.00  0.00     0.074 A 
ATOM     42  C   UNL A   1      41.229  31.682  31.046  1.00  0.00     0.031 C 
ATOM     43  C   UNL A   1      40.462  25.488  28.100  1.00  0.00     0.029 A 
ATOM     44  C   UNL A   1      41.789  25.773  28.632  1.00  0.00     0.049 A 
ATOM     45  H   UNL A   1      42.410  27.497  29.627  1.00  0.00     0.167 HD
ATOM     46  C   UNL A   1      43.602  31.226  31.601  1.00  0.00     0.031 A 
ATOM     47  C   UNL A   1      42.848  24.944  28.560  1.00  0.00     0.031 A 
ATOM     48  C   UNL A   1      44.779  30.396  31.601  1.00  0.00     0.049 A 
ATOM     49  C   UNL A   1      44.166  25.398  29.124  1.00  0.00     0.074 A 
ATOM     50  C   UNL A   1      46.022  30.665  32.149  1.00  0.00     0.029 A 
ATOM     51  N   UNL A   1      44.862  29.134  31.027  1.00  0.00    -0.354 N 
ATOM     52  N   UNL A   1      44.456  26.522  29.738  1.00  0.00    -0.248 NA
ATOM     53  C   UNL A   1      45.300  24.475  28.984  1.00  0.00     0.031 C 
ATOM     54  C   UNL A   1      46.872  29.595  31.851  1.00  0.00     0.029 A 
ATOM     55  C   UNL A   1      46.140  28.626  31.183  1.00  0.00     0.049 A 
ATOM     56  H   UNL A   1      44.119  28.670  30.576  1.00  0.00     0.167 HD
ATOM     57  C   UNL A   1      45.800  26.428  30.082  1.00  0.00     0.074 A 
ATOM     58  C   UNL A   1      46.260  25.133  29.622  1.00  0.00     0.031 C 
ATOM     59  C   UNL A   1      46.582  27.333  30.721  1.00  0.00     0.031 A 
BRANCH  46  60
ATOM     60  C   UNL A   1      43.694  32.599  32.219  1.00  0.00    -0.014 A 
ATOM     61  C   UNL A   1      43.401  32.819  33.578  1.00  0.00     0.010 A 
ATOM     62  C   UNL A   1      44.119  33.684  31.429  1.00  0.00     0.010 A 
ATOM     63  C   UNL A   1      43.493  34.104  34.122  1.00  0.00     0.020 A 
ATOM     64  C   UNL A   1      44.243  34.963  31.978  1.00  0.00     0.020 A 
ATOM     65  C   UNL A   1      43.913  35.169  33.318  1.00  0.00     0.054 A 
BRANCH  65  66
ATOM     66  S   UNL A   1      44.044  36.820  34.057  1.00  0.00     0.124 S 
ATOM     67  O   UNL A   1      43.385  36.627  35.347  1.00  0.00    -0.237 OA
ATOM     68  O   UNL A   1      45.488  37.030  34.114  1.00  0.00    -0.237 OA
ATOM     69  O   UNL A   1      43.329  37.680  33.118  1.00  0.00    -0.744 OA
ENDBRANCH  65  66
ENDBRANCH  46  60
BRANCH  47  70
ATOM     70  C   UNL A   1      42.712  23.619  27.889  1.00  0.00    -0.014 A 
ATOM     71  C   UNL A   1      43.026  23.465  26.528  1.00  0.00     0.010 A 
ATOM     72  C   UNL A   1      42.274  22.498  28.619  1.00  0.00     0.010 A 
ATOM     73  C   UNL A   1      42.887  22.220  25.906  1.00  0.00     0.020 A 
ATOM     74  C   UNL A   1      42.167  21.245  28.011  1.00  0.00     0.020 A 
ATOM     75  C   UNL A   1      42.461  21.117  26.653  1.00  0.00     0.054 A 
BRANCH  75  76
ATOM     76  S   UNL A   1      42.333  19.503  25.835  1.00  0.00     0.124 S 
ATOM     77  O   UNL A   1      43.335  19.616  24.781  1.00  0.00    -0.237 OA
ATOM     78  O   UNL A   1      42.655  18.575  26.918  1.00  0.00    -0.237 OA
ATOM     79  O   UNL A   1      40.946  19.459  25.379  1.00  0.00    -0.744 OA
ENDBRANCH  75  76
ENDBRANCH  47  70
BRANCH  59  80
ATOM     80  C   UNL A   1      48.008  26.937  31.005  1.00  0.00    -0.014 A 
ATOM     81  C   UNL A   1      49.053  27.279  30.128  1.00  0.00     0.010 A 
ATOM     82  C   UNL A   1      48.310  26.255  32.197  1.00  0.00     0.010 A 
ATOM     83  C   UNL A   1      50.370  26.918  30.425  1.00  0.00     0.020 A 
ATOM     84  C   UNL A   1      49.628  25.921  32.514  1.00  0.00     0.020 A 
ATOM     85  C   UNL A   1      50.649  26.242  31.618  1.00  0.00     0.054 A 
BRANCH  85  86
ATOM     86  S   UNL A   1      52.372  25.825  32.001  1.00  0.00     0.124 S 
ATOM     87  O   UNL A   1      52.258  24.438  32.445  1.00  0.00    -0.237 OA
ATOM     88  O   UNL A   1      53.041  26.022  30.717  1.00  0.00    -0.237 OA
ATOM     89  O   UNL A   1      52.738  26.784  33.041  1.00  0.00    -0.744 OA
ENDBRANCH  85  86
ENDBRANCH  59  80
ENDBRANCH  33  34
ENDBRANCH  26  28
ENDBRANCH  25  26
ENDBRANCH  24  25
ENDBRANCH   1  24
TORSDOF 20
ENDMDL
MODEL 2
REMARK VINA RESULT:      -8.4      0.808      8.221
REMARK SMILES CCCCOc1ccc(-c2nc(C)c(C(=O)OCCOC(=O)c3ccc(-c4c5nc(c(-c6ccc(S(=O)(=O)[O-])cc6)c6ccc([nH]6)c(-c6ccc(S(=O)(=O)[O-])cc6)c6nc(c(-c7ccc(S(=O)(=O)[O-])cc7)c7ccc4[nH]7)C=C6)C=C5)cc3)s2)cc1OC
REMARK SMILES IDX 18 1 17 2 15 3 16 4 14 5 10 6 11 7 83 8 12 9 13 10 9 11 6 12
REMARK SMILES IDX 7 13 85 14 8 15 84 16 5 17 4 18 3 19 2 20 1 21 86 22 87 23
REMARK SMILES IDX 19 24 20 25 21 26 22 27 23 28 24 29 82 30 25 31 81 32 26 33
REMARK SMILES IDX 27 34 28 35 75 36 29 37 80 38 74 39 76 40 30 41 79 42 73 43
REMARK SMILES IDX 72 44 31 46 61 47 42 48 60 49 43 50 46 51 59 52 77 53 44 54
REMARK SMILES IDX 45 55 58 57 78 58 47 59 32 60 33 61 41 62 34 63 40 64 35 65
REMARK SMILES IDX 36 66 37 67 38 68 39 69 62 70 63 71 71 72 64 73 70 74 65 75
REMARK SMILES IDX 66 76 67 77 68 78 69 79 48 80 49 81 57 82 50 83 56 84 51 85
REMARK SMILES IDX 52 86 53 87 54 88 55 89
REMARK H PARENT 76 45 46 56
REMARK Flexibility Score: inf
ROOT
ATOM      1  C   UNL A   1      34.729  33.320  29.718  1.00  0.00     0.275 C 
ENDROOT
BRANCH   1   2
ATOM      2  O   UNL A   1      35.490  32.608  30.718  1.00  0.00    -0.458 OA
BRANCH   2   3
ATOM      3  C   UNL A   1      34.987  32.591  31.987  1.00  0.00     0.350 C 
ATOM      4  O   UNL A   1      33.800  32.777  32.243  1.00  0.00    -0.245 OA
BRANCH   3   5
ATOM      5  C   UNL A   1      36.012  32.255  32.957  1.00  0.00     0.135 A 
ATOM      6  C   UNL A   1      38.002  31.281  33.980  1.00  0.00     0.124 A 
ATOM      7  N   UNL A   1      37.551  32.269  34.725  1.00  0.00    -0.240 NA
ATOM      8  S   UNL A   1      36.963  30.833  32.700  1.00  0.00    -0.106 S 
ATOM      9  C   UNL A   1      36.421  32.847  34.144  1.00  0.00     0.064 A 
ATOM     10  C   UNL A   1      35.807  33.983  34.882  1.00  0.00     0.068 C 
BRANCH   6  11
ATOM     11  C   UNL A   1      39.249  30.549  34.218  1.00  0.00     0.014 A 
ATOM     12  C   UNL A   1      41.487  28.939  34.781  1.00  0.00     0.161 A 
ATOM     13  C   UNL A   1      40.814  28.819  33.557  1.00  0.00     0.051 A 
ATOM     14  C   UNL A   1      41.126  29.950  35.679  1.00  0.00     0.161 A 
ATOM     15  C   UNL A   1      39.695  29.609  33.284  1.00  0.00     0.015 A 
ATOM     16  C   UNL A   1      39.986  30.722  35.402  1.00  0.00     0.061 A 
BRANCH  12  17
ATOM     17  O   UNL A   1      42.490  28.057  35.077  1.00  0.00    -0.490 OA
BRANCH  17  18
ATOM     18  C   UNL A   1      42.244  26.728  34.587  1.00  0.00     0.230 C 
BRANCH  18  19
ATOM     19  C   UNL A   1      43.312  25.723  35.041  1.00  0.00     0.041 C 
BRANCH  19  20
ATOM     20  C   UNL A   1      44.080  25.002  33.928  1.00  0.00     0.000 C 
ATOM     21  C   UNL A   1      43.957  23.488  33.966  1.00  0.00     0.004 C 
ENDBRANCH  19  20
ENDBRANCH  18  19
ENDBRANCH  17  18
ENDBRANCH  12  17
BRANCH  14  22
ATOM     22  O   UNL A   1      41.689  30.224  36.898  1.00  0.00    -0.493 OA
ATOM     23  C   UNL A   1      42.820  31.087  36.942  1.00  0.00     0.278 C 
ENDBRANCH  14  22
ENDBRANCH   6  11
ENDBRANCH   3   5
ENDBRANCH   2   3
ENDBRANCH   1   2
BRANCH   1  24
ATOM     24  C   UNL A   1      34.682  32.565  28.384  1.00  0.00     0.275 C 
BRANCH  24  25
ATOM     25  O   UNL A   1      34.044  31.283  28.521  1.00  0.00    -0.458 OA
BRANCH  25  26
ATOM     26  C   UNL A   1      34.428  30.364  27.605  1.00  0.00     0.338 C 
ATOM     27  O   UNL A   1      33.819  30.029  26.603  1.00  0.00    -0.246 OA
BRANCH  26  28
ATOM     28  C   UNL A   1      35.801  29.924  27.883  1.00  0.00     0.060 A 
ATOM     29  C   UNL A   1      36.060  29.461  29.170  1.00  0.00     0.016 A 
ATOM     30  C   UNL A   1      36.839  30.068  26.966  1.00  0.00     0.016 A 
ATOM     31  C   UNL A   1      37.356  29.187  29.580  1.00  0.00     0.010 A 
ATOM     32  C   UNL A   1      38.145  29.746  27.362  1.00  0.00     0.010 A 
ATOM     33  C   UNL A   1      38.417  29.324  28.679  1.00  0.00    -0.014 A 
BRANCH  33  34
ATOM     34  C   UNL A   1      39.803  29.063  29.144  1.00  0.00     0.031 A 
ATOM     35  C   UNL A   1      40.480  27.764  28.801  1.00  0.00     0.074 A 
ATOM     36  C   UNL A   1      40.467  30.009  29.838  1.00  0.00     0.049 A 
ATOM     37  N   UNL A   1      41.645  27.311  29.192  1.00  0.00    -0.248 NA
ATOM     38  C   UNL A   1      39.749  26.851  27.907  1.00  0.00     0.031 C 
ATOM     39  C   UNL A   1      39.945  31.335  30.177  1.00  0.00     0.029 A 
ATOM     40  N   UNL A   1      41.731  30.004  30.378  1.00  0.00    -0.354 N 
ATOM     41  C   UNL A   1      41.770  26.048  28.623  1.00  0.00     0.074 A 
ATOM     42  C   UNL A   1      40.556  25.798  27.878  1.00  0.00     0.031 C 
ATOM     43  C   UNL A   1      40.884  32.021  30.845  1.00  0.00     0.029 A 
ATOM     44  C   UNL A   1      42.045  31.162  31.050  1.00  0.00     0.049 A 
ATOM     45  H   UNL A   1      42.350  29.245  30.291  1.00  0.00     0.167 HD
ATOM     46  C   UNL A   1      42.805  25.178  28.717  1.00  0.00     0.031 A 
ATOM     47  C   UNL A   1      43.127  31.484  31.784  1.00  0.00     0.031 A 
ATOM     48  C   UNL A   1      44.014  25.445  29.453  1.00  0.00     0.049 A 
ATOM     49  C   UNL A   1      44.230  30.473  31.934  1.00  0.00     0.074 A 
ATOM     50  C   UNL A   1      45.127  24.634  29.603  1.00  0.00     0.029 A 
ATOM     51  N   UNL A   1      44.273  26.611  30.159  1.00  0.00    -0.354 N 
ATOM     52  N   UNL A   1      44.326  29.274  31.407  1.00  0.00    -0.248 NA
ATOM     53  C   UNL A   1      45.370  30.856  32.777  1.00  0.00     0.031 C 
ATOM     54  C   UNL A   1      46.029  25.283  30.451  1.00  0.00     0.029 A 
ATOM     55  C   UNL A   1      45.513  26.529  30.770  1.00  0.00     0.049 A 
ATOM     56  H   UNL A   1      43.664  27.383  30.217  1.00  0.00     0.167 HD
ATOM     57  C   UNL A   1      45.550  28.771  31.835  1.00  0.00     0.074 A 
ATOM     58  C   UNL A   1      46.164  29.801  32.648  1.00  0.00     0.031 C 
ATOM     59  C   UNL A   1      46.113  27.565  31.576  1.00  0.00     0.031 A 
BRANCH  46  60
ATOM     60  C   UNL A   1      42.655  23.834  28.048  1.00  0.00    -0.014 A 
ATOM     61  C   UNL A   1      43.248  23.559  26.802  1.00  0.00     0.010 A 
ATOM     62  C   UNL A   1      41.936  22.815  28.700  1.00  0.00     0.010 A 
ATOM     63  C   UNL A   1      43.090  22.304  26.205  1.00  0.00     0.020 A 
ATOM     64  C   UNL A   1      41.803  21.550  28.122  1.00  0.00     0.020 A 
ATOM     65  C   UNL A   1      42.367  21.307  26.869  1.00  0.00     0.054 A 
BRANCH  65  66
ATOM     66  S   UNL A   1      42.197  19.683  26.080  1.00  0.00     0.124 S 
ATOM     67  O   UNL A   1      40.764  19.633  25.798  1.00  0.00    -0.237 OA
ATOM     68  O   UNL A   1      43.063  19.803  24.910  1.00  0.00    -0.237 OA
ATOM     69  O   UNL A   1      42.661  18.749  27.102  1.00  0.00    -0.744 OA
ENDBRANCH  65  66
ENDBRANCH  46  60
BRANCH  47  70
ATOM     70  C   UNL A   1      43.197  32.807  32.468  1.00  0.00    -0.014 A 
ATOM     71  C   UNL A   1      42.697  32.973  33.771  1.00  0.00     0.010 A 
ATOM     72  C   UNL A   1      43.776  33.912  31.815  1.00  0.00     0.010 A 
ATOM     73  C   UNL A   1      42.759  34.220  34.400  1.00  0.00     0.020 A 
ATOM     74  C   UNL A   1      43.872  35.151  32.452  1.00  0.00     0.020 A 
ATOM     75  C   UNL A   1      43.350  35.301  33.738  1.00  0.00     0.054 A 
BRANCH  75  76
ATOM     76  S   UNL A   1      43.460  36.897  34.592  1.00  0.00     0.124 S 
ATOM     77  O   UNL A   1      44.901  37.045  34.773  1.00  0.00    -0.237 OA
ATOM     78  O   UNL A   1      42.846  37.811  33.631  1.00  0.00    -0.237 OA
ATOM     79  O   UNL A   1      42.694  36.685  35.817  1.00  0.00    -0.744 OA
ENDBRANCH  75  76
ENDBRANCH  47  70
BRANCH  59  80
ATOM     80  C   UNL A   1      47.486  27.307  32.140  1.00  0.00    -0.014 A 
ATOM     81  C   UNL A   1      48.648  27.683  31.443  1.00  0.00     0.010 A 
ATOM     82  C   UNL A   1      47.610  26.724  33.414  1.00  0.00     0.010 A 
ATOM     83  C   UNL A   1      49.909  27.451  31.997  1.00  0.00     0.020 A 
ATOM     84  C   UNL A   1      48.868  26.520  33.985  1.00  0.00     0.020 A 
ATOM     85  C   UNL A   1      50.011  26.872  33.267  1.00  0.00     0.054 A 
BRANCH  85  86
ATOM     86  S   UNL A   1      51.659  26.623  33.982  1.00  0.00     0.124 S 
ATOM     87  O   UNL A   1      52.249  25.656  33.061  1.00  0.00    -0.237 OA
ATOM     88  O   UNL A   1      52.233  27.966  33.937  1.00  0.00    -0.237 OA
ATOM     89  O   UNL A   1      51.381  26.116  35.324  1.00  0.00    -0.744 OA
ENDBRANCH  85  86
ENDBRANCH  59  80
ENDBRANCH  33  34
ENDBRANCH  26  28
ENDBRANCH  25  26
ENDBRANCH  24  25
ENDBRANCH   1  24
TORSDOF 20
ENDMDL
MODEL 3
REMARK VINA RESULT:      -8.4      5.148     11.465
REMARK SMILES CCCCOc1ccc(-c2nc(C)c(C(=O)OCCOC(=O)c3ccc(-c4c5nc(c(-c6ccc(S(=O)(=O)[O-])cc6)c6ccc([nH]6)c(-c6ccc(S(=O)(=O)[O-])cc6)c6nc(c(-c7ccc(S(=O)(=O)[O-])cc7)c7ccc4[nH]7)C=C6)C=C5)cc3)s2)cc1OC
REMARK SMILES IDX 18 1 17 2 15 3 16 4 14 5 10 6 11 7 83 8 12 9 13 10 9 11 6 12
REMARK SMILES IDX 7 13 85 14 8 15 84 16 5 17 4 18 3 19 2 20 1 21 86 22 87 23
REMARK SMILES IDX 19 24 20 25 21 26 22 27 23 28 24 29 82 30 25 31 81 32 26 33
REMARK SMILES IDX 27 34 28 35 75 36 29 37 80 38 74 39 76 40 30 41 79 42 73 43
REMARK SMILES IDX 72 44 31 46 61 47 42 48 60 49 43 50 46 51 59 52 77 53 44 54
REMARK SMILES IDX 45 55 58 57 78 58 47 59 32 60 33 61 41 62 34 63 40 64 35 65
REMARK SMILES IDX 36 66 37 67 38 68 39 69 62 70 63 71 71 72 64 73 70 74 65 75
REMARK SMILES IDX 66 76 67 77 68 78 69 79 48 80 49 81 57 82 50 83 56 84 51 85
REMARK SMILES IDX 52 86 53 87 54 88 55 89
REMARK H PARENT 76 45 46 56
REMARK Flexibility Score: inf
ROOT
ATOM      1  C   UNL A   1      41.838  20.126  27.155  1.00  0.00     0.275 C 
ENDROOT
BRANCH   1   2
ATOM      2  O   UNL A   1      41.430  21.361  26.527  1.00  0.00    -0.458 OA
BRANCH   2   3
ATOM      3  C   UNL A   1      40.913  22.329  27.337  1.00  0.00     0.350 C 
ATOM      4  O   UNL A   1      41.489  22.749  28.338  1.00  0.00    -0.245 OA
BRANCH   3   5
ATOM      5  C   UNL A   1      39.656  22.836  26.819  1.00  0.00     0.135 A 
ATOM      6  C   UNL A   1      37.415  22.924  25.857  1.00  0.00     0.124 A 
ATOM      7  N   UNL A   1      37.723  24.090  26.387  1.00  0.00    -0.240 NA
ATOM      8  S   UNL A   1      38.714  21.817  25.784  1.00  0.00    -0.106 S 
ATOM      9  C   UNL A   1      38.997  24.050  26.956  1.00  0.00     0.064 A 
ATOM     10  C   UNL A   1      39.473  25.305  27.596  1.00  0.00     0.068 C 
BRANCH   6  11
ATOM     11  C   UNL A   1      36.104  22.572  25.303  1.00  0.00     0.014 A 
ATOM     12  C   UNL A   1      33.717  21.686  24.106  1.00  0.00     0.161 A 
ATOM     13  C   UNL A   1      34.139  21.153  25.331  1.00  0.00     0.051 A 
ATOM     14  C   UNL A   1      34.418  22.754  23.532  1.00  0.00     0.161 A 
ATOM     15  C   UNL A   1      35.331  21.583  25.918  1.00  0.00     0.015 A 
ATOM     16  C   UNL A   1      35.625  23.162  24.121  1.00  0.00     0.061 A 
BRANCH  12  17
ATOM     17  O   UNL A   1      32.623  21.146  23.487  1.00  0.00    -0.490 OA
BRANCH  17  18
ATOM     18  C   UNL A   1      32.233  19.872  24.027  1.00  0.00     0.230 C 
BRANCH  18  19
ATOM     19  C   UNL A   1      32.524  18.710  23.067  1.00  0.00     0.041 C 
BRANCH  19  20
ATOM     20  C   UNL A   1      32.907  17.375  23.716  1.00  0.00     0.000 C 
ATOM     21  C   UNL A   1      34.150  16.729  23.129  1.00  0.00     0.004 C 
ENDBRANCH  19  20
ENDBRANCH  18  19
ENDBRANCH  17  18
ENDBRANCH  12  17
BRANCH  14  22
ATOM     22  O   UNL A   1      34.132  23.407  22.361  1.00  0.00    -0.493 OA
ATOM     23  C   UNL A   1      33.135  24.421  22.379  1.00  0.00     0.278 C 
ENDBRANCH  14  22
ENDBRANCH   6  11
ENDBRANCH   3   5
ENDBRANCH   2   3
ENDBRANCH   1   2
BRANCH   1  24
ATOM     24  C   UNL A   1      42.673  19.249  26.215  1.00  0.00     0.275 C 
BRANCH  24  25
ATOM     25  O   UNL A   1      43.004  19.940  24.997  1.00  0.00    -0.458 OA
BRANCH  25  26
ATOM     26  C   UNL A   1      44.328  19.997  24.726  1.00  0.00     0.338 C 
ATOM     27  O   UNL A   1      45.014  19.119  24.232  1.00  0.00    -0.246 OA
BRANCH  26  28
ATOM     28  C   UNL A   1      44.826  21.361  24.951  1.00  0.00     0.060 A 
ATOM     29  C   UNL A   1      45.315  21.645  26.223  1.00  0.00     0.016 A 
ATOM     30  C   UNL A   1      44.712  22.371  24.000  1.00  0.00     0.016 A 
ATOM     31  C   UNL A   1      45.645  22.942  26.585  1.00  0.00     0.010 A 
ATOM     32  C   UNL A   1      45.090  23.676  24.348  1.00  0.00     0.010 A 
ATOM     33  C   UNL A   1      45.540  23.976  25.649  1.00  0.00    -0.014 A 
BRANCH  33  34
ATOM     34  C   UNL A   1      45.861  25.366  26.063  1.00  0.00     0.031 A 
ATOM     35  C   UNL A   1      44.778  26.261  26.598  1.00  0.00     0.074 A 
ATOM     36  C   UNL A   1      47.133  25.808  25.997  1.00  0.00     0.049 A 
ATOM     37  N   UNL A   1      44.838  27.529  26.921  1.00  0.00    -0.248 NA
ATOM     38  C   UNL A   1      43.450  25.656  26.788  1.00  0.00     0.031 C 
ATOM     39  C   UNL A   1      48.285  25.015  25.559  1.00  0.00     0.029 A 
ATOM     40  N   UNL A   1      47.674  27.032  26.306  1.00  0.00    -0.354 N 
ATOM     41  C   UNL A   1      43.552  27.880  27.316  1.00  0.00     0.074 A 
ATOM     42  C   UNL A   1      42.729  26.699  27.174  1.00  0.00     0.031 C 
ATOM     43  C   UNL A   1      49.394  25.764  25.648  1.00  0.00     0.029 A 
ATOM     44  C   UNL A   1      49.028  27.109  26.074  1.00  0.00     0.049 A 
ATOM     45  H   UNL A   1      47.143  27.782  26.660  1.00  0.00     0.167 HD
ATOM     46  C   UNL A   1      43.101  29.081  27.757  1.00  0.00     0.031 A 
ATOM     47  C   UNL A   1      49.873  28.154  26.156  1.00  0.00     0.031 A 
ATOM     48  C   UNL A   1      43.935  30.246  27.906  1.00  0.00     0.049 A 
ATOM     49  C   UNL A   1      49.335  29.493  26.577  1.00  0.00     0.074 A 
ATOM     50  C   UNL A   1      43.580  31.507  28.353  1.00  0.00     0.029 A 
ATOM     51  N   UNL A   1      45.292  30.294  27.615  1.00  0.00    -0.354 N 
ATOM     52  N   UNL A   1      48.112  29.816  26.928  1.00  0.00    -0.248 NA
ATOM     53  C   UNL A   1      50.288  30.610  26.611  1.00  0.00     0.031 C 
ATOM     54  C   UNL A   1      44.705  32.333  28.272  1.00  0.00     0.029 A 
ATOM     55  C   UNL A   1      45.780  31.569  27.846  1.00  0.00     0.049 A 
ATOM     56  H   UNL A   1      45.828  29.533  27.293  1.00  0.00     0.167 HD
ATOM     57  C   UNL A   1      48.156  31.168  27.251  1.00  0.00     0.074 A 
ATOM     58  C   UNL A   1      49.529  31.596  27.070  1.00  0.00     0.031 C 
ATOM     59  C   UNL A   1      47.151  31.980  27.661  1.00  0.00     0.031 A 
BRANCH  46  60
ATOM     60  C   UNL A   1      41.630  29.209  28.063  1.00  0.00    -0.014 A 
ATOM     61  C   UNL A   1      41.164  29.423  29.373  1.00  0.00     0.010 A 
ATOM     62  C   UNL A   1      40.699  29.151  27.009  1.00  0.00     0.010 A 
ATOM     63  C   UNL A   1      39.792  29.536  29.626  1.00  0.00     0.020 A 
ATOM     64  C   UNL A   1      39.331  29.295  27.254  1.00  0.00     0.020 A 
ATOM     65  C   UNL A   1      38.884  29.470  28.565  1.00  0.00     0.054 A 
BRANCH  65  66
ATOM     66  S   UNL A   1      37.115  29.641  28.920  1.00  0.00     0.124 S 
ATOM     67  O   UNL A   1      36.509  28.965  27.775  1.00  0.00    -0.237 OA
ATOM     68  O   UNL A   1      36.977  28.952  30.201  1.00  0.00    -0.237 OA
ATOM     69  O   UNL A   1      36.906  31.086  28.969  1.00  0.00    -0.744 OA
ENDBRANCH  65  66
ENDBRANCH  46  60
BRANCH  47  70
ATOM     70  C   UNL A   1      51.308  27.981  25.789  1.00  0.00    -0.014 A 
ATOM     71  C   UNL A   1      52.262  27.626  26.758  1.00  0.00     0.010 A 
ATOM     72  C   UNL A   1      51.725  28.165  24.457  1.00  0.00     0.010 A 
ATOM     73  C   UNL A   1      53.607  27.474  26.406  1.00  0.00     0.020 A 
ATOM     74  C   UNL A   1      53.062  27.981  24.094  1.00  0.00     0.020 A 
ATOM     75  C   UNL A   1      53.998  27.649  25.074  1.00  0.00     0.054 A 
BRANCH  75  76
ATOM     76  S   UNL A   1      55.739  27.402  24.633  1.00  0.00     0.124 S 
ATOM     77  O   UNL A   1      56.234  28.774  24.569  1.00  0.00    -0.237 OA
ATOM     78  O   UNL A   1      56.237  26.601  25.749  1.00  0.00    -0.237 OA
ATOM     79  O   UNL A   1      55.673  26.701  23.353  1.00  0.00    -0.744 OA
ENDBRANCH  75  76
ENDBRANCH  47  70
BRANCH  59  80
ATOM     80  C   UNL A   1      47.504  33.408  27.989  1.00  0.00    -0.014 A 
ATOM     81  C   UNL A   1      47.417  34.426  27.023  1.00  0.00     0.010 A 
ATOM     82  C   UNL A   1      47.881  33.741  29.303  1.00  0.00     0.010 A 
ATOM     83  C   UNL A   1      47.731  35.745  27.358  1.00  0.00     0.020 A 
ATOM     84  C   UNL A   1      48.164  35.063  29.650  1.00  0.00     0.020 A 
ATOM     85  C   UNL A   1      48.101  36.056  28.671  1.00  0.00     0.054 A 
BRANCH  85  86
ATOM     86  S   UNL A   1      48.460  37.784  29.091  1.00  0.00     0.124 S 
ATOM     87  O   UNL A   1      47.446  38.501  28.323  1.00  0.00    -0.237 OA
ATOM     88  O   UNL A   1      48.282  37.803  30.541  1.00  0.00    -0.237 OA
ATOM     89  O   UNL A   1      49.835  37.973  28.636  1.00  0.00    -0.744 OA
ENDBRANCH  85  86
ENDBRANCH  59  80
ENDBRANCH  33  34
ENDBRANCH  26  28
ENDBRANCH  25  26
ENDBRANCH  24  25
ENDBRANCH   1  24
TORSDOF 20
ENDMDL
