MODEL 1
REMARK VINA RESULT:     -10.5      0.000      0.000
REMARK SMILES CC(C)[C@@H](CNC(=O)NC[C@@]1(C)CCCO1)C(=O)OCCOC(=O)c1ccc(-c2c3nc(c(-c4ccc(S(=O)(=O)[O-])cc4)c4ccc([nH]4)c(-c4ccc(S(=O)(=O)[O-])cc4)c4nc(c(-c5ccc(S(=O)(=O)[O-])cc5)c5ccc2[nH]5)C=C4)C=C3)cc1
REMARK SMILES IDX 20 1 19 2 17 3 18 4 4 5 2 6 1 7 3 8 5 9 6 10 7 11 8 13 9 14
REMARK SMILES IDX 10 16 11 17 12 18 13 19 16 20 14 21 15 22 21 23 22 24 23 25
REMARK SMILES IDX 24 26 25 27 26 28 84 29 27 30 83 31 28 32 29 33 30 34 77 35
REMARK SMILES IDX 31 36 82 37 76 38 78 39 32 40 81 41 75 42 74 43 33 45 63 46
REMARK SMILES IDX 44 47 62 48 45 49 48 50 61 51 79 52 46 53 47 54 60 56 80 57
REMARK SMILES IDX 49 58 34 59 35 60 43 61 36 62 42 63 37 64 38 65 39 66 40 67
REMARK SMILES IDX 41 68 64 69 65 70 73 71 66 72 72 73 67 74 68 75 69 76 70 77
REMARK SMILES IDX 71 78 50 79 51 80 59 81 52 82 58 83 53 84 54 85 55 86 56 87
REMARK SMILES IDX 57 88
REMARK H PARENT 6 12 9 15 78 44 48 55
REMARK Flexibility Score: inf
ROOT
ATOM      1  C   UNL A   1      34.030  29.170  26.368  1.00  0.00     0.274 C 
ENDROOT
BRANCH   1   2
ATOM      2  O   UNL A   1      32.855  28.373  26.614  1.00  0.00    -0.462 OA
BRANCH   2   3
ATOM      3  C   UNL A   1      31.762  28.712  25.880  1.00  0.00     0.311 C 
ATOM      4  O   UNL A   1      31.430  29.863  25.618  1.00  0.00    -0.252 OA
BRANCH   3   5
ATOM      5  C   UNL A   1      30.937  27.515  25.435  1.00  0.00     0.121 C 
BRANCH   5   6
ATOM      6  C   UNL A   1      30.357  27.616  23.996  1.00  0.00    -0.001 C 
ATOM      7  C   UNL A   1      31.446  27.403  22.932  1.00  0.00     0.008 C 
ATOM      8  C   UNL A   1      29.261  26.566  23.746  1.00  0.00     0.008 C 
ENDBRANCH   5   6
BRANCH   5   9
ATOM      9  C   UNL A   1      31.732  26.229  25.733  1.00  0.00     0.133 C 
BRANCH   9  10
ATOM     10  N   UNL A   1      31.034  25.284  26.582  1.00  0.00    -0.337 N 
ATOM     11  C   UNL A   1      30.558  24.045  26.412  1.00  0.00     0.314 C 
ATOM     12  H   UNL A   1      30.873  25.632  27.489  1.00  0.00     0.165 HD
ATOM     13  O   UNL A   1      29.978  23.525  27.370  1.00  0.00    -0.249 OA
ATOM     14  N   UNL A   1      30.634  23.340  25.281  1.00  0.00    -0.335 N 
ATOM     15  H   UNL A   1      30.180  22.469  25.358  1.00  0.00     0.165 HD
BRANCH  14  16
ATOM     16  C   UNL A   1      31.220  23.533  23.957  1.00  0.00     0.152 C 
BRANCH  16  17
ATOM     17  C   UNL A   1      32.474  22.675  23.681  1.00  0.00     0.083 C 
ATOM     18  C   UNL A   1      33.058  23.000  22.299  1.00  0.00     0.044 C 
ATOM     19  C   UNL A   1      33.513  22.864  24.790  1.00  0.00     0.039 C 
ATOM     20  O   UNL A   1      32.155  21.268  23.715  1.00  0.00    -0.373 OA
ATOM     21  C   UNL A   1      34.283  21.566  24.753  1.00  0.00     0.031 C 
ATOM     22  C   UNL A   1      33.222  20.559  24.363  1.00  0.00     0.161 C 
ENDBRANCH  16  17
ENDBRANCH  14  16
ENDBRANCH   9  10
ENDBRANCH   5   9
ENDBRANCH   3   5
ENDBRANCH   2   3
ENDBRANCH   1   2
BRANCH   1  23
ATOM     23  C   UNL A   1      34.414  30.008  27.589  1.00  0.00     0.275 C 
BRANCH  23  24
ATOM     24  O   UNL A   1      35.433  29.338  28.352  1.00  0.00    -0.458 OA
BRANCH  24  25
ATOM     25  C   UNL A   1      36.156  30.107  29.193  1.00  0.00     0.338 C 
ATOM     26  O   UNL A   1      35.732  30.893  30.030  1.00  0.00    -0.246 OA
BRANCH  25  27
ATOM     27  C   UNL A   1      37.590  29.875  28.964  1.00  0.00     0.060 A 
ATOM     28  C   UNL A   1      38.079  29.717  27.664  1.00  0.00     0.016 A 
ATOM     29  C   UNL A   1      38.438  29.711  30.059  1.00  0.00     0.016 A 
ATOM     30  C   UNL A   1      39.413  29.374  27.451  1.00  0.00     0.010 A 
ATOM     31  C   UNL A   1      39.784  29.398  29.846  1.00  0.00     0.010 A 
ATOM     32  C   UNL A   1      40.274  29.205  28.542  1.00  0.00    -0.014 A 
BRANCH  32  33
ATOM     33  C   UNL A   1      41.671  28.762  28.328  1.00  0.00     0.031 A 
ATOM     34  C   UNL A   1      42.790  29.763  28.414  1.00  0.00     0.074 A 
ATOM     35  C   UNL A   1      41.938  27.469  28.062  1.00  0.00     0.049 A 
ATOM     36  N   UNL A   1      44.061  29.605  28.151  1.00  0.00    -0.248 NA
ATOM     37  C   UNL A   1      42.428  31.121  28.851  1.00  0.00     0.031 C 
ATOM     38  C   UNL A   1      40.946  26.395  28.002  1.00  0.00     0.029 A 
ATOM     39  N   UNL A   1      43.127  26.844  27.787  1.00  0.00    -0.354 N 
ATOM     40  C   UNL A   1      44.647  30.847  28.363  1.00  0.00     0.074 A 
ATOM     41  C   UNL A   1      43.591  31.750  28.769  1.00  0.00     0.031 C 
ATOM     42  C   UNL A   1      41.569  25.241  27.711  1.00  0.00     0.029 A 
ATOM     43  C   UNL A   1      42.992  25.503  27.517  1.00  0.00     0.049 A 
ATOM     44  H   UNL A   1      43.994  27.311  27.784  1.00  0.00     0.167 HD
ATOM     45  C   UNL A   1      45.947  31.204  28.224  1.00  0.00     0.031 A 
ATOM     46  C   UNL A   1      43.908  24.595  27.128  1.00  0.00     0.031 A 
ATOM     47  C   UNL A   1      46.994  30.305  27.821  1.00  0.00     0.049 A 
ATOM     48  C   UNL A   1      45.336  25.025  26.937  1.00  0.00     0.074 A 
ATOM     49  C   UNL A   1      48.341  30.572  27.644  1.00  0.00     0.029 A 
ATOM     50  N   UNL A   1      46.812  28.961  27.534  1.00  0.00    -0.354 N 
ATOM     51  N   UNL A   1      45.867  26.211  27.109  1.00  0.00    -0.248 NA
ATOM     52  C   UNL A   1      46.284  23.993  26.495  1.00  0.00     0.031 C 
ATOM     53  C   UNL A   1      48.968  29.395  27.218  1.00  0.00     0.029 A 
ATOM     54  C   UNL A   1      48.018  28.386  27.171  1.00  0.00     0.049 A 
ATOM     55  H   UNL A   1      45.952  28.484  27.582  1.00  0.00     0.167 HD
ATOM     56  C   UNL A   1      47.216  26.066  26.808  1.00  0.00     0.074 A 
ATOM     57  C   UNL A   1      47.421  24.674  26.459  1.00  0.00     0.031 C 
ATOM     58  C   UNL A   1      48.198  27.002  26.819  1.00  0.00     0.031 A 
BRANCH  45  59
ATOM     59  C   UNL A   1      46.292  32.646  28.475  1.00  0.00    -0.014 A 
ATOM     60  C   UNL A   1      46.228  33.601  27.445  1.00  0.00     0.010 A 
ATOM     61  C   UNL A   1      46.676  33.053  29.765  1.00  0.00     0.010 A 
ATOM     62  C   UNL A   1      46.580  34.931  27.693  1.00  0.00     0.020 A 
ATOM     63  C   UNL A   1      47.010  34.385  30.022  1.00  0.00     0.020 A 
ATOM     64  C   UNL A   1      46.978  35.313  28.978  1.00  0.00     0.054 A 
BRANCH  64  65
ATOM     65  S   UNL A   1      47.427  37.045  29.279  1.00  0.00     0.124 S 
ATOM     66  O   UNL A   1      47.553  37.073  30.735  1.00  0.00    -0.237 OA
ATOM     67  O   UNL A   1      48.677  37.190  28.538  1.00  0.00    -0.237 OA
ATOM     68  O   UNL A   1      46.295  37.794  28.737  1.00  0.00    -0.744 OA
ENDBRANCH  64  65
ENDBRANCH  45  59
BRANCH  46  69
ATOM     69  C   UNL A   1      43.489  23.192  26.869  1.00  0.00    -0.014 A 
ATOM     70  C   UNL A   1      43.688  22.610  25.607  1.00  0.00     0.010 A 
ATOM     71  C   UNL A   1      42.917  22.422  27.899  1.00  0.00     0.010 A 
ATOM     72  C   UNL A   1      43.319  21.281  25.376  1.00  0.00     0.020 A 
ATOM     73  C   UNL A   1      42.568  21.088  27.679  1.00  0.00     0.020 A 
ATOM     74  C   UNL A   1      42.766  20.527  26.415  1.00  0.00     0.054 A 
BRANCH  74  75
ATOM     75  S   UNL A   1      42.371  18.780  26.123  1.00  0.00     0.124 S 
ATOM     76  O   UNL A   1      40.966  18.848  25.736  1.00  0.00    -0.237 OA
ATOM     77  O   UNL A   1      43.305  18.416  25.059  1.00  0.00    -0.237 OA
ATOM     78  O   UNL A   1      42.639  18.152  27.415  1.00  0.00    -0.744 OA
ENDBRANCH  74  75
ENDBRANCH  46  69
BRANCH  58  79
ATOM     79  C   UNL A   1      49.584  26.538  26.462  1.00  0.00    -0.014 A 
ATOM     80  C   UNL A   1      50.408  25.919  27.416  1.00  0.00     0.010 A 
ATOM     81  C   UNL A   1      50.054  26.704  25.147  1.00  0.00     0.010 A 
ATOM     82  C   UNL A   1      51.697  25.504  27.071  1.00  0.00     0.020 A 
ATOM     83  C   UNL A   1      51.335  26.273  24.793  1.00  0.00     0.020 A 
ATOM     84  C   UNL A   1      52.155  25.691  25.763  1.00  0.00     0.054 A 
BRANCH  84  85
ATOM     85  S   UNL A   1      53.823  25.128  25.326  1.00  0.00     0.124 S 
ATOM     86  O   UNL A   1      53.982  25.670  23.980  1.00  0.00    -0.237 OA
ATOM     87  O   UNL A   1      54.655  25.746  26.355  1.00  0.00    -0.237 OA
ATOM     88  O   UNL A   1      53.726  23.672  25.406  1.00  0.00    -0.744 OA
ENDBRANCH  84  85
ENDBRANCH  58  79
ENDBRANCH  32  33
ENDBRANCH  25  27
ENDBRANCH  24  25
ENDBRANCH  23  24
ENDBRANCH   1  23
TORSDOF 19
ENDMDL
MODEL 2
REMARK VINA RESULT:     -10.3      3.081      3.805
REMARK SMILES CC(C)[C@@H](CNC(=O)NC[C@@]1(C)CCCO1)C(=O)OCCOC(=O)c1ccc(-c2c3nc(c(-c4ccc(S(=O)(=O)[O-])cc4)c4ccc([nH]4)c(-c4ccc(S(=O)(=O)[O-])cc4)c4nc(c(-c5ccc(S(=O)(=O)[O-])cc5)c5ccc2[nH]5)C=C4)C=C3)cc1
REMARK SMILES IDX 20 1 19 2 17 3 18 4 4 5 2 6 1 7 3 8 5 9 6 10 7 11 8 13 9 14
REMARK SMILES IDX 10 16 11 17 12 18 13 19 16 20 14 21 15 22 21 23 22 24 23 25
REMARK SMILES IDX 24 26 25 27 26 28 84 29 27 30 83 31 28 32 29 33 30 34 77 35
REMARK SMILES IDX 31 36 82 37 76 38 78 39 32 40 81 41 75 42 74 43 33 45 63 46
REMARK SMILES IDX 44 47 62 48 45 49 48 50 61 51 79 52 46 53 47 54 60 56 80 57
REMARK SMILES IDX 49 58 34 59 35 60 43 61 36 62 42 63 37 64 38 65 39 66 40 67
REMARK SMILES IDX 41 68 64 69 65 70 73 71 66 72 72 73 67 74 68 75 69 76 70 77
REMARK SMILES IDX 71 78 50 79 51 80 59 81 52 82 58 83 53 84 54 85 55 86 56 87
REMARK SMILES IDX 57 88
REMARK H PARENT 6 12 9 15 78 44 48 55
REMARK Flexibility Score: inf
ROOT
ATOM      1  C   UNL A   1      33.070  28.107  27.207  1.00  0.00     0.274 C 
ENDROOT
BRANCH   1   2
ATOM      2  O   UNL A   1      32.629  27.248  26.137  1.00  0.00    -0.462 OA
BRANCH   2   3
ATOM      3  C   UNL A   1      31.301  26.958  26.138  1.00  0.00     0.311 C 
ATOM      4  O   UNL A   1      30.600  26.911  27.144  1.00  0.00    -0.252 OA
BRANCH   3   5
ATOM      5  C   UNL A   1      30.749  26.646  24.757  1.00  0.00     0.121 C 
BRANCH   5   6
ATOM      6  C   UNL A   1      31.386  27.461  23.596  1.00  0.00    -0.001 C 
ATOM      7  C   UNL A   1      32.312  26.587  22.734  1.00  0.00     0.008 C 
ATOM      8  C   UNL A   1      30.319  28.056  22.661  1.00  0.00     0.008 C 
ENDBRANCH   5   6
BRANCH   5   9
ATOM      9  C   UNL A   1      30.744  25.117  24.560  1.00  0.00     0.133 C 
BRANCH   9  10
ATOM     10  N   UNL A   1      30.173  24.379  25.670  1.00  0.00    -0.337 N 
ATOM     11  C   UNL A   1      30.675  23.597  26.633  1.00  0.00     0.314 C 
ATOM     12  H   UNL A   1      29.194  24.476  25.729  1.00  0.00     0.165 HD
ATOM     13  O   UNL A   1      29.874  23.095  27.428  1.00  0.00    -0.249 OA
ATOM     14  N   UNL A   1      31.966  23.292  26.783  1.00  0.00    -0.335 N 
ATOM     15  H   UNL A   1      32.112  22.664  27.527  1.00  0.00     0.165 HD
BRANCH  14  16
ATOM     16  C   UNL A   1      33.216  23.656  26.121  1.00  0.00     0.152 C 
BRANCH  16  17
ATOM     17  C   UNL A   1      33.757  22.589  25.144  1.00  0.00     0.083 C 
ATOM     18  C   UNL A   1      34.911  23.158  24.307  1.00  0.00     0.044 C 
ATOM     19  C   UNL A   1      34.180  21.327  25.901  1.00  0.00     0.039 C 
ATOM     20  O   UNL A   1      32.723  22.144  24.241  1.00  0.00    -0.373 OA
ATOM     21  C   UNL A   1      34.028  20.244  24.861  1.00  0.00     0.031 C 
ATOM     22  C   UNL A   1      32.845  20.727  24.047  1.00  0.00     0.161 C 
ENDBRANCH  16  17
ENDBRANCH  14  16
ENDBRANCH   9  10
ENDBRANCH   5   9
ENDBRANCH   3   5
ENDBRANCH   2   3
ENDBRANCH   1   2
BRANCH   1  23
ATOM     23  C   UNL A   1      32.838  29.584  26.884  1.00  0.00     0.275 C 
BRANCH  23  24
ATOM     24  O   UNL A   1      34.096  30.270  26.758  1.00  0.00    -0.458 OA
BRANCH  24  25
ATOM     25  C   UNL A   1      34.584  30.838  27.880  1.00  0.00     0.338 C 
ATOM     26  O   UNL A   1      34.070  31.727  28.547  1.00  0.00    -0.246 OA
BRANCH  25  27
ATOM     27  C   UNL A   1      35.881  30.230  28.217  1.00  0.00     0.060 A 
ATOM     28  C   UNL A   1      36.101  29.701  29.492  1.00  0.00     0.016 A 
ATOM     29  C   UNL A   1      36.920  30.280  27.288  1.00  0.00     0.016 A 
ATOM     30  C   UNL A   1      37.365  29.237  29.852  1.00  0.00     0.010 A 
ATOM     31  C   UNL A   1      38.180  29.787  27.638  1.00  0.00     0.010 A 
ATOM     32  C   UNL A   1      38.416  29.284  28.929  1.00  0.00    -0.014 A 
BRANCH  32  33
ATOM     33  C   UNL A   1      39.781  28.870  29.331  1.00  0.00     0.031 A 
ATOM     34  C   UNL A   1      40.643  29.817  30.119  1.00  0.00     0.074 A 
ATOM     35  C   UNL A   1      40.244  27.651  28.996  1.00  0.00     0.049 A 
ATOM     36  N   UNL A   1      41.896  29.695  30.470  1.00  0.00    -0.248 NA
ATOM     37  C   UNL A   1      40.009  31.068  30.567  1.00  0.00     0.031 C 
ATOM     38  C   UNL A   1      39.488  26.625  28.278  1.00  0.00     0.029 A 
ATOM     39  N   UNL A   1      41.469  27.074  29.214  1.00  0.00    -0.354 N 
ATOM     40  C   UNL A   1      42.211  30.862  31.156  1.00  0.00     0.074 A 
ATOM     41  C   UNL A   1      41.019  31.683  31.164  1.00  0.00     0.031 C 
ATOM     42  C   UNL A   1      40.265  25.541  28.117  1.00  0.00     0.029 A 
ATOM     43  C   UNL A   1      41.586  25.815  28.676  1.00  0.00     0.049 A 
ATOM     44  H   UNL A   1      42.195  27.519  29.709  1.00  0.00     0.167 HD
ATOM     45  C   UNL A   1      43.390  31.220  31.720  1.00  0.00     0.031 A 
ATOM     46  C   UNL A   1      42.647  24.988  28.614  1.00  0.00     0.031 A 
ATOM     47  C   UNL A   1      44.572  30.402  31.710  1.00  0.00     0.049 A 
ATOM     48  C   UNL A   1      43.957  25.424  29.208  1.00  0.00     0.074 A 
ATOM     49  C   UNL A   1      45.818  30.678  32.248  1.00  0.00     0.029 A 
ATOM     50  N   UNL A   1      44.656  29.143  31.134  1.00  0.00    -0.354 N 
ATOM     51  N   UNL A   1      44.247  26.545  29.823  1.00  0.00    -0.248 NA
ATOM     52  C   UNL A   1      45.081  24.485  29.093  1.00  0.00     0.031 C 
ATOM     53  C   UNL A   1      46.664  29.598  31.969  1.00  0.00     0.029 A 
ATOM     54  C   UNL A   1      45.933  28.633  31.293  1.00  0.00     0.049 A 
ATOM     55  H   UNL A   1      43.916  28.679  30.680  1.00  0.00     0.167 HD
ATOM     56  C   UNL A   1      45.586  26.442  30.181  1.00  0.00     0.074 A 
ATOM     57  C   UNL A   1      46.042  25.143  29.728  1.00  0.00     0.031 C 
ATOM     58  C   UNL A   1      46.369  27.342  30.827  1.00  0.00     0.031 A 
BRANCH  45  59
ATOM     59  C   UNL A   1      43.459  32.579  32.360  1.00  0.00    -0.014 A 
ATOM     60  C   UNL A   1      43.771  33.724  31.607  1.00  0.00     0.010 A 
ATOM     61  C   UNL A   1      43.196  32.711  33.735  1.00  0.00     0.010 A 
ATOM     62  C   UNL A   1      43.858  34.974  32.227  1.00  0.00     0.020 A 
ATOM     63  C   UNL A   1      43.262  33.961  34.356  1.00  0.00     0.020 A 
ATOM     64  C   UNL A   1      43.612  35.083  33.600  1.00  0.00     0.054 A 
BRANCH  64  65
ATOM     65  S   UNL A   1      43.725  36.716  34.384  1.00  0.00     0.124 S 
ATOM     66  O   UNL A   1      44.397  37.499  33.350  1.00  0.00    -0.237 OA
ATOM     67  O   UNL A   1      42.326  37.059  34.622  1.00  0.00    -0.237 OA
ATOM     68  O   UNL A   1      44.515  36.466  35.588  1.00  0.00    -0.744 OA
ENDBRANCH  64  65
ENDBRANCH  45  59
BRANCH  46  69
ATOM     69  C   UNL A   1      42.514  23.669  27.939  1.00  0.00    -0.014 A 
ATOM     70  C   UNL A   1      42.723  23.552  26.556  1.00  0.00     0.010 A 
ATOM     71  C   UNL A   1      42.208  22.518  28.688  1.00  0.00     0.010 A 
ATOM     72  C   UNL A   1      42.625  22.306  25.929  1.00  0.00     0.020 A 
ATOM     73  C   UNL A   1      42.132  21.268  28.070  1.00  0.00     0.020 A 
ATOM     74  C   UNL A   1      42.335  21.171  26.692  1.00  0.00     0.054 A 
BRANCH  74  75
ATOM     75  S   UNL A   1      42.295  19.549  25.877  1.00  0.00     0.124 S 
ATOM     76  O   UNL A   1      43.306  19.708  24.837  1.00  0.00    -0.237 OA
ATOM     77  O   UNL A   1      42.642  18.638  26.965  1.00  0.00    -0.237 OA
ATOM     78  O   UNL A   1      40.916  19.443  25.405  1.00  0.00    -0.744 OA
ENDBRANCH  74  75
ENDBRANCH  46  69
BRANCH  58  79
ATOM     79  C   UNL A   1      47.791  26.937  31.097  1.00  0.00    -0.014 A 
ATOM     80  C   UNL A   1      48.819  27.255  30.194  1.00  0.00     0.010 A 
ATOM     81  C   UNL A   1      48.104  26.253  32.286  1.00  0.00     0.010 A 
ATOM     82  C   UNL A   1      50.134  26.861  30.456  1.00  0.00     0.020 A 
ATOM     83  C   UNL A   1      49.421  25.875  32.560  1.00  0.00     0.020 A 
ATOM     84  C   UNL A   1      50.425  26.167  31.634  1.00  0.00     0.054 A 
BRANCH  84  85
ATOM     85  S   UNL A   1      52.140  25.682  31.969  1.00  0.00     0.124 S 
ATOM     86  O   UNL A   1      52.018  24.238  32.142  1.00  0.00    -0.237 OA
ATOM     87  O   UNL A   1      52.842  26.114  30.763  1.00  0.00    -0.237 OA
ATOM     88  O   UNL A   1      52.479  26.430  33.179  1.00  0.00    -0.744 OA
ENDBRANCH  84  85
ENDBRANCH  58  79
ENDBRANCH  32  33
ENDBRANCH  25  27
ENDBRANCH  24  25
ENDBRANCH  23  24
ENDBRANCH   1  23
TORSDOF 19
ENDMDL
MODEL 3
REMARK VINA RESULT:     -10.2      4.332     10.323
REMARK SMILES CC(C)[C@@H](CNC(=O)NC[C@@]1(C)CCCO1)C(=O)OCCOC(=O)c1ccc(-c2c3nc(c(-c4ccc(S(=O)(=O)[O-])cc4)c4ccc([nH]4)c(-c4ccc(S(=O)(=O)[O-])cc4)c4nc(c(-c5ccc(S(=O)(=O)[O-])cc5)c5ccc2[nH]5)C=C4)C=C3)cc1
REMARK SMILES IDX 20 1 19 2 17 3 18 4 4 5 2 6 1 7 3 8 5 9 6 10 7 11 8 13 9 14
REMARK SMILES IDX 10 16 11 17 12 18 13 19 16 20 14 21 15 22 21 23 22 24 23 25
REMARK SMILES IDX 24 26 25 27 26 28 84 29 27 30 83 31 28 32 29 33 30 34 77 35
REMARK SMILES IDX 31 36 82 37 76 38 78 39 32 40 81 41 75 42 74 43 33 45 63 46
REMARK SMILES IDX 44 47 62 48 45 49 48 50 61 51 79 52 46 53 47 54 60 56 80 57
REMARK SMILES IDX 49 58 34 59 35 60 43 61 36 62 42 63 37 64 38 65 39 66 40 67
REMARK SMILES IDX 41 68 64 69 65 70 73 71 66 72 72 73 67 74 68 75 69 76 70 77
REMARK SMILES IDX 71 78 50 79 51 80 59 81 52 82 58 83 53 84 54 85 55 86 56 87
REMARK SMILES IDX 57 88
REMARK H PARENT 6 12 9 15 78 44 48 55
REMARK Flexibility Score: inf
ROOT
ATOM      1  C   UNL A   1      35.985  22.869  24.067  1.00  0.00     0.274 C 
ENDROOT
BRANCH   1   2
ATOM      2  O   UNL A   1      34.823  23.711  23.943  1.00  0.00    -0.462 OA
BRANCH   2   3
ATOM      3  C   UNL A   1      33.630  23.059  23.964  1.00  0.00     0.311 C 
ATOM      4  O   UNL A   1      33.420  21.977  23.426  1.00  0.00    -0.252 OA
BRANCH   3   5
ATOM      5  C   UNL A   1      32.536  23.822  24.693  1.00  0.00     0.121 C 
BRANCH   5   6
ATOM      6  C   UNL A   1      33.033  24.749  25.838  1.00  0.00    -0.001 C 
ATOM      7  C   UNL A   1      33.977  25.842  25.311  1.00  0.00     0.008 C 
ATOM      8  C   UNL A   1      31.866  25.456  26.549  1.00  0.00     0.008 C 
ENDBRANCH   5   6
BRANCH   5   9
ATOM      9  C   UNL A   1      31.627  24.499  23.649  1.00  0.00     0.133 C 
BRANCH   9  10
ATOM     10  N   UNL A   1      32.273  24.753  22.376  1.00  0.00    -0.337 N 
ATOM     11  C   UNL A   1      32.605  25.857  21.697  1.00  0.00     0.314 C 
ATOM     12  H   UNL A   1      32.525  23.925  21.905  1.00  0.00     0.165 HD
ATOM     13  O   UNL A   1      33.142  25.703  20.595  1.00  0.00    -0.249 OA
ATOM     14  N   UNL A   1      32.373  27.108  22.100  1.00  0.00    -0.335 N 
ATOM     15  H   UNL A   1      32.656  27.770  21.428  1.00  0.00     0.165 HD
BRANCH  14  16
ATOM     16  C   UNL A   1      31.806  27.743  23.287  1.00  0.00     0.152 C 
BRANCH  16  17
ATOM     17  C   UNL A   1      30.414  28.377  23.071  1.00  0.00     0.083 C 
ATOM     18  C   UNL A   1      29.305  27.377  23.423  1.00  0.00     0.044 C 
ATOM     19  C   UNL A   1      30.280  29.673  23.875  1.00  0.00     0.039 C 
ATOM     20  O   UNL A   1      30.237  28.779  21.696  1.00  0.00    -0.373 OA
ATOM     21  C   UNL A   1      29.256  30.452  23.086  1.00  0.00     0.031 C 
ATOM     22  C   UNL A   1      29.546  30.037  21.659  1.00  0.00     0.161 C 
ENDBRANCH  16  17
ENDBRANCH  14  16
ENDBRANCH   9  10
ENDBRANCH   5   9
ENDBRANCH   3   5
ENDBRANCH   2   3
ENDBRANCH   1   2
BRANCH   1  23
ATOM     23  C   UNL A   1      37.127  23.580  24.796  1.00  0.00     0.275 C 
BRANCH  23  24
ATOM     24  O   UNL A   1      37.576  22.787  25.910  1.00  0.00    -0.458 OA
BRANCH  24  25
ATOM     25  C   UNL A   1      38.892  22.854  26.202  1.00  0.00     0.338 C 
ATOM     26  O   UNL A   1      39.739  21.991  26.016  1.00  0.00    -0.246 OA
BRANCH  25  27
ATOM     27  C   UNL A   1      39.195  24.159  26.809  1.00  0.00     0.060 A 
ATOM     28  C   UNL A   1      39.990  25.085  26.128  1.00  0.00     0.016 A 
ATOM     29  C   UNL A   1      38.769  24.422  28.111  1.00  0.00     0.016 A 
ATOM     30  C   UNL A   1      40.381  26.269  26.751  1.00  0.00     0.010 A 
ATOM     31  C   UNL A   1      39.134  25.622  28.726  1.00  0.00     0.010 A 
ATOM     32  C   UNL A   1      39.961  26.543  28.058  1.00  0.00    -0.014 A 
BRANCH  32  33
ATOM     33  C   UNL A   1      40.439  27.760  28.756  1.00  0.00     0.031 A 
ATOM     34  C   UNL A   1      41.834  27.794  29.317  1.00  0.00     0.074 A 
ATOM     35  C   UNL A   1      39.631  28.829  28.882  1.00  0.00     0.049 A 
ATOM     36  N   UNL A   1      42.404  28.711  30.054  1.00  0.00    -0.248 NA
ATOM     37  C   UNL A   1      42.697  26.643  29.009  1.00  0.00     0.031 C 
ATOM     38  C   UNL A   1      38.277  28.937  28.338  1.00  0.00     0.029 A 
ATOM     39  N   UNL A   1      39.835  30.028  29.516  1.00  0.00    -0.354 N 
ATOM     40  C   UNL A   1      43.683  28.237  30.323  1.00  0.00     0.074 A 
ATOM     41  C   UNL A   1      43.801  26.948  29.675  1.00  0.00     0.031 C 
ATOM     42  C   UNL A   1      37.772  30.139  28.659  1.00  0.00     0.029 A 
ATOM     43  C   UNL A   1      38.745  30.864  29.470  1.00  0.00     0.049 A 
ATOM     44  H   UNL A   1      40.680  30.267  29.960  1.00  0.00     0.167 HD
ATOM     45  C   UNL A   1      44.666  28.821  31.049  1.00  0.00     0.031 A 
ATOM     46  C   UNL A   1      38.543  32.066  30.044  1.00  0.00     0.031 A 
ATOM     47  C   UNL A   1      44.546  30.102  31.692  1.00  0.00     0.049 A 
ATOM     48  C   UNL A   1      39.632  32.674  30.883  1.00  0.00     0.074 A 
ATOM     49  C   UNL A   1      45.482  30.776  32.457  1.00  0.00     0.029 A 
ATOM     50  N   UNL A   1      43.417  30.906  31.641  1.00  0.00    -0.354 N 
ATOM     51  N   UNL A   1      40.823  32.198  31.155  1.00  0.00    -0.248 NA
ATOM     52  C   UNL A   1      39.345  33.978  31.496  1.00  0.00     0.031 C 
ATOM     53  C   UNL A   1      44.907  31.974  32.896  1.00  0.00     0.029 A 
ATOM     54  C   UNL A   1      43.628  32.064  32.370  1.00  0.00     0.049 A 
ATOM     55  H   UNL A   1      42.588  30.687  31.158  1.00  0.00     0.167 HD
ATOM     56  C   UNL A   1      41.434  33.150  31.961  1.00  0.00     0.074 A 
ATOM     57  C   UNL A   1      40.487  34.236  32.119  1.00  0.00     0.031 C 
ATOM     58  C   UNL A   1      42.669  33.128  32.522  1.00  0.00     0.031 A 
BRANCH  45  59
ATOM     59  C   UNL A   1      45.946  28.049  31.217  1.00  0.00    -0.014 A 
ATOM     60  C   UNL A   1      47.049  28.274  30.374  1.00  0.00     0.010 A 
ATOM     61  C   UNL A   1      46.049  27.091  32.241  1.00  0.00     0.010 A 
ATOM     62  C   UNL A   1      48.219  27.526  30.530  1.00  0.00     0.020 A 
ATOM     63  C   UNL A   1      47.224  26.355  32.413  1.00  0.00     0.020 A 
ATOM     64  C   UNL A   1      48.296  26.564  31.542  1.00  0.00     0.054 A 
BRANCH  64  65
ATOM     65  S   UNL A   1      49.827  25.608  31.729  1.00  0.00     0.124 S 
ATOM     66  O   UNL A   1      49.523  24.781  32.895  1.00  0.00    -0.237 OA
ATOM     67  O   UNL A   1      49.919  24.892  30.459  1.00  0.00    -0.237 OA
ATOM     68  O   UNL A   1      50.849  26.630  31.939  1.00  0.00    -0.744 OA
ENDBRANCH  64  65
ENDBRANCH  45  59
BRANCH  46  69
ATOM     69  C   UNL A   1      37.241  32.760  29.860  1.00  0.00    -0.014 A 
ATOM     70  C   UNL A   1      36.258  32.709  30.860  1.00  0.00     0.010 A 
ATOM     71  C   UNL A   1      36.994  33.503  28.691  1.00  0.00     0.010 A 
ATOM     72  C   UNL A   1      35.045  33.386  30.696  1.00  0.00     0.020 A 
ATOM     73  C   UNL A   1      35.794  34.200  28.532  1.00  0.00     0.020 A 
ATOM     74  C   UNL A   1      34.824  34.132  29.534  1.00  0.00     0.054 A 
BRANCH  74  75
ATOM     75  S   UNL A   1      33.280  35.074  29.373  1.00  0.00     0.124 S 
ATOM     76  O   UNL A   1      32.765  35.046  30.738  1.00  0.00    -0.237 OA
ATOM     77  O   UNL A   1      33.748  36.374  28.899  1.00  0.00    -0.237 OA
ATOM     78  O   UNL A   1      32.515  34.304  28.395  1.00  0.00    -0.744 OA
ENDBRANCH  74  75
ENDBRANCH  46  69
BRANCH  58  79
ATOM     79  C   UNL A   1      43.068  34.326  33.338  1.00  0.00    -0.014 A 
ATOM     80  C   UNL A   1      42.710  34.432  34.692  1.00  0.00     0.010 A 
ATOM     81  C   UNL A   1      43.834  35.346  32.745  1.00  0.00     0.010 A 
ATOM     82  C   UNL A   1      43.080  35.558  35.432  1.00  0.00     0.020 A 
ATOM     83  C   UNL A   1      44.222  36.464  33.488  1.00  0.00     0.020 A 
ATOM     84  C   UNL A   1      43.827  36.570  34.823  1.00  0.00     0.054 A 
BRANCH  84  85
ATOM     85  S   UNL A   1      44.317  38.015  35.804  1.00  0.00     0.124 S 
ATOM     86  O   UNL A   1      43.687  37.734  37.091  1.00  0.00    -0.237 OA
ATOM     87  O   UNL A   1      45.776  37.939  35.789  1.00  0.00    -0.237 OA
ATOM     88  O   UNL A   1      43.752  39.141  35.064  1.00  0.00    -0.744 OA
ENDBRANCH  84  85
ENDBRANCH  58  79
ENDBRANCH  32  33
ENDBRANCH  25  27
ENDBRANCH  24  25
ENDBRANCH  23  24
ENDBRANCH   1  23
TORSDOF 19
ENDMDL
