MODEL 1
REMARK VINA RESULT:     -10.4      0.000      0.000
REMARK SMILES C[C@@H](C(=O)OCCOC(=O)c1ccc(-c2c3nc(c(-c4ccc(S(=O)(=O)[O-])cc4)c4ccc([nH]4)c(-c4ccc(S(=O)(=O)[O-])cc4)c4nc(c(-c5ccc(S(=O)(=O)[O-])cc5)c5ccc2[nH]5)C=C4)C=C3)cc1)c1ccc(OC2CCCC2)cc1F
REMARK SMILES IDX 6 1 5 2 3 3 4 4 2 5 1 6 71 7 72 8 82 9 73 10 81 11 83 12
REMARK SMILES IDX 74 13 75 14 76 15 77 16 80 17 78 18 79 19 7 20 8 21 9 22
REMARK SMILES IDX 10 23 11 24 12 25 70 26 13 27 69 28 14 29 15 30 16 31 63 32
REMARK SMILES IDX 17 33 68 34 62 35 64 36 18 37 67 38 61 39 60 40 19 42 49 43
REMARK SMILES IDX 30 44 48 45 31 46 34 47 47 48 65 49 32 50 33 51 46 53 66 54
REMARK SMILES IDX 35 55 20 56 21 57 29 58 22 59 28 60 23 61 24 62 25 63 26 64
REMARK SMILES IDX 27 65 50 66 51 67 59 68 52 69 58 70 53 71 54 72 55 73 56 74
REMARK SMILES IDX 57 75 36 76 37 77 45 78 38 79 44 80 39 81 40 82 41 83 42 84
REMARK SMILES IDX 43 85
REMARK H PARENT 64 41 34 52
REMARK Flexibility Score: inf
ROOT
ATOM      1  C   UNL A   1      38.559  22.661  25.979  1.00  0.00     0.274 C 
ENDROOT
BRANCH   1   2
ATOM      2  O   UNL A   1      37.274  22.011  25.919  1.00  0.00    -0.462 OA
BRANCH   2   3
ATOM      3  C   UNL A   1      36.532  22.211  24.794  1.00  0.00     0.313 C 
ATOM      4  O   UNL A   1      37.010  22.341  23.673  1.00  0.00    -0.252 OA
BRANCH   3   5
ATOM      5  C   UNL A   1      35.043  22.375  25.105  1.00  0.00     0.129 C 
ATOM      6  C   UNL A   1      34.190  21.188  24.633  1.00  0.00     0.025 C 
BRANCH   5   7
ATOM      7  C   UNL A   1      34.499  23.730  24.667  1.00  0.00     0.002 A 
ATOM      8  C   UNL A   1      34.326  24.756  25.613  1.00  0.00     0.011 A 
ATOM      9  C   UNL A   1      34.126  24.006  23.348  1.00  0.00     0.130 A 
ATOM     10  C   UNL A   1      33.773  25.989  25.245  1.00  0.00     0.047 A 
ATOM     11  C   UNL A   1      33.535  25.216  22.988  1.00  0.00     0.086 A 
ATOM     12  F   UNL A   1      34.306  23.094  22.384  1.00  0.00    -0.207 F 
ATOM     13  C   UNL A   1      33.386  26.226  23.925  1.00  0.00     0.122 A 
BRANCH  13  14
ATOM     14  O   UNL A   1      32.809  27.432  23.651  1.00  0.00    -0.490 OA
BRANCH  14  15
ATOM     15  C   UNL A   1      31.436  27.654  24.021  1.00  0.00     0.173 C 
ATOM     16  C   UNL A   1      31.057  29.057  24.498  1.00  0.00     0.045 C 
ATOM     17  C   UNL A   1      30.448  27.298  22.902  1.00  0.00     0.045 C 
ATOM     18  C   UNL A   1      30.176  29.622  23.396  1.00  0.00     0.004 C 
ATOM     19  C   UNL A   1      29.405  28.409  22.917  1.00  0.00     0.004 C 
ENDBRANCH  14  15
ENDBRANCH  13  14
ENDBRANCH   5   7
ENDBRANCH   3   5
ENDBRANCH   2   3
ENDBRANCH   1   2
BRANCH   1  20
ATOM     20  C   UNL A   1      38.412  24.116  26.414  1.00  0.00     0.275 C 
BRANCH  20  21
ATOM     21  O   UNL A   1      39.424  24.440  27.383  1.00  0.00    -0.458 OA
BRANCH  21  22
ATOM     22  C   UNL A   1      40.035  25.637  27.228  1.00  0.00     0.338 C 
ATOM     23  O   UNL A   1      40.775  25.978  26.324  1.00  0.00    -0.246 OA
BRANCH  22  24
ATOM     24  C   UNL A   1      39.707  26.496  28.378  1.00  0.00     0.060 A 
ATOM     25  C   UNL A   1      40.302  27.743  28.497  1.00  0.00     0.016 A 
ATOM     26  C   UNL A   1      38.867  26.023  29.388  1.00  0.00     0.016 A 
ATOM     27  C   UNL A   1      40.115  28.474  29.671  1.00  0.00     0.010 A 
ATOM     28  C   UNL A   1      38.641  26.797  30.540  1.00  0.00     0.010 A 
ATOM     29  C   UNL A   1      39.321  28.007  30.741  1.00  0.00    -0.014 A 
BRANCH  29  30
ATOM     30  C   UNL A   1      39.317  28.762  32.048  1.00  0.00     0.031 A 
ATOM     31  C   UNL A   1      40.407  28.557  33.095  1.00  0.00     0.074 A 
ATOM     32  C   UNL A   1      38.463  29.794  32.231  1.00  0.00     0.049 A 
ATOM     33  N   UNL A   1      40.752  29.358  34.080  1.00  0.00    -0.248 NA
ATOM     34  C   UNL A   1      41.257  27.359  32.999  1.00  0.00     0.031 C 
ATOM     35  C   UNL A   1      37.377  30.167  31.322  1.00  0.00     0.029 A 
ATOM     36  N   UNL A   1      38.410  30.759  33.215  1.00  0.00    -0.354 N 
ATOM     37  C   UNL A   1      41.913  28.820  34.630  1.00  0.00     0.074 A 
ATOM     38  C   UNL A   1      42.172  27.583  33.932  1.00  0.00     0.031 C 
ATOM     39  C   UNL A   1      36.824  31.314  31.741  1.00  0.00     0.029 A 
ATOM     40  C   UNL A   1      37.445  31.717  32.999  1.00  0.00     0.049 A 
ATOM     41  H   UNL A   1      39.006  30.761  33.998  1.00  0.00     0.167 HD
ATOM     42  C   UNL A   1      42.720  29.313  35.602  1.00  0.00     0.031 A 
ATOM     43  C   UNL A   1      37.065  32.785  33.732  1.00  0.00     0.031 A 
ATOM     44  C   UNL A   1      42.415  30.451  36.424  1.00  0.00     0.049 A 
ATOM     45  C   UNL A   1      37.768  33.092  35.024  1.00  0.00     0.074 A 
ATOM     46  C   UNL A   1      43.142  30.964  37.487  1.00  0.00     0.029 A 
ATOM     47  N   UNL A   1      41.263  31.208  36.326  1.00  0.00    -0.354 N 
ATOM     48  N   UNL A   1      38.889  32.596  35.485  1.00  0.00    -0.248 NA
ATOM     49  C   UNL A   1      37.134  34.080  35.910  1.00  0.00     0.031 C 
ATOM     50  C   UNL A   1      42.378  31.970  38.092  1.00  0.00     0.029 A 
ATOM     51  C   UNL A   1      41.209  32.121  37.366  1.00  0.00     0.049 A 
ATOM     52  H   UNL A   1      40.582  31.113  35.623  1.00  0.00     0.167 HD
ATOM     53  C   UNL A   1      39.087  33.200  36.723  1.00  0.00     0.074 A 
ATOM     54  C   UNL A   1      37.988  34.121  36.924  1.00  0.00     0.031 C 
ATOM     55  C   UNL A   1      40.094  33.000  37.608  1.00  0.00     0.031 A 
BRANCH  42  56
ATOM     56  C   UNL A   1      44.019  28.599  35.851  1.00  0.00    -0.014 A 
ATOM     57  C   UNL A   1      44.168  27.784  36.988  1.00  0.00     0.010 A 
ATOM     58  C   UNL A   1      45.071  28.683  34.923  1.00  0.00     0.010 A 
ATOM     59  C   UNL A   1      45.356  27.083  37.207  1.00  0.00     0.020 A 
ATOM     60  C   UNL A   1      46.258  27.975  35.134  1.00  0.00     0.020 A 
ATOM     61  C   UNL A   1      46.397  27.186  36.280  1.00  0.00     0.054 A 
BRANCH  61  62
ATOM     62  S   UNL A   1      47.923  26.252  36.584  1.00  0.00     0.124 S 
ATOM     63  O   UNL A   1      47.877  25.247  35.525  1.00  0.00    -0.237 OA
ATOM     64  O   UNL A   1      48.956  27.274  36.437  1.00  0.00    -0.237 OA
ATOM     65  O   UNL A   1      47.750  25.735  37.939  1.00  0.00    -0.744 OA
ENDBRANCH  61  62
ENDBRANCH  42  56
BRANCH  43  66
ATOM     66  C   UNL A   1      35.870  33.572  33.314  1.00  0.00    -0.014 A 
ATOM     67  C   UNL A   1      34.563  33.087  33.494  1.00  0.00     0.010 A 
ATOM     68  C   UNL A   1      36.052  34.843  32.735  1.00  0.00     0.010 A 
ATOM     69  C   UNL A   1      33.464  33.868  33.115  1.00  0.00     0.020 A 
ATOM     70  C   UNL A   1      34.959  35.637  32.389  1.00  0.00     0.020 A 
ATOM     71  C   UNL A   1      33.669  35.141  32.572  1.00  0.00     0.054 A 
BRANCH  71  72
ATOM     72  S   UNL A   1      32.243  36.186  32.170  1.00  0.00     0.124 S 
ATOM     73  O   UNL A   1      32.516  37.384  32.958  1.00  0.00    -0.237 OA
ATOM     74  O   UNL A   1      32.354  36.342  30.722  1.00  0.00    -0.237 OA
ATOM     75  O   UNL A   1      31.103  35.387  32.616  1.00  0.00    -0.744 OA
ENDBRANCH  71  72
ENDBRANCH  43  66
BRANCH  55  76
ATOM     76  C   UNL A   1      40.038  33.749  38.911  1.00  0.00    -0.014 A 
ATOM     77  C   UNL A   1      40.438  35.097  38.976  1.00  0.00     0.010 A 
ATOM     78  C   UNL A   1      39.542  33.126  40.070  1.00  0.00     0.010 A 
ATOM     79  C   UNL A   1      40.369  35.799  40.182  1.00  0.00     0.020 A 
ATOM     80  C   UNL A   1      39.449  33.834  41.273  1.00  0.00     0.020 A 
ATOM     81  C   UNL A   1      39.877  35.163  41.324  1.00  0.00     0.054 A 
BRANCH  81  82
ATOM     82  S   UNL A   1      39.759  36.106  42.871  1.00  0.00     0.124 S 
ATOM     83  O   UNL A   1      39.878  37.481  42.397  1.00  0.00    -0.237 OA
ATOM     84  O   UNL A   1      38.442  35.729  43.379  1.00  0.00    -0.237 OA
ATOM     85  O   UNL A   1      40.887  35.617  43.660  1.00  0.00    -0.744 OA
ENDBRANCH  81  82
ENDBRANCH  55  76
ENDBRANCH  29  30
ENDBRANCH  22  24
ENDBRANCH  21  22
ENDBRANCH  20  21
ENDBRANCH   1  20
TORSDOF 17
ENDMDL
MODEL 2
REMARK VINA RESULT:     -10.4      3.316      9.893
REMARK SMILES C[C@@H](C(=O)OCCOC(=O)c1ccc(-c2c3nc(c(-c4ccc(S(=O)(=O)[O-])cc4)c4ccc([nH]4)c(-c4ccc(S(=O)(=O)[O-])cc4)c4nc(c(-c5ccc(S(=O)(=O)[O-])cc5)c5ccc2[nH]5)C=C4)C=C3)cc1)c1ccc(OC2CCCC2)cc1F
REMARK SMILES IDX 6 1 5 2 3 3 4 4 2 5 1 6 71 7 72 8 82 9 73 10 81 11 83 12
REMARK SMILES IDX 74 13 75 14 76 15 77 16 80 17 78 18 79 19 7 20 8 21 9 22
REMARK SMILES IDX 10 23 11 24 12 25 70 26 13 27 69 28 14 29 15 30 16 31 63 32
REMARK SMILES IDX 17 33 68 34 62 35 64 36 18 37 67 38 61 39 60 40 19 42 49 43
REMARK SMILES IDX 30 44 48 45 31 46 34 47 47 48 65 49 32 50 33 51 46 53 66 54
REMARK SMILES IDX 35 55 20 56 21 57 29 58 22 59 28 60 23 61 24 62 25 63 26 64
REMARK SMILES IDX 27 65 50 66 51 67 59 68 52 69 58 70 53 71 54 72 55 73 56 74
REMARK SMILES IDX 57 75 36 76 37 77 45 78 38 79 44 80 39 81 40 82 41 83 42 84
REMARK SMILES IDX 43 85
REMARK H PARENT 64 41 34 52
REMARK Flexibility Score: inf
ROOT
ATOM      1  C   UNL A   1      31.530  28.750  25.740  1.00  0.00     0.274 C 
ENDROOT
BRANCH   1   2
ATOM      2  O   UNL A   1      30.913  28.869  24.443  1.00  0.00    -0.462 OA
BRANCH   2   3
ATOM      3  C   UNL A   1      31.468  28.152  23.426  1.00  0.00     0.313 C 
ATOM      4  O   UNL A   1      30.851  27.772  22.439  1.00  0.00    -0.252 OA
BRANCH   3   5
ATOM      5  C   UNL A   1      32.922  27.771  23.715  1.00  0.00     0.129 C 
ATOM      6  C   UNL A   1      33.932  28.521  22.834  1.00  0.00     0.025 C 
BRANCH   5   7
ATOM      7  C   UNL A   1      33.138  26.263  23.743  1.00  0.00     0.002 A 
ATOM      8  C   UNL A   1      33.218  25.588  24.974  1.00  0.00     0.011 A 
ATOM      9  C   UNL A   1      33.295  25.499  22.582  1.00  0.00     0.130 A 
ATOM     10  C   UNL A   1      33.475  24.211  25.025  1.00  0.00     0.047 A 
ATOM     11  C   UNL A   1      33.594  24.138  22.631  1.00  0.00     0.086 A 
ATOM     12  F   UNL A   1      33.184  26.065  21.374  1.00  0.00    -0.207 F 
ATOM     13  C   UNL A   1      33.653  23.480  23.850  1.00  0.00     0.122 A 
BRANCH  13  14
ATOM     14  O   UNL A   1      33.948  22.154  23.979  1.00  0.00    -0.490 OA
BRANCH  14  15
ATOM     15  C   UNL A   1      32.958  21.264  24.526  1.00  0.00     0.173 C 
ATOM     16  C   UNL A   1      32.346  20.229  23.581  1.00  0.00     0.045 C 
ATOM     17  C   UNL A   1      33.460  20.486  25.750  1.00  0.00     0.045 C 
ATOM     18  C   UNL A   1      32.880  18.890  24.065  1.00  0.00     0.004 C 
ATOM     19  C   UNL A   1      32.935  19.067  25.569  1.00  0.00     0.004 C 
ENDBRANCH  14  15
ENDBRANCH  13  14
ENDBRANCH   5   7
ENDBRANCH   3   5
ENDBRANCH   2   3
ENDBRANCH   1   2
BRANCH   1  20
ATOM     20  C   UNL A   1      32.017  30.109  26.236  1.00  0.00     0.275 C 
BRANCH  20  21
ATOM     21  O   UNL A   1      33.409  30.029  26.587  1.00  0.00    -0.458 OA
BRANCH  21  22
ATOM     22  C   UNL A   1      33.899  31.058  27.316  1.00  0.00     0.338 C 
ATOM     23  O   UNL A   1      33.340  32.106  27.586  1.00  0.00    -0.246 OA
BRANCH  22  24
ATOM     24  C   UNL A   1      35.280  30.746  27.720  1.00  0.00     0.060 A 
ATOM     25  C   UNL A   1      35.652  29.427  27.935  1.00  0.00     0.016 A 
ATOM     26  C   UNL A   1      36.187  31.778  27.968  1.00  0.00     0.016 A 
ATOM     27  C   UNL A   1      36.909  29.158  28.479  1.00  0.00     0.010 A 
ATOM     28  C   UNL A   1      37.472  31.486  28.460  1.00  0.00     0.010 A 
ATOM     29  C   UNL A   1      37.834  30.175  28.798  1.00  0.00    -0.014 A 
BRANCH  29  30
ATOM     30  C   UNL A   1      39.093  29.823  29.555  1.00  0.00     0.031 A 
ATOM     31  C   UNL A   1      39.318  30.280  30.992  1.00  0.00     0.074 A 
ATOM     32  C   UNL A   1      39.957  28.916  29.046  1.00  0.00     0.049 A 
ATOM     33  N   UNL A   1      40.144  29.781  31.886  1.00  0.00    -0.248 NA
ATOM     34  C   UNL A   1      38.484  31.372  31.521  1.00  0.00     0.031 C 
ATOM     35  C   UNL A   1      39.885  28.337  27.703  1.00  0.00     0.029 A 
ATOM     36  N   UNL A   1      41.032  28.273  29.621  1.00  0.00    -0.354 N 
ATOM     37  C   UNL A   1      39.843  30.413  33.089  1.00  0.00     0.074 A 
ATOM     38  C   UNL A   1      38.820  31.391  32.804  1.00  0.00     0.031 C 
ATOM     39  C   UNL A   1      40.812  27.376  27.585  1.00  0.00     0.029 A 
ATOM     40  C   UNL A   1      41.612  27.326  28.805  1.00  0.00     0.049 A 
ATOM     41  H   UNL A   1      41.356  28.473  30.528  1.00  0.00     0.167 HD
ATOM     42  C   UNL A   1      40.337  30.189  34.332  1.00  0.00     0.031 A 
ATOM     43  C   UNL A   1      42.683  26.525  28.985  1.00  0.00     0.031 A 
ATOM     44  C   UNL A   1      41.459  29.343  34.631  1.00  0.00     0.049 A 
ATOM     45  C   UNL A   1      43.441  26.573  30.281  1.00  0.00     0.074 A 
ATOM     46  C   UNL A   1      42.073  29.130  35.854  1.00  0.00     0.029 A 
ATOM     47  N   UNL A   1      42.179  28.629  33.692  1.00  0.00    -0.354 N 
ATOM     48  N   UNL A   1      43.100  27.142  31.410  1.00  0.00    -0.248 NA
ATOM     49  C   UNL A   1      44.749  25.900  30.314  1.00  0.00     0.031 C 
ATOM     50  C   UNL A   1      43.225  28.364  35.635  1.00  0.00     0.029 A 
ATOM     51  C   UNL A   1      43.288  28.052  34.288  1.00  0.00     0.049 A 
ATOM     52  H   UNL A   1      41.940  28.544  32.741  1.00  0.00     0.167 HD
ATOM     53  C   UNL A   1      44.157  26.908  32.285  1.00  0.00     0.074 A 
ATOM     54  C   UNL A   1      45.135  26.120  31.564  1.00  0.00     0.031 C 
ATOM     55  C   UNL A   1      44.296  27.317  33.570  1.00  0.00     0.031 A 
BRANCH  42  56
ATOM     56  C   UNL A   1      39.673  30.901  35.479  1.00  0.00    -0.014 A 
ATOM     57  C   UNL A   1      38.513  30.362  36.065  1.00  0.00     0.010 A 
ATOM     58  C   UNL A   1      40.237  32.070  36.018  1.00  0.00     0.010 A 
ATOM     59  C   UNL A   1      37.913  30.993  37.158  1.00  0.00     0.020 A 
ATOM     60  C   UNL A   1      39.644  32.699  37.118  1.00  0.00     0.020 A 
ATOM     61  C   UNL A   1      38.480  32.161  37.675  1.00  0.00     0.054 A 
BRANCH  61  62
ATOM     62  S   UNL A   1      37.685  32.950  39.103  1.00  0.00     0.124 S 
ATOM     63  O   UNL A   1      36.279  32.945  38.706  1.00  0.00    -0.237 OA
ATOM     64  O   UNL A   1      38.032  32.049  40.199  1.00  0.00    -0.237 OA
ATOM     65  O   UNL A   1      38.309  34.269  39.162  1.00  0.00    -0.744 OA
ENDBRANCH  61  62
ENDBRANCH  42  56
BRANCH  43  66
ATOM     66  C   UNL A   1      43.174  25.692  27.850  1.00  0.00    -0.014 A 
ATOM     67  C   UNL A   1      44.047  26.207  26.878  1.00  0.00     0.010 A 
ATOM     68  C   UNL A   1      42.761  24.348  27.754  1.00  0.00     0.010 A 
ATOM     69  C   UNL A   1      44.510  25.386  25.842  1.00  0.00     0.020 A 
ATOM     70  C   UNL A   1      43.248  23.519  26.745  1.00  0.00     0.020 A 
ATOM     71  C   UNL A   1      44.114  24.046  25.787  1.00  0.00     0.054 A 
BRANCH  71  72
ATOM     72  S   UNL A   1      44.789  22.961  24.499  1.00  0.00     0.124 S 
ATOM     73  O   UNL A   1      43.603  22.665  23.703  1.00  0.00    -0.237 OA
ATOM     74  O   UNL A   1      45.790  23.808  23.855  1.00  0.00    -0.237 OA
ATOM     75  O   UNL A   1      45.335  21.837  25.257  1.00  0.00    -0.744 OA
ENDBRANCH  71  72
ENDBRANCH  43  66
BRANCH  55  76
ATOM     76  C   UNL A   1      45.577  26.972  34.278  1.00  0.00    -0.014 A 
ATOM     77  C   UNL A   1      46.724  27.769  34.106  1.00  0.00     0.010 A 
ATOM     78  C   UNL A   1      45.632  25.874  35.155  1.00  0.00     0.010 A 
ATOM     79  C   UNL A   1      47.910  27.459  34.777  1.00  0.00     0.020 A 
ATOM     80  C   UNL A   1      46.811  25.576  35.847  1.00  0.00     0.020 A 
ATOM     81  C   UNL A   1      47.947  26.363  35.642  1.00  0.00     0.054 A 
BRANCH  81  82
ATOM     82  S   UNL A   1      49.486  26.002  36.534  1.00  0.00     0.124 S 
ATOM     83  O   UNL A   1      49.135  26.365  37.903  1.00  0.00    -0.237 OA
ATOM     84  O   UNL A   1      49.672  24.573  36.292  1.00  0.00    -0.237 OA
ATOM     85  O   UNL A   1      50.469  26.869  35.890  1.00  0.00    -0.744 OA
ENDBRANCH  81  82
ENDBRANCH  55  76
ENDBRANCH  29  30
ENDBRANCH  22  24
ENDBRANCH  21  22
ENDBRANCH  20  21
ENDBRANCH   1  20
TORSDOF 17
ENDMDL
MODEL 3
REMARK VINA RESULT:     -10.3      2.632      9.280
REMARK SMILES C[C@@H](C(=O)OCCOC(=O)c1ccc(-c2c3nc(c(-c4ccc(S(=O)(=O)[O-])cc4)c4ccc([nH]4)c(-c4ccc(S(=O)(=O)[O-])cc4)c4nc(c(-c5ccc(S(=O)(=O)[O-])cc5)c5ccc2[nH]5)C=C4)C=C3)cc1)c1ccc(OC2CCCC2)cc1F
REMARK SMILES IDX 6 1 5 2 3 3 4 4 2 5 1 6 71 7 72 8 82 9 73 10 81 11 83 12
REMARK SMILES IDX 74 13 75 14 76 15 77 16 80 17 78 18 79 19 7 20 8 21 9 22
REMARK SMILES IDX 10 23 11 24 12 25 70 26 13 27 69 28 14 29 15 30 16 31 63 32
REMARK SMILES IDX 17 33 68 34 62 35 64 36 18 37 67 38 61 39 60 40 19 42 49 43
REMARK SMILES IDX 30 44 48 45 31 46 34 47 47 48 65 49 32 50 33 51 46 53 66 54
REMARK SMILES IDX 35 55 20 56 21 57 29 58 22 59 28 60 23 61 24 62 25 63 26 64
REMARK SMILES IDX 27 65 50 66 51 67 59 68 52 69 58 70 53 71 54 72 55 73 56 74
REMARK SMILES IDX 57 75 36 76 37 77 45 78 38 79 44 80 39 81 40 82 41 83 42 84
REMARK SMILES IDX 43 85
REMARK H PARENT 64 41 34 52
REMARK Flexibility Score: inf
ROOT
ATOM      1  C   UNL A   1      37.137  22.868  25.875  1.00  0.00     0.274 C 
ENDROOT
BRANCH   1   2
ATOM      2  O   UNL A   1      36.687  23.804  24.876  1.00  0.00    -0.462 OA
BRANCH   2   3
ATOM      3  C   UNL A   1      36.072  23.285  23.777  1.00  0.00     0.313 C 
ATOM      4  O   UNL A   1      36.668  22.815  22.815  1.00  0.00    -0.252 OA
BRANCH   3   5
ATOM      5  C   UNL A   1      34.553  23.466  23.825  1.00  0.00     0.129 C 
ATOM      6  C   UNL A   1      34.109  24.625  24.730  1.00  0.00     0.025 C 
BRANCH   5   7
ATOM      7  C   UNL A   1      33.816  22.161  24.100  1.00  0.00     0.002 A 
ATOM      8  C   UNL A   1      34.072  21.446  25.284  1.00  0.00     0.011 A 
ATOM      9  C   UNL A   1      32.898  21.605  23.202  1.00  0.00     0.130 A 
ATOM     10  C   UNL A   1      33.450  20.215  25.531  1.00  0.00     0.047 A 
ATOM     11  C   UNL A   1      32.312  20.361  23.425  1.00  0.00     0.086 A 
ATOM     12  F   UNL A   1      32.570  22.252  22.077  1.00  0.00    -0.207 F 
ATOM     13  C   UNL A   1      32.557  19.674  24.604  1.00  0.00     0.122 A 
BRANCH  13  14
ATOM     14  O   UNL A   1      32.028  18.449  24.889  1.00  0.00    -0.490 OA
BRANCH  14  15
ATOM     15  C   UNL A   1      32.740  17.265  24.484  1.00  0.00     0.173 C 
ATOM     16  C   UNL A   1      34.021  17.462  23.672  1.00  0.00     0.045 C 
ATOM     17  C   UNL A   1      33.113  16.355  25.663  1.00  0.00     0.045 C 
ATOM     18  C   UNL A   1      35.146  17.036  24.602  1.00  0.00     0.004 C 
ATOM     19  C   UNL A   1      34.534  15.886  25.375  1.00  0.00     0.004 C 
ENDBRANCH  14  15
ENDBRANCH  13  14
ENDBRANCH   5   7
ENDBRANCH   3   5
ENDBRANCH   2   3
ENDBRANCH   1   2
BRANCH   1  20
ATOM     20  C   UNL A   1      38.624  22.567  25.708  1.00  0.00     0.275 C 
BRANCH  20  21
ATOM     21  O   UNL A   1      39.342  22.997  26.877  1.00  0.00    -0.458 OA
BRANCH  21  22
ATOM     22  C   UNL A   1      40.522  23.621  26.654  1.00  0.00     0.338 C 
ATOM     23  O   UNL A   1      41.459  23.216  25.990  1.00  0.00    -0.246 OA
BRANCH  22  24
ATOM     24  C   UNL A   1      40.541  24.893  27.395  1.00  0.00     0.060 A 
ATOM     25  C   UNL A   1      41.561  25.805  27.170  1.00  0.00     0.016 A 
ATOM     26  C   UNL A   1      39.584  25.143  28.380  1.00  0.00     0.016 A 
ATOM     27  C   UNL A   1      41.662  26.926  27.995  1.00  0.00     0.010 A 
ATOM     28  C   UNL A   1      39.665  26.307  29.165  1.00  0.00     0.010 A 
ATOM     29  C   UNL A   1      40.749  27.187  29.040  1.00  0.00    -0.014 A 
BRANCH  29  30
ATOM     30  C   UNL A   1      41.029  28.313  30.007  1.00  0.00     0.031 A 
ATOM     31  C   UNL A   1      40.168  29.570  30.045  1.00  0.00     0.074 A 
ATOM     32  C   UNL A   1      41.923  28.139  31.007  1.00  0.00     0.049 A 
ATOM     33  N   UNL A   1      40.043  30.444  31.020  1.00  0.00    -0.248 NA
ATOM     34  C   UNL A   1      39.293  29.856  28.896  1.00  0.00     0.031 C 
ATOM     35  C   UNL A   1      42.812  26.985  31.158  1.00  0.00     0.029 A 
ATOM     36  N   UNL A   1      42.191  28.904  32.122  1.00  0.00    -0.354 N 
ATOM     37  C   UNL A   1      39.006  31.295  30.649  1.00  0.00     0.074 A 
ATOM     38  C   UNL A   1      38.588  30.894  29.327  1.00  0.00     0.031 C 
ATOM     39  C   UNL A   1      43.460  27.076  32.328  1.00  0.00     0.029 A 
ATOM     40  C   UNL A   1      43.112  28.338  32.975  1.00  0.00     0.049 A 
ATOM     41  H   UNL A   1      41.764  29.775  32.291  1.00  0.00     0.167 HD
ATOM     42  C   UNL A   1      38.420  32.301  31.346  1.00  0.00     0.031 A 
ATOM     43  C   UNL A   1      43.652  28.780  34.130  1.00  0.00     0.031 A 
ATOM     44  C   UNL A   1      38.905  32.831  32.589  1.00  0.00     0.049 A 
ATOM     45  C   UNL A   1      43.228  30.106  34.692  1.00  0.00     0.074 A 
ATOM     46  C   UNL A   1      38.416  33.905  33.316  1.00  0.00     0.029 A 
ATOM     47  N   UNL A   1      40.029  32.377  33.254  1.00  0.00    -0.354 N 
ATOM     48  N   UNL A   1      42.213  30.858  34.345  1.00  0.00    -0.248 NA
ATOM     49  C   UNL A   1      44.046  30.662  35.781  1.00  0.00     0.031 C 
ATOM     50  C   UNL A   1      39.305  34.160  34.367  1.00  0.00     0.029 A 
ATOM     51  C   UNL A   1      40.308  33.207  34.328  1.00  0.00     0.049 A 
ATOM     52  H   UNL A   1      40.553  31.584  33.002  1.00  0.00     0.167 HD
ATOM     53  C   UNL A   1      42.278  31.981  35.162  1.00  0.00     0.074 A 
ATOM     54  C   UNL A   1      43.413  31.798  36.042  1.00  0.00     0.031 C 
ATOM     55  C   UNL A   1      41.465  33.067  35.172  1.00  0.00     0.031 A 
BRANCH  42  56
ATOM     56  C   UNL A   1      37.183  32.921  30.756  1.00  0.00    -0.014 A 
ATOM     57  C   UNL A   1      37.291  33.822  29.682  1.00  0.00     0.010 A 
ATOM     58  C   UNL A   1      35.908  32.560  31.226  1.00  0.00     0.010 A 
ATOM     59  C   UNL A   1      36.145  34.372  29.100  1.00  0.00     0.020 A 
ATOM     60  C   UNL A   1      34.760  33.100  30.640  1.00  0.00     0.020 A 
ATOM     61  C   UNL A   1      34.885  34.011  29.586  1.00  0.00     0.054 A 
BRANCH  61  62
ATOM     62  S   UNL A   1      33.416  34.730  28.801  1.00  0.00     0.124 S 
ATOM     63  O   UNL A   1      33.008  33.662  27.891  1.00  0.00    -0.237 OA
ATOM     64  O   UNL A   1      32.528  34.959  29.938  1.00  0.00    -0.237 OA
ATOM     65  O   UNL A   1      33.923  35.937  28.155  1.00  0.00    -0.744 OA
ENDBRANCH  61  62
ENDBRANCH  42  56
BRANCH  43  66
ATOM     66  C   UNL A   1      44.754  28.004  34.767  1.00  0.00    -0.014 A 
ATOM     67  C   UNL A   1      46.098  28.186  34.398  1.00  0.00     0.010 A 
ATOM     68  C   UNL A   1      44.444  27.071  35.776  1.00  0.00     0.010 A 
ATOM     69  C   UNL A   1      47.109  27.459  35.039  1.00  0.00     0.020 A 
ATOM     70  C   UNL A   1      45.451  26.372  36.440  1.00  0.00     0.020 A 
ATOM     71  C   UNL A   1      46.779  26.563  36.062  1.00  0.00     0.054 A 
BRANCH  71  72
ATOM     72  S   UNL A   1      48.098  25.695  36.954  1.00  0.00     0.124 S 
ATOM     73  O   UNL A   1      47.591  25.702  38.322  1.00  0.00    -0.237 OA
ATOM     74  O   UNL A   1      48.129  24.391  36.296  1.00  0.00    -0.237 OA
ATOM     75  O   UNL A   1      49.273  26.530  36.715  1.00  0.00    -0.744 OA
ENDBRANCH  71  72
ENDBRANCH  43  66
BRANCH  55  76
ATOM     76  C   UNL A   1      41.797  34.178  36.130  1.00  0.00    -0.014 A 
ATOM     77  C   UNL A   1      41.323  34.142  37.455  1.00  0.00     0.010 A 
ATOM     78  C   UNL A   1      42.620  35.244  35.727  1.00  0.00     0.010 A 
ATOM     79  C   UNL A   1      41.645  35.165  38.351  1.00  0.00     0.020 A 
ATOM     80  C   UNL A   1      42.964  36.257  36.628  1.00  0.00     0.020 A 
ATOM     81  C   UNL A   1      42.462  36.218  37.931  1.00  0.00     0.054 A 
BRANCH  81  82
ATOM     82  S   UNL A   1      42.900  37.516  39.123  1.00  0.00     0.124 S 
ATOM     83  O   UNL A   1      43.693  36.776  40.099  1.00  0.00    -0.237 OA
ATOM     84  O   UNL A   1      43.644  38.469  38.303  1.00  0.00    -0.237 OA
ATOM     85  O   UNL A   1      41.606  37.994  39.602  1.00  0.00    -0.744 OA
ENDBRANCH  81  82
ENDBRANCH  55  76
ENDBRANCH  29  30
ENDBRANCH  22  24
ENDBRANCH  21  22
ENDBRANCH  20  21
ENDBRANCH   1  20
TORSDOF 17
ENDMDL
