MODEL 1
REMARK VINA RESULT:     -11.3      0.000      0.000
REMARK SMILES CCCc1cc2c(cc1Cl)C=C(C(=O)OCCOC(=O)c1ccc(-c3c4nc(c(-c5ccc(S(=O)(=O)[O-])cc5)c5ccc([nH]5)c(-c5ccc(S(=O)(=O)[O-])cc5)c5nc(c(-c6ccc(S(=O)(=O)[O-])cc6)c6ccc3[nH]6)C=C5)C=C4)cc1)[C@H](C(F)(F)F)O2
REMARK SMILES IDX 17 1 16 2 15 3 13 4 14 5 12 6 4 7 5 8 9 9 6 10 8 11 10 12
REMARK SMILES IDX 7 13 86 14 11 15 81 16 3 17 2 18 1 19 82 20 83 21 84 22
REMARK SMILES IDX 85 23 18 24 19 25 20 26 21 27 22 28 80 29 23 30 79 31 24 32
REMARK SMILES IDX 25 33 26 34 73 35 27 36 78 37 72 38 74 39 28 40 77 41 71 42
REMARK SMILES IDX 70 43 29 45 59 46 40 47 58 48 41 49 44 50 57 51 75 52 42 53
REMARK SMILES IDX 43 54 56 56 76 57 45 58 30 59 31 60 39 61 32 62 38 63 33 64
REMARK SMILES IDX 34 65 35 66 36 67 37 68 60 69 61 70 69 71 62 72 68 73 63 74
REMARK SMILES IDX 64 75 65 76 66 77 67 78 46 79 47 80 55 81 48 82 54 83 49 84
REMARK SMILES IDX 50 85 51 86 52 87 53 88
REMARK H PARENT 74 44 44 55
REMARK Flexibility Score: inf
ROOT
ATOM      1  C   UNL A   1      36.933  22.150  24.733  1.00  0.00     0.275 C 
ENDROOT
BRANCH   1   2
ATOM      2  C   UNL A   1      35.915  21.184  25.348  1.00  0.00     0.275 C 
BRANCH   2   3
ATOM      3  O   UNL A   1      34.579  21.729  25.289  1.00  0.00    -0.459 OA
BRANCH   3   4
ATOM      4  C   UNL A   1      34.055  22.152  26.459  1.00  0.00     0.338 C 
ATOM      5  O   UNL A   1      34.205  21.615  27.540  1.00  0.00    -0.246 OA
BRANCH   4   6
ATOM      6  C   UNL A   1      33.340  23.435  26.281  1.00  0.00     0.087 C 
ATOM      7  C   UNL A   1      32.340  28.251  25.213  1.00  0.00    -0.026 A 
ATOM      8  C   UNL A   1      31.775  27.299  26.091  1.00  0.00     0.052 A 
ATOM      9  C   UNL A   1      33.342  27.823  24.324  1.00  0.00     0.045 A 
ATOM     10  C   UNL A   1      32.285  26.004  26.170  1.00  0.00     0.128 A 
ATOM     11  C   UNL A   1      33.862  26.533  24.415  1.00  0.00     0.032 A 
ATOM     12  Cl  UNL A   1      34.012  28.853  23.109  1.00  0.00    -0.084 Cl
ATOM     13  C   UNL A   1      33.366  25.649  25.374  1.00  0.00     0.019 A 
ATOM     14  O   UNL A   1      31.752  25.155  27.107  1.00  0.00    -0.475 OA
ATOM     15  C   UNL A   1      34.015  24.380  25.610  1.00  0.00     0.027 C 
ATOM     16  C   UNL A   1      32.001  23.717  26.910  1.00  0.00     0.316 C 
BRANCH   7  17
ATOM     17  C   UNL A   1      31.879  29.693  25.259  1.00  0.00     0.037 C 
BRANCH  17  18
ATOM     18  C   UNL A   1      31.923  30.348  26.649  1.00  0.00     0.001 C 
ATOM     19  C   UNL A   1      33.334  30.505  27.203  1.00  0.00     0.004 C 
ENDBRANCH  17  18
ENDBRANCH   7  17
BRANCH  16  20
ATOM     20  C   UNL A   1      30.766  23.090  26.239  1.00  0.00     0.430 C 
ATOM     21  F   UNL A   1      30.410  23.825  25.149  1.00  0.00    -0.167 F 
ATOM     22  F   UNL A   1      30.989  21.831  25.809  1.00  0.00    -0.167 F 
ATOM     23  F   UNL A   1      29.678  23.077  27.038  1.00  0.00    -0.167 F 
ENDBRANCH  16  20
ENDBRANCH   4   6
ENDBRANCH   3   4
ENDBRANCH   2   3
ENDBRANCH   1   2
BRANCH   1  24
ATOM     24  O   UNL A   1      37.467  23.052  25.724  1.00  0.00    -0.458 OA
BRANCH  24  25
ATOM     25  C   UNL A   1      38.725  22.781  26.141  1.00  0.00     0.338 C 
ATOM     26  O   UNL A   1      39.357  21.754  25.956  1.00  0.00    -0.246 OA
BRANCH  25  27
ATOM     27  C   UNL A   1      39.326  23.998  26.705  1.00  0.00     0.060 A 
ATOM     28  C   UNL A   1      40.011  24.937  25.942  1.00  0.00     0.016 A 
ATOM     29  C   UNL A   1      39.091  24.243  28.054  1.00  0.00     0.016 A 
ATOM     30  C   UNL A   1      40.475  26.109  26.561  1.00  0.00     0.010 A 
ATOM     31  C   UNL A   1      39.476  25.436  28.650  1.00  0.00     0.010 A 
ATOM     32  C   UNL A   1      40.200  26.380  27.920  1.00  0.00    -0.014 A 
BRANCH  32  33
ATOM     33  C   UNL A   1      40.641  27.642  28.581  1.00  0.00     0.031 A 
ATOM     34  C   UNL A   1      42.064  27.814  29.061  1.00  0.00     0.074 A 
ATOM     35  C   UNL A   1      39.744  28.624  28.803  1.00  0.00     0.049 A 
ATOM     36  N   UNL A   1      42.617  28.853  29.637  1.00  0.00    -0.248 NA
ATOM     37  C   UNL A   1      42.978  26.668  28.910  1.00  0.00     0.031 C 
ATOM     38  C   UNL A   1      38.317  28.550  28.483  1.00  0.00     0.029 A 
ATOM     39  N   UNL A   1      39.897  29.882  29.336  1.00  0.00    -0.354 N 
ATOM     40  C   UNL A   1      43.927  28.481  29.925  1.00  0.00     0.074 A 
ATOM     41  C   UNL A   1      44.070  27.100  29.524  1.00  0.00     0.031 C 
ATOM     42  C   UNL A   1      37.744  29.733  28.752  1.00  0.00     0.029 A 
ATOM     43  C   UNL A   1      38.748  30.639  29.302  1.00  0.00     0.049 A 
ATOM     44  H   UNL A   1      40.748  30.210  29.708  1.00  0.00     0.167 HD
ATOM     45  C   UNL A   1      44.933  29.231  30.434  1.00  0.00     0.031 A 
ATOM     46  C   UNL A   1      38.526  31.924  29.646  1.00  0.00     0.031 A 
ATOM     47  C   UNL A   1      44.801  30.622  30.782  1.00  0.00     0.049 A 
ATOM     48  C   UNL A   1      39.668  32.759  30.154  1.00  0.00     0.074 A 
ATOM     49  C   UNL A   1      45.783  31.488  31.228  1.00  0.00     0.029 A 
ATOM     50  N   UNL A   1      43.626  31.353  30.710  1.00  0.00    -0.354 N 
ATOM     51  N   UNL A   1      40.919  32.410  30.338  1.00  0.00    -0.248 NA
ATOM     52  C   UNL A   1      39.379  34.161  30.484  1.00  0.00     0.031 C 
ATOM     53  C   UNL A   1      45.194  32.730  31.469  1.00  0.00     0.029 A 
ATOM     54  C   UNL A   1      43.856  32.656  31.113  1.00  0.00     0.049 A 
ATOM     55  H   UNL A   1      42.756  30.997  30.414  1.00  0.00     0.167 HD
ATOM     56  C   UNL A   1      41.568  33.552  30.793  1.00  0.00     0.074 A 
ATOM     57  C   UNL A   1      40.580  34.609  30.835  1.00  0.00     0.031 C 
ATOM     58  C   UNL A   1      42.867  33.704  31.148  1.00  0.00     0.031 A 
BRANCH  45  59
ATOM     59  C   UNL A   1      46.293  28.598  30.599  1.00  0.00    -0.014 A 
ATOM     60  C   UNL A   1      47.197  28.569  29.521  1.00  0.00     0.010 A 
ATOM     61  C   UNL A   1      46.624  27.914  31.783  1.00  0.00     0.010 A 
ATOM     62  C   UNL A   1      48.390  27.845  29.612  1.00  0.00     0.020 A 
ATOM     63  C   UNL A   1      47.830  27.215  31.890  1.00  0.00     0.020 A 
ATOM     64  C   UNL A   1      48.694  27.165  30.794  1.00  0.00     0.054 A 
BRANCH  64  65
ATOM     65  S   UNL A   1      50.230  26.204  30.889  1.00  0.00     0.124 S 
ATOM     66  O   UNL A   1      49.848  25.097  31.760  1.00  0.00    -0.237 OA
ATOM     67  O   UNL A   1      50.476  25.854  29.493  1.00  0.00    -0.237 OA
ATOM     68  O   UNL A   1      51.189  27.148  31.461  1.00  0.00    -0.744 OA
ENDBRANCH  64  65
ENDBRANCH  45  59
BRANCH  46  69
ATOM     69  C   UNL A   1      37.172  32.508  29.428  1.00  0.00    -0.014 A 
ATOM     70  C   UNL A   1      36.838  33.113  28.203  1.00  0.00     0.010 A 
ATOM     71  C   UNL A   1      36.245  32.551  30.486  1.00  0.00     0.010 A 
ATOM     72  C   UNL A   1      35.628  33.797  28.056  1.00  0.00     0.020 A 
ATOM     73  C   UNL A   1      35.021  33.209  30.333  1.00  0.00     0.020 A 
ATOM     74  C   UNL A   1      34.735  33.856  29.129  1.00  0.00     0.054 A 
BRANCH  74  75
ATOM     75  S   UNL A   1      33.200  34.804  28.940  1.00  0.00     0.124 S 
ATOM     76  O   UNL A   1      33.704  36.109  28.520  1.00  0.00    -0.237 OA
ATOM     77  O   UNL A   1      32.480  34.048  27.919  1.00  0.00    -0.237 OA
ATOM     78  O   UNL A   1      32.606  34.763  30.274  1.00  0.00    -0.744 OA
ENDBRANCH  74  75
ENDBRANCH  46  69
BRANCH  58  79
ATOM     79  C   UNL A   1      43.327  35.058  31.621  1.00  0.00    -0.014 A 
ATOM     80  C   UNL A   1      43.158  35.419  32.971  1.00  0.00     0.010 A 
ATOM     81  C   UNL A   1      43.778  36.023  30.704  1.00  0.00     0.010 A 
ATOM     82  C   UNL A   1      43.390  36.732  33.389  1.00  0.00     0.020 A 
ATOM     83  C   UNL A   1      44.037  37.331  31.123  1.00  0.00     0.020 A 
ATOM     84  C   UNL A   1      43.813  37.683  32.457  1.00  0.00     0.054 A 
BRANCH  84  85
ATOM     85  S   UNL A   1      44.059  39.395  33.005  1.00  0.00     0.124 S 
ATOM     86  O   UNL A   1      45.338  39.313  33.704  1.00  0.00    -0.237 OA
ATOM     87  O   UNL A   1      44.077  40.136  31.746  1.00  0.00    -0.237 OA
ATOM     88  O   UNL A   1      42.899  39.654  33.854  1.00  0.00    -0.744 OA
ENDBRANCH  84  85
ENDBRANCH  58  79
ENDBRANCH  32  33
ENDBRANCH  25  27
ENDBRANCH  24  25
ENDBRANCH   1  24
TORSDOF 17
ENDMDL
MODEL 2
REMARK VINA RESULT:     -11.2      2.900      9.529
REMARK SMILES CCCc1cc2c(cc1Cl)C=C(C(=O)OCCOC(=O)c1ccc(-c3c4nc(c(-c5ccc(S(=O)(=O)[O-])cc5)c5ccc([nH]5)c(-c5ccc(S(=O)(=O)[O-])cc5)c5nc(c(-c6ccc(S(=O)(=O)[O-])cc6)c6ccc3[nH]6)C=C5)C=C4)cc1)[C@H](C(F)(F)F)O2
REMARK SMILES IDX 17 1 16 2 15 3 13 4 14 5 12 6 4 7 5 8 9 9 6 10 8 11 10 12
REMARK SMILES IDX 7 13 86 14 11 15 81 16 3 17 2 18 1 19 82 20 83 21 84 22
REMARK SMILES IDX 85 23 18 24 19 25 20 26 21 27 22 28 80 29 23 30 79 31 24 32
REMARK SMILES IDX 25 33 26 34 73 35 27 36 78 37 72 38 74 39 28 40 77 41 71 42
REMARK SMILES IDX 70 43 29 45 59 46 40 47 58 48 41 49 44 50 57 51 75 52 42 53
REMARK SMILES IDX 43 54 56 56 76 57 45 58 30 59 31 60 39 61 32 62 38 63 33 64
REMARK SMILES IDX 34 65 35 66 36 67 37 68 60 69 61 70 69 71 62 72 68 73 63 74
REMARK SMILES IDX 64 75 65 76 66 77 67 78 46 79 47 80 55 81 48 82 54 83 49 84
REMARK SMILES IDX 50 85 51 86 52 87 53 88
REMARK H PARENT 74 44 44 55
REMARK Flexibility Score: inf
ROOT
ATOM      1  C   UNL A   1      32.256  30.061  26.854  1.00  0.00     0.275 C 
ENDROOT
BRANCH   1   2
ATOM      2  C   UNL A   1      32.091  29.557  25.416  1.00  0.00     0.275 C 
BRANCH   2   3
ATOM      3  O   UNL A   1      33.327  29.007  24.913  1.00  0.00    -0.459 OA
BRANCH   3   4
ATOM      4  C   UNL A   1      33.313  28.578  23.633  1.00  0.00     0.338 C 
ATOM      5  O   UNL A   1      33.306  29.290  22.646  1.00  0.00    -0.246 OA
BRANCH   4   6
ATOM      6  C   UNL A   1      33.412  27.103  23.571  1.00  0.00     0.087 C 
ATOM      7  C   UNL A   1      34.440  22.319  24.749  1.00  0.00    -0.026 A 
ATOM      8  C   UNL A   1      34.268  23.019  23.534  1.00  0.00     0.052 A 
ATOM      9  C   UNL A   1      34.185  23.002  25.952  1.00  0.00     0.045 A 
ATOM     10  C   UNL A   1      33.983  24.383  23.525  1.00  0.00     0.128 A 
ATOM     11  C   UNL A   1      33.916  24.370  25.943  1.00  0.00     0.032 A 
ATOM     12  Cl  UNL A   1      34.223  22.222  27.493  1.00  0.00    -0.084 Cl
ATOM     13  C   UNL A   1      33.870  25.062  24.731  1.00  0.00     0.019 A 
ATOM     14  O   UNL A   1      33.918  25.024  22.314  1.00  0.00    -0.475 OA
ATOM     15  C   UNL A   1      33.782  26.504  24.711  1.00  0.00     0.027 C 
ATOM     16  C   UNL A   1      33.234  26.326  22.292  1.00  0.00     0.316 C 
BRANCH   7  17
ATOM     17  C   UNL A   1      34.907  20.878  24.735  1.00  0.00     0.037 C 
BRANCH  17  18
ATOM     18  C   UNL A   1      36.384  20.668  25.107  1.00  0.00     0.001 C 
ATOM     19  C   UNL A   1      37.319  21.705  24.496  1.00  0.00     0.004 C 
ENDBRANCH  17  18
ENDBRANCH   7  17
BRANCH  16  20
ATOM     20  C   UNL A   1      31.791  26.118  21.795  1.00  0.00     0.430 C 
ATOM     21  F   UNL A   1      31.240  25.041  22.421  1.00  0.00    -0.167 F 
ATOM     22  F   UNL A   1      30.993  27.174  22.052  1.00  0.00    -0.167 F 
ATOM     23  F   UNL A   1      31.720  25.846  20.475  1.00  0.00    -0.167 F 
ENDBRANCH  16  20
ENDBRANCH   4   6
ENDBRANCH   3   4
ENDBRANCH   2   3
ENDBRANCH   1   2
BRANCH   1  24
ATOM     24  O   UNL A   1      33.506  29.626  27.424  1.00  0.00    -0.458 OA
BRANCH  24  25
ATOM     25  C   UNL A   1      34.268  30.600  27.971  1.00  0.00     0.338 C 
ATOM     26  O   UNL A   1      33.889  31.676  28.405  1.00  0.00    -0.246 OA
BRANCH  25  27
ATOM     27  C   UNL A   1      35.640  30.103  28.156  1.00  0.00     0.060 A 
ATOM     28  C   UNL A   1      36.593  30.099  27.143  1.00  0.00     0.016 A 
ATOM     29  C   UNL A   1      35.998  29.724  29.445  1.00  0.00     0.016 A 
ATOM     30  C   UNL A   1      37.900  29.683  27.443  1.00  0.00     0.010 A 
ATOM     31  C   UNL A   1      37.309  29.391  29.762  1.00  0.00     0.010 A 
ATOM     32  C   UNL A   1      38.278  29.338  28.760  1.00  0.00    -0.014 A 
BRANCH  32  33
ATOM     33  C   UNL A   1      39.674  28.943  29.105  1.00  0.00     0.031 A 
ATOM     34  C   UNL A   1      40.574  29.869  29.891  1.00  0.00     0.074 A 
ATOM     35  C   UNL A   1      40.160  27.765  28.663  1.00  0.00     0.049 A 
ATOM     36  N   UNL A   1      41.806  29.673  30.293  1.00  0.00    -0.248 NA
ATOM     37  C   UNL A   1      40.043  31.197  30.246  1.00  0.00     0.031 C 
ATOM     38  C   UNL A   1      39.434  26.822  27.810  1.00  0.00     0.029 A 
ATOM     39  N   UNL A   1      41.371  27.151  28.878  1.00  0.00    -0.354 N 
ATOM     40  C   UNL A   1      42.195  30.848  30.929  1.00  0.00     0.074 A 
ATOM     41  C   UNL A   1      41.096  31.778  30.803  1.00  0.00     0.031 C 
ATOM     42  C   UNL A   1      40.180  25.719  27.640  1.00  0.00     0.029 A 
ATOM     43  C   UNL A   1      41.453  25.889  28.334  1.00  0.00     0.049 A 
ATOM     44  H   UNL A   1      42.110  27.574  29.374  1.00  0.00     0.167 HD
ATOM     45  C   UNL A   1      43.343  31.115  31.595  1.00  0.00     0.031 A 
ATOM     46  C   UNL A   1      42.427  24.959  28.405  1.00  0.00     0.031 A 
ATOM     47  C   UNL A   1      44.413  30.167  31.765  1.00  0.00     0.049 A 
ATOM     48  C   UNL A   1      43.669  25.250  29.200  1.00  0.00     0.074 A 
ATOM     49  C   UNL A   1      45.580  30.317  32.493  1.00  0.00     0.029 A 
ATOM     50  N   UNL A   1      44.444  28.895  31.217  1.00  0.00    -0.354 N 
ATOM     51  N   UNL A   1      43.979  26.338  29.865  1.00  0.00    -0.248 NA
ATOM     52  C   UNL A   1      44.684  24.191  29.271  1.00  0.00     0.031 C 
ATOM     53  C   UNL A   1      46.337  29.154  32.348  1.00  0.00     0.029 A 
ATOM     54  C   UNL A   1      45.614  28.253  31.582  1.00  0.00     0.049 A 
ATOM     55  H   UNL A   1      43.737  28.505  30.652  1.00  0.00     0.167 HD
ATOM     56  C   UNL A   1      45.218  26.088  30.444  1.00  0.00     0.074 A 
ATOM     57  C   UNL A   1      45.592  24.739  30.071  1.00  0.00     0.031 C 
ATOM     58  C   UNL A   1      45.977  26.908  31.210  1.00  0.00     0.031 A 
BRANCH  45  59
ATOM     59  C   UNL A   1      43.497  32.465  32.254  1.00  0.00    -0.014 A 
ATOM     60  C   UNL A   1      43.012  32.678  33.557  1.00  0.00     0.010 A 
ATOM     61  C   UNL A   1      44.005  33.559  31.529  1.00  0.00     0.010 A 
ATOM     62  C   UNL A   1      43.003  33.962  34.112  1.00  0.00     0.020 A 
ATOM     63  C   UNL A   1      44.027  34.838  32.091  1.00  0.00     0.020 A 
ATOM     64  C   UNL A   1      43.503  35.035  33.370  1.00  0.00     0.054 A 
BRANCH  64  65
ATOM     65  S   UNL A   1      43.458  36.701  34.089  1.00  0.00     0.124 S 
ATOM     66  O   UNL A   1      44.620  36.687  34.973  1.00  0.00    -0.237 OA
ATOM     67  O   UNL A   1      43.568  37.561  32.914  1.00  0.00    -0.237 OA
ATOM     68  O   UNL A   1      42.161  36.748  34.762  1.00  0.00    -0.744 OA
ENDBRANCH  64  65
ENDBRANCH  45  59
BRANCH  46  69
ATOM     69  C   UNL A   1      42.206  23.630  27.767  1.00  0.00    -0.014 A 
ATOM     70  C   UNL A   1      41.527  22.607  28.453  1.00  0.00     0.010 A 
ATOM     71  C   UNL A   1      42.766  23.352  26.507  1.00  0.00     0.010 A 
ATOM     72  C   UNL A   1      41.459  21.317  27.918  1.00  0.00     0.020 A 
ATOM     73  C   UNL A   1      42.676  22.070  25.955  1.00  0.00     0.020 A 
ATOM     74  C   UNL A   1      42.051  21.053  26.679  1.00  0.00     0.054 A 
BRANCH  74  75
ATOM     75  S   UNL A   1      42.010  19.359  26.033  1.00  0.00     0.124 S 
ATOM     76  O   UNL A   1      42.514  18.592  27.169  1.00  0.00    -0.237 OA
ATOM     77  O   UNL A   1      40.596  19.168  25.723  1.00  0.00    -0.237 OA
ATOM     78  O   UNL A   1      42.896  19.414  24.873  1.00  0.00    -0.744 OA
ENDBRANCH  74  75
ENDBRANCH  46  69
BRANCH  58  79
ATOM     79  C   UNL A   1      47.301  26.397  31.715  1.00  0.00    -0.014 A 
ATOM     80  C   UNL A   1      48.441  26.487  30.894  1.00  0.00     0.010 A 
ATOM     81  C   UNL A   1      47.381  25.691  32.927  1.00  0.00     0.010 A 
ATOM     82  C   UNL A   1      49.627  25.844  31.256  1.00  0.00     0.020 A 
ATOM     83  C   UNL A   1      48.575  25.068  33.305  1.00  0.00     0.020 A 
ATOM     84  C   UNL A   1      49.681  25.126  32.452  1.00  0.00     0.054 A 
BRANCH  84  85
ATOM     85  S   UNL A   1      51.212  24.253  32.881  1.00  0.00     0.124 S 
ATOM     86  O   UNL A   1      50.896  22.877  32.511  1.00  0.00    -0.237 OA
ATOM     87  O   UNL A   1      52.207  24.917  32.042  1.00  0.00    -0.237 OA
ATOM     88  O   UNL A   1      51.356  24.497  34.315  1.00  0.00    -0.744 OA
ENDBRANCH  84  85
ENDBRANCH  58  79
ENDBRANCH  32  33
ENDBRANCH  25  27
ENDBRANCH  24  25
ENDBRANCH   1  24
TORSDOF 17
ENDMDL
MODEL 3
REMARK VINA RESULT:     -10.8      3.913      4.844
REMARK SMILES CCCc1cc2c(cc1Cl)C=C(C(=O)OCCOC(=O)c1ccc(-c3c4nc(c(-c5ccc(S(=O)(=O)[O-])cc5)c5ccc([nH]5)c(-c5ccc(S(=O)(=O)[O-])cc5)c5nc(c(-c6ccc(S(=O)(=O)[O-])cc6)c6ccc3[nH]6)C=C5)C=C4)cc1)[C@H](C(F)(F)F)O2
REMARK SMILES IDX 17 1 16 2 15 3 13 4 14 5 12 6 4 7 5 8 9 9 6 10 8 11 10 12
REMARK SMILES IDX 7 13 86 14 11 15 81 16 3 17 2 18 1 19 82 20 83 21 84 22
REMARK SMILES IDX 85 23 18 24 19 25 20 26 21 27 22 28 80 29 23 30 79 31 24 32
REMARK SMILES IDX 25 33 26 34 73 35 27 36 78 37 72 38 74 39 28 40 77 41 71 42
REMARK SMILES IDX 70 43 29 45 59 46 40 47 58 48 41 49 44 50 57 51 75 52 42 53
REMARK SMILES IDX 43 54 56 56 76 57 45 58 30 59 31 60 39 61 32 62 38 63 33 64
REMARK SMILES IDX 34 65 35 66 36 67 37 68 60 69 61 70 69 71 62 72 68 73 63 74
REMARK SMILES IDX 64 75 65 76 66 77 67 78 46 79 47 80 55 81 48 82 54 83 49 84
REMARK SMILES IDX 50 85 51 86 52 87 53 88
REMARK H PARENT 74 44 44 55
REMARK Flexibility Score: inf
ROOT
ATOM      1  C   UNL A   1      40.772  22.839  26.289  1.00  0.00     0.275 C 
ENDROOT
BRANCH   1   2
ATOM      2  C   UNL A   1      39.795  21.668  26.141  1.00  0.00     0.275 C 
BRANCH   2   3
ATOM      3  O   UNL A   1      38.427  22.117  26.238  1.00  0.00    -0.459 OA
BRANCH   3   4
ATOM      4  C   UNL A   1      37.557  21.579  25.356  1.00  0.00     0.338 C 
ATOM      5  O   UNL A   1      37.801  20.672  24.582  1.00  0.00    -0.246 OA
BRANCH   4   6
ATOM      6  C   UNL A   1      36.211  22.170  25.516  1.00  0.00     0.087 C 
ATOM      7  C   UNL A   1      32.464  25.506  25.928  1.00  0.00    -0.026 A 
ATOM      8  C   UNL A   1      32.662  24.185  26.390  1.00  0.00     0.052 A 
ATOM      9  C   UNL A   1      33.427  26.061  25.067  1.00  0.00     0.045 A 
ATOM     10  C   UNL A   1      33.841  23.496  26.109  1.00  0.00     0.128 A 
ATOM     11  C   UNL A   1      34.613  25.378  24.801  1.00  0.00     0.032 A 
ATOM     12  Cl  UNL A   1      33.233  27.609  24.325  1.00  0.00    -0.084 Cl
ATOM     13  C   UNL A   1      34.835  24.121  25.368  1.00  0.00     0.019 A 
ATOM     14  O   UNL A   1      34.011  22.252  26.663  1.00  0.00    -0.475 OA
ATOM     15  C   UNL A   1      36.126  23.483  25.260  1.00  0.00     0.027 C 
ATOM     16  C   UNL A   1      35.036  21.392  26.049  1.00  0.00     0.316 C 
BRANCH   7  17
ATOM     17  C   UNL A   1      31.250  26.292  26.378  1.00  0.00     0.037 C 
BRANCH  17  18
ATOM     18  C   UNL A   1      29.917  25.845  25.758  1.00  0.00     0.001 C 
ATOM     19  C   UNL A   1      29.683  26.395  24.355  1.00  0.00     0.004 C 
ENDBRANCH  17  18
ENDBRANCH   7  17
BRANCH  16  20
ATOM     20  C   UNL A   1      34.346  20.416  25.080  1.00  0.00     0.430 C 
ATOM     21  F   UNL A   1      35.203  19.409  24.751  1.00  0.00    -0.167 F 
ATOM     22  F   UNL A   1      33.248  19.840  25.613  1.00  0.00    -0.167 F 
ATOM     23  F   UNL A   1      33.995  20.990  23.909  1.00  0.00    -0.167 F 
ENDBRANCH  16  20
ENDBRANCH   4   6
ENDBRANCH   3   4
ENDBRANCH   2   3
ENDBRANCH   1   2
BRANCH   1  24
ATOM     24  O   UNL A   1      40.074  24.085  26.486  1.00  0.00    -0.458 OA
BRANCH  24  25
ATOM     25  C   UNL A   1      40.833  25.201  26.388  1.00  0.00     0.338 C 
ATOM     26  O   UNL A   1      41.550  25.524  25.454  1.00  0.00    -0.246 OA
BRANCH  25  27
ATOM     27  C   UNL A   1      40.530  26.100  27.511  1.00  0.00     0.060 A 
ATOM     28  C   UNL A   1      39.565  25.823  28.472  1.00  0.00     0.016 A 
ATOM     29  C   UNL A   1      41.338  27.224  27.646  1.00  0.00     0.016 A 
ATOM     30  C   UNL A   1      39.410  26.705  29.554  1.00  0.00     0.010 A 
ATOM     31  C   UNL A   1      41.243  28.054  28.755  1.00  0.00     0.010 A 
ATOM     32  C   UNL A   1      40.257  27.825  29.716  1.00  0.00    -0.014 A 
BRANCH  32  33
ATOM     33  C   UNL A   1      40.139  28.744  30.885  1.00  0.00     0.031 A 
ATOM     34  C   UNL A   1      41.075  28.626  32.065  1.00  0.00     0.074 A 
ATOM     35  C   UNL A   1      39.148  29.658  30.913  1.00  0.00     0.049 A 
ATOM     36  N   UNL A   1      41.123  29.357  33.152  1.00  0.00    -0.248 NA
ATOM     37  C   UNL A   1      42.063  27.533  32.047  1.00  0.00     0.031 C 
ATOM     38  C   UNL A   1      38.114  29.812  29.888  1.00  0.00     0.029 A 
ATOM     39  N   UNL A   1      38.853  30.640  31.829  1.00  0.00    -0.354 N 
ATOM     40  C   UNL A   1      42.127  28.806  33.943  1.00  0.00     0.074 A 
ATOM     41  C   UNL A   1      42.619  27.640  33.246  1.00  0.00     0.031 C 
ATOM     42  C   UNL A   1      37.350  30.873  30.190  1.00  0.00     0.029 A 
ATOM     43  C   UNL A   1      37.808  31.452  31.449  1.00  0.00     0.049 A 
ATOM     44  H   UNL A   1      39.342  30.752  32.677  1.00  0.00     0.167 HD
ATOM     45  C   UNL A   1      42.625  29.253  35.120  1.00  0.00     0.031 A 
ATOM     46  C   UNL A   1      37.290  32.554  32.029  1.00  0.00     0.031 A 
ATOM     47  C   UNL A   1      42.169  30.445  35.785  1.00  0.00     0.049 A 
ATOM     48  C   UNL A   1      37.896  33.070  33.304  1.00  0.00     0.074 A 
ATOM     49  C   UNL A   1      42.668  31.025  36.938  1.00  0.00     0.029 A 
ATOM     50  N   UNL A   1      41.125  31.248  35.353  1.00  0.00    -0.354 N 
ATOM     51  N   UNL A   1      38.901  32.580  33.990  1.00  0.00    -0.248 NA
ATOM     52  C   UNL A   1      37.314  34.292  33.877  1.00  0.00     0.031 C 
ATOM     53  C   UNL A   1      41.897  32.151  37.229  1.00  0.00     0.029 A 
ATOM     54  C   UNL A   1      40.958  32.311  36.223  1.00  0.00     0.049 A 
ATOM     55  H   UNL A   1      40.584  31.086  34.546  1.00  0.00     0.167 HD
ATOM     56  C   UNL A   1      39.080  33.442  35.067  1.00  0.00     0.074 A 
ATOM     57  C   UNL A   1      38.096  34.495  34.931  1.00  0.00     0.031 C 
ATOM     58  C   UNL A   1      39.978  33.359  36.078  1.00  0.00     0.031 A 
BRANCH  45  59
ATOM     59  C   UNL A   1      43.767  28.495  35.753  1.00  0.00    -0.014 A 
ATOM     60  C   UNL A   1      45.096  28.783  35.392  1.00  0.00     0.010 A 
ATOM     61  C   UNL A   1      43.515  27.407  36.609  1.00  0.00     0.010 A 
ATOM     62  C   UNL A   1      46.147  27.981  35.849  1.00  0.00     0.020 A 
ATOM     63  C   UNL A   1      44.564  26.622  37.093  1.00  0.00     0.020 A 
ATOM     64  C   UNL A   1      45.872  26.899  36.689  1.00  0.00     0.054 A 
BRANCH  64  65
ATOM     65  S   UNL A   1      47.241  25.848  37.250  1.00  0.00     0.124 S 
ATOM     66  O   UNL A   1      47.707  25.255  36.000  1.00  0.00    -0.237 OA
ATOM     67  O   UNL A   1      48.149  26.808  37.871  1.00  0.00    -0.237 OA
ATOM     68  O   UNL A   1      46.601  24.921  38.181  1.00  0.00    -0.744 OA
ENDBRANCH  64  65
ENDBRANCH  45  59
BRANCH  46  69
ATOM     69  C   UNL A   1      36.188  33.283  31.340  1.00  0.00    -0.014 A 
ATOM     70  C   UNL A   1      36.309  33.664  29.992  1.00  0.00     0.010 A 
ATOM     71  C   UNL A   1      35.052  33.689  32.065  1.00  0.00     0.010 A 
ATOM     72  C   UNL A   1      35.345  34.483  29.396  1.00  0.00     0.020 A 
ATOM     73  C   UNL A   1      34.071  34.485  31.464  1.00  0.00     0.020 A 
ATOM     74  C   UNL A   1      34.241  34.903  30.143  1.00  0.00     0.054 A 
BRANCH  74  75
ATOM     75  S   UNL A   1      33.035  36.018  29.372  1.00  0.00     0.124 S 
ATOM     76  O   UNL A   1      32.376  35.132  28.416  1.00  0.00    -0.237 OA
ATOM     77  O   UNL A   1      32.217  36.439  30.506  1.00  0.00    -0.237 OA
ATOM     78  O   UNL A   1      33.866  37.066  28.785  1.00  0.00    -0.744 OA
ENDBRANCH  74  75
ENDBRANCH  46  69
BRANCH  58  79
ATOM     79  C   UNL A   1      39.963  34.427  37.140  1.00  0.00    -0.014 A 
ATOM     80  C   UNL A   1      39.131  34.279  38.265  1.00  0.00     0.010 A 
ATOM     81  C   UNL A   1      40.647  35.639  36.947  1.00  0.00     0.010 A 
ATOM     82  C   UNL A   1      38.949  35.338  39.157  1.00  0.00     0.020 A 
ATOM     83  C   UNL A   1      40.489  36.692  37.852  1.00  0.00     0.020 A 
ATOM     84  C   UNL A   1      39.617  36.544  38.936  1.00  0.00     0.054 A 
BRANCH  84  85
ATOM     85  S   UNL A   1      39.329  37.927  40.073  1.00  0.00     0.124 S 
ATOM     86  O   UNL A   1      39.191  37.245  41.356  1.00  0.00    -0.237 OA
ATOM     87  O   UNL A   1      40.539  38.731  39.915  1.00  0.00    -0.237 OA
ATOM     88  O   UNL A   1      38.109  38.546  39.559  1.00  0.00    -0.744 OA
ENDBRANCH  84  85
ENDBRANCH  58  79
ENDBRANCH  32  33
ENDBRANCH  25  27
ENDBRANCH  24  25
ENDBRANCH   1  24
TORSDOF 17
ENDMDL
