MODEL 1
REMARK VINA RESULT:      -9.8      0.000      0.000
REMARK SMILES CCCCCCNC(=O)Oc1cccc(-c2ccc([C@@H](C)C(=O)OCCOC(=O)c3ccc(-c4c5nc(c(-c6ccc(S(=O)(=O)[O-])cc6)c6ccc([nH]6)c(-c6ccc(S(=O)(=O)[O-])cc6)c6nc(c(-c7ccc(S(=O)(=O)[O-])cc7)c7ccc4[nH]7)C=C6)C=C5)cc3)cc2)c1
REMARK SMILES IDX 20 1 21 2 19 3 16 4 17 5 91 6 18 7 90 8 15 9 11 10 12 11
REMARK SMILES IDX 92 12 13 13 14 14 10 15 8 16 7 17 9 19 6 20 5 21 4 22 3 23
REMARK SMILES IDX 2 24 1 25 22 26 23 27 24 28 25 29 26 30 27 31 28 32 29 33
REMARK SMILES IDX 30 34 31 35 89 36 32 37 88 38 33 39 34 40 35 41 82 42 36 43
REMARK SMILES IDX 87 44 81 45 83 46 37 47 86 48 80 49 79 50 38 52 68 53 49 54
REMARK SMILES IDX 67 55 50 56 53 57 66 58 84 59 51 60 52 61 65 63 85 64 54 65
REMARK SMILES IDX 39 66 40 67 48 68 41 69 47 70 42 71 43 72 44 73 45 74 46 75
REMARK SMILES IDX 69 76 70 77 78 78 71 79 77 80 72 81 73 82 74 83 75 84 76 85
REMARK SMILES IDX 55 86 56 87 64 88 57 89 63 90 58 91 59 92 60 93 61 94 62 95
REMARK H PARENT 7 18 83 51 53 62
REMARK Flexibility Score: inf
ROOT
ATOM      1  C   UNL A   1      48.890  20.601  38.464  1.00  0.00     0.126 C 
ATOM      2  C   UNL A   1      50.281  19.969  38.450  1.00  0.00     0.025 C 
ENDROOT
BRANCH   1   3
ATOM      3  C   UNL A   1      47.806  19.596  38.821  1.00  0.00    -0.034 A 
ATOM      4  C   UNL A   1      45.713  17.781  39.470  1.00  0.00    -0.018 A 
ATOM      5  C   UNL A   1      46.797  17.985  40.338  1.00  0.00     0.009 A 
ATOM      6  C   UNL A   1      45.710  18.482  38.257  1.00  0.00     0.009 A 
ATOM      7  C   UNL A   1      47.822  18.884  40.024  1.00  0.00     0.005 A 
ATOM      8  C   UNL A   1      46.739  19.376  37.935  1.00  0.00     0.005 A 
BRANCH   4   9
ATOM      9  C   UNL A   1      44.597  16.894  39.849  1.00  0.00    -0.015 A 
ATOM     10  C   UNL A   1      43.035  15.993  41.473  1.00  0.00     0.133 A 
ATOM     11  C   UNL A   1      42.505  15.121  40.524  1.00  0.00     0.047 A 
ATOM     12  C   UNL A   1      44.077  16.868  41.153  1.00  0.00     0.056 A 
ATOM     13  C   UNL A   1      43.007  15.138  39.228  1.00  0.00     0.004 A 
ATOM     14  C   UNL A   1      44.043  16.014  38.897  1.00  0.00     0.009 A 
BRANCH  10  15
ATOM     15  O   UNL A   1      42.558  15.849  42.786  1.00  0.00    -0.410 OA
BRANCH  15  16
ATOM     16  C   UNL A   1      43.243  15.009  43.653  1.00  0.00     0.412 C 
ATOM     17  N   UNL A   1      42.478  13.962  44.094  1.00  0.00    -0.321 N 
ATOM     18  H   UNL A   1      42.922  13.311  44.683  1.00  0.00     0.167 HD
ATOM     19  O   UNL A   1      44.395  15.156  44.039  1.00  0.00    -0.224 OA
BRANCH  17  20
ATOM     20  C   UNL A   1      41.084  13.712  43.784  1.00  0.00     0.119 C 
BRANCH  20  21
ATOM     21  C   UNL A   1      40.904  12.578  42.775  1.00  0.00     0.021 C 
BRANCH  21  22
ATOM     22  C   UNL A   1      42.177  11.784  42.462  1.00  0.00     0.002 C 
BRANCH  22  23
ATOM     23  C   UNL A   1      42.429  10.555  43.342  1.00  0.00    -0.000 C 
BRANCH  23  24
ATOM     24  C   UNL A   1      43.852  10.415  43.891  1.00  0.00    -0.003 C 
ATOM     25  C   UNL A   1      43.967  10.767  45.365  1.00  0.00     0.004 C 
ENDBRANCH  23  24
ENDBRANCH  22  23
ENDBRANCH  21  22
ENDBRANCH  20  21
ENDBRANCH  17  20
ENDBRANCH  15  16
ENDBRANCH  10  15
ENDBRANCH   4   9
ENDBRANCH   1   3
BRANCH   1  26
ATOM     26  C   UNL A   1      48.676  21.401  37.185  1.00  0.00     0.313 C 
ATOM     27  O   UNL A   1      49.153  21.047  36.109  1.00  0.00    -0.252 OA
BRANCH  26  28
ATOM     28  O   UNL A   1      47.886  22.493  37.343  1.00  0.00    -0.462 OA
BRANCH  28  29
ATOM     29  C   UNL A   1      47.673  22.952  38.691  1.00  0.00     0.274 C 
BRANCH  29  30
ATOM     30  C   UNL A   1      47.956  24.450  38.812  1.00  0.00     0.275 C 
BRANCH  30  31
ATOM     31  O   UNL A   1      46.777  25.225  38.532  1.00  0.00    -0.458 OA
BRANCH  31  32
ATOM     32  C   UNL A   1      46.923  26.563  38.664  1.00  0.00     0.338 C 
ATOM     33  O   UNL A   1      47.690  27.159  39.397  1.00  0.00    -0.246 OA
BRANCH  32  34
ATOM     34  C   UNL A   1      46.046  27.239  37.702  1.00  0.00     0.060 A 
ATOM     35  C   UNL A   1      46.483  28.421  37.099  1.00  0.00     0.016 A 
ATOM     36  C   UNL A   1      44.763  26.746  37.465  1.00  0.00     0.016 A 
ATOM     37  C   UNL A   1      45.631  29.127  36.252  1.00  0.00     0.010 A 
ATOM     38  C   UNL A   1      43.915  27.449  36.609  1.00  0.00     0.010 A 
ATOM     39  C   UNL A   1      44.338  28.646  36.006  1.00  0.00    -0.014 A 
BRANCH  39  40
ATOM     40  C   UNL A   1      43.393  29.402  35.154  1.00  0.00     0.031 A 
ATOM     41  C   UNL A   1      42.519  30.450  35.779  1.00  0.00     0.074 A 
ATOM     42  C   UNL A   1      43.289  29.115  33.844  1.00  0.00     0.049 A 
ATOM     43  N   UNL A   1      41.477  31.061  35.279  1.00  0.00    -0.248 NA
ATOM     44  C   UNL A   1      42.860  30.860  37.151  1.00  0.00     0.031 C 
ATOM     45  C   UNL A   1      44.127  28.162  33.114  1.00  0.00     0.029 A 
ATOM     46  N   UNL A   1      42.410  29.580  32.898  1.00  0.00    -0.354 N 
ATOM     47  C   UNL A   1      41.023  31.911  36.280  1.00  0.00     0.074 A 
ATOM     48  C   UNL A   1      41.896  31.731  37.420  1.00  0.00     0.031 C 
ATOM     49  C   UNL A   1      43.704  28.093  31.841  1.00  0.00     0.029 A 
ATOM     50  C   UNL A   1      42.533  28.949  31.682  1.00  0.00     0.049 A 
ATOM     51  H   UNL A   1      41.756  30.295  33.073  1.00  0.00     0.167 HD
ATOM     52  C   UNL A   1      39.970  32.760  36.248  1.00  0.00     0.031 A 
ATOM     53  C   UNL A   1      41.757  29.013  30.583  1.00  0.00     0.031 A 
ATOM     54  C   UNL A   1      39.103  32.919  35.111  1.00  0.00     0.049 A 
ATOM     55  C   UNL A   1      40.541  29.901  30.598  1.00  0.00     0.074 A 
ATOM     56  C   UNL A   1      37.984  33.724  34.987  1.00  0.00     0.029 A 
ATOM     57  N   UNL A   1      39.264  32.264  33.900  1.00  0.00    -0.354 N 
ATOM     58  N   UNL A   1      40.095  30.669  31.565  1.00  0.00    -0.248 NA
ATOM     59  C   UNL A   1      39.719  29.930  29.380  1.00  0.00     0.031 C 
ATOM     60  C   UNL A   1      37.451  33.531  33.707  1.00  0.00     0.029 A 
ATOM     61  C   UNL A   1      38.265  32.645  33.022  1.00  0.00     0.049 A 
ATOM     62  H   UNL A   1      39.983  31.624  33.695  1.00  0.00     0.167 HD
ATOM     63  C   UNL A   1      38.960  31.293  31.060  1.00  0.00     0.074 A 
ATOM     64  C   UNL A   1      38.789  30.818  29.703  1.00  0.00     0.031 C 
ATOM     65  C   UNL A   1      38.132  32.179  31.665  1.00  0.00     0.031 A 
BRANCH  52  66
ATOM     66  C   UNL A   1      39.681  33.562  37.488  1.00  0.00    -0.014 A 
ATOM     67  C   UNL A   1      38.845  33.056  38.497  1.00  0.00     0.010 A 
ATOM     68  C   UNL A   1      40.290  34.818  37.666  1.00  0.00     0.010 A 
ATOM     69  C   UNL A   1      38.599  33.804  39.652  1.00  0.00     0.020 A 
ATOM     70  C   UNL A   1      40.065  35.559  38.829  1.00  0.00     0.020 A 
ATOM     71  C   UNL A   1      39.208  35.053  39.809  1.00  0.00     0.054 A 
BRANCH  71  72
ATOM     72  S   UNL A   1      38.892  35.992  41.329  1.00  0.00     0.124 S 
ATOM     73  O   UNL A   1      37.723  35.303  41.872  1.00  0.00    -0.237 OA
ATOM     74  O   UNL A   1      40.131  35.813  42.082  1.00  0.00    -0.237 OA
ATOM     75  O   UNL A   1      38.647  37.351  40.853  1.00  0.00    -0.744 OA
ENDBRANCH  71  72
ENDBRANCH  52  66
BRANCH  53  76
ATOM     76  C   UNL A   1      42.067  28.168  29.399  1.00  0.00    -0.014 A 
ATOM     77  C   UNL A   1      42.943  28.624  28.399  1.00  0.00     0.010 A 
ATOM     78  C   UNL A   1      41.473  26.899  29.261  1.00  0.00     0.010 A 
ATOM     79  C   UNL A   1      43.197  27.839  27.270  1.00  0.00     0.020 A 
ATOM     80  C   UNL A   1      41.747  26.101  28.148  1.00  0.00     0.020 A 
ATOM     81  C   UNL A   1      42.594  26.584  27.150  1.00  0.00     0.054 A 
BRANCH  81  82
ATOM     82  S   UNL A   1      42.955  25.569  25.690  1.00  0.00     0.124 S 
ATOM     83  O   UNL A   1      42.022  26.110  24.707  1.00  0.00    -0.237 OA
ATOM     84  O   UNL A   1      44.367  25.853  25.445  1.00  0.00    -0.237 OA
ATOM     85  O   UNL A   1      42.672  24.209  26.142  1.00  0.00    -0.744 OA
ENDBRANCH  81  82
ENDBRANCH  53  76
BRANCH  65  86
ATOM     86  C   UNL A   1      37.003  32.748  30.853  1.00  0.00    -0.014 A 
ATOM     87  C   UNL A   1      35.694  32.253  30.980  1.00  0.00     0.010 A 
ATOM     88  C   UNL A   1      37.244  33.860  30.025  1.00  0.00     0.010 A 
ATOM     89  C   UNL A   1      34.643  32.861  30.287  1.00  0.00     0.020 A 
ATOM     90  C   UNL A   1      36.194  34.482  29.348  1.00  0.00     0.020 A 
ATOM     91  C   UNL A   1      34.899  33.975  29.479  1.00  0.00     0.054 A 
BRANCH  91  92
ATOM     92  S   UNL A   1      33.507  34.802  28.660  1.00  0.00     0.124 S 
ATOM     93  O   UNL A   1      33.078  33.791  27.698  1.00  0.00    -0.237 OA
ATOM     94  O   UNL A   1      32.584  35.048  29.766  1.00  0.00    -0.237 OA
ATOM     95  O   UNL A   1      34.109  36.000  28.081  1.00  0.00    -0.744 OA
ENDBRANCH  91  92
ENDBRANCH  65  86
ENDBRANCH  39  40
ENDBRANCH  32  34
ENDBRANCH  31  32
ENDBRANCH  30  31
ENDBRANCH  29  30
ENDBRANCH  28  29
ENDBRANCH  26  28
ENDBRANCH   1  26
TORSDOF 23
ENDMDL
MODEL 2
REMARK VINA RESULT:      -9.8      9.543     17.163
REMARK SMILES CCCCCCNC(=O)Oc1cccc(-c2ccc([C@@H](C)C(=O)OCCOC(=O)c3ccc(-c4c5nc(c(-c6ccc(S(=O)(=O)[O-])cc6)c6ccc([nH]6)c(-c6ccc(S(=O)(=O)[O-])cc6)c6nc(c(-c7ccc(S(=O)(=O)[O-])cc7)c7ccc4[nH]7)C=C6)C=C5)cc3)cc2)c1
REMARK SMILES IDX 20 1 21 2 19 3 16 4 17 5 91 6 18 7 90 8 15 9 11 10 12 11
REMARK SMILES IDX 92 12 13 13 14 14 10 15 8 16 7 17 9 19 6 20 5 21 4 22 3 23
REMARK SMILES IDX 2 24 1 25 22 26 23 27 24 28 25 29 26 30 27 31 28 32 29 33
REMARK SMILES IDX 30 34 31 35 89 36 32 37 88 38 33 39 34 40 35 41 82 42 36 43
REMARK SMILES IDX 87 44 81 45 83 46 37 47 86 48 80 49 79 50 38 52 68 53 49 54
REMARK SMILES IDX 67 55 50 56 53 57 66 58 84 59 51 60 52 61 65 63 85 64 54 65
REMARK SMILES IDX 39 66 40 67 48 68 41 69 47 70 42 71 43 72 44 73 45 74 46 75
REMARK SMILES IDX 69 76 70 77 78 78 71 79 77 80 72 81 73 82 74 83 75 84 76 85
REMARK SMILES IDX 55 86 56 87 64 88 57 89 63 90 58 91 59 92 60 93 61 94 62 95
REMARK H PARENT 7 18 83 51 53 62
REMARK Flexibility Score: inf
ROOT
ATOM      1  C   UNL A   1      34.779  32.747  28.322  1.00  0.00     0.126 C 
ATOM      2  C   UNL A   1      33.927  33.874  27.742  1.00  0.00     0.025 C 
ENDROOT
BRANCH   1   3
ATOM      3  C   UNL A   1      34.372  31.384  27.785  1.00  0.00    -0.034 A 
ATOM      4  C   UNL A   1      33.541  28.830  26.844  1.00  0.00    -0.018 A 
ATOM      5  C   UNL A   1      34.886  29.095  27.145  1.00  0.00     0.009 A 
ATOM      6  C   UNL A   1      32.623  29.877  26.997  1.00  0.00     0.009 A 
ATOM      7  C   UNL A   1      35.294  30.347  27.616  1.00  0.00     0.005 A 
ATOM      8  C   UNL A   1      33.029  31.135  27.459  1.00  0.00     0.005 A 
BRANCH   4   9
ATOM      9  C   UNL A   1      33.109  27.482  26.428  1.00  0.00    -0.015 A 
ATOM     10  C   UNL A   1      33.449  25.402  25.225  1.00  0.00     0.133 A 
ATOM     11  C   UNL A   1      32.193  24.939  25.609  1.00  0.00     0.047 A 
ATOM     12  C   UNL A   1      33.910  26.663  25.615  1.00  0.00     0.056 A 
ATOM     13  C   UNL A   1      31.391  25.737  26.417  1.00  0.00     0.004 A 
ATOM     14  C   UNL A   1      31.845  26.995  26.819  1.00  0.00     0.009 A 
BRANCH  10  15
ATOM     15  O   UNL A   1      34.162  24.595  24.322  1.00  0.00    -0.410 OA
BRANCH  15  16
ATOM     16  C   UNL A   1      33.454  23.717  23.515  1.00  0.00     0.412 C 
ATOM     17  N   UNL A   1      33.009  24.299  22.358  1.00  0.00    -0.321 N 
ATOM     18  H   UNL A   1      32.531  23.715  21.726  1.00  0.00     0.167 HD
ATOM     19  O   UNL A   1      33.199  22.548  23.771  1.00  0.00    -0.224 OA
BRANCH  17  20
ATOM     20  C   UNL A   1      33.167  25.686  21.965  1.00  0.00     0.119 C 
BRANCH  20  21
ATOM     21  C   UNL A   1      31.833  26.426  21.880  1.00  0.00     0.021 C 
BRANCH  21  22
ATOM     22  C   UNL A   1      31.684  27.602  22.852  1.00  0.00     0.002 C 
BRANCH  22  23
ATOM     23  C   UNL A   1      30.315  27.738  23.529  1.00  0.00    -0.000 C 
BRANCH  23  24
ATOM     24  C   UNL A   1      29.312  28.649  22.817  1.00  0.00    -0.003 C 
ATOM     25  C   UNL A   1      29.968  29.777  22.038  1.00  0.00     0.004 C 
ENDBRANCH  23  24
ENDBRANCH  22  23
ENDBRANCH  21  22
ENDBRANCH  20  21
ENDBRANCH  17  20
ENDBRANCH  15  16
ENDBRANCH  10  15
ENDBRANCH   4   9
ENDBRANCH   1   3
BRANCH   1  26
ATOM     26  C   UNL A   1      34.851  32.884  29.838  1.00  0.00     0.313 C 
ATOM     27  O   UNL A   1      34.015  33.523  30.472  1.00  0.00    -0.252 OA
BRANCH  26  28
ATOM     28  O   UNL A   1      35.880  32.204  30.405  1.00  0.00    -0.462 OA
BRANCH  28  29
ATOM     29  C   UNL A   1      35.571  31.403  31.561  1.00  0.00     0.274 C 
BRANCH  29  30
ATOM     30  C   UNL A   1      36.440  31.804  32.754  1.00  0.00     0.275 C 
BRANCH  30  31
ATOM     31  O   UNL A   1      37.481  30.838  32.984  1.00  0.00    -0.458 OA
BRANCH  31  32
ATOM     32  C   UNL A   1      38.671  31.356  33.368  1.00  0.00     0.338 C 
ATOM     33  O   UNL A   1      38.898  32.060  34.334  1.00  0.00    -0.246 OA
BRANCH  32  34
ATOM     34  C   UNL A   1      39.720  30.868  32.466  1.00  0.00     0.060 A 
ATOM     35  C   UNL A   1      40.764  30.103  32.991  1.00  0.00     0.016 A 
ATOM     36  C   UNL A   1      39.709  31.240  31.122  1.00  0.00     0.016 A 
ATOM     37  C   UNL A   1      41.817  29.707  32.169  1.00  0.00     0.010 A 
ATOM     38  C   UNL A   1      40.759  30.834  30.299  1.00  0.00     0.010 A 
ATOM     39  C   UNL A   1      41.822  30.074  30.818  1.00  0.00    -0.014 A 
BRANCH  39  40
ATOM     40  C   UNL A   1      42.954  29.713  29.934  1.00  0.00     0.031 A 
ATOM     41  C   UNL A   1      42.979  28.357  29.291  1.00  0.00     0.074 A 
ATOM     42  C   UNL A   1      43.969  30.577  29.751  1.00  0.00     0.049 A 
ATOM     43  N   UNL A   1      43.963  27.753  28.678  1.00  0.00    -0.248 NA
ATOM     44  C   UNL A   1      41.733  27.576  29.351  1.00  0.00     0.031 C 
ATOM     45  C   UNL A   1      44.025  31.944  30.274  1.00  0.00     0.029 A 
ATOM     46  N   UNL A   1      45.165  30.420  29.096  1.00  0.00    -0.354 N 
ATOM     47  C   UNL A   1      43.465  26.512  28.299  1.00  0.00     0.074 A 
ATOM     48  C   UNL A   1      42.094  26.445  28.758  1.00  0.00     0.031 C 
ATOM     49  C   UNL A   1      45.206  32.490  29.942  1.00  0.00     0.029 A 
ATOM     50  C   UNL A   1      46.009  31.496  29.238  1.00  0.00     0.049 A 
ATOM     51  H   UNL A   1      45.395  29.616  28.576  1.00  0.00     0.167 HD
ATOM     52  C   UNL A   1      44.098  25.520  27.631  1.00  0.00     0.031 A 
ATOM     53  C   UNL A   1      47.302  31.642  28.887  1.00  0.00     0.031 A 
ATOM     54  C   UNL A   1      45.466  25.597  27.192  1.00  0.00     0.049 A 
ATOM     55  C   UNL A   1      48.013  30.495  28.221  1.00  0.00     0.074 A 
ATOM     56  C   UNL A   1      46.217  24.634  26.540  1.00  0.00     0.029 A 
ATOM     57  N   UNL A   1      46.284  26.704  27.352  1.00  0.00    -0.354 N 
ATOM     58  N   UNL A   1      47.546  29.310  27.905  1.00  0.00    -0.248 NA
ATOM     59  C   UNL A   1      49.425  30.699  27.868  1.00  0.00     0.031 C 
ATOM     60  C   UNL A   1      47.501  25.150  26.335  1.00  0.00     0.029 A 
ATOM     61  C   UNL A   1      47.533  26.449  26.814  1.00  0.00     0.049 A 
ATOM     62  H   UNL A   1      46.016  27.546  27.784  1.00  0.00     0.167 HD
ATOM     63  C   UNL A   1      48.597  28.640  27.290  1.00  0.00     0.074 A 
ATOM     64  C   UNL A   1      49.722  29.551  27.273  1.00  0.00     0.031 C 
ATOM     65  C   UNL A   1      48.629  27.383  26.784  1.00  0.00     0.031 A 
BRANCH  52  66
ATOM     66  C   UNL A   1      43.327  24.257  27.361  1.00  0.00    -0.014 A 
ATOM     67  C   UNL A   1      43.281  23.221  28.309  1.00  0.00     0.010 A 
ATOM     68  C   UNL A   1      42.602  24.124  26.162  1.00  0.00     0.010 A 
ATOM     69  C   UNL A   1      42.546  22.060  28.052  1.00  0.00     0.020 A 
ATOM     70  C   UNL A   1      41.848  22.975  25.911  1.00  0.00     0.020 A 
ATOM     71  C   UNL A   1      41.837  21.943  26.852  1.00  0.00     0.054 A 
BRANCH  71  72
ATOM     72  S   UNL A   1      40.871  20.436  26.554  1.00  0.00     0.124 S 
ATOM     73  O   UNL A   1      41.709  19.726  25.591  1.00  0.00    -0.237 OA
ATOM     74  O   UNL A   1      40.796  19.834  27.883  1.00  0.00    -0.237 OA
ATOM     75  O   UNL A   1      39.604  20.934  26.026  1.00  0.00    -0.744 OA
ENDBRANCH  71  72
ENDBRANCH  52  66
BRANCH  53  76
ATOM     76  C   UNL A   1      48.027  32.900  29.216  1.00  0.00    -0.014 A 
ATOM     77  C   UNL A   1      48.742  33.024  30.419  1.00  0.00     0.010 A 
ATOM     78  C   UNL A   1      47.992  33.989  28.325  1.00  0.00     0.010 A 
ATOM     79  C   UNL A   1      49.387  34.224  30.737  1.00  0.00     0.020 A 
ATOM     80  C   UNL A   1      48.658  35.179  28.627  1.00  0.00     0.020 A 
ATOM     81  C   UNL A   1      49.337  35.295  29.841  1.00  0.00     0.054 A 
BRANCH  81  82
ATOM     82  S   UNL A   1      50.200  36.835  30.259  1.00  0.00     0.124 S 
ATOM     83  O   UNL A   1      49.088  37.746  30.508  1.00  0.00    -0.237 OA
ATOM     84  O   UNL A   1      50.981  36.454  31.434  1.00  0.00    -0.237 OA
ATOM     85  O   UNL A   1      50.989  37.119  29.063  1.00  0.00    -0.744 OA
ENDBRANCH  81  82
ENDBRANCH  53  76
BRANCH  65  86
ATOM     86  C   UNL A   1      49.895  26.932  26.111  1.00  0.00    -0.014 A 
ATOM     87  C   UNL A   1      50.174  27.277  24.778  1.00  0.00     0.010 A 
ATOM     88  C   UNL A   1      50.862  26.237  26.862  1.00  0.00     0.010 A 
ATOM     89  C   UNL A   1      51.400  26.929  24.205  1.00  0.00     0.020 A 
ATOM     90  C   UNL A   1      52.095  25.907  26.298  1.00  0.00     0.020 A 
ATOM     91  C   UNL A   1      52.355  26.250  24.970  1.00  0.00     0.054 A 
BRANCH  91  92
ATOM     92  S   UNL A   1      53.972  25.888  24.232  1.00  0.00     0.124 S 
ATOM     93  O   UNL A   1      54.238  24.542  24.731  1.00  0.00    -0.237 OA
ATOM     94  O   UNL A   1      53.701  25.985  22.799  1.00  0.00    -0.237 OA
ATOM     95  O   UNL A   1      54.839  26.935  24.767  1.00  0.00    -0.744 OA
ENDBRANCH  91  92
ENDBRANCH  65  86
ENDBRANCH  39  40
ENDBRANCH  32  34
ENDBRANCH  31  32
ENDBRANCH  30  31
ENDBRANCH  29  30
ENDBRANCH  28  29
ENDBRANCH  26  28
ENDBRANCH   1  26
TORSDOF 23
ENDMDL
MODEL 3
REMARK VINA RESULT:      -9.4     10.065     21.905
REMARK SMILES CCCCCCNC(=O)Oc1cccc(-c2ccc([C@@H](C)C(=O)OCCOC(=O)c3ccc(-c4c5nc(c(-c6ccc(S(=O)(=O)[O-])cc6)c6ccc([nH]6)c(-c6ccc(S(=O)(=O)[O-])cc6)c6nc(c(-c7ccc(S(=O)(=O)[O-])cc7)c7ccc4[nH]7)C=C6)C=C5)cc3)cc2)c1
REMARK SMILES IDX 20 1 21 2 19 3 16 4 17 5 91 6 18 7 90 8 15 9 11 10 12 11
REMARK SMILES IDX 92 12 13 13 14 14 10 15 8 16 7 17 9 19 6 20 5 21 4 22 3 23
REMARK SMILES IDX 2 24 1 25 22 26 23 27 24 28 25 29 26 30 27 31 28 32 29 33
REMARK SMILES IDX 30 34 31 35 89 36 32 37 88 38 33 39 34 40 35 41 82 42 36 43
REMARK SMILES IDX 87 44 81 45 83 46 37 47 86 48 80 49 79 50 38 52 68 53 49 54
REMARK SMILES IDX 67 55 50 56 53 57 66 58 84 59 51 60 52 61 65 63 85 64 54 65
REMARK SMILES IDX 39 66 40 67 48 68 41 69 47 70 42 71 43 72 44 73 45 74 46 75
REMARK SMILES IDX 69 76 70 77 78 78 71 79 77 80 72 81 73 82 74 83 75 84 76 85
REMARK SMILES IDX 55 86 56 87 64 88 57 89 63 90 58 91 59 92 60 93 61 94 62 95
REMARK H PARENT 7 18 83 51 53 62
REMARK Flexibility Score: inf
ROOT
ATOM      1  C   UNL A   1      47.150  42.557  25.165  1.00  0.00     0.126 C 
ATOM      2  C   UNL A   1      47.131  43.617  26.265  1.00  0.00     0.025 C 
ENDROOT
BRANCH   1   3
ATOM      3  C   UNL A   1      46.854  43.145  23.795  1.00  0.00    -0.034 A 
ATOM      4  C   UNL A   1      46.386  44.226  21.204  1.00  0.00    -0.018 A 
ATOM      5  C   UNL A   1      46.067  44.949  22.365  1.00  0.00     0.009 A 
ATOM      6  C   UNL A   1      46.918  42.940  21.365  1.00  0.00     0.009 A 
ATOM      7  C   UNL A   1      46.305  44.422  23.639  1.00  0.00     0.005 A 
ATOM      8  C   UNL A   1      47.148  42.406  22.639  1.00  0.00     0.005 A 
BRANCH   4   9
ATOM      9  C   UNL A   1      46.209  44.824  19.867  1.00  0.00    -0.015 A 
ATOM     10  C   UNL A   1      44.831  45.467  17.976  1.00  0.00     0.133 A 
ATOM     11  C   UNL A   1      45.948  45.917  17.277  1.00  0.00     0.047 A 
ATOM     12  C   UNL A   1      44.948  44.914  19.255  1.00  0.00     0.056 A 
ATOM     13  C   UNL A   1      47.202  45.838  17.872  1.00  0.00     0.004 A 
ATOM     14  C   UNL A   1      47.328  45.295  19.152  1.00  0.00     0.009 A 
BRANCH  10  15
ATOM     15  O   UNL A   1      43.612  45.475  17.277  1.00  0.00    -0.410 OA
BRANCH  15  16
ATOM     16  C   UNL A   1      43.117  44.274  16.790  1.00  0.00     0.412 C 
ATOM     17  N   UNL A   1      41.811  44.057  17.139  1.00  0.00    -0.321 N 
ATOM     18  H   UNL A   1      41.393  43.236  16.791  1.00  0.00     0.167 HD
ATOM     19  O   UNL A   1      43.743  43.448  16.139  1.00  0.00    -0.224 OA
BRANCH  17  20
ATOM     20  C   UNL A   1      40.979  44.906  17.968  1.00  0.00     0.119 C 
BRANCH  20  21
ATOM     21  C   UNL A   1      40.532  44.211  19.254  1.00  0.00     0.021 C 
BRANCH  21  22
ATOM     22  C   UNL A   1      41.668  43.627  20.101  1.00  0.00     0.002 C 
BRANCH  22  23
ATOM     23  C   UNL A   1      41.301  43.257  21.543  1.00  0.00    -0.000 C 
BRANCH  23  24
ATOM     24  C   UNL A   1      42.260  42.289  22.242  1.00  0.00    -0.003 C 
ATOM     25  C   UNL A   1      43.053  42.933  23.368  1.00  0.00     0.004 C 
ENDBRANCH  23  24
ENDBRANCH  22  23
ENDBRANCH  21  22
ENDBRANCH  20  21
ENDBRANCH  17  20
ENDBRANCH  15  16
ENDBRANCH  10  15
ENDBRANCH   4   9
ENDBRANCH   1   3
BRANCH   1  26
ATOM     26  C   UNL A   1      46.301  41.364  25.587  1.00  0.00     0.313 C 
ATOM     27  O   UNL A   1      45.177  41.172  25.130  1.00  0.00    -0.252 OA
BRANCH  26  28
ATOM     28  O   UNL A   1      46.919  40.529  26.461  1.00  0.00    -0.462 OA
BRANCH  28  29
ATOM     29  C   UNL A   1      46.251  40.291  27.714  1.00  0.00     0.274 C 
BRANCH  29  30
ATOM     30  C   UNL A   1      46.569  38.893  28.248  1.00  0.00     0.275 C 
BRANCH  30  31
ATOM     31  O   UNL A   1      47.067  38.040  27.203  1.00  0.00    -0.458 OA
BRANCH  31  32
ATOM     32  C   UNL A   1      48.039  37.176  27.580  1.00  0.00     0.338 C 
ATOM     33  O   UNL A   1      49.198  37.432  27.848  1.00  0.00    -0.246 OA
BRANCH  32  34
ATOM     34  C   UNL A   1      47.464  35.832  27.704  1.00  0.00     0.060 A 
ATOM     35  C   UNL A   1      47.607  35.142  28.909  1.00  0.00     0.016 A 
ATOM     36  C   UNL A   1      46.860  35.230  26.601  1.00  0.00     0.016 A 
ATOM     37  C   UNL A   1      47.149  33.831  29.019  1.00  0.00     0.010 A 
ATOM     38  C   UNL A   1      46.393  33.920  26.715  1.00  0.00     0.010 A 
ATOM     39  C   UNL A   1      46.542  33.210  27.920  1.00  0.00    -0.014 A 
BRANCH  39  40
ATOM     40  C   UNL A   1      46.094  31.801  27.990  1.00  0.00     0.031 A 
ATOM     41  C   UNL A   1      46.974  30.723  27.428  1.00  0.00     0.074 A 
ATOM     42  C   UNL A   1      44.890  31.502  28.511  1.00  0.00     0.049 A 
ATOM     43  N   UNL A   1      46.687  29.472  27.178  1.00  0.00    -0.248 NA
ATOM     44  C   UNL A   1      48.356  31.104  27.099  1.00  0.00     0.031 C 
ATOM     45  C   UNL A   1      43.977  32.457  29.141  1.00  0.00     0.029 A 
ATOM     46  N   UNL A   1      44.215  30.308  28.564  1.00  0.00    -0.354 N 
ATOM     47  C   UNL A   1      47.845  28.921  26.640  1.00  0.00     0.074 A 
ATOM     48  C   UNL A   1      48.835  29.976  26.592  1.00  0.00     0.031 C 
ATOM     49  C   UNL A   1      42.850  31.817  29.494  1.00  0.00     0.029 A 
ATOM     50  C   UNL A   1      42.938  30.425  29.062  1.00  0.00     0.049 A 
ATOM     51  H   UNL A   1      44.607  29.452  28.274  1.00  0.00     0.167 HD
ATOM     52  C   UNL A   1      48.057  27.652  26.224  1.00  0.00     0.031 A 
ATOM     53  C   UNL A   1      41.936  29.526  29.113  1.00  0.00     0.031 A 
ATOM     54  C   UNL A   1      47.058  26.617  26.267  1.00  0.00     0.049 A 
ATOM     55  C   UNL A   1      42.167  28.143  28.566  1.00  0.00     0.074 A 
ATOM     56  C   UNL A   1      47.156  25.306  25.834  1.00  0.00     0.029 A 
ATOM     57  N   UNL A   1      45.781  26.776  26.780  1.00  0.00    -0.354 N 
ATOM     58  N   UNL A   1      43.251  27.644  28.021  1.00  0.00    -0.248 NA
ATOM     59  C   UNL A   1      41.040  27.201  28.634  1.00  0.00     0.031 C 
ATOM     60  C   UNL A   1      45.925  24.681  26.059  1.00  0.00     0.029 A 
ATOM     61  C   UNL A   1      45.079  25.589  26.675  1.00  0.00     0.049 A 
ATOM     62  H   UNL A   1      45.426  27.610  27.164  1.00  0.00     0.167 HD
ATOM     63  C   UNL A   1      42.946  26.324  27.710  1.00  0.00     0.074 A 
ATOM     64  C   UNL A   1      41.579  26.099  28.131  1.00  0.00     0.031 C 
ATOM     65  C   UNL A   1      43.727  25.382  27.127  1.00  0.00     0.031 A 
BRANCH  52  66
ATOM     66  C   UNL A   1      49.411  27.318  25.659  1.00  0.00    -0.014 A 
ATOM     67  C   UNL A   1      50.426  26.796  26.478  1.00  0.00     0.010 A 
ATOM     68  C   UNL A   1      49.656  27.486  24.284  1.00  0.00     0.010 A 
ATOM     69  C   UNL A   1      51.675  26.474  25.937  1.00  0.00     0.020 A 
ATOM     70  C   UNL A   1      50.894  27.145  23.735  1.00  0.00     0.020 A 
ATOM     71  C   UNL A   1      51.902  26.654  24.568  1.00  0.00     0.054 A 
BRANCH  71  72
ATOM     72  S   UNL A   1      53.523  26.204  23.888  1.00  0.00     0.124 S 
ATOM     73  O   UNL A   1      53.231  26.100  22.459  1.00  0.00    -0.237 OA
ATOM     74  O   UNL A   1      54.360  27.337  24.275  1.00  0.00    -0.237 OA
ATOM     75  O   UNL A   1      53.840  24.943  24.551  1.00  0.00    -0.744 OA
ENDBRANCH  71  72
ENDBRANCH  52  66
BRANCH  53  76
ATOM     76  C   UNL A   1      40.605  29.923  29.645  1.00  0.00    -0.014 A 
ATOM     77  C   UNL A   1      39.593  30.378  28.784  1.00  0.00     0.010 A 
ATOM     78  C   UNL A   1      40.348  29.857  31.028  1.00  0.00     0.010 A 
ATOM     79  C   UNL A   1      38.357  30.786  29.298  1.00  0.00     0.020 A 
ATOM     80  C   UNL A   1      39.106  30.238  31.542  1.00  0.00     0.020 A 
ATOM     81  C   UNL A   1      38.124  30.718  30.674  1.00  0.00     0.054 A 
BRANCH  81  82
ATOM     82  S   UNL A   1      36.507  31.228  31.320  1.00  0.00     0.124 S 
ATOM     83  O   UNL A   1      36.868  32.346  32.187  1.00  0.00    -0.237 OA
ATOM     84  O   UNL A   1      35.775  31.580  30.106  1.00  0.00    -0.237 OA
ATOM     85  O   UNL A   1      36.022  30.033  32.006  1.00  0.00    -0.744 OA
ENDBRANCH  81  82
ENDBRANCH  53  76
BRANCH  65  86
ATOM     86  C   UNL A   1      43.154  24.002  26.965  1.00  0.00    -0.014 A 
ATOM     87  C   UNL A   1      42.739  23.529  25.709  1.00  0.00     0.010 A 
ATOM     88  C   UNL A   1      43.125  23.135  28.074  1.00  0.00     0.010 A 
ATOM     89  C   UNL A   1      42.300  22.210  25.566  1.00  0.00     0.020 A 
ATOM     90  C   UNL A   1      42.707  21.811  27.929  1.00  0.00     0.020 A 
ATOM     91  C   UNL A   1      42.291  21.358  26.676  1.00  0.00     0.054 A 
BRANCH  91  92
ATOM     92  S   UNL A   1      41.802  19.626  26.447  1.00  0.00     0.124 S 
ATOM     93  O   UNL A   1      40.351  19.734  26.329  1.00  0.00    -0.237 OA
ATOM     94  O   UNL A   1      42.506  19.252  25.223  1.00  0.00    -0.237 OA
ATOM     95  O   UNL A   1      42.283  18.967  27.660  1.00  0.00    -0.744 OA
ENDBRANCH  91  92
ENDBRANCH  65  86
ENDBRANCH  39  40
ENDBRANCH  32  34
ENDBRANCH  31  32
ENDBRANCH  30  31
ENDBRANCH  29  30
ENDBRANCH  28  29
ENDBRANCH  26  28
ENDBRANCH   1  26
TORSDOF 23
ENDMDL
