MODEL 1
REMARK VINA RESULT:     -11.3      0.000      0.000
REMARK SMILES O=C(N[C@@H]1C=C[C@@H](C(=O)OCCOC(=O)c2ccc(-c3c4nc(c(-c5ccc(S(=O)(=O)[O-])cc5)c5ccc([nH]5)c(-c5ccc(S(=O)(=O)[O-])cc5)c5nc(c(-c6ccc(S(=O)(=O)[O-])cc6)c6ccc3[nH]6)C=C5)C=C4)cc2)C1)N[C@H]1CCCc2sccc21
REMARK SMILES IDX 12 1 11 2 10 3 8 4 9 5 7 6 4 7 5 8 76 9 6 10 3 11 1 12 2 13
REMARK SMILES IDX 77 14 78 17 79 18 86 19 80 20 82 21 85 22 81 23 83 24 84 25
REMARK SMILES IDX 13 26 14 27 15 28 16 29 17 30 75 31 18 32 74 33 19 34 20 35
REMARK SMILES IDX 21 36 68 37 22 38 73 39 67 40 69 41 23 42 72 43 66 44 65 45
REMARK SMILES IDX 24 47 54 48 35 49 53 50 36 51 39 52 52 53 70 54 37 55 38 56
REMARK SMILES IDX 51 58 71 59 40 60 25 61 26 62 34 63 27 64 33 65 28 66 29 67
REMARK SMILES IDX 30 68 31 69 32 70 55 71 56 72 64 73 57 74 63 75 58 76 59 77
REMARK SMILES IDX 60 78 61 79 62 80 41 81 42 82 50 83 43 84 49 85 44 86 45 87
REMARK SMILES IDX 46 88 47 89 48 90
REMARK H PARENT 3 15 77 16 69 46 39 57
REMARK Flexibility Score: inf
ROOT
ATOM      1  C   UNL A   1      35.797  31.079  28.110  1.00  0.00     0.275 C 
ENDROOT
BRANCH   1   2
ATOM      2  C   UNL A   1      34.346  31.212  27.640  1.00  0.00     0.274 C 
BRANCH   2   3
ATOM      3  O   UNL A   1      33.964  30.042  26.893  1.00  0.00    -0.462 OA
BRANCH   3   4
ATOM      4  C   UNL A   1      32.762  30.075  26.262  1.00  0.00     0.312 C 
ATOM      5  O   UNL A   1      31.880  30.895  26.492  1.00  0.00    -0.252 OA
BRANCH   4   6
ATOM      6  C   UNL A   1      32.606  28.977  25.213  1.00  0.00     0.124 C 
ATOM      7  C   UNL A   1      33.097  26.617  24.783  1.00  0.00     0.107 C 
ATOM      8  C   UNL A   1      31.681  26.826  25.207  1.00  0.00    -0.006 C 
ATOM      9  C   UNL A   1      33.754  27.966  25.089  1.00  0.00     0.048 C 
ATOM     10  C   UNL A   1      31.411  28.110  25.468  1.00  0.00    -0.014 C 
BRANCH   7  11
ATOM     11  N   UNL A   1      33.124  26.282  23.377  1.00  0.00    -0.332 N 
ATOM     12  O   UNL A   1      33.486  24.935  21.618  1.00  0.00    -0.249 OA
ATOM     13  C   UNL A   1      33.701  25.194  22.796  1.00  0.00     0.315 C 
ATOM     14  N   UNL A   1      34.466  24.427  23.611  1.00  0.00    -0.331 N 
ATOM     15  H   UNL A   1      32.674  26.912  22.771  1.00  0.00     0.165 HD
ATOM     16  H   UNL A   1      34.666  24.767  24.513  1.00  0.00     0.166 HD
BRANCH  14  17
ATOM     17  C   UNL A   1      35.005  23.135  23.231  1.00  0.00     0.115 C 
ATOM     18  C   UNL A   1      36.505  23.037  23.605  1.00  0.00     0.030 C 
ATOM     19  C   UNL A   1      34.137  22.131  23.945  1.00  0.00    -0.012 A 
ATOM     20  C   UNL A   1      36.927  21.705  24.250  1.00  0.00     0.008 C 
ATOM     21  C   UNL A   1      34.610  21.328  24.965  1.00  0.00     0.010 A 
ATOM     22  C   UNL A   1      32.753  21.872  23.687  1.00  0.00     0.018 A 
ATOM     23  C   UNL A   1      36.026  21.333  25.435  1.00  0.00     0.047 C 
ATOM     24  S   UNL A   1      33.414  20.319  25.625  1.00  0.00    -0.149 S 
ATOM     25  C   UNL A   1      32.238  20.911  24.530  1.00  0.00     0.065 A 
ENDBRANCH  14  17
ENDBRANCH   7  11
ENDBRANCH   4   6
ENDBRANCH   3   4
ENDBRANCH   2   3
ENDBRANCH   1   2
BRANCH   1  26
ATOM     26  O   UNL A   1      36.209  29.699  28.149  1.00  0.00    -0.458 OA
BRANCH  26  27
ATOM     27  C   UNL A   1      36.922  29.341  29.243  1.00  0.00     0.338 C 
ATOM     28  O   UNL A   1      36.506  29.174  30.377  1.00  0.00    -0.246 OA
BRANCH  27  29
ATOM     29  C   UNL A   1      38.308  29.048  28.851  1.00  0.00     0.060 A 
ATOM     30  C   UNL A   1      39.182  28.571  29.831  1.00  0.00     0.016 A 
ATOM     31  C   UNL A   1      38.768  29.325  27.565  1.00  0.00     0.016 A 
ATOM     32  C   UNL A   1      40.530  28.387  29.536  1.00  0.00     0.010 A 
ATOM     33  C   UNL A   1      40.120  29.125  27.265  1.00  0.00     0.010 A 
ATOM     34  C   UNL A   1      41.012  28.670  28.252  1.00  0.00    -0.014 A 
BRANCH  34  35
ATOM     35  C   UNL A   1      42.460  28.524  27.962  1.00  0.00     0.031 A 
ATOM     36  C   UNL A   1      43.395  29.671  28.222  1.00  0.00     0.074 A 
ATOM     37  C   UNL A   1      42.935  27.358  27.488  1.00  0.00     0.049 A 
ATOM     38  N   UNL A   1      44.673  29.770  27.958  1.00  0.00    -0.248 NA
ATOM     39  C   UNL A   1      42.819  30.866  28.861  1.00  0.00     0.031 C 
ATOM     40  C   UNL A   1      42.134  26.155  27.242  1.00  0.00     0.029 A 
ATOM     41  N   UNL A   1      44.207  26.991  27.129  1.00  0.00    -0.354 N 
ATOM     42  C   UNL A   1      45.049  31.042  28.372  1.00  0.00     0.074 A 
ATOM     43  C   UNL A   1      43.861  31.684  28.895  1.00  0.00     0.031 C 
ATOM     44  C   UNL A   1      42.937  25.184  26.778  1.00  0.00     0.029 A 
ATOM     45  C   UNL A   1      44.292  25.707  26.646  1.00  0.00     0.049 A 
ATOM     46  H   UNL A   1      44.983  27.590  27.209  1.00  0.00     0.167 HD
ATOM     47  C   UNL A   1      46.271  31.622  28.321  1.00  0.00     0.031 A 
ATOM     48  C   UNL A   1      45.339  25.035  26.127  1.00  0.00     0.031 A 
ATOM     49  C   UNL A   1      47.451  30.976  27.807  1.00  0.00     0.049 A 
ATOM     50  C   UNL A   1      46.675  25.719  26.031  1.00  0.00     0.074 A 
ATOM     51  C   UNL A   1      48.738  31.480  27.717  1.00  0.00     0.029 A 
ATOM     52  N   UNL A   1      47.491  29.686  27.301  1.00  0.00    -0.354 N 
ATOM     53  N   UNL A   1      47.009  26.930  26.413  1.00  0.00    -0.248 NA
ATOM     54  C   UNL A   1      47.773  24.950  25.432  1.00  0.00     0.031 C 
ATOM     55  C   UNL A   1      49.546  30.507  27.117  1.00  0.00     0.029 A 
ATOM     56  C   UNL A   1      48.773  29.382  26.879  1.00  0.00     0.049 A 
ATOM     57  H   UNL A   1      46.719  29.077  27.249  1.00  0.00     0.167 HD
ATOM     58  C   UNL A   1      48.362  27.059  26.116  1.00  0.00     0.074 A 
ATOM     59  C   UNL A   1      48.785  25.800  25.536  1.00  0.00     0.031 C 
ATOM     60  C   UNL A   1      49.177  28.124  26.304  1.00  0.00     0.031 A 
BRANCH  47  61
ATOM     61  C   UNL A   1      46.388  33.045  28.798  1.00  0.00    -0.014 A 
ATOM     62  C   UNL A   1      46.727  33.345  30.129  1.00  0.00     0.010 A 
ATOM     63  C   UNL A   1      46.188  34.099  27.887  1.00  0.00     0.010 A 
ATOM     64  C   UNL A   1      46.829  34.674  30.549  1.00  0.00     0.020 A 
ATOM     65  C   UNL A   1      46.311  35.428  28.298  1.00  0.00     0.020 A 
ATOM     66  C   UNL A   1      46.614  35.707  29.633  1.00  0.00     0.054 A 
BRANCH  66  67
ATOM     67  S   UNL A   1      46.764  37.424  30.199  1.00  0.00     0.124 S 
ATOM     68  O   UNL A   1      48.189  37.515  30.508  1.00  0.00    -0.237 OA
ATOM     69  O   UNL A   1      46.324  38.188  29.035  1.00  0.00    -0.237 OA
ATOM     70  O   UNL A   1      45.872  37.488  31.355  1.00  0.00    -0.744 OA
ENDBRANCH  66  67
ENDBRANCH  47  61
BRANCH  48  71
ATOM     71  C   UNL A   1      45.154  23.647  25.625  1.00  0.00    -0.014 A 
ATOM     72  C   UNL A   1      44.699  23.412  24.316  1.00  0.00     0.010 A 
ATOM     73  C   UNL A   1      45.445  22.550  26.457  1.00  0.00     0.010 A 
ATOM     74  C   UNL A   1      44.525  22.104  23.854  1.00  0.00     0.020 A 
ATOM     75  C   UNL A   1      45.296  21.243  25.990  1.00  0.00     0.020 A 
ATOM     76  C   UNL A   1      44.825  21.028  24.694  1.00  0.00     0.054 A 
BRANCH  76  77
ATOM     77  S   UNL A   1      44.644  19.338  24.058  1.00  0.00     0.124 S 
ATOM     78  O   UNL A   1      44.602  19.560  22.617  1.00  0.00    -0.237 OA
ATOM     79  O   UNL A   1      45.845  18.677  24.562  1.00  0.00    -0.237 OA
ATOM     80  O   UNL A   1      43.394  18.880  24.660  1.00  0.00    -0.744 OA
ENDBRANCH  76  77
ENDBRANCH  48  71
BRANCH  60  81
ATOM     81  C   UNL A   1      50.620  27.967  25.906  1.00  0.00    -0.014 A 
ATOM     82  C   UNL A   1      51.050  28.268  24.602  1.00  0.00     0.010 A 
ATOM     83  C   UNL A   1      51.564  27.560  26.866  1.00  0.00     0.010 A 
ATOM     84  C   UNL A   1      52.398  28.137  24.257  1.00  0.00     0.020 A 
ATOM     85  C   UNL A   1      52.916  27.451  26.531  1.00  0.00     0.020 A 
ATOM     86  C   UNL A   1      53.322  27.727  25.223  1.00  0.00     0.054 A 
BRANCH  86  87
ATOM     87  S   UNL A   1      55.073  27.609  24.766  1.00  0.00     0.124 S 
ATOM     88  O   UNL A   1      55.319  28.918  24.165  1.00  0.00    -0.237 OA
ATOM     89  O   UNL A   1      55.728  27.375  26.050  1.00  0.00    -0.237 OA
ATOM     90  O   UNL A   1      55.113  26.480  23.840  1.00  0.00    -0.744 OA
ENDBRANCH  86  87
ENDBRANCH  60  81
ENDBRANCH  34  35
ENDBRANCH  27  29
ENDBRANCH  26  27
ENDBRANCH   1  26
TORSDOF 16
ENDMDL
MODEL 2
REMARK VINA RESULT:     -11.3      7.134     12.011
REMARK SMILES O=C(N[C@@H]1C=C[C@@H](C(=O)OCCOC(=O)c2ccc(-c3c4nc(c(-c5ccc(S(=O)(=O)[O-])cc5)c5ccc([nH]5)c(-c5ccc(S(=O)(=O)[O-])cc5)c5nc(c(-c6ccc(S(=O)(=O)[O-])cc6)c6ccc3[nH]6)C=C5)C=C4)cc2)C1)N[C@H]1CCCc2sccc21
REMARK SMILES IDX 12 1 11 2 10 3 8 4 9 5 7 6 4 7 5 8 76 9 6 10 3 11 1 12 2 13
REMARK SMILES IDX 77 14 78 17 79 18 86 19 80 20 82 21 85 22 81 23 83 24 84 25
REMARK SMILES IDX 13 26 14 27 15 28 16 29 17 30 75 31 18 32 74 33 19 34 20 35
REMARK SMILES IDX 21 36 68 37 22 38 73 39 67 40 69 41 23 42 72 43 66 44 65 45
REMARK SMILES IDX 24 47 54 48 35 49 53 50 36 51 39 52 52 53 70 54 37 55 38 56
REMARK SMILES IDX 51 58 71 59 40 60 25 61 26 62 34 63 27 64 33 65 28 66 29 67
REMARK SMILES IDX 30 68 31 69 32 70 55 71 56 72 64 73 57 74 63 75 58 76 59 77
REMARK SMILES IDX 60 78 61 79 62 80 41 81 42 82 50 83 43 84 49 85 44 86 45 87
REMARK SMILES IDX 46 88 47 89 48 90
REMARK H PARENT 3 15 77 16 69 46 39 57
REMARK Flexibility Score: inf
ROOT
ATOM      1  C   UNL A   1      40.064  23.322  26.812  1.00  0.00     0.275 C 
ENDROOT
BRANCH   1   2
ATOM      2  C   UNL A   1      39.246  22.224  26.127  1.00  0.00     0.274 C 
BRANCH   2   3
ATOM      3  O   UNL A   1      37.847  22.560  26.166  1.00  0.00    -0.462 OA
BRANCH   3   4
ATOM      4  C   UNL A   1      37.042  21.971  25.245  1.00  0.00     0.312 C 
ATOM      5  O   UNL A   1      37.445  21.350  24.268  1.00  0.00    -0.252 OA
BRANCH   4   6
ATOM      6  C   UNL A   1      35.556  22.152  25.544  1.00  0.00     0.124 C 
ATOM      7  C   UNL A   1      33.657  23.640  25.124  1.00  0.00     0.107 C 
ATOM      8  C   UNL A   1      33.636  22.442  24.234  1.00  0.00    -0.006 C 
ATOM      9  C   UNL A   1      35.057  23.590  25.742  1.00  0.00     0.048 C 
ATOM     10  C   UNL A   1      34.684  21.636  24.440  1.00  0.00    -0.014 C 
BRANCH   7  11
ATOM     11  N   UNL A   1      32.602  23.517  26.104  1.00  0.00    -0.332 N 
ATOM     12  O   UNL A   1      30.802  24.218  27.248  1.00  0.00    -0.249 OA
ATOM     13  C   UNL A   1      31.775  24.499  26.557  1.00  0.00     0.315 C 
ATOM     14  N   UNL A   1      32.079  25.757  26.158  1.00  0.00    -0.331 N 
ATOM     15  H   UNL A   1      32.468  22.622  26.489  1.00  0.00     0.165 HD
ATOM     16  H   UNL A   1      32.935  25.901  25.692  1.00  0.00     0.166 HD
BRANCH  14  17
ATOM     17  C   UNL A   1      31.218  26.904  26.375  1.00  0.00     0.115 C 
ATOM     18  C   UNL A   1      31.893  27.924  27.325  1.00  0.00     0.030 C 
ATOM     19  C   UNL A   1      30.947  27.449  24.996  1.00  0.00    -0.012 A 
ATOM     20  C   UNL A   1      31.766  29.396  26.893  1.00  0.00     0.008 C 
ATOM     21  C   UNL A   1      31.421  28.675  24.573  1.00  0.00     0.010 A 
ATOM     22  C   UNL A   1      30.193  26.805  23.963  1.00  0.00     0.018 A 
ATOM     23  C   UNL A   1      32.205  29.605  25.438  1.00  0.00     0.047 C 
ATOM     24  S   UNL A   1      31.009  29.027  22.964  1.00  0.00    -0.149 S 
ATOM     25  C   UNL A   1      30.151  27.554  22.807  1.00  0.00     0.065 A 
ENDBRANCH  14  17
ENDBRANCH   7  11
ENDBRANCH   4   6
ENDBRANCH   3   4
ENDBRANCH   2   3
ENDBRANCH   1   2
BRANCH   1  26
ATOM     26  O   UNL A   1      39.562  24.630  26.481  1.00  0.00    -0.458 OA
BRANCH  26  27
ATOM     27  C   UNL A   1      40.504  25.595  26.359  1.00  0.00     0.338 C 
ATOM     28  O   UNL A   1      41.160  25.869  25.367  1.00  0.00    -0.246 OA
BRANCH  27  29
ATOM     29  C   UNL A   1      40.557  26.390  27.594  1.00  0.00     0.060 A 
ATOM     30  C   UNL A   1      39.599  26.141  28.579  1.00  0.00     0.016 A 
ATOM     31  C   UNL A   1      41.474  27.430  27.744  1.00  0.00     0.016 A 
ATOM     32  C   UNL A   1      39.538  26.943  29.715  1.00  0.00     0.010 A 
ATOM     33  C   UNL A   1      41.422  28.226  28.892  1.00  0.00     0.010 A 
ATOM     34  C   UNL A   1      40.444  27.997  29.878  1.00  0.00    -0.014 A 
BRANCH  34  35
ATOM     35  C   UNL A   1      40.337  28.882  31.064  1.00  0.00     0.031 A 
ATOM     36  C   UNL A   1      39.320  29.989  31.084  1.00  0.00     0.074 A 
ATOM     37  C   UNL A   1      41.136  28.678  32.128  1.00  0.00     0.049 A 
ATOM     38  N   UNL A   1      39.128  30.916  31.987  1.00  0.00    -0.248 NA
ATOM     39  C   UNL A   1      38.400  30.065  29.938  1.00  0.00     0.031 C 
ATOM     40  C   UNL A   1      42.128  27.606  32.248  1.00  0.00     0.029 A 
ATOM     41  N   UNL A   1      41.239  29.362  33.312  1.00  0.00    -0.354 N 
ATOM     42  C   UNL A   1      38.085  31.700  31.509  1.00  0.00     0.074 A 
ATOM     43  C   UNL A   1      37.693  31.147  30.230  1.00  0.00     0.031 C 
ATOM     44  C   UNL A   1      42.733  27.703  33.443  1.00  0.00     0.029 A 
ATOM     45  C   UNL A   1      42.212  28.869  34.149  1.00  0.00     0.049 A 
ATOM     46  H   UNL A   1      40.672  30.133  33.540  1.00  0.00     0.167 HD
ATOM     47  C   UNL A   1      37.508  32.782  32.084  1.00  0.00     0.031 A 
ATOM     48  C   UNL A   1      42.654  29.321  35.339  1.00  0.00     0.031 A 
ATOM     49  C   UNL A   1      37.896  33.323  33.360  1.00  0.00     0.049 A 
ATOM     50  C   UNL A   1      42.035  30.556  35.931  1.00  0.00     0.074 A 
ATOM     51  C   UNL A   1      37.368  34.414  34.029  1.00  0.00     0.029 A 
ATOM     52  N   UNL A   1      38.904  32.812  34.163  1.00  0.00    -0.354 N 
ATOM     53  N   UNL A   1      41.059  31.296  35.457  1.00  0.00    -0.248 NA
ATOM     54  C   UNL A   1      42.575  31.020  37.215  1.00  0.00     0.031 C 
ATOM     55  C   UNL A   1      38.087  34.588  35.217  1.00  0.00     0.029 A 
ATOM     56  C   UNL A   1      39.028  33.576  35.311  1.00  0.00     0.049 A 
ATOM     57  H   UNL A   1      39.451  32.022  33.947  1.00  0.00     0.167 HD
ATOM     58  C   UNL A   1      40.859  32.302  36.396  1.00  0.00     0.074 A 
ATOM     59  C   UNL A   1      41.803  32.067  37.469  1.00  0.00     0.031 C 
ATOM     60  C   UNL A   1      39.974  33.328  36.369  1.00  0.00     0.031 A 
BRANCH  47  61
ATOM     61  C   UNL A   1      36.418  33.480  31.315  1.00  0.00    -0.014 A 
ATOM     62  C   UNL A   1      36.605  33.880  29.980  1.00  0.00     0.010 A 
ATOM     63  C   UNL A   1      35.173  33.707  31.930  1.00  0.00     0.010 A 
ATOM     64  C   UNL A   1      35.579  34.527  29.286  1.00  0.00     0.020 A 
ATOM     65  C   UNL A   1      34.137  34.334  31.233  1.00  0.00     0.020 A 
ATOM     66  C   UNL A   1      34.354  34.756  29.919  1.00  0.00     0.054 A 
BRANCH  66  67
ATOM     67  S   UNL A   1      33.032  35.586  28.993  1.00  0.00     0.124 S 
ATOM     68  O   UNL A   1      32.454  34.479  28.237  1.00  0.00    -0.237 OA
ATOM     69  O   UNL A   1      32.189  36.131  30.054  1.00  0.00    -0.237 OA
ATOM     70  O   UNL A   1      33.743  36.582  28.193  1.00  0.00    -0.744 OA
ENDBRANCH  66  67
ENDBRANCH  47  61
BRANCH  48  71
ATOM     71  C   UNL A   1      43.770  28.619  36.030  1.00  0.00    -0.014 A 
ATOM     72  C   UNL A   1      43.516  27.526  36.875  1.00  0.00     0.010 A 
ATOM     73  C   UNL A   1      45.098  29.040  35.833  1.00  0.00     0.010 A 
ATOM     74  C   UNL A   1      44.570  26.875  37.523  1.00  0.00     0.020 A 
ATOM     75  C   UNL A   1      46.156  28.376  36.458  1.00  0.00     0.020 A 
ATOM     76  C   UNL A   1      45.883  27.304  37.310  1.00  0.00     0.054 A 
BRANCH  76  77
ATOM     77  S   UNL A   1      47.242  26.412  38.117  1.00  0.00     0.124 S 
ATOM     78  O   UNL A   1      47.930  27.486  38.824  1.00  0.00    -0.237 OA
ATOM     79  O   UNL A   1      46.537  25.449  38.958  1.00  0.00    -0.237 OA
ATOM     80  O   UNL A   1      47.977  25.827  36.997  1.00  0.00    -0.744 OA
ENDBRANCH  76  77
ENDBRANCH  48  71
BRANCH  60  81
ATOM     81  C   UNL A   1      39.964  34.261  37.549  1.00  0.00    -0.014 A 
ATOM     82  C   UNL A   1      40.732  35.438  37.551  1.00  0.00     0.010 A 
ATOM     83  C   UNL A   1      39.136  33.977  38.650  1.00  0.00     0.010 A 
ATOM     84  C   UNL A   1      40.693  36.304  38.648  1.00  0.00     0.020 A 
ATOM     85  C   UNL A   1      39.076  34.852  39.738  1.00  0.00     0.020 A 
ATOM     86  C   UNL A   1      39.866  36.004  39.736  1.00  0.00     0.054 A 
BRANCH  86  87
ATOM     87  S   UNL A   1      39.796  37.164  41.128  1.00  0.00     0.124 S 
ATOM     88  O   UNL A   1      38.978  38.244  40.581  1.00  0.00    -0.237 OA
ATOM     89  O   UNL A   1      39.166  36.370  42.179  1.00  0.00    -0.237 OA
ATOM     90  O   UNL A   1      41.196  37.502  41.367  1.00  0.00    -0.744 OA
ENDBRANCH  86  87
ENDBRANCH  60  81
ENDBRANCH  34  35
ENDBRANCH  27  29
ENDBRANCH  26  27
ENDBRANCH   1  26
TORSDOF 16
ENDMDL
MODEL 3
REMARK VINA RESULT:     -11.2      7.253     12.876
REMARK SMILES O=C(N[C@@H]1C=C[C@@H](C(=O)OCCOC(=O)c2ccc(-c3c4nc(c(-c5ccc(S(=O)(=O)[O-])cc5)c5ccc([nH]5)c(-c5ccc(S(=O)(=O)[O-])cc5)c5nc(c(-c6ccc(S(=O)(=O)[O-])cc6)c6ccc3[nH]6)C=C5)C=C4)cc2)C1)N[C@H]1CCCc2sccc21
REMARK SMILES IDX 12 1 11 2 10 3 8 4 9 5 7 6 4 7 5 8 76 9 6 10 3 11 1 12 2 13
REMARK SMILES IDX 77 14 78 17 79 18 86 19 80 20 82 21 85 22 81 23 83 24 84 25
REMARK SMILES IDX 13 26 14 27 15 28 16 29 17 30 75 31 18 32 74 33 19 34 20 35
REMARK SMILES IDX 21 36 68 37 22 38 73 39 67 40 69 41 23 42 72 43 66 44 65 45
REMARK SMILES IDX 24 47 54 48 35 49 53 50 36 51 39 52 52 53 70 54 37 55 38 56
REMARK SMILES IDX 51 58 71 59 40 60 25 61 26 62 34 63 27 64 33 65 28 66 29 67
REMARK SMILES IDX 30 68 31 69 32 70 55 71 56 72 64 73 57 74 63 75 58 76 59 77
REMARK SMILES IDX 60 78 61 79 62 80 41 81 42 82 50 83 43 84 49 85 44 86 45 87
REMARK SMILES IDX 46 88 47 89 48 90
REMARK H PARENT 3 15 77 16 69 46 39 57
REMARK Flexibility Score: inf
ROOT
ATOM      1  C   UNL A   1      39.882  23.527  27.243  1.00  0.00     0.275 C 
ENDROOT
BRANCH   1   2
ATOM      2  C   UNL A   1      39.147  22.478  26.404  1.00  0.00     0.274 C 
BRANCH   2   3
ATOM      3  O   UNL A   1      37.862  22.986  26.000  1.00  0.00    -0.462 OA
BRANCH   3   4
ATOM      4  C   UNL A   1      37.087  22.175  25.236  1.00  0.00     0.312 C 
ATOM      5  O   UNL A   1      37.518  21.404  24.386  1.00  0.00    -0.252 OA
BRANCH   4   6
ATOM      6  C   UNL A   1      35.597  22.310  25.539  1.00  0.00     0.124 C 
ATOM      7  C   UNL A   1      33.639  23.706  25.079  1.00  0.00     0.107 C 
ATOM      8  C   UNL A   1      33.659  22.475  24.235  1.00  0.00    -0.006 C 
ATOM      9  C   UNL A   1      35.044  23.734  25.688  1.00  0.00     0.048 C 
ATOM     10  C   UNL A   1      34.739  21.719  24.463  1.00  0.00    -0.014 C 
BRANCH   7  11
ATOM     11  N   UNL A   1      32.596  23.580  26.071  1.00  0.00    -0.332 N 
ATOM     12  O   UNL A   1      30.812  24.278  27.241  1.00  0.00    -0.249 OA
ATOM     13  C   UNL A   1      31.776  24.561  26.541  1.00  0.00     0.315 C 
ATOM     14  N   UNL A   1      32.080  25.821  26.146  1.00  0.00    -0.331 N 
ATOM     15  H   UNL A   1      32.463  22.682  26.452  1.00  0.00     0.165 HD
ATOM     16  H   UNL A   1      32.930  25.965  25.670  1.00  0.00     0.166 HD
BRANCH  14  17
ATOM     17  C   UNL A   1      31.224  26.968  26.381  1.00  0.00     0.115 C 
ATOM     18  C   UNL A   1      31.933  28.002  27.292  1.00  0.00     0.030 C 
ATOM     19  C   UNL A   1      30.900  27.496  25.007  1.00  0.00    -0.012 A 
ATOM     20  C   UNL A   1      31.786  29.468  26.847  1.00  0.00     0.008 C 
ATOM     21  C   UNL A   1      31.355  28.717  24.551  1.00  0.00     0.010 A 
ATOM     22  C   UNL A   1      30.110  26.838  24.012  1.00  0.00     0.018 A 
ATOM     23  C   UNL A   1      32.169  29.660  25.374  1.00  0.00     0.047 C 
ATOM     24  S   UNL A   1      30.882  29.049  22.954  1.00  0.00    -0.149 S 
ATOM     25  C   UNL A   1      30.022  27.572  22.848  1.00  0.00     0.065 A 
ENDBRANCH  14  17
ENDBRANCH   7  11
ENDBRANCH   4   6
ENDBRANCH   3   4
ENDBRANCH   2   3
ENDBRANCH   1   2
BRANCH   1  26
ATOM     26  O   UNL A   1      39.210  24.800  27.192  1.00  0.00    -0.458 OA
BRANCH  26  27
ATOM     27  C   UNL A   1      40.015  25.868  26.984  1.00  0.00     0.338 C 
ATOM     28  O   UNL A   1      40.646  26.135  25.975  1.00  0.00    -0.246 OA
BRANCH  27  29
ATOM     29  C   UNL A   1      39.936  26.776  28.138  1.00  0.00     0.060 A 
ATOM     30  C   UNL A   1      40.705  27.941  28.112  1.00  0.00     0.016 A 
ATOM     31  C   UNL A   1      39.192  26.442  29.269  1.00  0.00     0.016 A 
ATOM     32  C   UNL A   1      40.752  28.773  29.227  1.00  0.00     0.010 A 
ATOM     33  C   UNL A   1      39.228  27.285  30.383  1.00  0.00     0.010 A 
ATOM     34  C   UNL A   1      40.019  28.449  30.375  1.00  0.00    -0.014 A 
BRANCH  34  35
ATOM     35  C   UNL A   1      40.118  29.310  31.579  1.00  0.00     0.031 A 
ATOM     36  C   UNL A   1      41.251  29.118  32.548  1.00  0.00     0.074 A 
ATOM     37  C   UNL A   1      39.206  30.277  31.788  1.00  0.00     0.049 A 
ATOM     38  N   UNL A   1      41.466  29.710  33.694  1.00  0.00    -0.248 NA
ATOM     39  C   UNL A   1      42.277  28.127  32.181  1.00  0.00     0.031 C 
ATOM     40  C   UNL A   1      38.089  30.595  30.894  1.00  0.00     0.029 A 
ATOM     41  N   UNL A   1      39.074  31.173  32.819  1.00  0.00    -0.354 N 
ATOM     42  C   UNL A   1      42.633  29.149  34.199  1.00  0.00     0.074 A 
ATOM     43  C   UNL A   1      43.074  28.159  33.239  1.00  0.00     0.031 C 
ATOM     44  C   UNL A   1      37.391  31.618  31.414  1.00  0.00     0.029 A 
ATOM     45  C   UNL A   1      37.977  31.992  32.697  1.00  0.00     0.049 A 
ATOM     46  H   UNL A   1      39.703  31.223  33.573  1.00  0.00     0.167 HD
ATOM     47  C   UNL A   1      43.276  29.432  35.356  1.00  0.00     0.031 A 
ATOM     48  C   UNL A   1      37.481  32.922  33.537  1.00  0.00     0.031 A 
ATOM     49  C   UNL A   1      42.837  30.422  36.304  1.00  0.00     0.049 A 
ATOM     50  C   UNL A   1      38.183  33.180  34.842  1.00  0.00     0.074 A 
ATOM     51  C   UNL A   1      43.424  30.786  37.504  1.00  0.00     0.029 A 
ATOM     52  N   UNL A   1      41.705  31.211  36.158  1.00  0.00    -0.354 N 
ATOM     53  N   UNL A   1      39.278  32.628  35.311  1.00  0.00    -0.248 NA
ATOM     54  C   UNL A   1      37.584  34.183  35.732  1.00  0.00     0.031 C 
ATOM     55  C   UNL A   1      42.623  31.765  38.104  1.00  0.00     0.029 A 
ATOM     56  C   UNL A   1      41.565  32.045  37.253  1.00  0.00     0.049 A 
ATOM     57  H   UNL A   1      41.093  31.181  35.388  1.00  0.00     0.167 HD
ATOM     58  C   UNL A   1      39.506  33.231  36.544  1.00  0.00     0.074 A 
ATOM     59  C   UNL A   1      38.446  34.198  36.739  1.00  0.00     0.031 C 
ATOM     60  C   UNL A   1      40.503  33.002  37.432  1.00  0.00     0.031 A 
BRANCH  47  61
ATOM     61  C   UNL A   1      44.506  28.628  35.683  1.00  0.00    -0.014 A 
ATOM     62  C   UNL A   1      44.422  27.419  36.395  1.00  0.00     0.010 A 
ATOM     63  C   UNL A   1      45.763  29.076  35.239  1.00  0.00     0.010 A 
ATOM     64  C   UNL A   1      45.578  26.690  36.688  1.00  0.00     0.020 A 
ATOM     65  C   UNL A   1      46.919  28.339  35.510  1.00  0.00     0.020 A 
ATOM     66  C   UNL A   1      46.820  27.158  36.249  1.00  0.00     0.054 A 
BRANCH  66  67
ATOM     67  S   UNL A   1      48.305  26.187  36.630  1.00  0.00     0.124 S 
ATOM     68  O   UNL A   1      48.800  25.861  35.295  1.00  0.00    -0.237 OA
ATOM     69  O   UNL A   1      49.121  27.131  37.389  1.00  0.00    -0.237 OA
ATOM     70  O   UNL A   1      47.791  25.055  37.398  1.00  0.00    -0.744 OA
ENDBRANCH  66  67
ENDBRANCH  47  61
BRANCH  48  71
ATOM     71  C   UNL A   1      36.233  33.650  33.185  1.00  0.00    -0.014 A 
ATOM     72  C   UNL A   1      34.975  33.053  33.375  1.00  0.00     0.010 A 
ATOM     73  C   UNL A   1      36.300  34.956  32.665  1.00  0.00     0.010 A 
ATOM     74  C   UNL A   1      33.808  33.743  33.038  1.00  0.00     0.020 A 
ATOM     75  C   UNL A   1      35.134  35.658  32.350  1.00  0.00     0.020 A 
ATOM     76  C   UNL A   1      33.895  35.042  32.528  1.00  0.00     0.054 A 
BRANCH  76  77
ATOM     77  S   UNL A   1      32.366  35.943  32.147  1.00  0.00     0.124 S 
ATOM     78  O   UNL A   1      32.564  37.194  32.869  1.00  0.00    -0.237 OA
ATOM     79  O   UNL A   1      32.407  36.038  30.690  1.00  0.00    -0.237 OA
ATOM     80  O   UNL A   1      31.318  35.071  32.675  1.00  0.00    -0.744 OA
ENDBRANCH  76  77
ENDBRANCH  48  71
BRANCH  60  81
ATOM     81  C   UNL A   1      40.512  33.832  38.687  1.00  0.00    -0.014 A 
ATOM     82  C   UNL A   1      39.755  33.457  39.811  1.00  0.00     0.010 A 
ATOM     83  C   UNL A   1      41.328  34.976  38.756  1.00  0.00     0.010 A 
ATOM     84  C   UNL A   1      39.794  34.229  40.976  1.00  0.00     0.020 A 
ATOM     85  C   UNL A   1      41.387  35.736  39.927  1.00  0.00     0.020 A 
ATOM     86  C   UNL A   1      40.608  35.365  41.025  1.00  0.00     0.054 A 
BRANCH  86  87
ATOM     87  S   UNL A   1      40.678  36.326  42.562  1.00  0.00     0.124 S 
ATOM     88  O   UNL A   1      39.312  36.194  43.064  1.00  0.00    -0.237 OA
ATOM     89  O   UNL A   1      41.701  35.626  43.334  1.00  0.00    -0.237 OA
ATOM     90  O   UNL A   1      41.052  37.665  42.115  1.00  0.00    -0.744 OA
ENDBRANCH  86  87
ENDBRANCH  60  81
ENDBRANCH  34  35
ENDBRANCH  27  29
ENDBRANCH  26  27
ENDBRANCH   1  26
TORSDOF 16
ENDMDL
