MODEL 1
REMARK VINA RESULT:     -10.4      0.000      0.000
REMARK SMILES O=C(OCCOC(=O)[C@@H]1CC[C@H](CNc2c(F)c(F)c(F)c(F)c2F)O1)c1ccc(-c2c3nc(c(-c4ccc(S(=O)(=O)[O-])cc4)c4ccc([nH]4)c(-c4ccc(S(=O)(=O)[O-])cc4)c4nc(c(-c5ccc(S(=O)(=O)[O-])cc5)c5ccc2[nH]5)C=C4)C=C3)cc1
REMARK SMILES IDX 4 1 3 2 2 3 1 4 27 5 28 6 86 7 29 8 85 9 30 10 31 11 32 12
REMARK SMILES IDX 79 13 33 14 84 15 78 16 80 17 34 18 83 19 77 20 76 21 35 23
REMARK SMILES IDX 65 24 46 25 64 26 47 27 50 28 63 29 81 30 48 31 49 32 62 34
REMARK SMILES IDX 82 35 51 36 36 37 37 38 45 39 38 40 44 41 39 42 40 43 41 44
REMARK SMILES IDX 42 45 43 46 66 47 67 48 75 49 68 50 74 51 69 52 70 53 71 54
REMARK SMILES IDX 72 55 73 56 52 57 53 58 61 59 54 60 60 61 55 62 56 63 57 64
REMARK SMILES IDX 58 65 59 66 5 67 6 68 7 69 8 70 9 71 10 72 26 73 11 74 12 75
REMARK SMILES IDX 13 76 14 77 15 79 16 80 24 81 17 82 18 83 22 84 25 85 19 86
REMARK SMILES IDX 20 87 23 88 21 89
REMARK H PARENT 80 22 50 33 14 78
REMARK Flexibility Score: inf
ROOT
ATOM      1  C   UNL A   1      34.284  32.523  28.762  1.00  0.00     0.275 C 
ENDROOT
BRANCH   1   2
ATOM      2  O   UNL A   1      34.233  31.672  27.594  1.00  0.00    -0.458 OA
BRANCH   2   3
ATOM      3  C   UNL A   1      34.464  30.337  27.656  1.00  0.00     0.338 C 
ATOM      4  O   UNL A   1      33.545  29.529  27.726  1.00  0.00    -0.246 OA
BRANCH   3   5
ATOM      5  C   UNL A   1      35.841  29.941  28.074  1.00  0.00     0.060 A 
ATOM      6  C   UNL A   1      36.132  29.368  29.308  1.00  0.00     0.016 A 
ATOM      7  C   UNL A   1      36.908  30.219  27.200  1.00  0.00     0.016 A 
ATOM      8  C   UNL A   1      37.449  29.001  29.620  1.00  0.00     0.010 A 
ATOM      9  C   UNL A   1      38.234  29.874  27.528  1.00  0.00     0.010 A 
ATOM     10  C   UNL A   1      38.518  29.228  28.733  1.00  0.00    -0.014 A 
BRANCH  10  11
ATOM     11  C   UNL A   1      39.898  28.819  29.150  1.00  0.00     0.031 A 
ATOM     12  C   UNL A   1      40.529  29.552  30.302  1.00  0.00     0.074 A 
ATOM     13  C   UNL A   1      40.536  27.754  28.613  1.00  0.00     0.049 A 
ATOM     14  N   UNL A   1      41.551  29.212  31.044  1.00  0.00    -0.248 NA
ATOM     15  C   UNL A   1      39.921  30.843  30.659  1.00  0.00     0.031 C 
ATOM     16  C   UNL A   1      40.051  26.962  27.487  1.00  0.00     0.029 A 
ATOM     17  N   UNL A   1      41.677  27.081  29.001  1.00  0.00    -0.354 N 
ATOM     18  C   UNL A   1      41.747  30.283  31.910  1.00  0.00     0.074 A 
ATOM     19  C   UNL A   1      40.679  31.229  31.673  1.00  0.00     0.031 C 
ATOM     20  C   UNL A   1      40.748  25.816  27.409  1.00  0.00     0.029 A 
ATOM     21  C   UNL A   1      41.812  25.836  28.405  1.00  0.00     0.049 A 
ATOM     22  H   UNL A   1      42.332  27.448  29.637  1.00  0.00     0.167 HD
ATOM     23  C   UNL A   1      42.776  30.508  32.759  1.00  0.00     0.031 A 
ATOM     24  C   UNL A   1      42.664  24.819  28.667  1.00  0.00     0.031 A 
ATOM     25  C   UNL A   1      43.904  29.633  32.907  1.00  0.00     0.049 A 
ATOM     26  C   UNL A   1      43.755  25.054  29.684  1.00  0.00     0.074 A 
ATOM     27  C   UNL A   1      45.039  29.817  33.676  1.00  0.00     0.029 A 
ATOM     28  N   UNL A   1      44.059  28.429  32.242  1.00  0.00    -0.354 N 
ATOM     29  N   UNL A   1      43.920  26.074  30.493  1.00  0.00    -0.248 NA
ATOM     30  C   UNL A   1      44.802  24.025  29.787  1.00  0.00     0.031 C 
ATOM     31  C   UNL A   1      45.909  28.752  33.426  1.00  0.00     0.029 A 
ATOM     32  C   UNL A   1      45.283  27.871  32.559  1.00  0.00     0.049 A 
ATOM     33  H   UNL A   1      43.395  28.029  31.634  1.00  0.00     0.167 HD
ATOM     34  C   UNL A   1      45.104  25.820  31.179  1.00  0.00     0.074 A 
ATOM     35  C   UNL A   1      45.580  24.527  30.737  1.00  0.00     0.031 C 
ATOM     36  C   UNL A   1      45.759  26.604  32.070  1.00  0.00     0.031 A 
BRANCH  23  37
ATOM     37  C   UNL A   1      42.803  31.841  33.453  1.00  0.00    -0.014 A 
ATOM     38  C   UNL A   1      43.379  32.976  32.860  1.00  0.00     0.010 A 
ATOM     39  C   UNL A   1      42.249  31.940  34.743  1.00  0.00     0.010 A 
ATOM     40  C   UNL A   1      43.427  34.185  33.563  1.00  0.00     0.020 A 
ATOM     41  C   UNL A   1      42.279  33.149  35.439  1.00  0.00     0.020 A 
ATOM     42  C   UNL A   1      42.882  34.261  34.850  1.00  0.00     0.054 A 
BRANCH  42  43
ATOM     43  S   UNL A   1      42.952  35.840  35.740  1.00  0.00     0.124 S 
ATOM     44  O   UNL A   1      41.843  36.575  35.137  1.00  0.00    -0.237 OA
ATOM     45  O   UNL A   1      42.755  35.434  37.129  1.00  0.00    -0.237 OA
ATOM     46  O   UNL A   1      44.283  36.355  35.428  1.00  0.00    -0.744 OA
ENDBRANCH  42  43
ENDBRANCH  23  37
BRANCH  24  47
ATOM     47  C   UNL A   1      42.511  23.467  28.032  1.00  0.00    -0.014 A 
ATOM     48  C   UNL A   1      43.333  23.106  26.943  1.00  0.00     0.010 A 
ATOM     49  C   UNL A   1      41.552  22.537  28.471  1.00  0.00     0.010 A 
ATOM     50  C   UNL A   1      43.196  21.866  26.307  1.00  0.00     0.020 A 
ATOM     51  C   UNL A   1      41.437  21.279  27.863  1.00  0.00     0.020 A 
ATOM     52  C   UNL A   1      42.250  20.956  26.774  1.00  0.00     0.054 A 
BRANCH  52  53
ATOM     53  S   UNL A   1      42.123  19.326  25.984  1.00  0.00     0.124 S 
ATOM     54  O   UNL A   1      42.662  18.445  27.015  1.00  0.00    -0.237 OA
ATOM     55  O   UNL A   1      40.690  19.202  25.730  1.00  0.00    -0.237 OA
ATOM     56  O   UNL A   1      42.947  19.469  24.786  1.00  0.00    -0.744 OA
ENDBRANCH  52  53
ENDBRANCH  24  47
BRANCH  36  57
ATOM     57  C   UNL A   1      47.094  26.126  32.571  1.00  0.00    -0.014 A 
ATOM     58  C   UNL A   1      47.175  25.306  33.711  1.00  0.00     0.010 A 
ATOM     59  C   UNL A   1      48.263  26.406  31.840  1.00  0.00     0.010 A 
ATOM     60  C   UNL A   1      48.404  24.781  34.118  1.00  0.00     0.020 A 
ATOM     61  C   UNL A   1      49.490  25.863  32.231  1.00  0.00     0.020 A 
ATOM     62  C   UNL A   1      49.553  25.059  33.371  1.00  0.00     0.054 A 
BRANCH  62  63
ATOM     63  S   UNL A   1      51.120  24.296  33.874  1.00  0.00     0.124 S 
ATOM     64  O   UNL A   1      50.829  23.876  35.241  1.00  0.00    -0.237 OA
ATOM     65  O   UNL A   1      51.276  23.214  32.904  1.00  0.00    -0.237 OA
ATOM     66  O   UNL A   1      52.090  25.381  33.747  1.00  0.00    -0.744 OA
ENDBRANCH  62  63
ENDBRANCH  36  57
ENDBRANCH  10  11
ENDBRANCH   3   5
ENDBRANCH   2   3
ENDBRANCH   1   2
BRANCH   1  67
ATOM     67  C   UNL A   1      33.651  33.876  28.406  1.00  0.00     0.274 C 
BRANCH  67  68
ATOM     68  O   UNL A   1      33.901  34.799  29.474  1.00  0.00    -0.460 OA
BRANCH  68  69
ATOM     69  C   UNL A   1      32.929  35.742  29.669  1.00  0.00     0.335 C 
ATOM     70  O   UNL A   1      32.231  36.223  28.790  1.00  0.00    -0.249 OA
BRANCH  69  71
ATOM     71  C   UNL A   1      32.778  36.041  31.160  1.00  0.00     0.228 C 
ATOM     72  C   UNL A   1      33.350  37.372  31.582  1.00  0.00     0.047 C 
ATOM     73  O   UNL A   1      33.484  35.057  31.921  1.00  0.00    -0.361 OA
ATOM     74  C   UNL A   1      33.733  37.140  33.027  1.00  0.00     0.037 C 
ATOM     75  C   UNL A   1      34.000  35.645  33.116  1.00  0.00     0.138 C 
BRANCH  75  76
ATOM     76  C   UNL A   1      35.453  35.195  33.332  1.00  0.00     0.145 C 
BRANCH  76  77
ATOM     77  N   UNL A   1      35.545  34.124  34.316  1.00  0.00    -0.378 N 
ATOM     78  H   UNL A   1      34.817  34.093  34.978  1.00  0.00     0.160 HD
BRANCH  77  79
ATOM     79  C   UNL A   1      36.520  33.142  34.448  1.00  0.00     0.113 A 
ATOM     80  C   UNL A   1      37.471  33.037  35.472  1.00  0.00     0.188 A 
ATOM     81  C   UNL A   1      36.535  32.098  33.498  1.00  0.00     0.188 A 
ATOM     82  F   UNL A   1      37.509  33.929  36.475  1.00  0.00    -0.201 F 
ATOM     83  C   UNL A   1      38.408  31.997  35.506  1.00  0.00     0.199 A 
ATOM     84  C   UNL A   1      37.461  31.057  33.529  1.00  0.00     0.199 A 
ATOM     85  F   UNL A   1      35.580  32.080  32.556  1.00  0.00    -0.201 F 
ATOM     86  F   UNL A   1      39.288  31.935  36.518  1.00  0.00    -0.200 F 
ATOM     87  C   UNL A   1      38.408  31.013  34.532  1.00  0.00     0.200 A 
ATOM     88  F   UNL A   1      37.393  30.071  32.623  1.00  0.00    -0.200 F 
ATOM     89  F   UNL A   1      39.278  29.996  34.602  1.00  0.00    -0.200 F 
ENDBRANCH  77  79
ENDBRANCH  76  77
ENDBRANCH  75  76
ENDBRANCH  69  71
ENDBRANCH  68  69
ENDBRANCH  67  68
ENDBRANCH   1  67
TORSDOF 17
ENDMDL
MODEL 2
REMARK VINA RESULT:     -10.3      4.330     12.571
REMARK SMILES O=C(OCCOC(=O)[C@@H]1CC[C@H](CNc2c(F)c(F)c(F)c(F)c2F)O1)c1ccc(-c2c3nc(c(-c4ccc(S(=O)(=O)[O-])cc4)c4ccc([nH]4)c(-c4ccc(S(=O)(=O)[O-])cc4)c4nc(c(-c5ccc(S(=O)(=O)[O-])cc5)c5ccc2[nH]5)C=C4)C=C3)cc1
REMARK SMILES IDX 4 1 3 2 2 3 1 4 27 5 28 6 86 7 29 8 85 9 30 10 31 11 32 12
REMARK SMILES IDX 79 13 33 14 84 15 78 16 80 17 34 18 83 19 77 20 76 21 35 23
REMARK SMILES IDX 65 24 46 25 64 26 47 27 50 28 63 29 81 30 48 31 49 32 62 34
REMARK SMILES IDX 82 35 51 36 36 37 37 38 45 39 38 40 44 41 39 42 40 43 41 44
REMARK SMILES IDX 42 45 43 46 66 47 67 48 75 49 68 50 74 51 69 52 70 53 71 54
REMARK SMILES IDX 72 55 73 56 52 57 53 58 61 59 54 60 60 61 55 62 56 63 57 64
REMARK SMILES IDX 58 65 59 66 5 67 6 68 7 69 8 70 9 71 10 72 26 73 11 74 12 75
REMARK SMILES IDX 13 76 14 77 15 79 16 80 24 81 17 82 18 83 22 84 25 85 19 86
REMARK SMILES IDX 20 87 23 88 21 89
REMARK H PARENT 80 22 50 33 14 78
REMARK Flexibility Score: inf
ROOT
ATOM      1  C   UNL A   1      39.728  20.742  25.829  1.00  0.00     0.275 C 
ENDROOT
BRANCH   1   2
ATOM      2  O   UNL A   1      39.620  21.891  26.700  1.00  0.00    -0.458 OA
BRANCH   2   3
ATOM      3  C   UNL A   1      38.902  22.993  26.366  1.00  0.00     0.338 C 
ATOM      4  O   UNL A   1      38.197  23.021  25.364  1.00  0.00    -0.246 OA
BRANCH   3   5
ATOM      5  C   UNL A   1      39.349  24.268  27.002  1.00  0.00     0.060 A 
ATOM      6  C   UNL A   1      40.020  25.273  26.313  1.00  0.00     0.016 A 
ATOM      7  C   UNL A   1      39.135  24.434  28.383  1.00  0.00     0.016 A 
ATOM      8  C   UNL A   1      40.387  26.455  26.974  1.00  0.00     0.010 A 
ATOM      9  C   UNL A   1      39.529  25.610  29.049  1.00  0.00     0.010 A 
ATOM     10  C   UNL A   1      40.133  26.653  28.344  1.00  0.00    -0.014 A 
BRANCH  10  11
ATOM     11  C   UNL A   1      40.572  27.939  28.977  1.00  0.00     0.031 A 
ATOM     12  C   UNL A   1      42.048  28.214  29.059  1.00  0.00     0.074 A 
ATOM     13  C   UNL A   1      39.698  28.897  29.363  1.00  0.00     0.049 A 
ATOM     14  N   UNL A   1      42.673  29.343  29.268  1.00  0.00    -0.248 NA
ATOM     15  C   UNL A   1      42.933  27.052  28.879  1.00  0.00     0.031 C 
ATOM     16  C   UNL A   1      38.244  28.763  29.353  1.00  0.00     0.029 A 
ATOM     17  N   UNL A   1      39.889  30.211  29.739  1.00  0.00    -0.354 N 
ATOM     18  C   UNL A   1      44.024  29.011  29.314  1.00  0.00     0.074 A 
ATOM     19  C   UNL A   1      44.130  27.602  29.006  1.00  0.00     0.031 C 
ATOM     20  C   UNL A   1      37.679  29.974  29.492  1.00  0.00     0.029 A 
ATOM     21  C   UNL A   1      38.724  30.964  29.721  1.00  0.00     0.049 A 
ATOM     22  H   UNL A   1      40.765  30.578  29.997  1.00  0.00     0.167 HD
ATOM     23  C   UNL A   1      45.074  29.783  29.675  1.00  0.00     0.031 A 
ATOM     24  C   UNL A   1      38.533  32.299  29.830  1.00  0.00     0.031 A 
ATOM     25  C   UNL A   1      44.960  31.148  30.104  1.00  0.00     0.049 A 
ATOM     26  C   UNL A   1      39.732  33.161  30.145  1.00  0.00     0.074 A 
ATOM     27  C   UNL A   1      45.954  31.987  30.574  1.00  0.00     0.029 A 
ATOM     28  N   UNL A   1      43.774  31.861  30.154  1.00  0.00    -0.354 N 
ATOM     29  N   UNL A   1      41.001  32.826  30.182  1.00  0.00    -0.248 NA
ATOM     30  C   UNL A   1      39.469  34.568  30.484  1.00  0.00     0.031 C 
ATOM     31  C   UNL A   1      45.357  33.188  30.969  1.00  0.00     0.029 A 
ATOM     32  C   UNL A   1      44.005  33.121  30.675  1.00  0.00     0.049 A 
ATOM     33  H   UNL A   1      42.897  31.521  29.863  1.00  0.00     0.167 HD
ATOM     34  C   UNL A   1      41.681  33.975  30.575  1.00  0.00     0.074 A 
ATOM     35  C   UNL A   1      40.695  35.026  30.704  1.00  0.00     0.031 C 
ATOM     36  C   UNL A   1      43.000  34.137  30.840  1.00  0.00     0.031 A 
BRANCH  23  37
ATOM     37  C   UNL A   1      46.409  29.102  29.789  1.00  0.00    -0.014 A 
ATOM     38  C   UNL A   1      47.349  29.130  28.747  1.00  0.00     0.010 A 
ATOM     39  C   UNL A   1      46.709  28.403  30.973  1.00  0.00     0.010 A 
ATOM     40  C   UNL A   1      48.558  28.439  28.877  1.00  0.00     0.020 A 
ATOM     41  C   UNL A   1      47.923  27.728  31.113  1.00  0.00     0.020 A 
ATOM     42  C   UNL A   1      48.835  27.738  30.057  1.00  0.00     0.054 A 
BRANCH  42  43
ATOM     43  S   UNL A   1      50.411  26.854  30.204  1.00  0.00     0.124 S 
ATOM     44  O   UNL A   1      49.987  25.575  30.769  1.00  0.00    -0.237 OA
ATOM     45  O   UNL A   1      50.881  26.804  28.822  1.00  0.00    -0.237 OA
ATOM     46  O   UNL A   1      51.200  27.697  31.098  1.00  0.00    -0.744 OA
ENDBRANCH  42  43
ENDBRANCH  23  37
BRANCH  24  47
ATOM     47  C   UNL A   1      37.197  32.936  29.582  1.00  0.00    -0.014 A 
ATOM     48  C   UNL A   1      36.389  33.318  30.674  1.00  0.00     0.010 A 
ATOM     49  C   UNL A   1      36.700  33.154  28.285  1.00  0.00     0.010 A 
ATOM     50  C   UNL A   1      35.123  33.885  30.480  1.00  0.00     0.020 A 
ATOM     51  C   UNL A   1      35.451  33.758  28.084  1.00  0.00     0.020 A 
ATOM     52  C   UNL A   1      34.663  34.107  29.184  1.00  0.00     0.054 A 
BRANCH  52  53
ATOM     53  S   UNL A   1      33.048  34.903  28.942  1.00  0.00     0.124 S 
ATOM     54  O   UNL A   1      33.428  36.211  28.418  1.00  0.00    -0.237 OA
ATOM     55  O   UNL A   1      32.388  34.008  27.994  1.00  0.00    -0.237 OA
ATOM     56  O   UNL A   1      32.472  34.907  30.284  1.00  0.00    -0.744 OA
ENDBRANCH  52  53
ENDBRANCH  24  47
BRANCH  36  57
ATOM     57  C   UNL A   1      43.447  35.473  31.368  1.00  0.00    -0.014 A 
ATOM     58  C   UNL A   1      43.862  36.485  30.483  1.00  0.00     0.010 A 
ATOM     59  C   UNL A   1      43.348  35.757  32.742  1.00  0.00     0.010 A 
ATOM     60  C   UNL A   1      44.182  37.756  30.965  1.00  0.00     0.020 A 
ATOM     61  C   UNL A   1      43.645  37.036  33.224  1.00  0.00     0.020 A 
ATOM     62  C   UNL A   1      44.066  38.025  32.332  1.00  0.00     0.054 A 
BRANCH  62  63
ATOM     63  S   UNL A   1      44.406  39.707  32.918  1.00  0.00     0.124 S 
ATOM     64  O   UNL A   1      45.229  39.457  34.099  1.00  0.00    -0.237 OA
ATOM     65  O   UNL A   1      45.104  40.307  31.783  1.00  0.00    -0.237 OA
ATOM     66  O   UNL A   1      43.080  40.256  33.187  1.00  0.00    -0.744 OA
ENDBRANCH  62  63
ENDBRANCH  36  57
ENDBRANCH  10  11
ENDBRANCH   3   5
ENDBRANCH   2   3
ENDBRANCH   1   2
BRANCH   1  67
ATOM     67  C   UNL A   1      40.814  19.810  26.386  1.00  0.00     0.274 C 
BRANCH  67  68
ATOM     68  O   UNL A   1      42.022  20.011  25.642  1.00  0.00    -0.460 OA
BRANCH  68  69
ATOM     69  C   UNL A   1      42.844  18.920  25.559  1.00  0.00     0.335 C 
ATOM     70  O   UNL A   1      42.590  17.814  26.010  1.00  0.00    -0.249 OA
BRANCH  69  71
ATOM     71  C   UNL A   1      44.089  19.259  24.741  1.00  0.00     0.228 C 
ATOM     72  C   UNL A   1      45.385  18.833  25.385  1.00  0.00     0.047 C 
ATOM     73  O   UNL A   1      44.184  20.677  24.579  1.00  0.00    -0.361 OA
ATOM     74  C   UNL A   1      46.384  19.832  24.841  1.00  0.00     0.037 C 
ATOM     75  C   UNL A   1      45.556  21.070  24.532  1.00  0.00     0.138 C 
BRANCH  75  76
ATOM     76  C   UNL A   1      45.774  22.308  25.415  1.00  0.00     0.145 C 
BRANCH  76  77
ATOM     77  N   UNL A   1      45.028  23.459  24.922  1.00  0.00    -0.378 N 
ATOM     78  H   UNL A   1      44.262  23.251  24.340  1.00  0.00     0.160 HD
BRANCH  77  79
ATOM     79  C   UNL A   1      45.250  24.811  25.162  1.00  0.00     0.113 A 
ATOM     80  C   UNL A   1      46.493  25.446  25.288  1.00  0.00     0.188 A 
ATOM     81  C   UNL A   1      44.125  25.661  25.229  1.00  0.00     0.188 A 
ATOM     82  F   UNL A   1      47.639  24.756  25.168  1.00  0.00    -0.201 F 
ATOM     83  C   UNL A   1      46.598  26.822  25.526  1.00  0.00     0.199 A 
ATOM     84  C   UNL A   1      44.223  27.032  25.461  1.00  0.00     0.199 A 
ATOM     85  F   UNL A   1      42.913  25.132  25.006  1.00  0.00    -0.201 F 
ATOM     86  F   UNL A   1      47.813  27.383  25.623  1.00  0.00    -0.200 F 
ATOM     87  C   UNL A   1      45.465  27.612  25.620  1.00  0.00     0.200 A 
ATOM     88  F   UNL A   1      43.118  27.790  25.468  1.00  0.00    -0.200 F 
ATOM     89  F   UNL A   1      45.579  28.935  25.799  1.00  0.00    -0.200 F 
ENDBRANCH  77  79
ENDBRANCH  76  77
ENDBRANCH  75  76
ENDBRANCH  69  71
ENDBRANCH  68  69
ENDBRANCH  67  68
ENDBRANCH   1  67
TORSDOF 17
ENDMDL
MODEL 3
REMARK VINA RESULT:     -10.3      1.492      2.048
REMARK SMILES O=C(OCCOC(=O)[C@@H]1CC[C@H](CNc2c(F)c(F)c(F)c(F)c2F)O1)c1ccc(-c2c3nc(c(-c4ccc(S(=O)(=O)[O-])cc4)c4ccc([nH]4)c(-c4ccc(S(=O)(=O)[O-])cc4)c4nc(c(-c5ccc(S(=O)(=O)[O-])cc5)c5ccc2[nH]5)C=C4)C=C3)cc1
REMARK SMILES IDX 4 1 3 2 2 3 1 4 27 5 28 6 86 7 29 8 85 9 30 10 31 11 32 12
REMARK SMILES IDX 79 13 33 14 84 15 78 16 80 17 34 18 83 19 77 20 76 21 35 23
REMARK SMILES IDX 65 24 46 25 64 26 47 27 50 28 63 29 81 30 48 31 49 32 62 34
REMARK SMILES IDX 82 35 51 36 36 37 37 38 45 39 38 40 44 41 39 42 40 43 41 44
REMARK SMILES IDX 42 45 43 46 66 47 67 48 75 49 68 50 74 51 69 52 70 53 71 54
REMARK SMILES IDX 72 55 73 56 52 57 53 58 61 59 54 60 60 61 55 62 56 63 57 64
REMARK SMILES IDX 58 65 59 66 5 67 6 68 7 69 8 70 9 71 10 72 26 73 11 74 12 75
REMARK SMILES IDX 13 76 14 77 15 79 16 80 24 81 17 82 18 83 22 84 25 85 19 86
REMARK SMILES IDX 20 87 23 88 21 89
REMARK H PARENT 80 22 50 33 14 78
REMARK Flexibility Score: inf
ROOT
ATOM      1  C   UNL A   1      32.820  32.302  27.594  1.00  0.00     0.275 C 
ENDROOT
BRANCH   1   2
ATOM      2  O   UNL A   1      34.026  31.663  28.071  1.00  0.00    -0.458 OA
BRANCH   2   3
ATOM      3  C   UNL A   1      34.427  30.443  27.632  1.00  0.00     0.338 C 
ATOM      4  O   UNL A   1      33.621  29.591  27.279  1.00  0.00    -0.246 OA
BRANCH   3   5
ATOM      5  C   UNL A   1      35.815  30.047  28.013  1.00  0.00     0.060 A 
ATOM      6  C   UNL A   1      36.890  30.079  27.131  1.00  0.00     0.016 A 
ATOM      7  C   UNL A   1      36.034  29.557  29.314  1.00  0.00     0.016 A 
ATOM      8  C   UNL A   1      38.171  29.714  27.570  1.00  0.00     0.010 A 
ATOM      9  C   UNL A   1      37.317  29.165  29.743  1.00  0.00     0.010 A 
ATOM     10  C   UNL A   1      38.412  29.270  28.883  1.00  0.00    -0.014 A 
BRANCH  10  11
ATOM     11  C   UNL A   1      39.809  28.884  29.267  1.00  0.00     0.031 A 
ATOM     12  C   UNL A   1      40.442  29.603  30.426  1.00  0.00     0.074 A 
ATOM     13  C   UNL A   1      40.462  27.847  28.694  1.00  0.00     0.049 A 
ATOM     14  N   UNL A   1      41.484  29.269  31.142  1.00  0.00    -0.248 NA
ATOM     15  C   UNL A   1      39.810  30.871  30.825  1.00  0.00     0.031 C 
ATOM     16  C   UNL A   1      39.976  27.072  27.556  1.00  0.00     0.029 A 
ATOM     17  N   UNL A   1      41.625  27.192  29.046  1.00  0.00    -0.354 N 
ATOM     18  C   UNL A   1      41.670  30.324  32.031  1.00  0.00     0.074 A 
ATOM     19  C   UNL A   1      40.577  31.250  31.835  1.00  0.00     0.031 C 
ATOM     20  C   UNL A   1      40.698  25.945  27.439  1.00  0.00     0.029 A 
ATOM     21  C   UNL A   1      41.778  25.966  28.418  1.00  0.00     0.049 A 
ATOM     22  H   UNL A   1      42.282  27.560  29.680  1.00  0.00     0.167 HD
ATOM     23  C   UNL A   1      42.708  30.553  32.868  1.00  0.00     0.031 A 
ATOM     24  C   UNL A   1      42.659  24.963  28.640  1.00  0.00     0.031 A 
ATOM     25  C   UNL A   1      43.858  29.701  32.976  1.00  0.00     0.049 A 
ATOM     26  C   UNL A   1      43.760  25.199  29.645  1.00  0.00     0.074 A 
ATOM     27  C   UNL A   1      45.001  29.894  33.730  1.00  0.00     0.029 A 
ATOM     28  N   UNL A   1      44.029  28.517  32.279  1.00  0.00    -0.354 N 
ATOM     29  N   UNL A   1      43.916  26.203  30.475  1.00  0.00    -0.248 NA
ATOM     30  C   UNL A   1      44.833  24.193  29.705  1.00  0.00     0.031 C 
ATOM     31  C   UNL A   1      45.892  28.855  33.440  1.00  0.00     0.029 A 
ATOM     32  C   UNL A   1      45.272  27.981  32.562  1.00  0.00     0.049 A 
ATOM     33  H   UNL A   1      43.365  28.117  31.673  1.00  0.00     0.167 HD
ATOM     34  C   UNL A   1      45.117  25.961  31.135  1.00  0.00     0.074 A 
ATOM     35  C   UNL A   1      45.615  24.691  30.654  1.00  0.00     0.031 C 
ATOM     36  C   UNL A   1      45.769  26.738  32.035  1.00  0.00     0.031 A 
BRANCH  23  37
ATOM     37  C   UNL A   1      42.716  31.869  33.594  1.00  0.00    -0.014 A 
ATOM     38  C   UNL A   1      42.145  32.018  34.868  1.00  0.00     0.010 A 
ATOM     39  C   UNL A   1      43.299  32.983  32.963  1.00  0.00     0.010 A 
ATOM     40  C   UNL A   1      42.130  33.273  35.486  1.00  0.00     0.020 A 
ATOM     41  C   UNL A   1      43.301  34.233  33.584  1.00  0.00     0.020 A 
ATOM     42  C   UNL A   1      42.703  34.373  34.837  1.00  0.00     0.054 A 
BRANCH  42  43
ATOM     43  S   UNL A   1      42.675  35.990  35.658  1.00  0.00     0.124 S 
ATOM     44  O   UNL A   1      43.587  35.773  36.779  1.00  0.00    -0.237 OA
ATOM     45  O   UNL A   1      43.164  36.888  34.616  1.00  0.00    -0.237 OA
ATOM     46  O   UNL A   1      41.272  36.169  36.024  1.00  0.00    -0.744 OA
ENDBRANCH  42  43
ENDBRANCH  23  37
BRANCH  24  47
ATOM     47  C   UNL A   1      42.526  23.623  27.975  1.00  0.00    -0.014 A 
ATOM     48  C   UNL A   1      41.761  22.608  28.589  1.00  0.00     0.010 A 
ATOM     49  C   UNL A   1      43.159  23.326  26.755  1.00  0.00     0.010 A 
ATOM     50  C   UNL A   1      41.642  21.337  28.014  1.00  0.00     0.020 A 
ATOM     51  C   UNL A   1      43.010  22.067  26.155  1.00  0.00     0.020 A 
ATOM     52  C   UNL A   1      42.264  21.075  26.795  1.00  0.00     0.054 A 
BRANCH  52  53
ATOM     53  S   UNL A   1      42.050  19.445  26.024  1.00  0.00     0.124 S 
ATOM     54  O   UNL A   1      40.618  19.423  25.749  1.00  0.00    -0.237 OA
ATOM     55  O   UNL A   1      42.920  19.527  24.852  1.00  0.00    -0.237 OA
ATOM     56  O   UNL A   1      42.506  18.522  27.061  1.00  0.00    -0.744 OA
ENDBRANCH  52  53
ENDBRANCH  24  47
BRANCH  36  57
ATOM     57  C   UNL A   1      47.123  26.280  32.501  1.00  0.00    -0.014 A 
ATOM     58  C   UNL A   1      47.242  25.428  33.614  1.00  0.00     0.010 A 
ATOM     59  C   UNL A   1      48.273  26.612  31.762  1.00  0.00     0.010 A 
ATOM     60  C   UNL A   1      48.490  24.924  33.987  1.00  0.00     0.020 A 
ATOM     61  C   UNL A   1      49.520  26.089  32.119  1.00  0.00     0.020 A 
ATOM     62  C   UNL A   1      49.620  25.253  33.233  1.00  0.00     0.054 A 
BRANCH  62  63
ATOM     63  S   UNL A   1      51.213  24.516  33.690  1.00  0.00     0.124 S 
ATOM     64  O   UNL A   1      51.630  25.361  34.805  1.00  0.00    -0.237 OA
ATOM     65  O   UNL A   1      50.845  23.147  34.043  1.00  0.00    -0.237 OA
ATOM     66  O   UNL A   1      52.016  24.645  32.476  1.00  0.00    -0.744 OA
ENDBRANCH  62  63
ENDBRANCH  36  57
ENDBRANCH  10  11
ENDBRANCH   3   5
ENDBRANCH   2   3
ENDBRANCH   1   2
BRANCH   1  67
ATOM     67  C   UNL A   1      33.008  33.823  27.683  1.00  0.00     0.274 C 
BRANCH  67  68
ATOM     68  O   UNL A   1      32.752  34.244  29.028  1.00  0.00    -0.460 OA
BRANCH  68  69
ATOM     69  C   UNL A   1      33.202  35.497  29.343  1.00  0.00     0.335 C 
ATOM     70  O   UNL A   1      33.798  36.241  28.581  1.00  0.00    -0.249 OA
BRANCH  69  71
ATOM     71  C   UNL A   1      32.769  35.871  30.760  1.00  0.00     0.228 C 
ATOM     72  C   UNL A   1      33.290  37.206  31.232  1.00  0.00     0.047 C 
ATOM     73  O   UNL A   1      33.278  34.907  31.687  1.00  0.00    -0.361 OA
ATOM     74  C   UNL A   1      33.371  37.033  32.733  1.00  0.00     0.037 C 
ATOM     75  C   UNL A   1      33.566  35.538  32.935  1.00  0.00     0.138 C 
BRANCH  75  76
ATOM     76  C   UNL A   1      34.932  35.064  33.455  1.00  0.00     0.145 C 
BRANCH  76  77
ATOM     77  N   UNL A   1      35.532  34.076  32.568  1.00  0.00    -0.378 N 
ATOM     78  H   UNL A   1      35.022  33.242  32.455  1.00  0.00     0.160 HD
BRANCH  77  79
ATOM     79  C   UNL A   1      36.727  34.150  31.860  1.00  0.00     0.113 A 
ATOM     80  C   UNL A   1      37.986  34.491  32.375  1.00  0.00     0.188 A 
ATOM     81  C   UNL A   1      36.707  33.792  30.495  1.00  0.00     0.188 A 
ATOM     82  F   UNL A   1      38.147  34.779  33.676  1.00  0.00    -0.201 F 
ATOM     83  C   UNL A   1      39.128  34.529  31.566  1.00  0.00     0.199 A 
ATOM     84  C   UNL A   1      37.840  33.823  29.686  1.00  0.00     0.199 A 
ATOM     85  F   UNL A   1      35.554  33.350  29.970  1.00  0.00    -0.201 F 
ATOM     86  F   UNL A   1      40.312  34.847  32.111  1.00  0.00    -0.200 F 
ATOM     87  C   UNL A   1      39.053  34.204  30.222  1.00  0.00     0.200 A 
ATOM     88  F   UNL A   1      37.762  33.427  28.408  1.00  0.00    -0.200 F 
ATOM     89  F   UNL A   1      40.162  34.197  29.468  1.00  0.00    -0.200 F 
ENDBRANCH  77  79
ENDBRANCH  76  77
ENDBRANCH  75  76
ENDBRANCH  69  71
ENDBRANCH  68  69
ENDBRANCH  67  68
ENDBRANCH   1  67
TORSDOF 17
ENDMDL
