MODEL 1
REMARK VINA RESULT:     -11.8      0.000      0.000
REMARK SMILES CCN(C(=O)Cc1c(C(=O)OCCOC(=O)c2ccc(-c3c4nc(c(-c5ccc(S(=O)(=O)[O-])cc5)c5ccc([nH]5)c(-c5ccc(S(=O)(=O)[O-])cc5)c5nc(c(-c6ccc(S(=O)(=O)[O-])cc6)c6ccc3[nH]6)C=C5)C=C4)cc2)[nH]c2ccc(Cl)cc12)c1ccc(C)c(C)c1
REMARK SMILES IDX 12 1 11 2 9 3 10 4 8 5 7 6 84 7 77 8 78 9 83 10 79 12 81 13
REMARK SMILES IDX 80 14 82 15 6 16 4 17 5 18 3 19 2 20 1 21 85 22 86 23 92 24
REMARK SMILES IDX 87 25 90 26 88 27 91 28 89 29 13 30 14 31 15 32 16 33 17 34
REMARK SMILES IDX 18 35 76 36 19 37 75 38 20 39 21 40 22 41 69 42 23 43 74 44
REMARK SMILES IDX 68 45 70 46 24 47 73 48 67 49 66 50 25 52 55 53 36 54 54 55
REMARK SMILES IDX 37 56 40 57 53 58 71 59 38 60 39 61 52 63 72 64 41 65 26 66
REMARK SMILES IDX 27 67 35 68 28 69 34 70 29 71 30 72 31 73 32 74 33 75 56 76
REMARK SMILES IDX 57 77 65 78 58 79 64 80 59 81 60 82 61 83 62 84 63 85 42 86
REMARK SMILES IDX 43 87 51 88 44 89 50 90 45 91 46 92 47 93 48 94 49 95
REMARK H PARENT 77 11 70 51 40 62
REMARK Flexibility Score: inf
ROOT
ATOM      1  C   UNL A   1      38.463  21.609  25.915  1.00  0.00     0.275 C 
ENDROOT
BRANCH   1   2
ATOM      2  O   UNL A   1      37.728  22.361  24.929  1.00  0.00    -0.457 OA
BRANCH   2   3
ATOM      3  C   UNL A   1      36.435  21.995  24.760  1.00  0.00     0.355 C 
ATOM      4  O   UNL A   1      36.045  20.845  24.629  1.00  0.00    -0.244 OA
BRANCH   3   5
ATOM      5  C   UNL A   1      35.536  23.130  24.806  1.00  0.00     0.129 A 
ATOM      6  C   UNL A   1      34.734  23.701  25.796  1.00  0.00     0.002 A 
ATOM      7  C   UNL A   1      34.281  24.969  25.264  1.00  0.00     0.005 A 
ATOM      8  N   UNL A   1      35.383  23.909  23.680  1.00  0.00    -0.349 N 
ATOM      9  C   UNL A   1      34.537  24.957  23.898  1.00  0.00     0.046 A 
ATOM     10  C   UNL A   1      33.625  26.101  25.790  1.00  0.00     0.031 A 
ATOM     11  H   UNL A   1      35.831  23.732  22.821  1.00  0.00     0.167 HD
ATOM     12  C   UNL A   1      34.027  25.901  23.002  1.00  0.00     0.028 A 
ATOM     13  C   UNL A   1      33.127  27.073  24.913  1.00  0.00     0.041 A 
ATOM     14  C   UNL A   1      33.285  26.955  23.537  1.00  0.00     0.022 A 
ATOM     15  Cl  UNL A   1      32.252  28.411  25.556  1.00  0.00    -0.084 Cl
BRANCH   6  16
ATOM     16  C   UNL A   1      34.465  23.185  27.184  1.00  0.00     0.139 C 
BRANCH  16  17
ATOM     17  C   UNL A   1      33.056  22.598  27.402  1.00  0.00     0.231 C 
ATOM     18  O   UNL A   1      32.714  22.343  28.565  1.00  0.00    -0.274 OA
BRANCH  17  19
ATOM     19  N   UNL A   1      32.193  22.426  26.305  1.00  0.00    -0.312 N 
BRANCH  19  20
ATOM     20  C   UNL A   1      30.878  23.082  26.167  1.00  0.00     0.122 C 
ATOM     21  C   UNL A   1      29.763  22.542  27.051  1.00  0.00     0.028 C 
ENDBRANCH  19  20
BRANCH  19  22
ATOM     22  C   UNL A   1      32.429  21.375  25.351  1.00  0.00     0.044 A 
ATOM     23  C   UNL A   1      32.753  20.083  25.758  1.00  0.00     0.026 A 
ATOM     24  C   UNL A   1      32.194  21.595  23.988  1.00  0.00     0.030 A 
ATOM     25  C   UNL A   1      32.758  19.032  24.833  1.00  0.00     0.006 A 
ATOM     26  C   UNL A   1      32.170  20.552  23.048  1.00  0.00    -0.046 A 
ATOM     27  C   UNL A   1      32.439  19.246  23.481  1.00  0.00    -0.048 A 
ATOM     28  C   UNL A   1      31.843  20.887  21.618  1.00  0.00     0.044 C 
ATOM     29  C   UNL A   1      32.424  18.063  22.555  1.00  0.00     0.044 C 
ENDBRANCH  19  22
ENDBRANCH  17  19
ENDBRANCH  16  17
ENDBRANCH   6  16
ENDBRANCH   3   5
ENDBRANCH   2   3
ENDBRANCH   1   2
BRANCH   1  30
ATOM     30  C   UNL A   1      39.734  22.336  26.364  1.00  0.00     0.275 C 
BRANCH  30  31
ATOM     31  O   UNL A   1      39.472  23.723  26.662  1.00  0.00    -0.458 OA
BRANCH  31  32
ATOM     32  C   UNL A   1      40.561  24.525  26.683  1.00  0.00     0.338 C 
ATOM     33  O   UNL A   1      41.568  24.433  26.003  1.00  0.00    -0.246 OA
BRANCH  32  34
ATOM     34  C   UNL A   1      40.340  25.651  27.601  1.00  0.00     0.060 A 
ATOM     35  C   UNL A   1      41.190  26.748  27.497  1.00  0.00     0.016 A 
ATOM     36  C   UNL A   1      39.432  25.568  28.651  1.00  0.00     0.016 A 
ATOM     37  C   UNL A   1      41.192  27.741  28.467  1.00  0.00     0.010 A 
ATOM     38  C   UNL A   1      39.379  26.606  29.591  1.00  0.00     0.010 A 
ATOM     39  C   UNL A   1      40.276  27.690  29.523  1.00  0.00    -0.014 A 
BRANCH  39  40
ATOM     40  C   UNL A   1      40.280  28.754  30.563  1.00  0.00     0.031 A 
ATOM     41  C   UNL A   1      41.264  28.690  31.701  1.00  0.00     0.074 A 
ATOM     42  C   UNL A   1      39.413  29.784  30.484  1.00  0.00     0.049 A 
ATOM     43  N   UNL A   1      41.313  29.410  32.792  1.00  0.00    -0.248 NA
ATOM     44  C   UNL A   1      42.329  27.679  31.601  1.00  0.00     0.031 C 
ATOM     45  C   UNL A   1      38.452  30.005  29.399  1.00  0.00     0.029 A 
ATOM     46  N   UNL A   1      39.199  30.842  31.333  1.00  0.00    -0.354 N 
ATOM     47  C   UNL A   1      42.374  28.904  33.534  1.00  0.00     0.074 A 
ATOM     48  C   UNL A   1      42.943  27.816  32.768  1.00  0.00     0.031 C 
ATOM     49  C   UNL A   1      37.772  31.136  29.636  1.00  0.00     0.029 A 
ATOM     50  C   UNL A   1      38.178  31.671  30.930  1.00  0.00     0.049 A 
ATOM     51  H   UNL A   1      39.725  30.992  32.152  1.00  0.00     0.167 HD
ATOM     52  C   UNL A   1      42.823  29.305  34.748  1.00  0.00     0.031 A 
ATOM     53  C   UNL A   1      37.594  32.714  31.551  1.00  0.00     0.031 A 
ATOM     54  C   UNL A   1      42.265  30.407  35.489  1.00  0.00     0.049 A 
ATOM     55  C   UNL A   1      38.068  33.103  32.922  1.00  0.00     0.074 A 
ATOM     56  C   UNL A   1      42.650  30.896  36.724  1.00  0.00     0.029 A 
ATOM     57  N   UNL A   1      41.209  31.195  35.058  1.00  0.00    -0.354 N 
ATOM     58  N   UNL A   1      39.038  32.581  33.635  1.00  0.00    -0.248 NA
ATOM     59  C   UNL A   1      37.359  34.208  33.582  1.00  0.00     0.031 C 
ATOM     60  C   UNL A   1      41.796  31.951  37.062  1.00  0.00     0.029 A 
ATOM     61  C   UNL A   1      40.916  32.155  36.012  1.00  0.00     0.049 A 
ATOM     62  H   UNL A   1      40.736  31.087  34.201  1.00  0.00     0.167 HD
ATOM     63  C   UNL A   1      39.067  33.306  34.820  1.00  0.00     0.074 A 
ATOM     64  C   UNL A   1      38.029  34.312  34.723  1.00  0.00     0.031 C 
ATOM     65  C   UNL A   1      39.880  33.151  35.893  1.00  0.00     0.031 A 
BRANCH  52  66
ATOM     66  C   UNL A   1      43.944  28.517  35.375  1.00  0.00    -0.014 A 
ATOM     67  C   UNL A   1      43.696  27.385  36.169  1.00  0.00     0.010 A 
ATOM     68  C   UNL A   1      45.277  28.903  35.131  1.00  0.00     0.010 A 
ATOM     69  C   UNL A   1      44.758  26.678  36.743  1.00  0.00     0.020 A 
ATOM     70  C   UNL A   1      46.341  28.183  35.680  1.00  0.00     0.020 A 
ATOM     71  C   UNL A   1      46.074  27.084  36.498  1.00  0.00     0.054 A 
BRANCH  71  72
ATOM     72  S   UNL A   1      47.432  26.141  37.243  1.00  0.00     0.124 S 
ATOM     73  O   UNL A   1      48.602  26.761  36.626  1.00  0.00    -0.237 OA
ATOM     74  O   UNL A   1      47.263  26.402  38.670  1.00  0.00    -0.237 OA
ATOM     75  O   UNL A   1      47.168  24.765  36.829  1.00  0.00    -0.744 OA
ENDBRANCH  71  72
ENDBRANCH  52  66
BRANCH  53  76
ATOM     76  C   UNL A   1      36.455  33.420  30.902  1.00  0.00    -0.014 A 
ATOM     77  C   UNL A   1      35.245  33.613  31.590  1.00  0.00     0.010 A 
ATOM     78  C   UNL A   1      36.586  33.927  29.596  1.00  0.00     0.010 A 
ATOM     79  C   UNL A   1      34.185  34.294  30.981  1.00  0.00     0.020 A 
ATOM     80  C   UNL A   1      35.541  34.634  28.995  1.00  0.00     0.020 A 
ATOM     81  C   UNL A   1      34.342  34.803  29.689  1.00  0.00     0.054 A 
BRANCH  81  82
ATOM     82  S   UNL A   1      32.978  35.738  28.942  1.00  0.00     0.124 S 
ATOM     83  O   UNL A   1      33.688  36.806  28.246  1.00  0.00    -0.237 OA
ATOM     84  O   UNL A   1      32.341  34.740  28.087  1.00  0.00    -0.237 OA
ATOM     85  O   UNL A   1      32.182  36.158  30.093  1.00  0.00    -0.744 OA
ENDBRANCH  81  82
ENDBRANCH  53  76
BRANCH  65  86
ATOM     86  C   UNL A   1      39.708  34.114  37.035  1.00  0.00    -0.014 A 
ATOM     87  C   UNL A   1      38.905  33.794  38.143  1.00  0.00     0.010 A 
ATOM     88  C   UNL A   1      40.414  35.332  37.025  1.00  0.00     0.010 A 
ATOM     89  C   UNL A   1      38.795  34.684  39.214  1.00  0.00     0.020 A 
ATOM     90  C   UNL A   1      40.327  36.213  38.105  1.00  0.00     0.020 A 
ATOM     91  C   UNL A   1      39.509  35.888  39.189  1.00  0.00     0.054 A 
BRANCH  91  92
ATOM     92  S   UNL A   1      39.399  36.999  40.617  1.00  0.00     0.124 S 
ATOM     93  O   UNL A   1      38.557  36.235  41.533  1.00  0.00    -0.237 OA
ATOM     94  O   UNL A   1      40.796  37.144  41.020  1.00  0.00    -0.237 OA
ATOM     95  O   UNL A   1      38.787  38.208  40.070  1.00  0.00    -0.744 OA
ENDBRANCH  91  92
ENDBRANCH  65  86
ENDBRANCH  39  40
ENDBRANCH  32  34
ENDBRANCH  31  32
ENDBRANCH  30  31
ENDBRANCH   1  30
TORSDOF 19
ENDMDL
MODEL 2
REMARK VINA RESULT:     -11.8      4.939     10.274
REMARK SMILES CCN(C(=O)Cc1c(C(=O)OCCOC(=O)c2ccc(-c3c4nc(c(-c5ccc(S(=O)(=O)[O-])cc5)c5ccc([nH]5)c(-c5ccc(S(=O)(=O)[O-])cc5)c5nc(c(-c6ccc(S(=O)(=O)[O-])cc6)c6ccc3[nH]6)C=C5)C=C4)cc2)[nH]c2ccc(Cl)cc12)c1ccc(C)c(C)c1
REMARK SMILES IDX 12 1 11 2 9 3 10 4 8 5 7 6 84 7 77 8 78 9 83 10 79 12 81 13
REMARK SMILES IDX 80 14 82 15 6 16 4 17 5 18 3 19 2 20 1 21 85 22 86 23 92 24
REMARK SMILES IDX 87 25 90 26 88 27 91 28 89 29 13 30 14 31 15 32 16 33 17 34
REMARK SMILES IDX 18 35 76 36 19 37 75 38 20 39 21 40 22 41 69 42 23 43 74 44
REMARK SMILES IDX 68 45 70 46 24 47 73 48 67 49 66 50 25 52 55 53 36 54 54 55
REMARK SMILES IDX 37 56 40 57 53 58 71 59 38 60 39 61 52 63 72 64 41 65 26 66
REMARK SMILES IDX 27 67 35 68 28 69 34 70 29 71 30 72 31 73 32 74 33 75 56 76
REMARK SMILES IDX 57 77 65 78 58 79 64 80 59 81 60 82 61 83 62 84 63 85 42 86
REMARK SMILES IDX 43 87 51 88 44 89 50 90 45 91 46 92 47 93 48 94 49 95
REMARK H PARENT 77 11 70 51 40 62
REMARK Flexibility Score: inf
ROOT
ATOM      1  C   UNL A   1      33.722  28.766  25.091  1.00  0.00     0.275 C 
ENDROOT
BRANCH   1   2
ATOM      2  O   UNL A   1      33.968  29.269  23.763  1.00  0.00    -0.457 OA
BRANCH   2   3
ATOM      3  C   UNL A   1      33.496  28.500  22.751  1.00  0.00     0.355 C 
ATOM      4  O   UNL A   1      34.191  27.909  21.940  1.00  0.00    -0.244 OA
BRANCH   3   5
ATOM      5  C   UNL A   1      32.050  28.407  22.765  1.00  0.00     0.129 A 
ATOM      6  C   UNL A   1      31.140  27.360  22.921  1.00  0.00     0.002 A 
ATOM      7  C   UNL A   1      29.843  27.978  23.091  1.00  0.00     0.005 A 
ATOM      8  N   UNL A   1      31.304  29.558  22.629  1.00  0.00    -0.349 N 
ATOM      9  C   UNL A   1      29.965  29.306  22.703  1.00  0.00     0.046 A 
ATOM     10  C   UNL A   1      28.562  27.531  23.476  1.00  0.00     0.031 A 
ATOM     11  H   UNL A   1      31.691  30.453  22.495  1.00  0.00     0.167 HD
ATOM     12  C   UNL A   1      28.879  30.162  22.498  1.00  0.00     0.028 A 
ATOM     13  C   UNL A   1      27.460  28.380  23.304  1.00  0.00     0.041 A 
ATOM     14  C   UNL A   1      27.608  29.660  22.781  1.00  0.00     0.022 A 
ATOM     15  Cl  UNL A   1      25.886  27.798  23.695  1.00  0.00    -0.084 Cl
BRANCH   6  16
ATOM     16  C   UNL A   1      31.430  25.885  23.012  1.00  0.00     0.139 C 
BRANCH  16  17
ATOM     17  C   UNL A   1      31.721  25.363  24.434  1.00  0.00     0.231 C 
ATOM     18  O   UNL A   1      31.424  26.096  25.387  1.00  0.00    -0.274 OA
BRANCH  17  19
ATOM     19  N   UNL A   1      32.250  24.071  24.609  1.00  0.00    -0.312 N 
BRANCH  19  20
ATOM     20  C   UNL A   1      31.436  22.855  24.795  1.00  0.00     0.122 C 
ATOM     21  C   UNL A   1      30.674  22.753  26.110  1.00  0.00     0.028 C 
ENDBRANCH  19  20
BRANCH  19  22
ATOM     22  C   UNL A   1      33.650  23.889  24.883  1.00  0.00     0.044 A 
ATOM     23  C   UNL A   1      34.135  23.838  26.188  1.00  0.00     0.026 A 
ATOM     24  C   UNL A   1      34.543  23.614  23.839  1.00  0.00     0.030 A 
ATOM     25  C   UNL A   1      35.454  23.439  26.436  1.00  0.00     0.006 A 
ATOM     26  C   UNL A   1      35.862  23.190  24.066  1.00  0.00    -0.046 A 
ATOM     27  C   UNL A   1      36.320  23.083  25.387  1.00  0.00    -0.048 A 
ATOM     28  C   UNL A   1      36.720  22.856  22.876  1.00  0.00     0.044 C 
ATOM     29  C   UNL A   1      37.709  22.625  25.732  1.00  0.00     0.044 C 
ENDBRANCH  19  22
ENDBRANCH  17  19
ENDBRANCH  16  17
ENDBRANCH   6  16
ENDBRANCH   3   5
ENDBRANCH   2   3
ENDBRANCH   1   2
BRANCH   1  30
ATOM     30  C   UNL A   1      33.173  29.850  26.024  1.00  0.00     0.275 C 
BRANCH  30  31
ATOM     31  O   UNL A   1      33.569  29.620  27.391  1.00  0.00    -0.458 OA
BRANCH  31  32
ATOM     32  C   UNL A   1      34.397  30.551  27.917  1.00  0.00     0.338 C 
ATOM     33  O   UNL A   1      34.110  31.670  28.306  1.00  0.00    -0.246 OA
BRANCH  32  34
ATOM     34  C   UNL A   1      35.748  29.994  28.073  1.00  0.00     0.060 A 
ATOM     35  C   UNL A   1      36.120  29.538  29.334  1.00  0.00     0.016 A 
ATOM     36  C   UNL A   1      36.690  30.069  27.052  1.00  0.00     0.016 A 
ATOM     37  C   UNL A   1      37.441  29.214  29.613  1.00  0.00     0.010 A 
ATOM     38  C   UNL A   1      38.008  29.671  27.309  1.00  0.00     0.010 A 
ATOM     39  C   UNL A   1      38.403  29.263  28.599  1.00  0.00    -0.014 A 
BRANCH  39  40
ATOM     40  C   UNL A   1      39.818  28.917  28.898  1.00  0.00     0.031 A 
ATOM     41  C   UNL A   1      40.730  29.945  29.515  1.00  0.00     0.074 A 
ATOM     42  C   UNL A   1      40.285  27.681  28.632  1.00  0.00     0.049 A 
ATOM     43  N   UNL A   1      42.026  29.902  29.687  1.00  0.00    -0.248 NA
ATOM     44  C   UNL A   1      40.102  31.187  29.996  1.00  0.00     0.031 C 
ATOM     45  C   UNL A   1      39.494  26.569  28.098  1.00  0.00     0.029 A 
ATOM     46  N   UNL A   1      41.544  27.148  28.775  1.00  0.00    -0.354 N 
ATOM     47  C   UNL A   1      42.377  31.128  30.241  1.00  0.00     0.074 A 
ATOM     48  C   UNL A   1      41.157  31.894  30.377  1.00  0.00     0.031 C 
ATOM     49  C   UNL A   1      40.275  25.486  27.982  1.00  0.00     0.029 A 
ATOM     50  C   UNL A   1      41.641  25.846  28.343  1.00  0.00     0.049 A 
ATOM     51  H   UNL A   1      42.303  27.650  29.150  1.00  0.00     0.167 HD
ATOM     52  C   UNL A   1      43.607  31.576  30.592  1.00  0.00     0.031 A 
ATOM     53  C   UNL A   1      42.714  25.045  28.199  1.00  0.00     0.031 A 
ATOM     54  C   UNL A   1      44.811  30.795  30.475  1.00  0.00     0.049 A 
ATOM     55  C   UNL A   1      44.075  25.582  28.536  1.00  0.00     0.074 A 
ATOM     56  C   UNL A   1      46.105  31.154  30.807  1.00  0.00     0.029 A 
ATOM     57  N   UNL A   1      44.866  29.494  29.998  1.00  0.00    -0.354 N 
ATOM     58  N   UNL A   1      44.398  26.763  29.009  1.00  0.00    -0.248 NA
ATOM     59  C   UNL A   1      45.219  24.689  28.305  1.00  0.00     0.031 C 
ATOM     60  C   UNL A   1      46.950  30.086  30.486  1.00  0.00     0.029 A 
ATOM     61  C   UNL A   1      46.175  29.042  30.008  1.00  0.00     0.049 A 
ATOM     62  H   UNL A   1      44.090  28.969  29.695  1.00  0.00     0.167 HD
ATOM     63  C   UNL A   1      45.780  26.747  29.149  1.00  0.00     0.074 A 
ATOM     64  C   UNL A   1      46.231  25.437  28.726  1.00  0.00     0.031 C 
ATOM     65  C   UNL A   1      46.602  27.732  29.586  1.00  0.00     0.031 A 
BRANCH  52  66
ATOM     66  C   UNL A   1      43.720  32.993  31.089  1.00  0.00    -0.014 A 
ATOM     67  C   UNL A   1      43.659  33.302  32.459  1.00  0.00     0.010 A 
ATOM     68  C   UNL A   1      43.926  34.033  30.163  1.00  0.00     0.010 A 
ATOM     69  C   UNL A   1      43.760  34.629  32.890  1.00  0.00     0.020 A 
ATOM     70  C   UNL A   1      44.056  35.358  30.591  1.00  0.00     0.020 A 
ATOM     71  C   UNL A   1      43.953  35.649  31.952  1.00  0.00     0.054 A 
BRANCH  71  72
ATOM     72  S   UNL A   1      44.096  37.359  32.539  1.00  0.00     0.124 S 
ATOM     73  O   UNL A   1      43.848  38.118  31.316  1.00  0.00    -0.237 OA
ATOM     74  O   UNL A   1      43.046  37.441  33.552  1.00  0.00    -0.237 OA
ATOM     75  O   UNL A   1      45.461  37.437  33.054  1.00  0.00    -0.744 OA
ENDBRANCH  71  72
ENDBRANCH  52  66
BRANCH  53  76
ATOM     76  C   UNL A   1      42.544  23.669  27.652  1.00  0.00    -0.014 A 
ATOM     77  C   UNL A   1      42.656  23.427  26.272  1.00  0.00     0.010 A 
ATOM     78  C   UNL A   1      42.292  22.588  28.517  1.00  0.00     0.010 A 
ATOM     79  C   UNL A   1      42.514  22.130  25.768  1.00  0.00     0.020 A 
ATOM     80  C   UNL A   1      42.180  21.287  28.021  1.00  0.00     0.020 A 
ATOM     81  C   UNL A   1      42.281  21.068  26.646  1.00  0.00     0.054 A 
BRANCH  81  82
ATOM     82  S   UNL A   1      42.163  19.385  25.978  1.00  0.00     0.124 S 
ATOM     83  O   UNL A   1      43.027  19.465  24.805  1.00  0.00    -0.237 OA
ATOM     84  O   UNL A   1      42.665  18.570  27.081  1.00  0.00    -0.237 OA
ATOM     85  O   UNL A   1      40.737  19.229  25.699  1.00  0.00    -0.744 OA
ENDBRANCH  81  82
ENDBRANCH  53  76
BRANCH  65  86
ATOM     86  C   UNL A   1      48.071  27.419  29.669  1.00  0.00    -0.014 A 
ATOM     87  C   UNL A   1      49.004  28.081  28.852  1.00  0.00     0.010 A 
ATOM     88  C   UNL A   1      48.529  26.493  30.625  1.00  0.00     0.010 A 
ATOM     89  C   UNL A   1      50.368  27.809  28.976  1.00  0.00     0.020 A 
ATOM     90  C   UNL A   1      49.894  26.237  30.769  1.00  0.00     0.020 A 
ATOM     91  C   UNL A   1      50.804  26.889  29.936  1.00  0.00     0.054 A 
BRANCH  91  92
ATOM     92  S   UNL A   1      52.584  26.597  30.121  1.00  0.00     0.124 S 
ATOM     93  O   UNL A   1      52.894  25.834  28.915  1.00  0.00    -0.237 OA
ATOM     94  O   UNL A   1      53.129  27.952  30.165  1.00  0.00    -0.237 OA
ATOM     95  O   UNL A   1      52.685  25.851  31.374  1.00  0.00    -0.744 OA
ENDBRANCH  91  92
ENDBRANCH  65  86
ENDBRANCH  39  40
ENDBRANCH  32  34
ENDBRANCH  31  32
ENDBRANCH  30  31
ENDBRANCH   1  30
TORSDOF 19
ENDMDL
MODEL 3
REMARK VINA RESULT:     -11.6      6.432     11.834
REMARK SMILES CCN(C(=O)Cc1c(C(=O)OCCOC(=O)c2ccc(-c3c4nc(c(-c5ccc(S(=O)(=O)[O-])cc5)c5ccc([nH]5)c(-c5ccc(S(=O)(=O)[O-])cc5)c5nc(c(-c6ccc(S(=O)(=O)[O-])cc6)c6ccc3[nH]6)C=C5)C=C4)cc2)[nH]c2ccc(Cl)cc12)c1ccc(C)c(C)c1
REMARK SMILES IDX 12 1 11 2 9 3 10 4 8 5 7 6 84 7 77 8 78 9 83 10 79 12 81 13
REMARK SMILES IDX 80 14 82 15 6 16 4 17 5 18 3 19 2 20 1 21 85 22 86 23 92 24
REMARK SMILES IDX 87 25 90 26 88 27 91 28 89 29 13 30 14 31 15 32 16 33 17 34
REMARK SMILES IDX 18 35 76 36 19 37 75 38 20 39 21 40 22 41 69 42 23 43 74 44
REMARK SMILES IDX 68 45 70 46 24 47 73 48 67 49 66 50 25 52 55 53 36 54 54 55
REMARK SMILES IDX 37 56 40 57 53 58 71 59 38 60 39 61 52 63 72 64 41 65 26 66
REMARK SMILES IDX 27 67 35 68 28 69 34 70 29 71 30 72 31 73 32 74 33 75 56 76
REMARK SMILES IDX 57 77 65 78 58 79 64 80 59 81 60 82 61 83 62 84 63 85 42 86
REMARK SMILES IDX 43 87 51 88 44 89 50 90 45 91 46 92 47 93 48 94 49 95
REMARK H PARENT 77 11 70 51 40 62
REMARK Flexibility Score: inf
ROOT
ATOM      1  C   UNL A   1      34.337  29.578  27.053  1.00  0.00     0.275 C 
ENDROOT
BRANCH   1   2
ATOM      2  O   UNL A   1      33.312  28.717  27.587  1.00  0.00    -0.457 OA
BRANCH   2   3
ATOM      3  C   UNL A   1      32.334  28.366  26.717  1.00  0.00     0.355 C 
ATOM      4  O   UNL A   1      31.444  29.108  26.330  1.00  0.00    -0.244 OA
BRANCH   3   5
ATOM      5  C   UNL A   1      32.487  27.006  26.243  1.00  0.00     0.129 A 
ATOM      6  C   UNL A   1      33.238  26.402  25.233  1.00  0.00     0.002 A 
ATOM      7  C   UNL A   1      33.131  24.976  25.451  1.00  0.00     0.005 A 
ATOM      8  N   UNL A   1      31.802  25.994  26.880  1.00  0.00    -0.349 N 
ATOM      9  C   UNL A   1      32.084  24.773  26.341  1.00  0.00     0.046 A 
ATOM     10  C   UNL A   1      33.776  23.831  24.937  1.00  0.00     0.031 A 
ATOM     11  H   UNL A   1      31.184  26.135  27.634  1.00  0.00     0.167 HD
ATOM     12  C   UNL A   1      31.521  23.521  26.610  1.00  0.00     0.028 A 
ATOM     13  C   UNL A   1      33.245  22.564  25.213  1.00  0.00     0.041 A 
ATOM     14  C   UNL A   1      32.109  22.412  26.001  1.00  0.00     0.022 A 
ATOM     15  Cl  UNL A   1      33.986  21.176  24.513  1.00  0.00    -0.084 Cl
BRANCH   6  16
ATOM     16  C   UNL A   1      34.087  27.070  24.184  1.00  0.00     0.139 C 
BRANCH  16  17
ATOM     17  C   UNL A   1      33.394  27.290  22.824  1.00  0.00     0.231 C 
ATOM     18  O   UNL A   1      34.068  27.784  21.910  1.00  0.00    -0.274 OA
BRANCH  17  19
ATOM     19  N   UNL A   1      32.061  26.881  22.645  1.00  0.00    -0.312 N 
BRANCH  19  20
ATOM     20  C   UNL A   1      31.658  25.602  22.029  1.00  0.00     0.122 C 
ATOM     21  C   UNL A   1      32.787  24.718  21.516  1.00  0.00     0.028 C 
ENDBRANCH  19  20
BRANCH  19  22
ATOM     22  C   UNL A   1      30.982  27.816  22.819  1.00  0.00     0.044 A 
ATOM     23  C   UNL A   1      31.097  29.143  22.410  1.00  0.00     0.026 A 
ATOM     24  C   UNL A   1      29.733  27.374  23.272  1.00  0.00     0.030 A 
ATOM     25  C   UNL A   1      29.970  29.973  22.382  1.00  0.00     0.006 A 
ATOM     26  C   UNL A   1      28.585  28.182  23.230  1.00  0.00    -0.046 A 
ATOM     27  C   UNL A   1      28.702  29.498  22.759  1.00  0.00    -0.048 A 
ATOM     28  C   UNL A   1      27.277  27.590  23.681  1.00  0.00     0.044 C 
ATOM     29  C   UNL A   1      27.531  30.435  22.663  1.00  0.00     0.044 C 
ENDBRANCH  19  22
ENDBRANCH  17  19
ENDBRANCH  16  17
ENDBRANCH   6  16
ENDBRANCH   3   5
ENDBRANCH   2   3
ENDBRANCH   1   2
BRANCH   1  30
ATOM     30  C   UNL A   1      34.336  30.956  27.722  1.00  0.00     0.275 C 
BRANCH  30  31
ATOM     31  O   UNL A   1      35.678  31.433  27.950  1.00  0.00    -0.458 OA
BRANCH  31  32
ATOM     32  C   UNL A   1      36.215  31.101  29.145  1.00  0.00     0.338 C 
ATOM     33  O   UNL A   1      35.722  31.245  30.250  1.00  0.00    -0.246 OA
BRANCH  32  34
ATOM     34  C   UNL A   1      37.497  30.411  28.948  1.00  0.00     0.060 A 
ATOM     35  C   UNL A   1      38.358  30.318  30.038  1.00  0.00     0.016 A 
ATOM     36  C   UNL A   1      37.923  30.011  27.686  1.00  0.00     0.016 A 
ATOM     37  C   UNL A   1      39.669  29.889  29.876  1.00  0.00     0.010 A 
ATOM     38  C   UNL A   1      39.222  29.506  27.532  1.00  0.00     0.010 A 
ATOM     39  C   UNL A   1      40.116  29.463  28.620  1.00  0.00    -0.014 A 
BRANCH  39  40
ATOM     40  C   UNL A   1      41.520  29.005  28.447  1.00  0.00     0.031 A 
ATOM     41  C   UNL A   1      42.653  29.990  28.563  1.00  0.00     0.074 A 
ATOM     42  C   UNL A   1      41.784  27.706  28.199  1.00  0.00     0.049 A 
ATOM     43  N   UNL A   1      43.918  29.831  28.273  1.00  0.00    -0.248 NA
ATOM     44  C   UNL A   1      42.317  31.333  29.065  1.00  0.00     0.031 C 
ATOM     45  C   UNL A   1      40.788  26.634  28.129  1.00  0.00     0.029 A 
ATOM     46  N   UNL A   1      42.975  27.063  27.960  1.00  0.00    -0.354 N 
ATOM     47  C   UNL A   1      44.519  31.064  28.501  1.00  0.00     0.074 A 
ATOM     48  C   UNL A   1      43.479  31.962  28.955  1.00  0.00     0.031 C 
ATOM     49  C   UNL A   1      41.408  25.469  27.890  1.00  0.00     0.029 A 
ATOM     50  C   UNL A   1      42.830  25.721  27.697  1.00  0.00     0.049 A 
ATOM     51  H   UNL A   1      43.847  27.520  27.975  1.00  0.00     0.167 HD
ATOM     52  C   UNL A   1      45.817  31.415  28.336  1.00  0.00     0.031 A 
ATOM     53  C   UNL A   1      43.728  24.802  27.293  1.00  0.00     0.031 A 
ATOM     54  C   UNL A   1      46.849  30.506  27.908  1.00  0.00     0.049 A 
ATOM     55  C   UNL A   1      45.149  25.228  27.057  1.00  0.00     0.074 A 
ATOM     56  C   UNL A   1      48.194  30.762  27.713  1.00  0.00     0.029 A 
ATOM     57  N   UNL A   1      46.649  29.165  27.618  1.00  0.00    -0.354 N 
ATOM     58  N   UNL A   1      45.692  26.411  27.226  1.00  0.00    -0.248 NA
ATOM     59  C   UNL A   1      46.077  24.202  26.559  1.00  0.00     0.031 C 
ATOM     60  C   UNL A   1      48.801  29.585  27.260  1.00  0.00     0.029 A 
ATOM     61  C   UNL A   1      47.844  28.584  27.227  1.00  0.00     0.049 A 
ATOM     62  H   UNL A   1      45.786  28.695  27.679  1.00  0.00     0.167 HD
ATOM     63  C   UNL A   1      47.027  26.267  26.872  1.00  0.00     0.074 A 
ATOM     64  C   UNL A   1      47.215  24.880  26.494  1.00  0.00     0.031 C 
ATOM     65  C   UNL A   1      48.010  27.200  26.859  1.00  0.00     0.031 A 
BRANCH  52  66
ATOM     66  C   UNL A   1      46.187  32.857  28.570  1.00  0.00    -0.014 A 
ATOM     67  C   UNL A   1      46.639  33.309  29.822  1.00  0.00     0.010 A 
ATOM     68  C   UNL A   1      46.113  33.769  27.500  1.00  0.00     0.010 A 
ATOM     69  C   UNL A   1      46.969  34.655  30.011  1.00  0.00     0.020 A 
ATOM     70  C   UNL A   1      46.467  35.110  27.677  1.00  0.00     0.020 A 
ATOM     71  C   UNL A   1      46.876  35.548  28.938  1.00  0.00     0.054 A 
BRANCH  71  72
ATOM     72  S   UNL A   1      47.324  37.285  29.206  1.00  0.00     0.124 S 
ATOM     73  O   UNL A   1      46.763  37.927  28.020  1.00  0.00    -0.237 OA
ATOM     74  O   UNL A   1      46.654  37.600  30.465  1.00  0.00    -0.237 OA
ATOM     75  O   UNL A   1      48.783  37.262  29.269  1.00  0.00    -0.744 OA
ENDBRANCH  71  72
ENDBRANCH  52  66
BRANCH  53  76
ATOM     76  C   UNL A   1      43.290  23.404  27.027  1.00  0.00    -0.014 A 
ATOM     77  C   UNL A   1      43.032  22.970  25.716  1.00  0.00     0.010 A 
ATOM     78  C   UNL A   1      43.153  22.490  28.089  1.00  0.00     0.010 A 
ATOM     79  C   UNL A   1      42.639  21.650  25.472  1.00  0.00     0.020 A 
ATOM     80  C   UNL A   1      42.790  21.163  27.846  1.00  0.00     0.020 A 
ATOM     81  C   UNL A   1      42.525  20.754  26.539  1.00  0.00     0.054 A 
BRANCH  81  82
ATOM     82  S   UNL A   1      42.075  19.030  26.193  1.00  0.00     0.124 S 
ATOM     83  O   UNL A   1      43.037  18.668  25.158  1.00  0.00    -0.237 OA
ATOM     84  O   UNL A   1      42.268  18.387  27.490  1.00  0.00    -0.237 OA
ATOM     85  O   UNL A   1      40.684  19.123  25.754  1.00  0.00    -0.744 OA
ENDBRANCH  81  82
ENDBRANCH  53  76
BRANCH  65  86
ATOM     86  C   UNL A   1      49.388  26.747  26.461  1.00  0.00    -0.014 A 
ATOM     87  C   UNL A   1      50.224  26.074  27.369  1.00  0.00     0.010 A 
ATOM     88  C   UNL A   1      49.825  26.942  25.137  1.00  0.00     0.010 A 
ATOM     89  C   UNL A   1      51.482  25.621  26.965  1.00  0.00     0.020 A 
ATOM     90  C   UNL A   1      51.071  26.468  24.724  1.00  0.00     0.020 A 
ATOM     91  C   UNL A   1      51.897  25.820  25.644  1.00  0.00     0.054 A 
BRANCH  91  92
ATOM     92  S   UNL A   1      53.508  25.169  25.126  1.00  0.00     0.124 S 
ATOM     93  O   UNL A   1      53.577  25.600  23.733  1.00  0.00    -0.237 OA
ATOM     94  O   UNL A   1      54.433  25.838  26.038  1.00  0.00    -0.237 OA
ATOM     95  O   UNL A   1      53.381  23.727  25.326  1.00  0.00    -0.744 OA
ENDBRANCH  91  92
ENDBRANCH  65  86
ENDBRANCH  39  40
ENDBRANCH  32  34
ENDBRANCH  31  32
ENDBRANCH  30  31
ENDBRANCH   1  30
TORSDOF 19
ENDMDL
