MODEL 1
REMARK VINA RESULT:     -11.6      0.000      0.000
REMARK SMILES COC(=O)[C@H]1CC[C@]2(C)[C@H](CC[C@]3(C)[C@H]2CC=C2[C@H]4CC(C)(C)CC[C@@]4(C(=O)OCCOC(=O)c4ccc(-c5c6nc(c(-c7ccc(S(=O)(=O)[O-])cc7)c7ccc([nH]7)c(-c7ccc(S(=O)(=O)[O-])cc7)c7nc(c(-c8ccc(S(=O)(=O)[O-])cc8)c8ccc5[nH]8)C=C7)C=C6)cc4)CC[C@@]23C)C1(C)C
REMARK SMILES IDX 31 1 30 2 29 3 27 4 28 5 26 6 5 7 6 8 99 9 7 10 10 11 100 12
REMARK SMILES IDX 101 13 8 14 11 15 15 16 9 17 12 18 16 19 13 20 17 21 97 22
REMARK SMILES IDX 14 23 18 24 96 25 98 26 19 27 95 28 20 29 21 30 25 31 24 32
REMARK SMILES IDX 22 33 23 34 3 35 4 36 2 37 1 38 32 39 33 40 34 41 35 42
REMARK SMILES IDX 36 43 94 44 37 45 93 46 38 47 39 48 40 49 87 50 41 51 92 52
REMARK SMILES IDX 86 53 88 54 42 55 91 56 85 57 84 58 43 60 73 61 54 62 72 63
REMARK SMILES IDX 55 64 58 65 71 66 89 67 56 68 57 69 70 71 90 72 59 73 44 74
REMARK SMILES IDX 45 75 53 76 46 77 52 78 47 79 48 80 49 81 50 82 51 83 74 84
REMARK SMILES IDX 75 85 83 86 76 87 82 88 77 89 78 90 79 91 80 92 81 93 60 94
REMARK SMILES IDX 61 95 69 96 62 97 68 98 63 99 64 100 65 101 66 102 67 103
REMARK H PARENT 88 59 58 70
REMARK Flexibility Score: inf
ROOT
ATOM      1  C   UNL A   1      44.210  40.059  26.584  1.00  0.00     0.275 C 
ENDROOT
BRANCH   1   2
ATOM      2  C   UNL A   1      43.573  41.469  25.664  1.00  0.00     0.274 C 
BRANCH   2   3
ATOM      3  O   UNL A   1      44.443  43.225  25.349  1.00  0.00    -0.462 OA
BRANCH   3   4
ATOM      4  C   UNL A   1      45.403  43.631  23.852  1.00  0.00     0.312 C 
ATOM      5  O   UNL A   1      46.614  43.385  23.564  1.00  0.00    -0.252 OA
BRANCH   4   6
ATOM      6  C   UNL A   1      44.654  44.467  23.047  1.00  0.00     0.075 C 
ATOM      7  C   UNL A   1      49.527  47.395  19.284  1.00  0.00     0.105 C 
ATOM      8  C   UNL A   1      50.832  46.934  20.088  1.00  0.00     0.016 C 
ATOM      9  C   UNL A   1      48.156  46.646  19.588  1.00  0.00    -0.019 C 
ATOM     10  C   UNL A   1      50.692  46.009  21.369  1.00  0.00     0.008 C 
ATOM     11  C   UNL A   1      48.344  46.115  21.029  1.00  0.00     0.002 C 
ATOM     12  C   UNL A   1      47.862  45.564  18.517  1.00  0.00     0.012 C 
ATOM     13  C   UNL A   1      46.916  47.573  19.490  1.00  0.00     0.012 C 
ATOM     14  C   UNL A   1      49.476  45.054  21.207  1.00  0.00    -0.026 C 
ATOM     15  C   UNL A   1      47.214  46.007  22.044  1.00  0.00     0.005 C 
ATOM     16  C   UNL A   1      49.078  43.982  22.344  1.00  0.00     0.006 C 
ATOM     17  C   UNL A   1      49.959  44.160  20.013  1.00  0.00     0.012 C 
ATOM     18  C   UNL A   1      47.817  45.964  23.493  1.00  0.00     0.008 C 
ATOM     19  C   UNL A   1      48.078  42.654  21.455  1.00  0.00     0.032 C 
ATOM     20  C   UNL A   1      48.430  44.575  24.016  1.00  0.00    -0.020 C 
ATOM     21  C   UNL A   1      46.959  41.534  22.275  1.00  0.00    -0.027 C 
ATOM     22  C   UNL A   1      47.135  43.314  24.937  1.00  0.00    -0.006 C 
ATOM     23  C   UNL A   1      49.580  44.978  24.970  1.00  0.00     0.012 C 
ATOM     24  C   UNL A   1      46.312  41.922  23.567  1.00  0.00    -0.063 C 
ATOM     25  C   UNL A   1      46.157  44.717  25.560  1.00  0.00     0.013 C 
ATOM     26  C   UNL A   1      47.687  42.836  26.337  1.00  0.00     0.017 C 
ATOM     27  C   UNL A   1      45.113  42.953  22.450  1.00  0.00     0.033 C 
ATOM     28  C   UNL A   1      45.031  45.343  24.452  1.00  0.00     0.020 C 
ATOM     29  C   UNL A   1      44.148  42.285  21.454  1.00  0.00     0.015 C 
ATOM     30  C   UNL A   1      43.300  43.364  20.735  1.00  0.00    -0.035 C 
ATOM     31  C   UNL A   1      43.093  44.380  23.101  1.00  0.00     0.020 C 
ATOM     32  C   UNL A   1      42.376  43.953  21.806  1.00  0.00     0.007 C 
ATOM     33  C   UNL A   1      42.498  42.698  19.612  1.00  0.00     0.011 C 
ATOM     34  C   UNL A   1      44.121  44.500  20.071  1.00  0.00     0.011 C 
BRANCH   7  35
ATOM     35  C   UNL A   1      49.405  48.908  19.445  1.00  0.00     0.309 C 
ATOM     36  O   UNL A   1      49.461  49.491  20.520  1.00  0.00    -0.252 OA
BRANCH  35  37
ATOM     37  O   UNL A   1      49.223  49.513  18.239  1.00  0.00    -0.469 OA
ATOM     38  C   UNL A   1      49.901  48.886  17.153  1.00  0.00     0.282 C 
ENDBRANCH  35  37
ENDBRANCH   7  35
ENDBRANCH   4   6
ENDBRANCH   3   4
ENDBRANCH   2   3
ENDBRANCH   1   2
BRANCH   1  39
ATOM     39  O   UNL A   1      43.524  38.749  26.612  1.00  0.00    -0.458 OA
BRANCH  39  40
ATOM     40  C   UNL A   1      42.474  38.610  27.485  1.00  0.00     0.338 C 
ATOM     41  O   UNL A   1      41.569  39.418  27.636  1.00  0.00    -0.246 OA
BRANCH  40  42
ATOM     42  C   UNL A   1      42.426  37.250  28.124  1.00  0.00     0.060 A 
ATOM     43  C   UNL A   1      43.540  36.833  28.860  1.00  0.00     0.016 A 
ATOM     44  C   UNL A   1      41.412  36.316  27.907  1.00  0.00     0.016 A 
ATOM     45  C   UNL A   1      43.613  35.570  29.465  1.00  0.00     0.010 A 
ATOM     46  C   UNL A   1      41.506  35.014  28.470  1.00  0.00     0.010 A 
ATOM     47  C   UNL A   1      42.601  34.633  29.272  1.00  0.00    -0.014 A 
BRANCH  47  48
ATOM     48  C   UNL A   1      42.811  33.234  29.760  1.00  0.00     0.031 A 
ATOM     49  C   UNL A   1      42.158  32.812  31.053  1.00  0.00     0.074 A 
ATOM     50  C   UNL A   1      43.460  32.295  29.038  1.00  0.00     0.049 A 
ATOM     51  N   UNL A   1      42.275  31.689  31.716  1.00  0.00    -0.248 NA
ATOM     52  C   UNL A   1      41.239  33.782  31.667  1.00  0.00     0.031 C 
ATOM     53  C   UNL A   1      44.009  32.490  27.700  1.00  0.00     0.029 A 
ATOM     54  N   UNL A   1      43.747  30.977  29.324  1.00  0.00    -0.354 N 
ATOM     55  C   UNL A   1      41.476  31.832  32.844  1.00  0.00     0.074 A 
ATOM     56  C   UNL A   1      40.856  33.138  32.758  1.00  0.00     0.031 C 
ATOM     57  C   UNL A   1      44.555  31.335  27.277  1.00  0.00     0.029 A 
ATOM     58  C   UNL A   1      44.464  30.333  28.340  1.00  0.00     0.049 A 
ATOM     59  H   UNL A   1      43.464  30.535  30.157  1.00  0.00     0.167 HD
ATOM     60  C   UNL A   1      41.295  30.973  33.876  1.00  0.00     0.031 A 
ATOM     61  C   UNL A   1      45.025  29.102  28.310  1.00  0.00     0.031 A 
ATOM     62  C   UNL A   1      41.922  29.682  33.983  1.00  0.00     0.049 A 
ATOM     63  C   UNL A   1      44.914  28.205  29.522  1.00  0.00     0.074 A 
ATOM     64  C   UNL A   1      41.859  28.780  35.031  1.00  0.00     0.029 A 
ATOM     65  N   UNL A   1      42.724  29.110  33.010  1.00  0.00    -0.354 N 
ATOM     66  N   UNL A   1      44.242  28.398  30.633  1.00  0.00    -0.248 NA
ATOM     67  C   UNL A   1      45.663  26.937  29.490  1.00  0.00     0.031 C 
ATOM     68  C   UNL A   1      42.664  27.681  34.711  1.00  0.00     0.029 A 
ATOM     69  C   UNL A   1      43.181  27.875  33.439  1.00  0.00     0.049 A 
ATOM     70  H   UNL A   1      42.939  29.520  32.141  1.00  0.00     0.167 HD
ATOM     71  C   UNL A   1      44.481  27.275  31.422  1.00  0.00     0.074 A 
ATOM     72  C   UNL A   1      45.339  26.397  30.657  1.00  0.00     0.031 C 
ATOM     73  C   UNL A   1      44.033  27.003  32.673  1.00  0.00     0.031 A 
BRANCH  60  74
ATOM     74  C   UNL A   1      40.459  31.459  35.027  1.00  0.00    -0.014 A 
ATOM     75  C   UNL A   1      41.014  32.192  36.089  1.00  0.00     0.010 A 
ATOM     76  C   UNL A   1      39.081  31.169  35.036  1.00  0.00     0.010 A 
ATOM     77  C   UNL A   1      40.212  32.592  37.162  1.00  0.00     0.020 A 
ATOM     78  C   UNL A   1      38.273  31.586  36.095  1.00  0.00     0.020 A 
ATOM     79  C   UNL A   1      38.848  32.279  37.162  1.00  0.00     0.054 A 
BRANCH  79  80
ATOM     80  S   UNL A   1      37.826  32.809  38.564  1.00  0.00     0.124 S 
ATOM     81  O   UNL A   1      36.521  32.991  37.933  1.00  0.00    -0.237 OA
ATOM     82  O   UNL A   1      37.926  31.677  39.482  1.00  0.00    -0.237 OA
ATOM     83  O   UNL A   1      38.473  34.036  39.021  1.00  0.00    -0.744 OA
ENDBRANCH  79  80
ENDBRANCH  60  74
BRANCH  61  84
ATOM     84  C   UNL A   1      45.837  28.664  27.134  1.00  0.00    -0.014 A 
ATOM     85  C   UNL A   1      45.245  28.012  26.035  1.00  0.00     0.010 A 
ATOM     86  C   UNL A   1      47.231  28.861  27.131  1.00  0.00     0.010 A 
ATOM     87  C   UNL A   1      46.030  27.564  24.965  1.00  0.00     0.020 A 
ATOM     88  C   UNL A   1      48.015  28.442  26.051  1.00  0.00     0.020 A 
ATOM     89  C   UNL A   1      47.411  27.786  24.978  1.00  0.00     0.054 A 
BRANCH  89  90
ATOM     90  S   UNL A   1      48.408  27.252  23.557  1.00  0.00     0.124 S 
ATOM     91  O   UNL A   1      49.729  27.767  23.901  1.00  0.00    -0.237 OA
ATOM     92  O   UNL A   1      48.264  25.799  23.596  1.00  0.00    -0.237 OA
ATOM     93  O   UNL A   1      47.756  27.903  22.422  1.00  0.00    -0.744 OA
ENDBRANCH  89  90
ENDBRANCH  61  84
BRANCH  73  94
ATOM     94  C   UNL A   1      44.432  25.689  33.295  1.00  0.00    -0.014 A 
ATOM     95  C   UNL A   1      44.050  24.463  32.722  1.00  0.00     0.010 A 
ATOM     96  C   UNL A   1      45.265  25.682  34.430  1.00  0.00     0.010 A 
ATOM     97  C   UNL A   1      44.473  23.255  33.287  1.00  0.00     0.020 A 
ATOM     98  C   UNL A   1      45.707  24.477  34.984  1.00  0.00     0.020 A 
ATOM     99  C   UNL A   1      45.298  23.270  34.416  1.00  0.00     0.054 A 
BRANCH  99 100
ATOM    100  S   UNL A   1      45.874  21.692  35.103  1.00  0.00     0.124 S 
ATOM    101  O   UNL A   1      44.768  20.796  34.777  1.00  0.00    -0.237 OA
ATOM    102  O   UNL A   1      47.115  21.453  34.369  1.00  0.00    -0.237 OA
ATOM    103  O   UNL A   1      46.047  21.977  36.527  1.00  0.00    -0.744 OA
ENDBRANCH  99 100
ENDBRANCH  73  94
ENDBRANCH  47  48
ENDBRANCH  40  42
ENDBRANCH  39  40
ENDBRANCH   1  39
TORSDOF 16
ENDMDL
MODEL 2
REMARK VINA RESULT:     -11.4     10.003     14.537
REMARK SMILES COC(=O)[C@H]1CC[C@]2(C)[C@H](CC[C@]3(C)[C@H]2CC=C2[C@H]4CC(C)(C)CC[C@@]4(C(=O)OCCOC(=O)c4ccc(-c5c6nc(c(-c7ccc(S(=O)(=O)[O-])cc7)c7ccc([nH]7)c(-c7ccc(S(=O)(=O)[O-])cc7)c7nc(c(-c8ccc(S(=O)(=O)[O-])cc8)c8ccc5[nH]8)C=C7)C=C6)cc4)CC[C@@]23C)C1(C)C
REMARK SMILES IDX 31 1 30 2 29 3 27 4 28 5 26 6 5 7 6 8 99 9 7 10 10 11 100 12
REMARK SMILES IDX 101 13 8 14 11 15 15 16 9 17 12 18 16 19 13 20 17 21 97 22
REMARK SMILES IDX 14 23 18 24 96 25 98 26 19 27 95 28 20 29 21 30 25 31 24 32
REMARK SMILES IDX 22 33 23 34 3 35 4 36 2 37 1 38 32 39 33 40 34 41 35 42
REMARK SMILES IDX 36 43 94 44 37 45 93 46 38 47 39 48 40 49 87 50 41 51 92 52
REMARK SMILES IDX 86 53 88 54 42 55 91 56 85 57 84 58 43 60 73 61 54 62 72 63
REMARK SMILES IDX 55 64 58 65 71 66 89 67 56 68 57 69 70 71 90 72 59 73 44 74
REMARK SMILES IDX 45 75 53 76 46 77 52 78 47 79 48 80 49 81 50 82 51 83 74 84
REMARK SMILES IDX 75 85 83 86 76 87 82 88 77 89 78 90 79 91 80 92 81 93 60 94
REMARK SMILES IDX 61 95 69 96 62 97 68 98 63 99 64 100 65 101 66 102 67 103
REMARK H PARENT 88 59 58 70
REMARK Flexibility Score: inf
ROOT
ATOM      1  C   UNL A   1      48.189  25.802  37.054  1.00  0.00     0.275 C 
ENDROOT
BRANCH   1   2
ATOM      2  C   UNL A   1      49.575  26.774  36.441  1.00  0.00     0.274 C 
BRANCH   2   3
ATOM      3  O   UNL A   1      49.669  27.880  34.796  1.00  0.00    -0.462 OA
BRANCH   3   4
ATOM      4  C   UNL A   1      49.288  27.254  33.127  1.00  0.00     0.312 C 
ATOM      5  O   UNL A   1      50.065  26.907  32.185  1.00  0.00    -0.252 OA
BRANCH   4   6
ATOM      6  C   UNL A   1      47.929  27.363  32.900  1.00  0.00     0.075 C 
ATOM      7  C   UNL A   1      47.695  27.116  26.091  1.00  0.00     0.105 C 
ATOM      8  C   UNL A   1      49.247  27.288  25.740  1.00  0.00     0.016 C 
ATOM      9  C   UNL A   1      47.302  26.750  27.589  1.00  0.00    -0.019 C 
ATOM     10  C   UNL A   1      50.316  27.424  26.904  1.00  0.00     0.008 C 
ATOM     11  C   UNL A   1      48.492  27.287  28.419  1.00  0.00     0.002 C 
ATOM     12  C   UNL A   1      47.023  25.232  27.738  1.00  0.00     0.012 C 
ATOM     13  C   UNL A   1      45.965  27.391  28.047  1.00  0.00     0.012 C 
ATOM     14  C   UNL A   1      49.865  26.597  28.141  1.00  0.00    -0.026 C 
ATOM     15  C   UNL A   1      48.352  27.870  29.819  1.00  0.00     0.005 C 
ATOM     16  C   UNL A   1      50.750  26.527  29.488  1.00  0.00     0.006 C 
ATOM     17  C   UNL A   1      49.951  25.139  27.571  1.00  0.00     0.012 C 
ATOM     18  C   UNL A   1      49.591  28.782  30.130  1.00  0.00     0.008 C 
ATOM     19  C   UNL A   1      50.217  24.943  30.359  1.00  0.00     0.032 C 
ATOM     20  C   UNL A   1      50.965  28.069  30.557  1.00  0.00    -0.020 C 
ATOM     21  C   UNL A   1      50.461  24.633  32.098  1.00  0.00    -0.027 C 
ATOM     22  C   UNL A   1      51.216  27.718  32.540  1.00  0.00    -0.006 C 
ATOM     23  C   UNL A   1      52.082  28.995  30.016  1.00  0.00     0.012 C 
ATOM     24  C   UNL A   1      50.563  25.771  33.063  1.00  0.00    -0.063 C 
ATOM     25  C   UNL A   1      50.231  29.190  32.961  1.00  0.00     0.013 C 
ATOM     26  C   UNL A   1      52.603  28.269  33.055  1.00  0.00     0.017 C 
ATOM     27  C   UNL A   1      48.633  25.825  32.925  1.00  0.00     0.033 C 
ATOM     28  C   UNL A   1      48.550  28.943  32.952  1.00  0.00     0.020 C 
ATOM     29  C   UNL A   1      47.745  24.671  33.425  1.00  0.00     0.015 C 
ATOM     30  C   UNL A   1      46.251  25.022  33.209  1.00  0.00    -0.035 C 
ATOM     31  C   UNL A   1      46.950  27.336  34.120  1.00  0.00     0.020 C 
ATOM     32  C   UNL A   1      45.945  26.169  34.178  1.00  0.00     0.007 C 
ATOM     33  C   UNL A   1      45.402  23.786  33.523  1.00  0.00     0.011 C 
ATOM     34  C   UNL A   1      45.886  25.447  31.763  1.00  0.00     0.011 C 
BRANCH   7  35
ATOM     35  C   UNL A   1      46.975  28.367  25.597  1.00  0.00     0.309 C 
ATOM     36  O   UNL A   1      46.076  28.359  24.766  1.00  0.00    -0.252 OA
BRANCH  35  37
ATOM     37  O   UNL A   1      47.470  29.483  26.200  1.00  0.00    -0.469 OA
ATOM     38  C   UNL A   1      46.522  30.533  26.373  1.00  0.00     0.282 C 
ENDBRANCH  35  37
ENDBRANCH   7  35
ENDBRANCH   4   6
ENDBRANCH   3   4
ENDBRANCH   2   3
ENDBRANCH   1   2
BRANCH   1  39
ATOM     39  O   UNL A   1      47.615  25.994  38.402  1.00  0.00    -0.458 OA
BRANCH  39  40
ATOM     40  C   UNL A   1      47.139  27.245  38.709  1.00  0.00     0.338 C 
ATOM     41  O   UNL A   1      47.598  27.983  39.569  1.00  0.00    -0.246 OA
BRANCH  40  42
ATOM     42  C   UNL A   1      46.091  27.721  37.743  1.00  0.00     0.060 A 
ATOM     43  C   UNL A   1      46.321  28.926  37.070  1.00  0.00     0.016 A 
ATOM     44  C   UNL A   1      44.840  27.124  37.584  1.00  0.00     0.016 A 
ATOM     45  C   UNL A   1      45.392  29.478  36.176  1.00  0.00     0.010 A 
ATOM     46  C   UNL A   1      43.872  27.709  36.723  1.00  0.00     0.010 A 
ATOM     47  C   UNL A   1      44.145  28.884  35.994  1.00  0.00    -0.014 A 
BRANCH  47  48
ATOM     48  C   UNL A   1      43.110  29.611  35.194  1.00  0.00     0.031 A 
ATOM     49  C   UNL A   1      42.315  30.705  35.863  1.00  0.00     0.074 A 
ATOM     50  C   UNL A   1      42.935  29.415  33.870  1.00  0.00     0.049 A 
ATOM     51  N   UNL A   1      41.307  31.402  35.401  1.00  0.00    -0.248 NA
ATOM     52  C   UNL A   1      42.725  31.069  37.227  1.00  0.00     0.031 C 
ATOM     53  C   UNL A   1      43.728  28.515  33.038  1.00  0.00     0.029 A 
ATOM     54  N   UNL A   1      42.043  29.983  32.984  1.00  0.00    -0.354 N 
ATOM     55  C   UNL A   1      40.939  32.260  36.430  1.00  0.00     0.074 A 
ATOM     56  C   UNL A   1      41.851  32.017  37.528  1.00  0.00     0.031 C 
ATOM     57  C   UNL A   1      43.297  28.599  31.766  1.00  0.00     0.029 A 
ATOM     58  C   UNL A   1      42.147  29.501  31.698  1.00  0.00     0.049 A 
ATOM     59  H   UNL A   1      41.390  30.672  33.248  1.00  0.00     0.167 HD
ATOM     60  C   UNL A   1      39.916  33.148  36.476  1.00  0.00     0.031 A 
ATOM     61  C   UNL A   1      41.383  29.721  30.603  1.00  0.00     0.031 A 
ATOM     62  C   UNL A   1      38.991  33.383  35.400  1.00  0.00     0.049 A 
ATOM     63  C   UNL A   1      40.174  30.621  30.709  1.00  0.00     0.074 A 
ATOM     64  C   UNL A   1      37.877  34.206  35.387  1.00  0.00     0.029 A 
ATOM     65  N   UNL A   1      39.070  32.798  34.147  1.00  0.00    -0.354 N 
ATOM     66  N   UNL A   1      39.770  31.347  31.725  1.00  0.00    -0.248 NA
ATOM     67  C   UNL A   1      39.297  30.710  29.527  1.00  0.00     0.031 C 
ATOM     68  C   UNL A   1      37.255  34.081  34.140  1.00  0.00     0.029 A 
ATOM     69  C   UNL A   1      38.014  33.225  33.358  1.00  0.00     0.049 A 
ATOM     70  H   UNL A   1      39.773  32.172  33.859  1.00  0.00     0.167 HD
ATOM     71  C   UNL A   1      38.604  31.980  31.303  1.00  0.00     0.074 A 
ATOM     72  C   UNL A   1      38.376  31.574  29.933  1.00  0.00     0.031 C 
ATOM     73  C   UNL A   1      37.793  32.819  31.994  1.00  0.00     0.031 A 
BRANCH  60  74
ATOM     74  C   UNL A   1      39.687  33.855  37.783  1.00  0.00    -0.014 A 
ATOM     75  C   UNL A   1      40.020  35.208  37.964  1.00  0.00     0.010 A 
ATOM     76  C   UNL A   1      39.121  33.136  38.853  1.00  0.00     0.010 A 
ATOM     77  C   UNL A   1      39.829  35.819  39.206  1.00  0.00     0.020 A 
ATOM     78  C   UNL A   1      38.907  33.749  40.088  1.00  0.00     0.020 A 
ATOM     79  C   UNL A   1      39.282  35.083  40.263  1.00  0.00     0.054 A 
BRANCH  79  80
ATOM     80  S   UNL A   1      39.042  35.896  41.867  1.00  0.00     0.124 S 
ATOM     81  O   UNL A   1      39.151  37.307  41.508  1.00  0.00    -0.237 OA
ATOM     82  O   UNL A   1      37.707  35.450  42.258  1.00  0.00    -0.237 OA
ATOM     83  O   UNL A   1      40.134  35.376  42.686  1.00  0.00    -0.744 OA
ENDBRANCH  79  80
ENDBRANCH  60  74
BRANCH  61  84
ATOM     84  C   UNL A   1      41.663  29.000  29.323  1.00  0.00    -0.014 A 
ATOM     85  C   UNL A   1      41.168  27.704  29.086  1.00  0.00     0.010 A 
ATOM     86  C   UNL A   1      42.478  29.601  28.343  1.00  0.00     0.010 A 
ATOM     87  C   UNL A   1      41.483  27.025  27.902  1.00  0.00     0.020 A 
ATOM     88  C   UNL A   1      42.771  28.939  27.147  1.00  0.00     0.020 A 
ATOM     89  C   UNL A   1      42.280  27.650  26.938  1.00  0.00     0.054 A 
BRANCH  89  90
ATOM     90  S   UNL A   1      42.633  26.781  25.383  1.00  0.00     0.124 S 
ATOM     91  O   UNL A   1      42.757  27.886  24.437  1.00  0.00    -0.237 OA
ATOM     92  O   UNL A   1      43.870  26.068  25.690  1.00  0.00    -0.237 OA
ATOM     93  O   UNL A   1      41.462  25.926  25.198  1.00  0.00    -0.744 OA
ENDBRANCH  89  90
ENDBRANCH  61  84
BRANCH  73  94
ATOM     94  C   UNL A   1      36.591  33.385  31.280  1.00  0.00    -0.014 A 
ATOM     95  C   UNL A   1      35.356  33.535  31.935  1.00  0.00     0.010 A 
ATOM     96  C   UNL A   1      36.723  33.842  29.955  1.00  0.00     0.010 A 
ATOM     97  C   UNL A   1      34.267  34.108  31.268  1.00  0.00     0.020 A 
ATOM     98  C   UNL A   1      35.643  34.436  29.295  1.00  0.00     0.020 A 
ATOM     99  C   UNL A   1      34.418  34.554  29.952  1.00  0.00     0.054 A 
BRANCH  99 100
ATOM    100  S   UNL A   1      33.006  35.340  29.125  1.00  0.00     0.124 S 
ATOM    101  O   UNL A   1      32.584  34.299  28.191  1.00  0.00    -0.237 OA
ATOM    102  O   UNL A   1      32.088  35.603  30.231  1.00  0.00    -0.237 OA
ATOM    103  O   UNL A   1      33.585  36.532  28.508  1.00  0.00    -0.744 OA
ENDBRANCH  99 100
ENDBRANCH  73  94
ENDBRANCH  47  48
ENDBRANCH  40  42
ENDBRANCH  39  40
ENDBRANCH   1  39
TORSDOF 16
ENDMDL
MODEL 3
REMARK VINA RESULT:     -11.1     10.248     16.259
REMARK SMILES COC(=O)[C@H]1CC[C@]2(C)[C@H](CC[C@]3(C)[C@H]2CC=C2[C@H]4CC(C)(C)CC[C@@]4(C(=O)OCCOC(=O)c4ccc(-c5c6nc(c(-c7ccc(S(=O)(=O)[O-])cc7)c7ccc([nH]7)c(-c7ccc(S(=O)(=O)[O-])cc7)c7nc(c(-c8ccc(S(=O)(=O)[O-])cc8)c8ccc5[nH]8)C=C7)C=C6)cc4)CC[C@@]23C)C1(C)C
REMARK SMILES IDX 31 1 30 2 29 3 27 4 28 5 26 6 5 7 6 8 99 9 7 10 10 11 100 12
REMARK SMILES IDX 101 13 8 14 11 15 15 16 9 17 12 18 16 19 13 20 17 21 97 22
REMARK SMILES IDX 14 23 18 24 96 25 98 26 19 27 95 28 20 29 21 30 25 31 24 32
REMARK SMILES IDX 22 33 23 34 3 35 4 36 2 37 1 38 32 39 33 40 34 41 35 42
REMARK SMILES IDX 36 43 94 44 37 45 93 46 38 47 39 48 40 49 87 50 41 51 92 52
REMARK SMILES IDX 86 53 88 54 42 55 91 56 85 57 84 58 43 60 73 61 54 62 72 63
REMARK SMILES IDX 55 64 58 65 71 66 89 67 56 68 57 69 70 71 90 72 59 73 44 74
REMARK SMILES IDX 45 75 53 76 46 77 52 78 47 79 48 80 49 81 50 82 51 83 74 84
REMARK SMILES IDX 75 85 83 86 76 87 82 88 77 89 78 90 79 91 80 92 81 93 60 94
REMARK SMILES IDX 61 95 69 96 62 97 68 98 63 99 64 100 65 101 66 102 67 103
REMARK H PARENT 88 59 58 70
REMARK Flexibility Score: inf
ROOT
ATOM      1  C   UNL A   1      45.305  28.540  32.832  1.00  0.00     0.275 C 
ENDROOT
BRANCH   1   2
ATOM      2  C   UNL A   1      43.958  27.637  32.050  1.00  0.00     0.274 C 
BRANCH   2   3
ATOM      3  O   UNL A   1      42.005  27.873  32.315  1.00  0.00    -0.462 OA
BRANCH   3   4
ATOM      4  C   UNL A   1      41.053  29.283  31.660  1.00  0.00     0.312 C 
ATOM      5  O   UNL A   1      41.118  30.519  31.946  1.00  0.00    -0.252 OA
BRANCH   4   6
ATOM      6  C   UNL A   1      40.029  28.808  30.862  1.00  0.00     0.075 C 
ATOM      7  C   UNL A   1      35.695  34.070  30.993  1.00  0.00     0.105 C 
ATOM      8  C   UNL A   1      36.336  34.945  32.170  1.00  0.00     0.016 C 
ATOM      9  C   UNL A   1      36.579  32.910  30.357  1.00  0.00    -0.019 C 
ATOM     10  C   UNL A   1      37.659  34.456  32.896  1.00  0.00     0.008 C 
ATOM     11  C   UNL A   1      37.572  32.547  31.486  1.00  0.00     0.002 C 
ATOM     12  C   UNL A   1      37.229  33.369  29.026  1.00  0.00     0.012 C 
ATOM     13  C   UNL A   1      35.748  31.673  29.924  1.00  0.00     0.012 C 
ATOM     14  C   UNL A   1      38.563  33.684  31.894  1.00  0.00    -0.026 C 
ATOM     15  C   UNL A   1      38.094  31.138  31.734  1.00  0.00     0.005 C 
ATOM     16  C   UNL A   1      39.987  33.067  32.332  1.00  0.00     0.006 C 
ATOM     17  C   UNL A   1      38.951  34.832  30.899  1.00  0.00     0.012 C 
ATOM     18  C   UNL A   1      38.610  31.025  33.212  1.00  0.00     0.008 C 
ATOM     19  C   UNL A   1      40.971  32.888  30.734  1.00  0.00     0.032 C 
ATOM     20  C   UNL A   1      40.058  31.629  33.555  1.00  0.00    -0.020 C 
ATOM     21  C   UNL A   1      42.369  31.798  30.543  1.00  0.00    -0.027 C 
ATOM     22  C   UNL A   1      41.634  30.372  33.320  1.00  0.00    -0.006 C 
ATOM     23  C   UNL A   1      39.953  32.113  35.021  1.00  0.00     0.012 C 
ATOM     24  C   UNL A   1      42.498  30.575  31.395  1.00  0.00    -0.063 C 
ATOM     25  C   UNL A   1      40.597  28.937  33.743  1.00  0.00     0.013 C 
ATOM     26  C   UNL A   1      42.541  30.333  34.611  1.00  0.00     0.017 C 
ATOM     27  C   UNL A   1      41.209  29.807  30.173  1.00  0.00     0.033 C 
ATOM     28  C   UNL A   1      39.685  28.316  32.450  1.00  0.00     0.020 C 
ATOM     29  C   UNL A   1      41.536  29.560  28.689  1.00  0.00     0.015 C 
ATOM     30  C   UNL A   1      40.322  28.907  27.982  1.00  0.00    -0.035 C 
ATOM     31  C   UNL A   1      40.218  27.449  30.111  1.00  0.00     0.020 C 
ATOM     32  C   UNL A   1      40.200  27.498  28.571  1.00  0.00     0.007 C 
ATOM     33  C   UNL A   1      40.594  28.858  26.475  1.00  0.00     0.011 C 
ATOM     34  C   UNL A   1      38.981  29.665  28.159  1.00  0.00     0.011 C 
BRANCH   7  35
ATOM     35  C   UNL A   1      34.346  33.559  31.490  1.00  0.00     0.309 C 
ATOM     36  O   UNL A   1      34.205  32.578  32.209  1.00  0.00    -0.252 OA
BRANCH  35  37
ATOM     37  O   UNL A   1      33.330  34.336  31.024  1.00  0.00    -0.469 OA
ATOM     38  C   UNL A   1      33.465  34.736  29.663  1.00  0.00     0.282 C 
ENDBRANCH  35  37
ENDBRANCH   7  35
ENDBRANCH   4   6
ENDBRANCH   3   4
ENDBRANCH   2   3
ENDBRANCH   1   2
BRANCH   1  39
ATOM     39  O   UNL A   1      45.519  29.989  32.626  1.00  0.00    -0.458 OA
BRANCH  39  40
ATOM     40  C   UNL A   1      46.523  30.584  33.348  1.00  0.00     0.338 C 
ATOM     41  O   UNL A   1      47.697  30.244  33.338  1.00  0.00    -0.246 OA
BRANCH  40  42
ATOM     42  C   UNL A   1      46.077  31.847  34.031  1.00  0.00     0.060 A 
ATOM     43  C   UNL A   1      46.490  32.058  35.351  1.00  0.00     0.016 A 
ATOM     44  C   UNL A   1      45.158  32.748  33.492  1.00  0.00     0.016 A 
ATOM     45  C   UNL A   1      46.100  33.184  36.091  1.00  0.00     0.010 A 
ATOM     46  C   UNL A   1      44.713  33.861  34.257  1.00  0.00     0.010 A 
ATOM     47  C   UNL A   1      45.196  34.101  35.560  1.00  0.00    -0.014 A 
BRANCH  47  48
ATOM     48  C   UNL A   1      44.648  35.172  36.451  1.00  0.00     0.031 A 
ATOM     49  C   UNL A   1      43.342  34.924  37.161  1.00  0.00     0.074 A 
ATOM     50  C   UNL A   1      45.328  36.302  36.741  1.00  0.00     0.049 A 
ATOM     51  N   UNL A   1      42.631  35.737  37.903  1.00  0.00    -0.248 NA
ATOM     52  C   UNL A   1      42.772  33.574  37.030  1.00  0.00     0.031 C 
ATOM     53  C   UNL A   1      46.671  36.625  36.270  1.00  0.00     0.029 A 
ATOM     54  N   UNL A   1      44.986  37.383  37.527  1.00  0.00    -0.354 N 
ATOM     55  C   UNL A   1      41.513  35.009  38.294  1.00  0.00     0.074 A 
ATOM     56  C   UNL A   1      41.656  33.682  37.734  1.00  0.00     0.031 C 
ATOM     57  C   UNL A   1      47.043  37.813  36.783  1.00  0.00     0.029 A 
ATOM     58  C   UNL A   1      45.939  38.377  37.560  1.00  0.00     0.049 A 
ATOM     59  H   UNL A   1      44.135  37.439  38.021  1.00  0.00     0.167 HD
ATOM     60  C   UNL A   1      40.446  35.413  39.026  1.00  0.00     0.031 A 
ATOM     61  C   UNL A   1      45.914  39.613  38.108  1.00  0.00     0.031 A 
ATOM     62  C   UNL A   1      40.283  36.734  39.570  1.00  0.00     0.049 A 
ATOM     63  C   UNL A   1      44.666  40.088  38.816  1.00  0.00     0.074 A 
ATOM     64  C   UNL A   1      39.198  37.254  40.256  1.00  0.00     0.029 A 
ATOM     65  N   UNL A   1      41.228  37.744  39.493  1.00  0.00    -0.354 N 
ATOM     66  N   UNL A   1      43.567  39.425  39.086  1.00  0.00    -0.248 NA
ATOM     67  C   UNL A   1      44.642  41.491  39.266  1.00  0.00     0.031 C 
ATOM     68  C   UNL A   1      39.468  38.595  40.551  1.00  0.00     0.029 A 
ATOM     69  C   UNL A   1      40.744  38.892  40.100  1.00  0.00     0.049 A 
ATOM     70  H   UNL A   1      42.112  37.659  39.069  1.00  0.00     0.167 HD
ATOM     71  C   UNL A   1      42.730  40.324  39.743  1.00  0.00     0.074 A 
ATOM     72  C   UNL A   1      43.454  41.571  39.851  1.00  0.00     0.031 C 
ATOM     73  C   UNL A   1      41.470  40.131  40.207  1.00  0.00     0.031 A 
BRANCH  60  74
ATOM     74  C   UNL A   1      39.320  34.430  39.185  1.00  0.00    -0.014 A 
ATOM     75  C   UNL A   1      38.440  34.133  38.130  1.00  0.00     0.010 A 
ATOM     76  C   UNL A   1      39.146  33.791  40.427  1.00  0.00     0.010 A 
ATOM     77  C   UNL A   1      37.380  33.244  38.328  1.00  0.00     0.020 A 
ATOM     78  C   UNL A   1      38.102  32.885  40.622  1.00  0.00     0.020 A 
ATOM     79  C   UNL A   1      37.213  32.632  39.576  1.00  0.00     0.054 A 
BRANCH  79  80
ATOM     80  S   UNL A   1      35.830  31.481  39.810  1.00  0.00     0.124 S 
ATOM     81  O   UNL A   1      36.243  30.344  38.991  1.00  0.00    -0.237 OA
ATOM     82  O   UNL A   1      35.843  31.252  41.253  1.00  0.00    -0.237 OA
ATOM     83  O   UNL A   1      34.674  32.220  39.311  1.00  0.00    -0.744 OA
ENDBRANCH  79  80
ENDBRANCH  60  74
BRANCH  61  84
ATOM     84  C   UNL A   1      47.069  40.547  37.930  1.00  0.00    -0.014 A 
ATOM     85  C   UNL A   1      48.103  40.625  38.881  1.00  0.00     0.010 A 
ATOM     86  C   UNL A   1      47.111  41.406  36.814  1.00  0.00     0.010 A 
ATOM     87  C   UNL A   1      49.150  41.542  38.722  1.00  0.00     0.020 A 
ATOM     88  C   UNL A   1      48.169  42.302  36.636  1.00  0.00     0.020 A 
ATOM     89  C   UNL A   1      49.178  42.373  37.598  1.00  0.00     0.054 A 
BRANCH  89  90
ATOM     90  S   UNL A   1      50.572  43.515  37.374  1.00  0.00     0.124 S 
ATOM     91  O   UNL A   1      51.093  43.112  36.072  1.00  0.00    -0.237 OA
ATOM     92  O   UNL A   1      49.921  44.822  37.420  1.00  0.00    -0.237 OA
ATOM     93  O   UNL A   1      51.438  43.222  38.515  1.00  0.00    -0.744 OA
ENDBRANCH  89  90
ENDBRANCH  61  84
BRANCH  73  94
ATOM     94  C   UNL A   1      40.792  41.283  40.905  1.00  0.00    -0.014 A 
ATOM     95  C   UNL A   1      40.911  41.467  42.294  1.00  0.00     0.010 A 
ATOM     96  C   UNL A   1      40.085  42.235  40.147  1.00  0.00     0.010 A 
ATOM     97  C   UNL A   1      40.314  42.570  42.914  1.00  0.00     0.020 A 
ATOM     98  C   UNL A   1      39.507  43.350  40.761  1.00  0.00     0.020 A 
ATOM     99  C   UNL A   1      39.615  43.504  42.144  1.00  0.00     0.054 A 
BRANCH  99 100
ATOM    100  S   UNL A   1      38.891  44.953  42.963  1.00  0.00     0.124 S 
ATOM    101  O   UNL A   1      39.719  46.039  42.447  1.00  0.00    -0.237 OA
ATOM    102  O   UNL A   1      37.509  44.936  42.488  1.00  0.00    -0.237 OA
ATOM    103  O   UNL A   1      39.057  44.665  44.386  1.00  0.00    -0.744 OA
ENDBRANCH  99 100
ENDBRANCH  73  94
ENDBRANCH  47  48
ENDBRANCH  40  42
ENDBRANCH  39  40
ENDBRANCH   1  39
TORSDOF 16
ENDMDL
