MODEL 1
REMARK VINA RESULT:     -10.7      0.000      0.000
REMARK SMILES COCC[C@@H](C)NC(=O)N1Cc2nc[nH]c2C[C@@H]1C(=O)OCCOC(=O)c1ccc(-c2c3nc(c(-c4ccc(S(=O)(=O)[O-])cc4)c4ccc([nH]4)c(-c4ccc(S(=O)(=O)[O-])cc4)c4nc(c(-c5ccc(S(=O)(=O)[O-])cc5)c5ccc2[nH]5)C=C4)C=C3)cc1
REMARK SMILES IDX 22 1 21 2 19 3 20 4 18 5 10 6 11 7 12 8 17 9 13 10 16 11
REMARK SMILES IDX 14 12 15 13 8 15 7 16 9 18 5 19 6 20 4 21 3 22 2 23 1 24
REMARK SMILES IDX 23 25 24 26 25 27 26 28 27 29 28 30 86 31 29 32 85 33 30 34
REMARK SMILES IDX 31 35 32 36 79 37 33 38 84 39 78 40 80 41 34 42 83 43 77 44
REMARK SMILES IDX 76 45 35 47 65 48 46 49 64 50 47 51 50 52 63 53 81 54 48 55
REMARK SMILES IDX 49 56 62 58 82 59 51 60 36 61 37 62 45 63 38 64 44 65 39 66
REMARK SMILES IDX 40 67 41 68 42 69 43 70 66 71 67 72 75 73 68 74 74 75 69 76
REMARK SMILES IDX 70 77 71 78 72 79 73 80 52 81 53 82 61 83 54 84 60 85 55 86
REMARK SMILES IDX 56 87 57 88 58 89 59 90
REMARK H PARENT 15 14 7 17 80 46 50 57
REMARK Flexibility Score: inf
ROOT
ATOM      1  C   UNL A   1      36.221  22.658  23.392  1.00  0.00     0.274 C 
ENDROOT
BRANCH   1   2
ATOM      2  O   UNL A   1      35.289  23.708  23.763  1.00  0.00    -0.461 OA
BRANCH   2   3
ATOM      3  C   UNL A   1      34.060  23.615  23.209  1.00  0.00     0.329 C 
ATOM      4  O   UNL A   1      33.937  23.300  22.022  1.00  0.00    -0.250 OA
BRANCH   3   5
ATOM      5  C   UNL A   1      32.848  24.168  24.045  1.00  0.00     0.203 C 
ATOM      6  N   UNL A   1      32.485  25.523  24.685  1.00  0.00    -0.305 N 
ATOM      7  C   UNL A   1      31.184  25.619  25.423  1.00  0.00     0.180 C 
ATOM      8  C   UNL A   1      30.758  24.324  26.022  1.00  0.00     0.081 A 
ATOM      9  C   UNL A   1      32.542  22.925  24.946  1.00  0.00     0.093 C 
ATOM     10  N   UNL A   1      29.702  24.136  26.883  1.00  0.00    -0.240 NA
ATOM     11  C   UNL A   1      31.363  23.128  25.777  1.00  0.00     0.042 A 
ATOM     12  C   UNL A   1      29.699  22.846  27.155  1.00  0.00     0.197 A 
ATOM     13  N   UNL A   1      30.680  22.182  26.474  1.00  0.00    -0.348 N 
ATOM     14  H   UNL A   1      30.856  21.213  26.485  1.00  0.00     0.167 HD
BRANCH   6  15
ATOM     15  C   UNL A   1      33.343  26.509  25.121  1.00  0.00     0.318 C 
ATOM     16  N   UNL A   1      33.255  27.739  24.520  1.00  0.00    -0.335 N 
ATOM     17  H   UNL A   1      33.598  28.499  25.043  1.00  0.00     0.165 HD
ATOM     18  O   UNL A   1      33.942  26.440  26.194  1.00  0.00    -0.249 OA
BRANCH  16  19
ATOM     19  C   UNL A   1      32.723  28.063  23.213  1.00  0.00     0.083 C 
ATOM     20  C   UNL A   1      33.860  28.591  22.369  1.00  0.00     0.031 C 
BRANCH  19  21
ATOM     21  C   UNL A   1      31.612  29.111  23.165  1.00  0.00     0.053 C 
BRANCH  21  22
ATOM     22  C   UNL A   1      30.331  28.530  22.537  1.00  0.00     0.162 C 
BRANCH  22  23
ATOM     23  O   UNL A   1      29.755  29.415  21.572  1.00  0.00    -0.385 OA
ATOM     24  C   UNL A   1      28.431  29.851  21.854  1.00  0.00     0.194 C 
ENDBRANCH  22  23
ENDBRANCH  21  22
ENDBRANCH  19  21
ENDBRANCH  16  19
ENDBRANCH   6  15
ENDBRANCH   3   5
ENDBRANCH   2   3
ENDBRANCH   1   2
BRANCH   1  25
ATOM     25  C   UNL A   1      36.487  21.665  24.534  1.00  0.00     0.275 C 
BRANCH  25  26
ATOM     26  O   UNL A   1      37.120  22.211  25.713  1.00  0.00    -0.458 OA
BRANCH  26  27
ATOM     27  C   UNL A   1      38.440  21.967  25.917  1.00  0.00     0.338 C 
ATOM     28  O   UNL A   1      38.987  20.946  25.553  1.00  0.00    -0.246 OA
BRANCH  27  29
ATOM     29  C   UNL A   1      39.182  23.082  26.575  1.00  0.00     0.060 A 
ATOM     30  C   UNL A   1      38.606  24.357  26.520  1.00  0.00     0.016 A 
ATOM     31  C   UNL A   1      40.438  22.923  27.168  1.00  0.00     0.016 A 
ATOM     32  C   UNL A   1      39.299  25.471  26.983  1.00  0.00     0.010 A 
ATOM     33  C   UNL A   1      41.112  24.028  27.687  1.00  0.00     0.010 A 
ATOM     34  C   UNL A   1      40.546  25.306  27.597  1.00  0.00    -0.014 A 
BRANCH  34  35
ATOM     35  C   UNL A   1      41.010  26.386  28.490  1.00  0.00     0.031 A 
ATOM     36  C   UNL A   1      42.235  27.075  27.943  1.00  0.00     0.074 A 
ATOM     37  C   UNL A   1      40.288  26.895  29.513  1.00  0.00     0.049 A 
ATOM     38  N   UNL A   1      43.369  27.308  28.522  1.00  0.00    -0.248 NA
ATOM     39  C   UNL A   1      42.239  27.396  26.496  1.00  0.00     0.031 C 
ATOM     40  C   UNL A   1      38.946  26.494  29.941  1.00  0.00     0.029 A 
ATOM     41  N   UNL A   1      40.522  27.998  30.286  1.00  0.00    -0.354 N 
ATOM     42  C   UNL A   1      44.152  27.971  27.574  1.00  0.00     0.074 A 
ATOM     43  C   UNL A   1      43.488  27.817  26.310  1.00  0.00     0.031 C 
ATOM     44  C   UNL A   1      38.385  27.501  30.650  1.00  0.00     0.029 A 
ATOM     45  C   UNL A   1      39.362  28.566  30.819  1.00  0.00     0.049 A 
ATOM     46  H   UNL A   1      41.423  28.358  30.452  1.00  0.00     0.167 HD
ATOM     47  C   UNL A   1      45.153  28.827  27.920  1.00  0.00     0.031 A 
ATOM     48  C   UNL A   1      39.188  29.846  31.257  1.00  0.00     0.031 A 
ATOM     49  C   UNL A   1      45.591  28.619  29.270  1.00  0.00     0.049 A 
ATOM     50  C   UNL A   1      40.540  30.432  31.451  1.00  0.00     0.074 A 
ATOM     51  C   UNL A   1      46.104  27.539  29.961  1.00  0.00     0.029 A 
ATOM     52  N   UNL A   1      45.143  29.502  30.223  1.00  0.00    -0.354 N 
ATOM     53  N   UNL A   1      41.373  30.027  32.368  1.00  0.00    -0.248 NA
ATOM     54  C   UNL A   1      41.139  31.120  30.316  1.00  0.00     0.031 C 
ATOM     55  C   UNL A   1      45.468  27.593  31.234  1.00  0.00     0.029 A 
ATOM     56  C   UNL A   1      44.691  28.750  31.275  1.00  0.00     0.049 A 
ATOM     57  H   UNL A   1      45.146  30.485  30.160  1.00  0.00     0.167 HD
ATOM     58  C   UNL A   1      42.606  30.004  31.733  1.00  0.00     0.074 A 
ATOM     59  C   UNL A   1      42.410  30.745  30.486  1.00  0.00     0.031 C 
ATOM     60  C   UNL A   1      43.596  29.150  32.127  1.00  0.00     0.031 A 
BRANCH  47  61
ATOM     61  C   UNL A   1      45.408  30.122  27.179  1.00  0.00    -0.014 A 
ATOM     62  C   UNL A   1      46.738  30.535  26.962  1.00  0.00     0.010 A 
ATOM     63  C   UNL A   1      44.400  31.084  26.953  1.00  0.00     0.010 A 
ATOM     64  C   UNL A   1      47.041  31.860  26.615  1.00  0.00     0.020 A 
ATOM     65  C   UNL A   1      44.687  32.393  26.565  1.00  0.00     0.020 A 
ATOM     66  C   UNL A   1      46.010  32.783  26.432  1.00  0.00     0.054 A 
BRANCH  66  67
ATOM     67  S   UNL A   1      46.411  34.510  26.076  1.00  0.00     0.124 S 
ATOM     68  O   UNL A   1      45.204  34.965  25.396  1.00  0.00    -0.237 OA
ATOM     69  O   UNL A   1      46.632  35.055  27.413  1.00  0.00    -0.237 OA
ATOM     70  O   UNL A   1      47.607  34.418  25.240  1.00  0.00    -0.744 OA
ENDBRANCH  66  67
ENDBRANCH  47  61
BRANCH  48  71
ATOM     71  C   UNL A   1      37.974  30.711  31.140  1.00  0.00    -0.014 A 
ATOM     72  C   UNL A   1      37.972  32.046  31.603  1.00  0.00     0.010 A 
ATOM     73  C   UNL A   1      36.904  30.322  30.309  1.00  0.00     0.010 A 
ATOM     74  C   UNL A   1      36.986  32.966  31.186  1.00  0.00     0.020 A 
ATOM     75  C   UNL A   1      35.915  31.226  29.899  1.00  0.00     0.020 A 
ATOM     76  C   UNL A   1      35.976  32.552  30.313  1.00  0.00     0.054 A 
BRANCH  76  77
ATOM     77  S   UNL A   1      34.829  33.775  29.604  1.00  0.00     0.124 S 
ATOM     78  O   UNL A   1      34.291  34.428  30.793  1.00  0.00    -0.237 OA
ATOM     79  O   UNL A   1      35.708  34.595  28.775  1.00  0.00    -0.237 OA
ATOM     80  O   UNL A   1      33.872  32.956  28.862  1.00  0.00    -0.744 OA
ENDBRANCH  76  77
ENDBRANCH  48  71
BRANCH  60  81
ATOM     81  C   UNL A   1      43.463  28.415  33.436  1.00  0.00    -0.014 A 
ATOM     82  C   UNL A   1      42.950  27.110  33.577  1.00  0.00     0.010 A 
ATOM     83  C   UNL A   1      44.025  29.038  34.564  1.00  0.00     0.010 A 
ATOM     84  C   UNL A   1      42.962  26.470  34.827  1.00  0.00     0.020 A 
ATOM     85  C   UNL A   1      44.060  28.400  35.803  1.00  0.00     0.020 A 
ATOM     86  C   UNL A   1      43.511  27.127  35.934  1.00  0.00     0.054 A 
BRANCH  86  87
ATOM     87  S   UNL A   1      43.514  26.311  37.554  1.00  0.00     0.124 S 
ATOM     88  O   UNL A   1      44.171  25.039  37.266  1.00  0.00    -0.237 OA
ATOM     89  O   UNL A   1      44.277  27.239  38.384  1.00  0.00    -0.237 OA
ATOM     90  O   UNL A   1      42.096  26.208  37.896  1.00  0.00    -0.744 OA
ENDBRANCH  86  87
ENDBRANCH  60  81
ENDBRANCH  34  35
ENDBRANCH  27  29
ENDBRANCH  26  27
ENDBRANCH  25  26
ENDBRANCH   1  25
TORSDOF 19
ENDMDL
MODEL 2
REMARK VINA RESULT:     -10.5      1.346      2.750
REMARK SMILES COCC[C@@H](C)NC(=O)N1Cc2nc[nH]c2C[C@@H]1C(=O)OCCOC(=O)c1ccc(-c2c3nc(c(-c4ccc(S(=O)(=O)[O-])cc4)c4ccc([nH]4)c(-c4ccc(S(=O)(=O)[O-])cc4)c4nc(c(-c5ccc(S(=O)(=O)[O-])cc5)c5ccc2[nH]5)C=C4)C=C3)cc1
REMARK SMILES IDX 22 1 21 2 19 3 20 4 18 5 10 6 11 7 12 8 17 9 13 10 16 11
REMARK SMILES IDX 14 12 15 13 8 15 7 16 9 18 5 19 6 20 4 21 3 22 2 23 1 24
REMARK SMILES IDX 23 25 24 26 25 27 26 28 27 29 28 30 86 31 29 32 85 33 30 34
REMARK SMILES IDX 31 35 32 36 79 37 33 38 84 39 78 40 80 41 34 42 83 43 77 44
REMARK SMILES IDX 76 45 35 47 65 48 46 49 64 50 47 51 50 52 63 53 81 54 48 55
REMARK SMILES IDX 49 56 62 58 82 59 51 60 36 61 37 62 45 63 38 64 44 65 39 66
REMARK SMILES IDX 40 67 41 68 42 69 43 70 66 71 67 72 75 73 68 74 74 75 69 76
REMARK SMILES IDX 70 77 71 78 72 79 73 80 52 81 53 82 61 83 54 84 60 85 55 86
REMARK SMILES IDX 56 87 57 88 58 89 59 90
REMARK H PARENT 15 14 7 17 80 46 50 57
REMARK Flexibility Score: inf
ROOT
ATOM      1  C   UNL A   1      35.494  22.351  23.817  1.00  0.00     0.274 C 
ENDROOT
BRANCH   1   2
ATOM      2  O   UNL A   1      35.084  23.007  22.587  1.00  0.00    -0.461 OA
BRANCH   2   3
ATOM      3  C   UNL A   1      33.839  23.532  22.598  1.00  0.00     0.329 C 
ATOM      4  O   UNL A   1      32.902  22.916  22.083  1.00  0.00    -0.250 OA
BRANCH   3   5
ATOM      5  C   UNL A   1      33.694  25.034  23.043  1.00  0.00     0.203 C 
ATOM      6  N   UNL A   1      33.991  25.830  24.330  1.00  0.00    -0.305 N 
ATOM      7  C   UNL A   1      33.689  27.298  24.327  1.00  0.00     0.180 C 
ATOM      8  C   UNL A   1      32.567  27.659  23.418  1.00  0.00     0.081 A 
ATOM      9  C   UNL A   1      32.333  25.396  22.360  1.00  0.00     0.093 C 
ATOM     10  N   UNL A   1      31.962  28.891  23.324  1.00  0.00    -0.240 NA
ATOM     11  C   UNL A   1      31.991  26.801  22.529  1.00  0.00     0.042 A 
ATOM     12  C   UNL A   1      31.028  28.752  22.404  1.00  0.00     0.197 A 
ATOM     13  N   UNL A   1      31.030  27.496  21.865  1.00  0.00    -0.348 N 
ATOM     14  H   UNL A   1      30.453  27.162  21.141  1.00  0.00     0.167 HD
BRANCH   6  15
ATOM     15  C   UNL A   1      34.022  25.361  25.626  1.00  0.00     0.318 C 
ATOM     16  N   UNL A   1      32.836  24.958  26.184  1.00  0.00    -0.335 N 
ATOM     17  H   UNL A   1      32.907  24.326  26.935  1.00  0.00     0.165 HD
ATOM     18  O   UNL A   1      35.063  25.003  26.176  1.00  0.00    -0.249 OA
BRANCH  16  19
ATOM     19  C   UNL A   1      31.491  25.344  25.809  1.00  0.00     0.083 C 
ATOM     20  C   UNL A   1      31.152  26.615  26.554  1.00  0.00     0.031 C 
BRANCH  19  21
ATOM     21  C   UNL A   1      30.380  24.341  26.115  1.00  0.00     0.053 C 
BRANCH  21  22
ATOM     22  C   UNL A   1      30.956  23.040  26.704  1.00  0.00     0.162 C 
BRANCH  22  23
ATOM     23  O   UNL A   1      30.791  21.929  25.819  1.00  0.00    -0.385 OA
ATOM     24  C   UNL A   1      31.985  21.440  25.220  1.00  0.00     0.194 C 
ENDBRANCH  22  23
ENDBRANCH  21  22
ENDBRANCH  19  21
ENDBRANCH  16  19
ENDBRANCH   6  15
ENDBRANCH   3   5
ENDBRANCH   2   3
ENDBRANCH   1   2
BRANCH   1  25
ATOM     25  C   UNL A   1      36.903  22.764  24.272  1.00  0.00     0.275 C 
BRANCH  25  26
ATOM     26  O   UNL A   1      37.221  22.507  25.658  1.00  0.00    -0.458 OA
BRANCH  26  27
ATOM     27  C   UNL A   1      38.506  22.220  25.990  1.00  0.00     0.338 C 
ATOM     28  O   UNL A   1      39.032  21.154  25.739  1.00  0.00    -0.246 OA
BRANCH  27  29
ATOM     29  C   UNL A   1      39.245  23.344  26.638  1.00  0.00     0.060 A 
ATOM     30  C   UNL A   1      38.606  24.588  26.685  1.00  0.00     0.016 A 
ATOM     31  C   UNL A   1      40.550  23.224  27.123  1.00  0.00     0.016 A 
ATOM     32  C   UNL A   1      39.279  25.716  27.143  1.00  0.00     0.010 A 
ATOM     33  C   UNL A   1      41.210  24.340  27.637  1.00  0.00     0.010 A 
ATOM     34  C   UNL A   1      40.578  25.590  27.650  1.00  0.00    -0.014 A 
BRANCH  34  35
ATOM     35  C   UNL A   1      41.060  26.654  28.552  1.00  0.00     0.031 A 
ATOM     36  C   UNL A   1      42.290  27.335  28.005  1.00  0.00     0.074 A 
ATOM     37  C   UNL A   1      40.350  27.161  29.585  1.00  0.00     0.049 A 
ATOM     38  N   UNL A   1      43.430  27.549  28.580  1.00  0.00    -0.248 NA
ATOM     39  C   UNL A   1      42.289  27.672  26.562  1.00  0.00     0.031 C 
ATOM     40  C   UNL A   1      39.007  26.770  30.017  1.00  0.00     0.029 A 
ATOM     41  N   UNL A   1      40.601  28.252  30.369  1.00  0.00    -0.354 N 
ATOM     42  C   UNL A   1      44.215  28.214  27.635  1.00  0.00     0.074 A 
ATOM     43  C   UNL A   1      43.541  28.081  26.373  1.00  0.00     0.031 C 
ATOM     44  C   UNL A   1      38.461  27.776  30.741  1.00  0.00     0.029 A 
ATOM     45  C   UNL A   1      39.452  28.827  30.916  1.00  0.00     0.049 A 
ATOM     46  H   UNL A   1      41.508  28.599  30.534  1.00  0.00     0.167 HD
ATOM     47  C   UNL A   1      45.228  29.054  27.984  1.00  0.00     0.031 A 
ATOM     48  C   UNL A   1      39.296  30.104  31.369  1.00  0.00     0.031 A 
ATOM     49  C   UNL A   1      45.671  28.825  29.329  1.00  0.00     0.049 A 
ATOM     50  C   UNL A   1      40.655  30.672  31.561  1.00  0.00     0.074 A 
ATOM     51  C   UNL A   1      46.176  27.731  30.005  1.00  0.00     0.029 A 
ATOM     52  N   UNL A   1      45.239  29.702  30.295  1.00  0.00    -0.354 N 
ATOM     53  N   UNL A   1      41.489  30.247  32.469  1.00  0.00    -0.248 NA
ATOM     54  C   UNL A   1      41.255  31.366  30.431  1.00  0.00     0.031 C 
ATOM     55  C   UNL A   1      45.548  27.778  31.282  1.00  0.00     0.029 A 
ATOM     56  C   UNL A   1      44.785  28.944  31.341  1.00  0.00     0.049 A 
ATOM     57  H   UNL A   1      45.253  30.686  30.243  1.00  0.00     0.167 HD
ATOM     58  C   UNL A   1      42.717  30.217  31.825  1.00  0.00     0.074 A 
ATOM     59  C   UNL A   1      42.522  30.974  30.588  1.00  0.00     0.031 C 
ATOM     60  C   UNL A   1      43.700  29.347  32.204  1.00  0.00     0.031 A 
BRANCH  47  61
ATOM     61  C   UNL A   1      45.493  30.354  27.256  1.00  0.00    -0.014 A 
ATOM     62  C   UNL A   1      46.820  30.818  27.147  1.00  0.00     0.010 A 
ATOM     63  C   UNL A   1      44.471  31.275  26.940  1.00  0.00     0.010 A 
ATOM     64  C   UNL A   1      47.099  32.151  26.815  1.00  0.00     0.020 A 
ATOM     65  C   UNL A   1      44.739  32.591  26.566  1.00  0.00     0.020 A 
ATOM     66  C   UNL A   1      46.053  33.032  26.539  1.00  0.00     0.054 A 
BRANCH  66  67
ATOM     67  S   UNL A   1      46.415  34.772  26.204  1.00  0.00     0.124 S 
ATOM     68  O   UNL A   1      47.126  34.691  24.932  1.00  0.00    -0.237 OA
ATOM     69  O   UNL A   1      45.079  35.358  26.148  1.00  0.00    -0.237 OA
ATOM     70  O   UNL A   1      47.222  35.181  27.351  1.00  0.00    -0.744 OA
ENDBRANCH  66  67
ENDBRANCH  47  61
BRANCH  48  71
ATOM     71  C   UNL A   1      38.091  30.985  31.269  1.00  0.00    -0.014 A 
ATOM     72  C   UNL A   1      36.815  30.538  31.678  1.00  0.00     0.010 A 
ATOM     73  C   UNL A   1      38.240  32.368  31.045  1.00  0.00     0.010 A 
ATOM     74  C   UNL A   1      35.763  31.446  31.926  1.00  0.00     0.020 A 
ATOM     75  C   UNL A   1      37.199  33.276  31.278  1.00  0.00     0.020 A 
ATOM     76  C   UNL A   1      35.973  32.815  31.748  1.00  0.00     0.054 A 
BRANCH  76  77
ATOM     77  S   UNL A   1      34.698  34.006  32.266  1.00  0.00     0.124 S 
ATOM     78  O   UNL A   1      35.488  35.183  32.613  1.00  0.00    -0.237 OA
ATOM     79  O   UNL A   1      33.870  34.130  31.070  1.00  0.00    -0.237 OA
ATOM     80  O   UNL A   1      34.049  33.342  33.396  1.00  0.00    -0.744 OA
ENDBRANCH  76  77
ENDBRANCH  48  71
BRANCH  60  81
ATOM     81  C   UNL A   1      43.566  28.599  33.506  1.00  0.00    -0.014 A 
ATOM     82  C   UNL A   1      43.919  29.113  34.769  1.00  0.00     0.010 A 
ATOM     83  C   UNL A   1      42.912  27.355  33.448  1.00  0.00     0.010 A 
ATOM     84  C   UNL A   1      43.662  28.376  35.937  1.00  0.00     0.020 A 
ATOM     85  C   UNL A   1      42.634  26.629  34.605  1.00  0.00     0.020 A 
ATOM     86  C   UNL A   1      43.026  27.133  35.842  1.00  0.00     0.054 A 
BRANCH  86  87
ATOM     87  S   UNL A   1      42.706  26.171  37.346  1.00  0.00     0.124 S 
ATOM     88  O   UNL A   1      43.026  24.810  36.925  1.00  0.00    -0.237 OA
ATOM     89  O   UNL A   1      43.625  26.763  38.314  1.00  0.00    -0.237 OA
ATOM     90  O   UNL A   1      41.289  26.413  37.621  1.00  0.00    -0.744 OA
ENDBRANCH  86  87
ENDBRANCH  60  81
ENDBRANCH  34  35
ENDBRANCH  27  29
ENDBRANCH  26  27
ENDBRANCH  25  26
ENDBRANCH   1  25
TORSDOF 19
ENDMDL
MODEL 3
REMARK VINA RESULT:     -10.3      1.536      2.357
REMARK SMILES COCC[C@@H](C)NC(=O)N1Cc2nc[nH]c2C[C@@H]1C(=O)OCCOC(=O)c1ccc(-c2c3nc(c(-c4ccc(S(=O)(=O)[O-])cc4)c4ccc([nH]4)c(-c4ccc(S(=O)(=O)[O-])cc4)c4nc(c(-c5ccc(S(=O)(=O)[O-])cc5)c5ccc2[nH]5)C=C4)C=C3)cc1
REMARK SMILES IDX 22 1 21 2 19 3 20 4 18 5 10 6 11 7 12 8 17 9 13 10 16 11
REMARK SMILES IDX 14 12 15 13 8 15 7 16 9 18 5 19 6 20 4 21 3 22 2 23 1 24
REMARK SMILES IDX 23 25 24 26 25 27 26 28 27 29 28 30 86 31 29 32 85 33 30 34
REMARK SMILES IDX 31 35 32 36 79 37 33 38 84 39 78 40 80 41 34 42 83 43 77 44
REMARK SMILES IDX 76 45 35 47 65 48 46 49 64 50 47 51 50 52 63 53 81 54 48 55
REMARK SMILES IDX 49 56 62 58 82 59 51 60 36 61 37 62 45 63 38 64 44 65 39 66
REMARK SMILES IDX 40 67 41 68 42 69 43 70 66 71 67 72 75 73 68 74 74 75 69 76
REMARK SMILES IDX 70 77 71 78 72 79 73 80 52 81 53 82 61 83 54 84 60 85 55 86
REMARK SMILES IDX 56 87 57 88 58 89 59 90
REMARK H PARENT 15 14 7 17 80 46 50 57
REMARK Flexibility Score: inf
ROOT
ATOM      1  C   UNL A   1      35.416  23.021  26.554  1.00  0.00     0.274 C 
ENDROOT
BRANCH   1   2
ATOM      2  O   UNL A   1      34.325  22.565  27.399  1.00  0.00    -0.461 OA
BRANCH   2   3
ATOM      3  C   UNL A   1      33.096  22.632  26.845  1.00  0.00     0.329 C 
ATOM      4  O   UNL A   1      32.105  22.829  27.554  1.00  0.00    -0.250 OA
BRANCH   3   5
ATOM      5  C   UNL A   1      32.958  22.194  25.340  1.00  0.00     0.203 C 
ATOM      6  N   UNL A   1      32.442  22.857  24.047  1.00  0.00    -0.305 N 
ATOM      7  C   UNL A   1      32.490  22.054  22.783  1.00  0.00     0.180 C 
ATOM      8  C   UNL A   1      32.370  20.589  23.021  1.00  0.00     0.081 A 
ATOM      9  C   UNL A   1      32.514  20.705  25.523  1.00  0.00     0.093 C 
ATOM     10  N   UNL A   1      32.221  19.620  22.056  1.00  0.00    -0.240 NA
ATOM     11  C   UNL A   1      32.407  20.004  24.251  1.00  0.00     0.042 A 
ATOM     12  C   UNL A   1      32.153  18.480  22.714  1.00  0.00     0.197 A 
ATOM     13  N   UNL A   1      32.295  18.663  24.061  1.00  0.00    -0.348 N 
ATOM     14  H   UNL A   1      32.314  17.964  24.754  1.00  0.00     0.167 HD
BRANCH   6  15
ATOM     15  C   UNL A   1      31.502  23.859  23.929  1.00  0.00     0.318 C 
ATOM     16  N   UNL A   1      31.953  25.154  23.912  1.00  0.00    -0.335 N 
ATOM     17  H   UNL A   1      31.354  25.813  23.492  1.00  0.00     0.165 HD
ATOM     18  O   UNL A   1      30.356  23.648  23.534  1.00  0.00    -0.249 OA
BRANCH  16  19
ATOM     19  C   UNL A   1      33.197  25.678  24.436  1.00  0.00     0.083 C 
ATOM     20  C   UNL A   1      33.008  25.923  25.916  1.00  0.00     0.031 C 
BRANCH  19  21
ATOM     21  C   UNL A   1      33.698  26.988  23.831  1.00  0.00     0.053 C 
BRANCH  21  22
ATOM     22  C   UNL A   1      33.683  28.120  24.874  1.00  0.00     0.162 C 
BRANCH  22  23
ATOM     23  O   UNL A   1      32.959  29.265  24.417  1.00  0.00    -0.385 OA
ATOM     24  C   UNL A   1      31.595  29.328  24.816  1.00  0.00     0.194 C 
ENDBRANCH  22  23
ENDBRANCH  21  22
ENDBRANCH  19  21
ENDBRANCH  16  19
ENDBRANCH   6  15
ENDBRANCH   3   5
ENDBRANCH   2   3
ENDBRANCH   1   2
BRANCH   1  25
ATOM     25  C   UNL A   1      36.206  21.863  25.924  1.00  0.00     0.275 C 
BRANCH  25  26
ATOM     26  O   UNL A   1      37.446  22.221  25.276  1.00  0.00    -0.458 OA
BRANCH  26  27
ATOM     27  C   UNL A   1      38.617  21.879  25.872  1.00  0.00     0.338 C 
ATOM     28  O   UNL A   1      39.077  20.756  25.829  1.00  0.00    -0.246 OA
BRANCH  27  29
ATOM     29  C   UNL A   1      39.328  23.010  26.538  1.00  0.00     0.060 A 
ATOM     30  C   UNL A   1      38.763  24.284  26.415  1.00  0.00     0.016 A 
ATOM     31  C   UNL A   1      40.548  22.862  27.204  1.00  0.00     0.016 A 
ATOM     32  C   UNL A   1      39.435  25.409  26.884  1.00  0.00     0.010 A 
ATOM     33  C   UNL A   1      41.199  23.979  27.727  1.00  0.00     0.010 A 
ATOM     34  C   UNL A   1      40.646  25.256  27.570  1.00  0.00    -0.014 A 
BRANCH  34  35
ATOM     35  C   UNL A   1      41.066  26.360  28.456  1.00  0.00     0.031 A 
ATOM     36  C   UNL A   1      42.289  27.066  27.926  1.00  0.00     0.074 A 
ATOM     37  C   UNL A   1      40.310  26.869  29.454  1.00  0.00     0.049 A 
ATOM     38  N   UNL A   1      43.404  27.333  28.528  1.00  0.00    -0.248 NA
ATOM     39  C   UNL A   1      42.320  27.365  26.475  1.00  0.00     0.031 C 
ATOM     40  C   UNL A   1      38.967  26.446  29.858  1.00  0.00     0.029 A 
ATOM     41  N   UNL A   1      40.502  27.988  30.215  1.00  0.00    -0.354 N 
ATOM     42  C   UNL A   1      44.194  27.998  27.587  1.00  0.00     0.074 A 
ATOM     43  C   UNL A   1      43.563  27.810  26.311  1.00  0.00     0.031 C 
ATOM     44  C   UNL A   1      38.369  27.451  30.537  1.00  0.00     0.029 A 
ATOM     45  C   UNL A   1      39.318  28.539  30.712  1.00  0.00     0.049 A 
ATOM     46  H   UNL A   1      41.392  28.370  30.396  1.00  0.00     0.167 HD
ATOM     47  C   UNL A   1      45.169  28.881  27.943  1.00  0.00     0.031 A 
ATOM     48  C   UNL A   1      39.108  29.822  31.125  1.00  0.00     0.031 A 
ATOM     49  C   UNL A   1      45.579  28.703  29.306  1.00  0.00     0.049 A 
ATOM     50  C   UNL A   1      40.442  30.439  31.342  1.00  0.00     0.074 A 
ATOM     51  C   UNL A   1      46.099  27.644  30.026  1.00  0.00     0.029 A 
ATOM     52  N   UNL A   1      45.090  29.590  30.234  1.00  0.00    -0.354 N 
ATOM     53  N   UNL A   1      41.261  30.067  32.284  1.00  0.00    -0.248 NA
ATOM     54  C   UNL A   1      41.052  31.123  30.210  1.00  0.00     0.031 C 
ATOM     55  C   UNL A   1      45.432  27.704  31.282  1.00  0.00     0.029 A 
ATOM     56  C   UNL A   1      44.630  28.845  31.288  1.00  0.00     0.049 A 
ATOM     57  H   UNL A   1      45.074  30.572  30.156  1.00  0.00     0.167 HD
ATOM     58  C   UNL A   1      42.509  30.060  31.677  1.00  0.00     0.074 A 
ATOM     59  C   UNL A   1      42.326  30.778  30.414  1.00  0.00     0.031 C 
ATOM     60  C   UNL A   1      43.508  29.234  32.107  1.00  0.00     0.031 A 
BRANCH  47  61
ATOM     61  C   UNL A   1      45.413  30.169  27.188  1.00  0.00    -0.014 A 
ATOM     62  C   UNL A   1      46.741  30.579  26.946  1.00  0.00     0.010 A 
ATOM     63  C   UNL A   1      44.403  31.131  26.970  1.00  0.00     0.010 A 
ATOM     64  C   UNL A   1      47.039  31.900  26.584  1.00  0.00     0.020 A 
ATOM     65  C   UNL A   1      44.685  32.436  26.567  1.00  0.00     0.020 A 
ATOM     66  C   UNL A   1      46.007  32.823  26.409  1.00  0.00     0.054 A 
BRANCH  66  67
ATOM     67  S   UNL A   1      46.404  34.546  26.033  1.00  0.00     0.124 S 
ATOM     68  O   UNL A   1      47.709  34.421  25.392  1.00  0.00    -0.237 OA
ATOM     69  O   UNL A   1      45.301  34.931  25.158  1.00  0.00    -0.237 OA
ATOM     70  O   UNL A   1      46.407  35.191  27.344  1.00  0.00    -0.744 OA
ENDBRANCH  66  67
ENDBRANCH  47  61
BRANCH  48  71
ATOM     71  C   UNL A   1      37.878  30.659  30.967  1.00  0.00    -0.014 A 
ATOM     72  C   UNL A   1      37.778  31.940  31.552  1.00  0.00     0.010 A 
ATOM     73  C   UNL A   1      36.913  30.323  29.997  1.00  0.00     0.010 A 
ATOM     74  C   UNL A   1      36.804  32.868  31.126  1.00  0.00     0.020 A 
ATOM     75  C   UNL A   1      35.935  31.234  29.576  1.00  0.00     0.020 A 
ATOM     76  C   UNL A   1      35.903  32.514  30.118  1.00  0.00     0.054 A 
BRANCH  76  77
ATOM     77  S   UNL A   1      34.786  33.767  29.415  1.00  0.00     0.124 S 
ATOM     78  O   UNL A   1      34.194  34.366  30.607  1.00  0.00    -0.237 OA
ATOM     79  O   UNL A   1      35.699  34.624  28.663  1.00  0.00    -0.237 OA
ATOM     80  O   UNL A   1      33.864  32.983  28.594  1.00  0.00    -0.744 OA
ENDBRANCH  76  77
ENDBRANCH  48  71
BRANCH  60  81
ATOM     81  C   UNL A   1      43.360  28.516  33.425  1.00  0.00    -0.014 A 
ATOM     82  C   UNL A   1      43.942  28.934  34.638  1.00  0.00     0.010 A 
ATOM     83  C   UNL A   1      42.462  27.435  33.451  1.00  0.00     0.010 A 
ATOM     84  C   UNL A   1      43.661  28.255  35.835  1.00  0.00     0.020 A 
ATOM     85  C   UNL A   1      42.162  26.770  34.639  1.00  0.00     0.020 A 
ATOM     86  C   UNL A   1      42.778  27.171  35.822  1.00  0.00     0.054 A 
BRANCH  86  87
ATOM     87  S   UNL A   1      42.425  26.279  37.363  1.00  0.00     0.124 S 
ATOM     88  O   UNL A   1      43.397  26.853  38.289  1.00  0.00    -0.237 OA
ATOM     89  O   UNL A   1      41.029  26.621  37.624  1.00  0.00    -0.237 OA
ATOM     90  O   UNL A   1      42.657  24.877  37.016  1.00  0.00    -0.744 OA
ENDBRANCH  86  87
ENDBRANCH  60  81
ENDBRANCH  34  35
ENDBRANCH  27  29
ENDBRANCH  26  27
ENDBRANCH  25  26
ENDBRANCH   1  25
TORSDOF 19
ENDMDL
