MODEL 1
REMARK VINA RESULT:     -12.4      0.000      0.000
REMARK SMILES Cc1c(NC(=O)C(F)(F)F)cccc1C(=O)OCCOC(=O)c1ccc(-c2c3nc(c(-c4ccc(S(=O)(=O)[O-])cc4)c4ccc([nH]4)c(-c4ccc(S(=O)(=O)[O-])cc4)c4nc(c(-c5ccc(S(=O)(=O)[O-])cc5)c5ccc2[nH]5)C=C4)C=C3)cc1
REMARK SMILES IDX 19 1 18 2 17 3 15 4 16 5 14 6 1 7 2 8 3 9 11 10 13 11 12 12
REMARK SMILES IDX 4 13 5 14 6 16 7 17 8 18 9 19 10 20 20 21 21 22 22 23 23 24
REMARK SMILES IDX 24 25 82 26 25 27 81 28 26 29 27 30 28 31 75 32 29 33 80 34
REMARK SMILES IDX 74 35 76 36 30 37 79 38 73 39 72 40 31 42 61 43 42 44 60 45
REMARK SMILES IDX 43 46 46 47 59 48 77 49 44 50 45 51 58 53 78 54 47 55 32 56
REMARK SMILES IDX 33 57 41 58 34 59 40 60 35 61 36 62 37 63 38 64 39 65 62 66
REMARK SMILES IDX 63 67 71 68 64 69 70 70 65 71 66 72 67 73 68 74 69 75 48 76
REMARK SMILES IDX 49 77 57 78 50 79 56 80 51 81 52 82 53 83 54 84 55 85
REMARK H PARENT 4 15 76 41 46 52
REMARK Flexibility Score: inf
ROOT
ATOM      1  C   UNL A   1      38.064  23.343  25.983  1.00  0.00     0.275 C 
ENDROOT
BRANCH   1   2
ATOM      2  C   UNL A   1      36.599  23.804  26.098  1.00  0.00     0.275 C 
BRANCH   2   3
ATOM      3  O   UNL A   1      35.895  23.769  24.842  1.00  0.00    -0.458 OA
BRANCH   3   4
ATOM      4  C   UNL A   1      34.546  23.707  24.999  1.00  0.00     0.338 C 
ATOM      5  O   UNL A   1      33.901  24.391  25.759  1.00  0.00    -0.246 OA
BRANCH   4   6
ATOM      6  C   UNL A   1      33.899  22.609  24.238  1.00  0.00     0.065 A 
ATOM      7  C   UNL A   1      34.098  21.158  26.308  1.00  0.00     0.047 C 
ATOM      8  C   UNL A   1      33.552  21.421  24.922  1.00  0.00    -0.013 A 
ATOM      9  C   UNL A   1      32.710  20.468  24.284  1.00  0.00     0.045 A 
ATOM     10  C   UNL A   1      32.183  20.770  23.027  1.00  0.00     0.026 A 
ATOM     11  C   UNL A   1      33.455  22.827  22.935  1.00  0.00     0.016 A 
ATOM     12  C   UNL A   1      32.567  21.932  22.349  1.00  0.00     0.003 A 
BRANCH   9  13
ATOM     13  N   UNL A   1      32.465  19.263  24.975  1.00  0.00    -0.318 N 
ATOM     14  C   UNL A   1      33.061  18.034  25.044  1.00  0.00     0.330 C 
ATOM     15  H   UNL A   1      31.667  19.321  25.551  1.00  0.00     0.170 HD
ATOM     16  O   UNL A   1      32.550  17.252  25.864  1.00  0.00    -0.264 OA
BRANCH  14  17
ATOM     17  C   UNL A   1      34.275  17.621  24.210  1.00  0.00     0.471 C 
ATOM     18  F   UNL A   1      35.325  18.477  24.347  1.00  0.00    -0.162 F 
ATOM     19  F   UNL A   1      34.734  16.374  24.512  1.00  0.00    -0.162 F 
ATOM     20  F   UNL A   1      33.997  17.588  22.872  1.00  0.00    -0.162 F 
ENDBRANCH  14  17
ENDBRANCH   9  13
ENDBRANCH   4   6
ENDBRANCH   3   4
ENDBRANCH   2   3
ENDBRANCH   1   2
BRANCH   1  21
ATOM     21  O   UNL A   1      39.116  24.322  26.133  1.00  0.00    -0.458 OA
BRANCH  21  22
ATOM     22  C   UNL A   1      39.735  24.384  27.343  1.00  0.00     0.338 C 
ATOM     23  O   UNL A   1      40.579  23.581  27.713  1.00  0.00    -0.246 OA
BRANCH  22  24
ATOM     24  C   UNL A   1      39.505  25.742  27.911  1.00  0.00     0.060 A 
ATOM     25  C   UNL A   1      38.992  25.882  29.208  1.00  0.00     0.016 A 
ATOM     26  C   UNL A   1      40.137  26.819  27.282  1.00  0.00     0.016 A 
ATOM     27  C   UNL A   1      39.231  27.045  29.932  1.00  0.00     0.010 A 
ATOM     28  C   UNL A   1      40.511  27.897  28.035  1.00  0.00     0.010 A 
ATOM     29  C   UNL A   1      40.025  28.026  29.342  1.00  0.00    -0.014 A 
BRANCH  29  30
ATOM     30  C   UNL A   1      40.109  29.391  29.821  1.00  0.00     0.031 A 
ATOM     31  C   UNL A   1      39.011  30.357  29.646  1.00  0.00     0.074 A 
ATOM     32  C   UNL A   1      41.246  29.564  30.536  1.00  0.00     0.049 A 
ATOM     33  N   UNL A   1      39.152  31.623  29.809  1.00  0.00    -0.248 NA
ATOM     34  C   UNL A   1      37.650  30.009  29.239  1.00  0.00     0.031 C 
ATOM     35  C   UNL A   1      41.694  30.614  31.425  1.00  0.00     0.029 A 
ATOM     36  N   UNL A   1      42.370  28.747  30.473  1.00  0.00    -0.354 N 
ATOM     37  C   UNL A   1      37.892  32.192  29.853  1.00  0.00     0.074 A 
ATOM     38  C   UNL A   1      37.000  31.174  29.371  1.00  0.00     0.031 C 
ATOM     39  C   UNL A   1      43.043  30.544  31.516  1.00  0.00     0.029 A 
ATOM     40  C   UNL A   1      43.502  29.519  30.575  1.00  0.00     0.049 A 
ATOM     41  H   UNL A   1      42.355  27.768  30.371  1.00  0.00     0.167 HD
ATOM     42  C   UNL A   1      37.760  33.405  30.461  1.00  0.00     0.031 A 
ATOM     43  C   UNL A   1      44.219  29.754  29.430  1.00  0.00     0.031 A 
ATOM     44  C   UNL A   1      39.089  33.910  30.801  1.00  0.00     0.049 A 
ATOM     45  C   UNL A   1      44.056  31.209  29.043  1.00  0.00     0.074 A 
ATOM     46  C   UNL A   1      39.832  33.812  31.965  1.00  0.00     0.029 A 
ATOM     47  N   UNL A   1      39.981  34.189  29.773  1.00  0.00    -0.354 N 
ATOM     48  N   UNL A   1      42.952  31.899  29.177  1.00  0.00    -0.248 NA
ATOM     49  C   UNL A   1      45.196  32.024  28.639  1.00  0.00     0.031 C 
ATOM     50  C   UNL A   1      41.205  33.887  31.595  1.00  0.00     0.029 A 
ATOM     51  C   UNL A   1      41.282  34.042  30.218  1.00  0.00     0.049 A 
ATOM     52  H   UNL A   1      39.724  34.453  28.860  1.00  0.00     0.167 HD
ATOM     53  C   UNL A   1      43.246  33.230  29.035  1.00  0.00     0.074 A 
ATOM     54  C   UNL A   1      44.652  33.251  28.655  1.00  0.00     0.031 C 
ATOM     55  C   UNL A   1      42.391  34.262  29.305  1.00  0.00     0.031 A 
BRANCH  42  56
ATOM     56  C   UNL A   1      36.486  34.000  31.022  1.00  0.00    -0.014 A 
ATOM     57  C   UNL A   1      35.351  34.052  30.180  1.00  0.00     0.010 A 
ATOM     58  C   UNL A   1      36.334  34.581  32.296  1.00  0.00     0.010 A 
ATOM     59  C   UNL A   1      34.162  34.692  30.552  1.00  0.00     0.020 A 
ATOM     60  C   UNL A   1      35.143  35.228  32.685  1.00  0.00     0.020 A 
ATOM     61  C   UNL A   1      34.067  35.290  31.804  1.00  0.00     0.054 A 
BRANCH  61  62
ATOM     62  S   UNL A   1      32.523  36.135  32.247  1.00  0.00     0.124 S 
ATOM     63  O   UNL A   1      32.185  36.838  31.012  1.00  0.00    -0.237 OA
ATOM     64  O   UNL A   1      31.644  35.023  32.597  1.00  0.00    -0.237 OA
ATOM     65  O   UNL A   1      32.906  36.997  33.363  1.00  0.00    -0.744 OA
ENDBRANCH  61  62
ENDBRANCH  42  56
BRANCH  43  66
ATOM     66  C   UNL A   1      44.347  28.584  28.482  1.00  0.00    -0.014 A 
ATOM     67  C   UNL A   1      44.160  28.836  27.098  1.00  0.00     0.010 A 
ATOM     68  C   UNL A   1      44.865  27.327  28.840  1.00  0.00     0.010 A 
ATOM     69  C   UNL A   1      44.592  27.938  26.114  1.00  0.00     0.020 A 
ATOM     70  C   UNL A   1      45.279  26.403  27.849  1.00  0.00     0.020 A 
ATOM     71  C   UNL A   1      45.173  26.732  26.493  1.00  0.00     0.054 A 
BRANCH  71  72
ATOM     72  S   UNL A   1      45.976  25.719  25.203  1.00  0.00     0.124 S 
ATOM     73  O   UNL A   1      46.458  26.730  24.267  1.00  0.00    -0.237 OA
ATOM     74  O   UNL A   1      47.012  25.021  25.963  1.00  0.00    -0.237 OA
ATOM     75  O   UNL A   1      44.889  24.875  24.713  1.00  0.00    -0.744 OA
ENDBRANCH  71  72
ENDBRANCH  43  66
BRANCH  55  76
ATOM     76  C   UNL A   1      42.591  35.661  28.790  1.00  0.00    -0.014 A 
ATOM     77  C   UNL A   1      42.027  36.115  27.590  1.00  0.00     0.010 A 
ATOM     78  C   UNL A   1      43.231  36.619  29.613  1.00  0.00     0.010 A 
ATOM     79  C   UNL A   1      42.184  37.437  27.175  1.00  0.00     0.020 A 
ATOM     80  C   UNL A   1      43.329  37.957  29.242  1.00  0.00     0.020 A 
ATOM     81  C   UNL A   1      42.842  38.348  28.003  1.00  0.00     0.054 A 
BRANCH  81  82
ATOM     82  S   UNL A   1      43.019  40.058  27.460  1.00  0.00     0.124 S 
ATOM     83  O   UNL A   1      42.781  40.787  28.702  1.00  0.00    -0.237 OA
ATOM     84  O   UNL A   1      44.391  40.101  26.959  1.00  0.00    -0.237 OA
ATOM     85  O   UNL A   1      41.985  40.202  26.438  1.00  0.00    -0.744 OA
ENDBRANCH  81  82
ENDBRANCH  55  76
ENDBRANCH  29  30
ENDBRANCH  22  24
ENDBRANCH  21  22
ENDBRANCH   1  21
TORSDOF 16
ENDMDL
MODEL 2
REMARK VINA RESULT:     -12.0      4.869     11.371
REMARK SMILES Cc1c(NC(=O)C(F)(F)F)cccc1C(=O)OCCOC(=O)c1ccc(-c2c3nc(c(-c4ccc(S(=O)(=O)[O-])cc4)c4ccc([nH]4)c(-c4ccc(S(=O)(=O)[O-])cc4)c4nc(c(-c5ccc(S(=O)(=O)[O-])cc5)c5ccc2[nH]5)C=C4)C=C3)cc1
REMARK SMILES IDX 19 1 18 2 17 3 15 4 16 5 14 6 1 7 2 8 3 9 11 10 13 11 12 12
REMARK SMILES IDX 4 13 5 14 6 16 7 17 8 18 9 19 10 20 20 21 21 22 22 23 23 24
REMARK SMILES IDX 24 25 82 26 25 27 81 28 26 29 27 30 28 31 75 32 29 33 80 34
REMARK SMILES IDX 74 35 76 36 30 37 79 38 73 39 72 40 31 42 61 43 42 44 60 45
REMARK SMILES IDX 43 46 46 47 59 48 77 49 44 50 45 51 58 53 78 54 47 55 32 56
REMARK SMILES IDX 33 57 41 58 34 59 40 60 35 61 36 62 37 63 38 64 39 65 62 66
REMARK SMILES IDX 63 67 71 68 64 69 70 70 65 71 66 72 67 73 68 74 69 75 48 76
REMARK SMILES IDX 49 77 57 78 50 79 56 80 51 81 52 82 53 83 54 84 55 85
REMARK H PARENT 4 15 76 41 46 52
REMARK Flexibility Score: inf
ROOT
ATOM      1  C   UNL A   1      34.348  29.446  27.626  1.00  0.00     0.275 C 
ENDROOT
BRANCH   1   2
ATOM      2  C   UNL A   1      33.264  30.092  26.742  1.00  0.00     0.275 C 
BRANCH   2   3
ATOM      3  O   UNL A   1      33.296  29.627  25.379  1.00  0.00    -0.458 OA
BRANCH   3   4
ATOM      4  C   UNL A   1      32.118  29.072  24.987  1.00  0.00     0.338 C 
ATOM      5  O   UNL A   1      31.130  29.691  24.664  1.00  0.00    -0.246 OA
BRANCH   4   6
ATOM      6  C   UNL A   1      32.076  27.594  25.108  1.00  0.00     0.065 A 
ATOM      7  C   UNL A   1      33.546  27.458  23.046  1.00  0.00     0.047 C 
ATOM      8  C   UNL A   1      32.889  26.818  24.250  1.00  0.00    -0.013 A 
ATOM      9  C   UNL A   1      33.060  25.431  24.514  1.00  0.00     0.045 A 
ATOM     10  C   UNL A   1      32.481  24.888  25.663  1.00  0.00     0.026 A 
ATOM     11  C   UNL A   1      31.413  26.998  26.179  1.00  0.00     0.016 A 
ATOM     12  C   UNL A   1      31.649  25.660  26.480  1.00  0.00     0.003 A 
BRANCH   9  13
ATOM     13  N   UNL A   1      33.811  24.687  23.580  1.00  0.00    -0.318 N 
ATOM     14  C   UNL A   1      34.940  23.917  23.622  1.00  0.00     0.330 C 
ATOM     15  H   UNL A   1      33.428  24.734  22.673  1.00  0.00     0.170 HD
ATOM     16  O   UNL A   1      35.230  23.357  22.550  1.00  0.00    -0.264 OA
BRANCH  14  17
ATOM     17  C   UNL A   1      35.796  23.716  24.874  1.00  0.00     0.471 C 
ATOM     18  F   UNL A   1      37.086  23.389  24.585  1.00  0.00    -0.162 F 
ATOM     19  F   UNL A   1      35.832  24.815  25.680  1.00  0.00    -0.162 F 
ATOM     20  F   UNL A   1      35.327  22.705  25.665  1.00  0.00    -0.162 F 
ENDBRANCH  14  17
ENDBRANCH   9  13
ENDBRANCH   4   6
ENDBRANCH   3   4
ENDBRANCH   2   3
ENDBRANCH   1   2
BRANCH   1  21
ATOM     21  O   UNL A   1      35.737  29.646  27.281  1.00  0.00    -0.458 OA
BRANCH  21  22
ATOM     22  C   UNL A   1      36.417  30.595  27.978  1.00  0.00     0.338 C 
ATOM     23  O   UNL A   1      35.911  31.635  28.376  1.00  0.00    -0.246 OA
BRANCH  22  24
ATOM     24  C   UNL A   1      37.681  29.985  28.478  1.00  0.00     0.060 A 
ATOM     25  C   UNL A   1      37.656  29.131  29.589  1.00  0.00     0.016 A 
ATOM     26  C   UNL A   1      38.783  29.992  27.619  1.00  0.00     0.016 A 
ATOM     27  C   UNL A   1      38.661  28.186  29.768  1.00  0.00     0.010 A 
ATOM     28  C   UNL A   1      39.688  28.969  27.696  1.00  0.00     0.010 A 
ATOM     29  C   UNL A   1      39.648  28.095  28.789  1.00  0.00    -0.014 A 
BRANCH  29  30
ATOM     30  C   UNL A   1      40.904  27.399  28.975  1.00  0.00     0.031 A 
ATOM     31  C   UNL A   1      41.094  25.995  28.573  1.00  0.00     0.074 A 
ATOM     32  C   UNL A   1      41.852  28.257  29.423  1.00  0.00     0.049 A 
ATOM     33  N   UNL A   1      42.084  25.276  28.962  1.00  0.00    -0.248 NA
ATOM     34  C   UNL A   1      40.177  25.238  27.720  1.00  0.00     0.031 C 
ATOM     35  C   UNL A   1      43.292  28.160  29.527  1.00  0.00     0.029 A 
ATOM     36  N   UNL A   1      41.604  29.481  30.034  1.00  0.00    -0.354 N 
ATOM     37  C   UNL A   1      42.115  24.131  28.188  1.00  0.00     0.074 A 
ATOM     38  C   UNL A   1      40.844  24.093  27.519  1.00  0.00     0.031 C 
ATOM     39  C   UNL A   1      43.711  29.071  30.437  1.00  0.00     0.029 A 
ATOM     40  C   UNL A   1      42.522  29.686  31.034  1.00  0.00     0.049 A 
ATOM     41  H   UNL A   1      40.882  30.103  29.787  1.00  0.00     0.167 HD
ATOM     42  C   UNL A   1      43.295  23.456  28.090  1.00  0.00     0.031 A 
ATOM     43  C   UNL A   1      42.105  29.516  32.329  1.00  0.00     0.031 A 
ATOM     44  C   UNL A   1      44.261  24.058  29.008  1.00  0.00     0.049 A 
ATOM     45  C   UNL A   1      42.751  28.266  32.890  1.00  0.00     0.074 A 
ATOM     46  C   UNL A   1      45.219  25.037  28.812  1.00  0.00     0.029 A 
ATOM     47  N   UNL A   1      44.004  24.010  30.373  1.00  0.00    -0.354 N 
ATOM     48  N   UNL A   1      42.969  27.169  32.210  1.00  0.00    -0.248 NA
ATOM     49  C   UNL A   1      43.352  28.247  34.218  1.00  0.00     0.031 C 
ATOM     50  C   UNL A   1      45.424  25.682  30.064  1.00  0.00     0.029 A 
ATOM     51  C   UNL A   1      44.603  25.083  31.008  1.00  0.00     0.049 A 
ATOM     52  H   UNL A   1      43.473  23.314  30.822  1.00  0.00     0.167 HD
ATOM     53  C   UNL A   1      43.839  26.380  32.918  1.00  0.00     0.074 A 
ATOM     54  C   UNL A   1      44.012  27.079  34.184  1.00  0.00     0.031 C 
ATOM     55  C   UNL A   1      44.451  25.254  32.443  1.00  0.00     0.031 A 
BRANCH  42  56
ATOM     56  C   UNL A   1      43.694  22.487  26.998  1.00  0.00    -0.014 A 
ATOM     57  C   UNL A   1      42.825  21.405  26.720  1.00  0.00     0.010 A 
ATOM     58  C   UNL A   1      44.897  22.513  26.265  1.00  0.00     0.010 A 
ATOM     59  C   UNL A   1      43.153  20.384  25.820  1.00  0.00     0.020 A 
ATOM     60  C   UNL A   1      45.240  21.491  25.355  1.00  0.00     0.020 A 
ATOM     61  C   UNL A   1      44.369  20.425  25.148  1.00  0.00     0.054 A 
BRANCH  61  62
ATOM     62  S   UNL A   1      44.778  19.073  24.009  1.00  0.00     0.124 S 
ATOM     63  O   UNL A   1      46.211  18.898  24.231  1.00  0.00    -0.237 OA
ATOM     64  O   UNL A   1      43.931  17.986  24.492  1.00  0.00    -0.237 OA
ATOM     65  O   UNL A   1      44.416  19.603  22.696  1.00  0.00    -0.744 OA
ENDBRANCH  61  62
ENDBRANCH  42  56
BRANCH  43  66
ATOM     66  C   UNL A   1      40.717  30.025  32.644  1.00  0.00    -0.014 A 
ATOM     67  C   UNL A   1      40.457  31.402  32.424  1.00  0.00     0.010 A 
ATOM     68  C   UNL A   1      39.610  29.199  32.911  1.00  0.00     0.010 A 
ATOM     69  C   UNL A   1      39.154  31.909  32.339  1.00  0.00     0.020 A 
ATOM     70  C   UNL A   1      38.291  29.711  32.853  1.00  0.00     0.020 A 
ATOM     71  C   UNL A   1      38.072  31.055  32.531  1.00  0.00     0.054 A 
BRANCH  71  72
ATOM     72  S   UNL A   1      36.401  31.678  32.136  1.00  0.00     0.124 S 
ATOM     73  O   UNL A   1      35.962  32.228  33.414  1.00  0.00    -0.237 OA
ATOM     74  O   UNL A   1      36.682  32.662  31.090  1.00  0.00    -0.237 OA
ATOM     75  O   UNL A   1      35.693  30.481  31.689  1.00  0.00    -0.744 OA
ENDBRANCH  71  72
ENDBRANCH  43  66
BRANCH  55  76
ATOM     76  C   UNL A   1      45.080  24.216  33.330  1.00  0.00    -0.014 A 
ATOM     77  C   UNL A   1      46.388  24.331  33.823  1.00  0.00     0.010 A 
ATOM     78  C   UNL A   1      44.285  23.159  33.835  1.00  0.00     0.010 A 
ATOM     79  C   UNL A   1      46.916  23.378  34.693  1.00  0.00     0.020 A 
ATOM     80  C   UNL A   1      44.779  22.244  34.760  1.00  0.00     0.020 A 
ATOM     81  C   UNL A   1      46.108  22.336  35.150  1.00  0.00     0.054 A 
BRANCH  81  82
ATOM     82  S   UNL A   1      46.802  21.124  36.291  1.00  0.00     0.124 S 
ATOM     83  O   UNL A   1      47.101  20.013  35.393  1.00  0.00    -0.237 OA
ATOM     84  O   UNL A   1      47.966  21.820  36.838  1.00  0.00    -0.237 OA
ATOM     85  O   UNL A   1      45.720  20.891  37.243  1.00  0.00    -0.744 OA
ENDBRANCH  81  82
ENDBRANCH  55  76
ENDBRANCH  29  30
ENDBRANCH  22  24
ENDBRANCH  21  22
ENDBRANCH   1  21
TORSDOF 16
ENDMDL
MODEL 3
REMARK VINA RESULT:     -11.9      1.942      2.594
REMARK SMILES Cc1c(NC(=O)C(F)(F)F)cccc1C(=O)OCCOC(=O)c1ccc(-c2c3nc(c(-c4ccc(S(=O)(=O)[O-])cc4)c4ccc([nH]4)c(-c4ccc(S(=O)(=O)[O-])cc4)c4nc(c(-c5ccc(S(=O)(=O)[O-])cc5)c5ccc2[nH]5)C=C4)C=C3)cc1
REMARK SMILES IDX 19 1 18 2 17 3 15 4 16 5 14 6 1 7 2 8 3 9 11 10 13 11 12 12
REMARK SMILES IDX 4 13 5 14 6 16 7 17 8 18 9 19 10 20 20 21 21 22 22 23 23 24
REMARK SMILES IDX 24 25 82 26 25 27 81 28 26 29 27 30 28 31 75 32 29 33 80 34
REMARK SMILES IDX 74 35 76 36 30 37 79 38 73 39 72 40 31 42 61 43 42 44 60 45
REMARK SMILES IDX 43 46 46 47 59 48 77 49 44 50 45 51 58 53 78 54 47 55 32 56
REMARK SMILES IDX 33 57 41 58 34 59 40 60 35 61 36 62 37 63 38 64 39 65 62 66
REMARK SMILES IDX 63 67 71 68 64 69 70 70 65 71 66 72 67 73 68 74 69 75 48 76
REMARK SMILES IDX 49 77 57 78 50 79 56 80 51 81 52 82 53 83 54 84 55 85
REMARK H PARENT 4 15 76 41 46 52
REMARK Flexibility Score: inf
ROOT
ATOM      1  C   UNL A   1      37.933  24.154  25.941  1.00  0.00     0.275 C 
ENDROOT
BRANCH   1   2
ATOM      2  C   UNL A   1      37.447  22.694  25.869  1.00  0.00     0.275 C 
BRANCH   2   3
ATOM      3  O   UNL A   1      37.355  22.195  24.521  1.00  0.00    -0.458 OA
BRANCH   3   4
ATOM      4  C   UNL A   1      36.199  22.563  23.905  1.00  0.00     0.338 C 
ATOM      5  O   UNL A   1      36.126  23.264  22.923  1.00  0.00    -0.246 OA
BRANCH   4   6
ATOM      6  C   UNL A   1      34.971  22.136  24.620  1.00  0.00     0.065 A 
ATOM      7  C   UNL A   1      34.463  24.582  25.056  1.00  0.00     0.047 C 
ATOM      8  C   UNL A   1      34.056  23.124  25.052  1.00  0.00    -0.013 A 
ATOM      9  C   UNL A   1      32.766  22.733  25.504  1.00  0.00     0.045 A 
ATOM     10  C   UNL A   1      32.408  21.385  25.435  1.00  0.00     0.026 A 
ATOM     11  C   UNL A   1      34.628  20.786  24.678  1.00  0.00     0.016 A 
ATOM     12  C   UNL A   1      33.338  20.416  25.043  1.00  0.00     0.003 A 
BRANCH   9  13
ATOM     13  N   UNL A   1      31.924  23.750  26.003  1.00  0.00    -0.318 N 
ATOM     14  C   UNL A   1      30.997  24.602  25.471  1.00  0.00     0.330 C 
ATOM     15  H   UNL A   1      32.031  23.877  26.974  1.00  0.00     0.170 HD
ATOM     16  O   UNL A   1      30.406  25.314  26.301  1.00  0.00    -0.264 OA
BRANCH  14  17
ATOM     17  C   UNL A   1      30.667  24.689  23.979  1.00  0.00     0.471 C 
ATOM     18  F   UNL A   1      30.356  23.480  23.435  1.00  0.00    -0.162 F 
ATOM     19  F   UNL A   1      29.628  25.529  23.708  1.00  0.00    -0.162 F 
ATOM     20  F   UNL A   1      31.716  25.165  23.244  1.00  0.00    -0.162 F 
ENDBRANCH  14  17
ENDBRANCH   9  13
ENDBRANCH   4   6
ENDBRANCH   3   4
ENDBRANCH   2   3
ENDBRANCH   1   2
BRANCH   1  21
ATOM     21  O   UNL A   1      39.350  24.411  26.060  1.00  0.00    -0.458 OA
BRANCH  21  22
ATOM     22  C   UNL A   1      39.871  24.432  27.315  1.00  0.00     0.338 C 
ATOM     23  O   UNL A   1      40.673  23.608  27.730  1.00  0.00    -0.246 OA
BRANCH  22  24
ATOM     24  C   UNL A   1      39.614  25.779  27.900  1.00  0.00     0.060 A 
ATOM     25  C   UNL A   1      39.072  25.892  29.187  1.00  0.00     0.016 A 
ATOM     26  C   UNL A   1      40.248  26.872  27.303  1.00  0.00     0.016 A 
ATOM     27  C   UNL A   1      39.282  27.046  29.935  1.00  0.00     0.010 A 
ATOM     28  C   UNL A   1      40.594  27.942  28.082  1.00  0.00     0.010 A 
ATOM     29  C   UNL A   1      40.079  28.045  29.379  1.00  0.00    -0.014 A 
BRANCH  29  30
ATOM     30  C   UNL A   1      40.137  29.402  29.882  1.00  0.00     0.031 A 
ATOM     31  C   UNL A   1      39.040  30.364  29.685  1.00  0.00     0.074 A 
ATOM     32  C   UNL A   1      41.249  29.571  30.637  1.00  0.00     0.049 A 
ATOM     33  N   UNL A   1      39.166  31.628  29.872  1.00  0.00    -0.248 NA
ATOM     34  C   UNL A   1      37.695  30.015  29.227  1.00  0.00     0.031 C 
ATOM     35  C   UNL A   1      41.659  30.610  31.558  1.00  0.00     0.029 A 
ATOM     36  N   UNL A   1      42.379  28.762  30.599  1.00  0.00    -0.354 N 
ATOM     37  C   UNL A   1      37.902  32.189  29.882  1.00  0.00     0.074 A 
ATOM     38  C   UNL A   1      37.034  31.173  29.355  1.00  0.00     0.031 C 
ATOM     39  C   UNL A   1      43.005  30.546  31.692  1.00  0.00     0.029 A 
ATOM     40  C   UNL A   1      43.502  29.539  30.751  1.00  0.00     0.049 A 
ATOM     41  H   UNL A   1      42.374  27.785  30.482  1.00  0.00     0.167 HD
ATOM     42  C   UNL A   1      37.742  33.391  30.504  1.00  0.00     0.031 A 
ATOM     43  C   UNL A   1      44.255  29.797  29.636  1.00  0.00     0.031 A 
ATOM     44  C   UNL A   1      39.055  33.899  30.897  1.00  0.00     0.049 A 
ATOM     45  C   UNL A   1      44.096  31.256  29.265  1.00  0.00     0.074 A 
ATOM     46  C   UNL A   1      39.759  33.787  32.083  1.00  0.00     0.029 A 
ATOM     47  N   UNL A   1      39.979  34.199  29.904  1.00  0.00    -0.354 N 
ATOM     48  N   UNL A   1      42.983  31.937  29.373  1.00  0.00    -0.248 NA
ATOM     49  C   UNL A   1      45.243  32.085  28.913  1.00  0.00     0.031 C 
ATOM     50  C   UNL A   1      41.143  33.876  31.761  1.00  0.00     0.029 A 
ATOM     51  C   UNL A   1      41.266  34.054  30.390  1.00  0.00     0.049 A 
ATOM     52  H   UNL A   1      39.751  34.476  28.987  1.00  0.00     0.167 HD
ATOM     53  C   UNL A   1      43.273  33.273  29.262  1.00  0.00     0.074 A 
ATOM     54  C   UNL A   1      44.691  33.308  28.930  1.00  0.00     0.031 C 
ATOM     55  C   UNL A   1      42.403  34.294  29.518  1.00  0.00     0.031 A 
BRANCH  42  56
ATOM     56  C   UNL A   1      36.446  33.970  31.031  1.00  0.00    -0.014 A 
ATOM     57  C   UNL A   1      35.361  34.096  30.132  1.00  0.00     0.010 A 
ATOM     58  C   UNL A   1      36.229  34.469  32.330  1.00  0.00     0.010 A 
ATOM     59  C   UNL A   1      34.161  34.730  30.478  1.00  0.00     0.020 A 
ATOM     60  C   UNL A   1      35.025  35.109  32.694  1.00  0.00     0.020 A 
ATOM     61  C   UNL A   1      34.003  35.247  31.759  1.00  0.00     0.054 A 
BRANCH  61  62
ATOM     62  S   UNL A   1      32.448  36.086  32.170  1.00  0.00     0.124 S 
ATOM     63  O   UNL A   1      32.860  37.013  33.221  1.00  0.00    -0.237 OA
ATOM     64  O   UNL A   1      32.076  36.702  30.900  1.00  0.00    -0.237 OA
ATOM     65  O   UNL A   1      31.573  35.002  32.612  1.00  0.00    -0.744 OA
ENDBRANCH  61  62
ENDBRANCH  42  56
BRANCH  43  66
ATOM     66  C   UNL A   1      44.423  28.642  28.675  1.00  0.00    -0.014 A 
ATOM     67  C   UNL A   1      44.021  28.844  27.329  1.00  0.00     0.010 A 
ATOM     68  C   UNL A   1      45.159  27.477  28.955  1.00  0.00     0.010 A 
ATOM     69  C   UNL A   1      44.442  28.002  26.292  1.00  0.00     0.020 A 
ATOM     70  C   UNL A   1      45.566  26.607  27.914  1.00  0.00     0.020 A 
ATOM     71  C   UNL A   1      45.235  26.896  26.586  1.00  0.00     0.054 A 
BRANCH  71  72
ATOM     72  S   UNL A   1      45.997  25.989  25.196  1.00  0.00     0.124 S 
ATOM     73  O   UNL A   1      46.380  27.067  24.291  1.00  0.00    -0.237 OA
ATOM     74  O   UNL A   1      47.104  25.296  25.854  1.00  0.00    -0.237 OA
ATOM     75  O   UNL A   1      44.915  25.127  24.725  1.00  0.00    -0.744 OA
ENDBRANCH  71  72
ENDBRANCH  43  66
BRANCH  55  76
ATOM     76  C   UNL A   1      42.611  35.702  29.032  1.00  0.00    -0.014 A 
ATOM     77  C   UNL A   1      43.329  36.659  29.764  1.00  0.00     0.010 A 
ATOM     78  C   UNL A   1      42.221  36.047  27.716  1.00  0.00     0.010 A 
ATOM     79  C   UNL A   1      43.554  37.936  29.252  1.00  0.00     0.020 A 
ATOM     80  C   UNL A   1      42.506  37.295  27.168  1.00  0.00     0.020 A 
ATOM     81  C   UNL A   1      43.133  38.247  27.959  1.00  0.00     0.054 A 
BRANCH  81  82
ATOM     82  S   UNL A   1      43.451  39.898  27.306  1.00  0.00     0.124 S 
ATOM     83  O   UNL A   1      44.536  40.352  28.170  1.00  0.00    -0.237 OA
ATOM     84  O   UNL A   1      43.823  39.634  25.918  1.00  0.00    -0.237 OA
ATOM     85  O   UNL A   1      42.175  40.588  27.483  1.00  0.00    -0.744 OA
ENDBRANCH  81  82
ENDBRANCH  55  76
ENDBRANCH  29  30
ENDBRANCH  22  24
ENDBRANCH  21  22
ENDBRANCH   1  21
TORSDOF 16
ENDMDL
