MODEL 1
REMARK VINA RESULT:      -9.8      0.000      0.000
REMARK SMILES C[C@@](O)(CNC(=O)CC1([NH3+])CCC1)C(=O)OCCOC(=O)c1ccc(-c2c3nc(c(-c4ccc(S(=O)(=O)[O-])cc4)c4ccc([nH]4)c(-c4ccc(S(=O)(=O)[O-])cc4)c4nc(c(-c5ccc(S(=O)(=O)[O-])cc5)c5ccc2[nH]5)C=C4)C=C3)cc1
REMARK SMILES IDX 17 1 16 2 14 3 15 4 2 5 1 6 3 7 4 9 5 10 6 11 7 13 8 14 9 15
REMARK SMILES IDX 11 16 13 17 12 18 10 19 18 23 19 24 20 25 21 26 22 27 23 28
REMARK SMILES IDX 81 29 24 30 80 31 25 32 26 33 27 34 74 35 28 36 79 37 73 38
REMARK SMILES IDX 75 39 29 40 78 41 72 42 71 43 30 45 60 46 41 47 59 48 42 49
REMARK SMILES IDX 45 50 58 51 76 52 43 53 44 54 57 56 77 57 46 58 31 59 32 60
REMARK SMILES IDX 40 61 33 62 39 63 34 64 35 65 36 66 37 67 38 68 61 69 62 70
REMARK SMILES IDX 70 71 63 72 69 73 64 74 65 75 66 76 67 77 68 78 47 79 48 80
REMARK SMILES IDX 56 81 49 82 55 83 50 84 51 85 52 86 53 87 54 88
REMARK H PARENT 3 8 5 12 10 20 10 21 10 22 75 44 45 55
REMARK Flexibility Score: inf
ROOT
ATOM      1  C   UNL A   1      38.623  21.788  25.601  1.00  0.00     0.274 C 
ENDROOT
BRANCH   1   2
ATOM      2  O   UNL A   1      37.196  21.955  25.807  1.00  0.00    -0.460 OA
BRANCH   2   3
ATOM      3  C   UNL A   1      36.724  23.222  25.854  1.00  0.00     0.339 C 
ATOM      4  O   UNL A   1      37.384  24.177  26.256  1.00  0.00    -0.249 OA
BRANCH   3   5
ATOM      5  C   UNL A   1      35.232  23.373  25.475  1.00  0.00     0.176 C 
ATOM      6  C   UNL A   1      34.905  24.841  25.160  1.00  0.00     0.057 C 
BRANCH   5   7
ATOM      7  O   UNL A   1      34.513  23.051  26.693  1.00  0.00    -0.377 OA
ATOM      8  H   UNL A   1      34.604  23.781  27.325  1.00  0.00     0.212 HD
ENDBRANCH   5   7
BRANCH   5   9
ATOM      9  C   UNL A   1      34.657  22.463  24.366  1.00  0.00     0.162 C 
BRANCH   9  10
ATOM     10  N   UNL A   1      33.333  21.894  24.541  1.00  0.00    -0.352 N 
ATOM     11  C   UNL A   1      33.019  20.594  24.830  1.00  0.00     0.226 C 
ATOM     12  H   UNL A   1      32.575  22.514  24.441  1.00  0.00     0.163 HD
ATOM     13  O   UNL A   1      31.855  20.323  25.127  1.00  0.00    -0.275 OA
BRANCH  11  14
ATOM     14  C   UNL A   1      34.083  19.512  24.827  1.00  0.00     0.168 C 
BRANCH  14  15
ATOM     15  C   UNL A   1      33.607  18.060  24.782  1.00  0.00     0.103 C 
ATOM     16  C   UNL A   1      32.795  17.504  23.571  1.00  0.00     0.069 C 
ATOM     17  C   UNL A   1      34.623  16.907  24.516  1.00  0.00     0.069 C 
ATOM     18  C   UNL A   1      34.111  16.892  23.068  1.00  0.00     0.013 C 
BRANCH  15  19
ATOM     19  N   UNL A   1      32.863  17.692  26.003  1.00  0.00    -0.352 N 
ATOM     20  H   UNL A   1      31.890  17.985  25.910  1.00  0.00     0.344 HD
ATOM     21  H   UNL A   1      33.283  18.155  26.809  1.00  0.00     0.344 HD
ATOM     22  H   UNL A   1      32.903  16.681  26.133  1.00  0.00     0.344 HD
ENDBRANCH  15  19
ENDBRANCH  14  15
ENDBRANCH  11  14
ENDBRANCH   9  10
ENDBRANCH   5   9
ENDBRANCH   3   5
ENDBRANCH   2   3
ENDBRANCH   1   2
BRANCH   1  23
ATOM     23  C   UNL A   1      39.047  20.327  25.762  1.00  0.00     0.275 C 
BRANCH  23  24
ATOM     24  O   UNL A   1      40.086  20.259  26.746  1.00  0.00    -0.458 OA
BRANCH  24  25
ATOM     25  C   UNL A   1      41.338  20.072  26.276  1.00  0.00     0.338 C 
ATOM     26  O   UNL A   1      41.769  19.122  25.643  1.00  0.00    -0.246 OA
BRANCH  25  27
ATOM     27  C   UNL A   1      42.104  21.275  26.606  1.00  0.00     0.060 A 
ATOM     28  C   UNL A   1      42.426  22.162  25.577  1.00  0.00     0.016 A 
ATOM     29  C   UNL A   1      42.475  21.545  27.919  1.00  0.00     0.016 A 
ATOM     30  C   UNL A   1      43.118  23.331  25.848  1.00  0.00     0.010 A 
ATOM     31  C   UNL A   1      43.109  22.756  28.205  1.00  0.00     0.010 A 
ATOM     32  C   UNL A   1      43.420  23.660  27.171  1.00  0.00    -0.014 A 
BRANCH  32  33
ATOM     33  C   UNL A   1      44.014  24.981  27.475  1.00  0.00     0.031 A 
ATOM     34  C   UNL A   1      43.145  26.096  27.970  1.00  0.00     0.074 A 
ATOM     35  C   UNL A   1      45.339  25.157  27.300  1.00  0.00     0.049 A 
ATOM     36  N   UNL A   1      43.447  27.354  28.152  1.00  0.00    -0.248 NA
ATOM     37  C   UNL A   1      41.752  25.753  28.296  1.00  0.00     0.031 C 
ATOM     38  C   UNL A   1      46.284  24.117  26.877  1.00  0.00     0.029 A 
ATOM     39  N   UNL A   1      46.126  26.269  27.460  1.00  0.00    -0.354 N 
ATOM     40  C   UNL A   1      42.273  27.964  28.574  1.00  0.00     0.074 A 
ATOM     41  C   UNL A   1      41.254  26.937  28.622  1.00  0.00     0.031 C 
ATOM     42  C   UNL A   1      47.521  24.633  26.836  1.00  0.00     0.029 A 
ATOM     43  C   UNL A   1      47.449  26.054  27.150  1.00  0.00     0.049 A 
ATOM     44  H   UNL A   1      45.777  27.137  27.765  1.00  0.00     0.167 HD
ATOM     45  C   UNL A   1      42.068  29.267  28.880  1.00  0.00     0.031 A 
ATOM     46  C   UNL A   1      48.481  26.917  27.086  1.00  0.00     0.031 A 
ATOM     47  C   UNL A   1      43.099  30.269  28.818  1.00  0.00     0.049 A 
ATOM     48  C   UNL A   1      48.216  28.366  27.380  1.00  0.00     0.074 A 
ATOM     49  C   UNL A   1      43.004  31.625  29.081  1.00  0.00     0.029 A 
ATOM     50  N   UNL A   1      44.421  30.020  28.471  1.00  0.00    -0.354 N 
ATOM     51  N   UNL A   1      47.089  28.940  27.731  1.00  0.00    -0.248 NA
ATOM     52  C   UNL A   1      49.353  29.286  27.253  1.00  0.00     0.031 C 
ATOM     53  C   UNL A   1      44.260  32.201  28.852  1.00  0.00     0.029 A 
ATOM     54  C   UNL A   1      45.149  31.196  28.500  1.00  0.00     0.049 A 
ATOM     55  H   UNL A   1      44.787  29.135  28.239  1.00  0.00     0.167 HD
ATOM     56  C   UNL A   1      47.382  30.288  27.879  1.00  0.00     0.074 A 
ATOM     57  C   UNL A   1      48.797  30.440  27.600  1.00  0.00     0.031 C 
ATOM     58  C   UNL A   1      46.557  31.312  28.212  1.00  0.00     0.031 A 
BRANCH  45  59
ATOM     59  C   UNL A   1      40.668  29.681  29.243  1.00  0.00    -0.014 A 
ATOM     60  C   UNL A   1      40.316  30.002  30.566  1.00  0.00     0.010 A 
ATOM     61  C   UNL A   1      39.684  29.751  28.239  1.00  0.00     0.010 A 
ATOM     62  C   UNL A   1      38.997  30.341  30.886  1.00  0.00     0.020 A 
ATOM     63  C   UNL A   1      38.370  30.114  28.549  1.00  0.00     0.020 A 
ATOM     64  C   UNL A   1      38.030  30.387  29.876  1.00  0.00     0.054 A 
BRANCH  64  65
ATOM     65  S   UNL A   1      36.327  30.831  30.316  1.00  0.00     0.124 S 
ATOM     66  O   UNL A   1      36.485  32.205  30.785  1.00  0.00    -0.237 OA
ATOM     67  O   UNL A   1      35.617  30.678  29.049  1.00  0.00    -0.237 OA
ATOM     68  O   UNL A   1      35.971  29.858  31.347  1.00  0.00    -0.744 OA
ENDBRANCH  64  65
ENDBRANCH  45  59
BRANCH  46  69
ATOM     69  C   UNL A   1      49.833  26.436  26.687  1.00  0.00    -0.014 A 
ATOM     70  C   UNL A   1      50.756  26.005  27.655  1.00  0.00     0.010 A 
ATOM     71  C   UNL A   1      50.191  26.372  25.327  1.00  0.00     0.010 A 
ATOM     72  C   UNL A   1      52.014  25.529  27.272  1.00  0.00     0.020 A 
ATOM     73  C   UNL A   1      51.437  25.869  24.938  1.00  0.00     0.020 A 
ATOM     74  C   UNL A   1      52.344  25.459  25.915  1.00  0.00     0.054 A 
BRANCH  74  75
ATOM     75  S   UNL A   1      53.956  24.775  25.437  1.00  0.00     0.124 S 
ATOM     76  O   UNL A   1      54.720  24.904  26.674  1.00  0.00    -0.237 OA
ATOM     77  O   UNL A   1      53.618  23.410  25.042  1.00  0.00    -0.237 OA
ATOM     78  O   UNL A   1      54.383  25.644  24.341  1.00  0.00    -0.744 OA
ENDBRANCH  74  75
ENDBRANCH  46  69
BRANCH  58  79
ATOM     79  C   UNL A   1      47.177  32.677  28.317  1.00  0.00    -0.014 A 
ATOM     80  C   UNL A   1      47.675  33.156  29.540  1.00  0.00     0.010 A 
ATOM     81  C   UNL A   1      47.303  33.468  27.161  1.00  0.00     0.010 A 
ATOM     82  C   UNL A   1      48.264  34.420  29.612  1.00  0.00     0.020 A 
ATOM     83  C   UNL A   1      47.913  34.723  27.225  1.00  0.00     0.020 A 
ATOM     84  C   UNL A   1      48.378  35.196  28.454  1.00  0.00     0.054 A 
BRANCH  84  85
ATOM     85  S   UNL A   1      49.186  36.815  28.562  1.00  0.00     0.124 S 
ATOM     86  O   UNL A   1      49.929  36.701  29.813  1.00  0.00    -0.237 OA
ATOM     87  O   UNL A   1      50.000  36.849  27.348  1.00  0.00    -0.237 OA
ATOM     88  O   UNL A   1      48.070  37.758  28.581  1.00  0.00    -0.744 OA
ENDBRANCH  84  85
ENDBRANCH  58  79
ENDBRANCH  32  33
ENDBRANCH  25  27
ENDBRANCH  24  25
ENDBRANCH  23  24
ENDBRANCH   1  23
TORSDOF 20
ENDMDL
MODEL 2
REMARK VINA RESULT:      -9.6      2.819      8.522
REMARK SMILES C[C@@](O)(CNC(=O)CC1([NH3+])CCC1)C(=O)OCCOC(=O)c1ccc(-c2c3nc(c(-c4ccc(S(=O)(=O)[O-])cc4)c4ccc([nH]4)c(-c4ccc(S(=O)(=O)[O-])cc4)c4nc(c(-c5ccc(S(=O)(=O)[O-])cc5)c5ccc2[nH]5)C=C4)C=C3)cc1
REMARK SMILES IDX 17 1 16 2 14 3 15 4 2 5 1 6 3 7 4 9 5 10 6 11 7 13 8 14 9 15
REMARK SMILES IDX 11 16 13 17 12 18 10 19 18 23 19 24 20 25 21 26 22 27 23 28
REMARK SMILES IDX 81 29 24 30 80 31 25 32 26 33 27 34 74 35 28 36 79 37 73 38
REMARK SMILES IDX 75 39 29 40 78 41 72 42 71 43 30 45 60 46 41 47 59 48 42 49
REMARK SMILES IDX 45 50 58 51 76 52 43 53 44 54 57 56 77 57 46 58 31 59 32 60
REMARK SMILES IDX 40 61 33 62 39 63 34 64 35 65 36 66 37 67 38 68 61 69 62 70
REMARK SMILES IDX 70 71 63 72 69 73 64 74 65 75 66 76 67 77 68 78 47 79 48 80
REMARK SMILES IDX 56 81 49 82 55 83 50 84 51 85 52 86 53 87 54 88
REMARK H PARENT 3 8 5 12 10 20 10 21 10 22 75 44 45 55
REMARK Flexibility Score: inf
ROOT
ATOM      1  C   UNL A   1      33.629  30.305  26.931  1.00  0.00     0.274 C 
ENDROOT
BRANCH   1   2
ATOM      2  O   UNL A   1      32.693  29.283  26.503  1.00  0.00    -0.460 OA
BRANCH   2   3
ATOM      3  C   UNL A   1      32.155  29.417  25.270  1.00  0.00     0.339 C 
ATOM      4  O   UNL A   1      31.141  30.073  25.039  1.00  0.00    -0.249 OA
BRANCH   3   5
ATOM      5  C   UNL A   1      32.842  28.579  24.167  1.00  0.00     0.176 C 
ATOM      6  C   UNL A   1      33.627  27.414  24.790  1.00  0.00     0.057 C 
BRANCH   5   7
ATOM      7  O   UNL A   1      33.831  29.472  23.594  1.00  0.00    -0.377 OA
ATOM      8  H   UNL A   1      34.331  29.901  24.307  1.00  0.00     0.212 HD
ENDBRANCH   5   7
BRANCH   5   9
ATOM      9  C   UNL A   1      31.983  28.057  22.993  1.00  0.00     0.162 C 
BRANCH   9  10
ATOM     10  N   UNL A   1      32.643  27.420  21.868  1.00  0.00    -0.352 N 
ATOM     11  C   UNL A   1      32.640  26.090  21.548  1.00  0.00     0.226 C 
ATOM     12  H   UNL A   1      33.151  28.013  21.268  1.00  0.00     0.163 HD
ATOM     13  O   UNL A   1      33.098  25.748  20.456  1.00  0.00    -0.275 OA
BRANCH  11  14
ATOM     14  C   UNL A   1      32.050  25.058  22.491  1.00  0.00     0.168 C 
BRANCH  14  15
ATOM     15  C   UNL A   1      32.889  23.813  22.781  1.00  0.00     0.103 C 
ATOM     16  C   UNL A   1      34.370  23.920  23.261  1.00  0.00     0.069 C 
ATOM     17  C   UNL A   1      32.626  22.970  24.067  1.00  0.00     0.069 C 
ATOM     18  C   UNL A   1      33.847  23.671  24.683  1.00  0.00     0.013 C 
BRANCH  15  19
ATOM     19  N   UNL A   1      32.872  22.868  21.647  1.00  0.00    -0.352 N 
ATOM     20  H   UNL A   1      31.956  22.422  21.590  1.00  0.00     0.344 HD
ATOM     21  H   UNL A   1      33.589  22.156  21.788  1.00  0.00     0.344 HD
ATOM     22  H   UNL A   1      33.060  23.373  20.781  1.00  0.00     0.344 HD
ENDBRANCH  15  19
ENDBRANCH  14  15
ENDBRANCH  11  14
ENDBRANCH   9  10
ENDBRANCH   5   9
ENDBRANCH   3   5
ENDBRANCH   2   3
ENDBRANCH   1   2
BRANCH   1  23
ATOM     23  C   UNL A   1      34.952  29.697  27.398  1.00  0.00     0.275 C 
BRANCH  23  24
ATOM     24  O   UNL A   1      35.851  30.761  27.736  1.00  0.00    -0.458 OA
BRANCH  24  25
ATOM     25  C   UNL A   1      36.366  30.729  28.983  1.00  0.00     0.338 C 
ATOM     26  O   UNL A   1      35.834  31.072  30.026  1.00  0.00    -0.246 OA
BRANCH  25  27
ATOM     27  C   UNL A   1      37.698  30.126  28.882  1.00  0.00     0.060 A 
ATOM     28  C   UNL A   1      38.211  29.856  27.613  1.00  0.00     0.016 A 
ATOM     29  C   UNL A   1      38.447  29.861  30.024  1.00  0.00     0.016 A 
ATOM     30  C   UNL A   1      39.480  29.321  27.468  1.00  0.00     0.010 A 
ATOM     31  C   UNL A   1      39.753  29.388  29.878  1.00  0.00     0.010 A 
ATOM     32  C   UNL A   1      40.280  29.130  28.598  1.00  0.00    -0.014 A 
BRANCH  32  33
ATOM     33  C   UNL A   1      41.689  28.711  28.431  1.00  0.00     0.031 A 
ATOM     34  C   UNL A   1      42.790  29.716  28.578  1.00  0.00     0.074 A 
ATOM     35  C   UNL A   1      41.958  27.422  28.146  1.00  0.00     0.049 A 
ATOM     36  N   UNL A   1      44.065  29.580  28.330  1.00  0.00    -0.248 NA
ATOM     37  C   UNL A   1      42.405  31.051  29.063  1.00  0.00     0.031 C 
ATOM     38  C   UNL A   1      40.960  26.352  28.038  1.00  0.00     0.029 A 
ATOM     39  N   UNL A   1      43.147  26.786  27.901  1.00  0.00    -0.354 N 
ATOM     40  C   UNL A   1      44.632  30.821  28.587  1.00  0.00     0.074 A 
ATOM     41  C   UNL A   1      43.562  31.698  29.012  1.00  0.00     0.031 C 
ATOM     42  C   UNL A   1      41.580  25.192  27.774  1.00  0.00     0.029 A 
ATOM     43  C   UNL A   1      43.006  25.447  27.615  1.00  0.00     0.049 A 
ATOM     44  H   UNL A   1      44.018  27.243  27.926  1.00  0.00     0.167 HD
ATOM     45  C   UNL A   1      45.929  31.192  28.465  1.00  0.00     0.031 A 
ATOM     46  C   UNL A   1      43.919  24.536  27.228  1.00  0.00     0.031 A 
ATOM     47  C   UNL A   1      46.973  30.300  28.034  1.00  0.00     0.049 A 
ATOM     48  C   UNL A   1      45.341  24.986  27.049  1.00  0.00     0.074 A 
ATOM     49  C   UNL A   1      48.318  30.570  27.849  1.00  0.00     0.029 A 
ATOM     50  N   UNL A   1      46.787  28.959  27.725  1.00  0.00    -0.354 N 
ATOM     51  N   UNL A   1      45.857  26.177  27.250  1.00  0.00    -0.248 NA
ATOM     52  C   UNL A   1      46.300  23.979  26.579  1.00  0.00     0.031 C 
ATOM     53  C   UNL A   1      48.936  29.401  27.388  1.00  0.00     0.029 A 
ATOM     54  C   UNL A   1      47.987  28.390  27.338  1.00  0.00     0.049 A 
ATOM     55  H   UNL A   1      45.926  28.482  27.774  1.00  0.00     0.167 HD
ATOM     56  C   UNL A   1      47.205  26.061  26.940  1.00  0.00     0.074 A 
ATOM     57  C   UNL A   1      47.427  24.679  26.560  1.00  0.00     0.031 C 
ATOM     58  C   UNL A   1      48.173  27.010  26.962  1.00  0.00     0.031 A 
BRANCH  45  59
ATOM     59  C   UNL A   1      46.265  32.633  28.740  1.00  0.00    -0.014 A 
ATOM     60  C   UNL A   1      46.648  33.067  30.022  1.00  0.00     0.010 A 
ATOM     61  C   UNL A   1      46.197  33.571  27.694  1.00  0.00     0.010 A 
ATOM     62  C   UNL A   1      46.914  34.418  30.262  1.00  0.00     0.020 A 
ATOM     63  C   UNL A   1      46.486  34.920  27.923  1.00  0.00     0.020 A 
ATOM     64  C   UNL A   1      46.822  35.339  29.212  1.00  0.00     0.054 A 
BRANCH  64  65
ATOM     65  S   UNL A   1      47.172  37.087  29.549  1.00  0.00     0.124 S 
ATOM     66  O   UNL A   1      45.980  37.741  29.013  1.00  0.00    -0.237 OA
ATOM     67  O   UNL A   1      47.301  37.115  31.003  1.00  0.00    -0.237 OA
ATOM     68  O   UNL A   1      48.407  37.342  28.811  1.00  0.00    -0.744 OA
ENDBRANCH  64  65
ENDBRANCH  45  59
BRANCH  46  69
ATOM     69  C   UNL A   1      43.502  23.136  26.943  1.00  0.00    -0.014 A 
ATOM     70  C   UNL A   1      43.668  22.584  25.661  1.00  0.00     0.010 A 
ATOM     71  C   UNL A   1      42.967  22.331  27.967  1.00  0.00     0.010 A 
ATOM     72  C   UNL A   1      43.299  21.259  25.407  1.00  0.00     0.020 A 
ATOM     73  C   UNL A   1      42.625  20.998  27.724  1.00  0.00     0.020 A 
ATOM     74  C   UNL A   1      42.784  20.472  26.442  1.00  0.00     0.054 A 
BRANCH  74  75
ATOM     75  S   UNL A   1      42.375  18.736  26.106  1.00  0.00     0.124 S 
ATOM     76  O   UNL A   1      40.979  18.827  25.691  1.00  0.00    -0.237 OA
ATOM     77  O   UNL A   1      43.327  18.383  25.055  1.00  0.00    -0.237 OA
ATOM     78  O   UNL A   1      42.607  18.078  27.391  1.00  0.00    -0.744 OA
ENDBRANCH  74  75
ENDBRANCH  46  69
BRANCH  58  79
ATOM     79  C   UNL A   1      49.562  26.573  26.591  1.00  0.00    -0.014 A 
ATOM     80  C   UNL A   1      50.010  26.632  25.261  1.00  0.00     0.010 A 
ATOM     81  C   UNL A   1      50.441  26.140  27.600  1.00  0.00     0.010 A 
ATOM     82  C   UNL A   1      51.311  26.238  24.941  1.00  0.00     0.020 A 
ATOM     83  C   UNL A   1      51.750  25.768  27.286  1.00  0.00     0.020 A 
ATOM     84  C   UNL A   1      52.172  25.807  25.954  1.00  0.00     0.054 A 
BRANCH  84  85
ATOM     85  S   UNL A   1      53.870  25.342  25.522  1.00  0.00     0.124 S 
ATOM     86  O   UNL A   1      53.655  24.212  24.623  1.00  0.00    -0.237 OA
ATOM     87  O   UNL A   1      54.386  26.557  24.894  1.00  0.00    -0.237 OA
ATOM     88  O   UNL A   1      54.477  25.010  26.809  1.00  0.00    -0.744 OA
ENDBRANCH  84  85
ENDBRANCH  58  79
ENDBRANCH  32  33
ENDBRANCH  25  27
ENDBRANCH  24  25
ENDBRANCH  23  24
ENDBRANCH   1  23
TORSDOF 20
ENDMDL
MODEL 3
REMARK VINA RESULT:      -9.6      3.707      8.046
REMARK SMILES C[C@@](O)(CNC(=O)CC1([NH3+])CCC1)C(=O)OCCOC(=O)c1ccc(-c2c3nc(c(-c4ccc(S(=O)(=O)[O-])cc4)c4ccc([nH]4)c(-c4ccc(S(=O)(=O)[O-])cc4)c4nc(c(-c5ccc(S(=O)(=O)[O-])cc5)c5ccc2[nH]5)C=C4)C=C3)cc1
REMARK SMILES IDX 17 1 16 2 14 3 15 4 2 5 1 6 3 7 4 9 5 10 6 11 7 13 8 14 9 15
REMARK SMILES IDX 11 16 13 17 12 18 10 19 18 23 19 24 20 25 21 26 22 27 23 28
REMARK SMILES IDX 81 29 24 30 80 31 25 32 26 33 27 34 74 35 28 36 79 37 73 38
REMARK SMILES IDX 75 39 29 40 78 41 72 42 71 43 30 45 60 46 41 47 59 48 42 49
REMARK SMILES IDX 45 50 58 51 76 52 43 53 44 54 57 56 77 57 46 58 31 59 32 60
REMARK SMILES IDX 40 61 33 62 39 63 34 64 35 65 36 66 37 67 38 68 61 69 62 70
REMARK SMILES IDX 70 71 63 72 69 73 64 74 65 75 66 76 67 77 68 78 47 79 48 80
REMARK SMILES IDX 56 81 49 82 55 83 50 84 51 85 52 86 53 87 54 88
REMARK H PARENT 3 8 5 12 10 20 10 21 10 22 75 44 45 55
REMARK Flexibility Score: inf
ROOT
ATOM      1  C   UNL A   1      31.912  28.954  25.822  1.00  0.00     0.274 C 
ENDROOT
BRANCH   1   2
ATOM      2  O   UNL A   1      31.355  28.033  24.849  1.00  0.00    -0.460 OA
BRANCH   2   3
ATOM      3  C   UNL A   1      30.801  26.894  25.324  1.00  0.00     0.339 C 
ATOM      4  O   UNL A   1      30.737  26.617  26.520  1.00  0.00    -0.249 OA
BRANCH   3   5
ATOM      5  C   UNL A   1      30.353  25.888  24.237  1.00  0.00     0.176 C 
ATOM      6  C   UNL A   1      30.910  26.297  22.865  1.00  0.00     0.057 C 
BRANCH   5   7
ATOM      7  O   UNL A   1      28.915  26.057  24.157  1.00  0.00    -0.377 OA
ATOM      8  H   UNL A   1      28.582  26.407  24.998  1.00  0.00     0.212 HD
ENDBRANCH   5   7
BRANCH   5   9
ATOM      9  C   UNL A   1      30.611  24.383  24.474  1.00  0.00     0.162 C 
BRANCH   9  10
ATOM     10  N   UNL A   1      30.537  23.862  25.827  1.00  0.00    -0.352 N 
ATOM     11  C   UNL A   1      31.298  22.867  26.377  1.00  0.00     0.226 C 
ATOM     12  H   UNL A   1      29.863  24.272  26.416  1.00  0.00     0.163 HD
ATOM     13  O   UNL A   1      31.229  22.678  27.592  1.00  0.00    -0.275 OA
BRANCH  11  14
ATOM     14  C   UNL A   1      32.238  22.037  25.522  1.00  0.00     0.168 C 
BRANCH  14  15
ATOM     15  C   UNL A   1      33.619  21.725  26.099  1.00  0.00     0.103 C 
ATOM     16  C   UNL A   1      34.810  21.303  25.183  1.00  0.00     0.069 C 
ATOM     17  C   UNL A   1      34.536  22.878  26.610  1.00  0.00     0.069 C 
ATOM     18  C   UNL A   1      35.301  22.755  25.283  1.00  0.00     0.013 C 
BRANCH  15  19
ATOM     19  N   UNL A   1      33.543  20.732  27.190  1.00  0.00    -0.352 N 
ATOM     20  H   UNL A   1      33.604  19.792  26.799  1.00  0.00     0.344 HD
ATOM     21  H   UNL A   1      32.658  20.839  27.685  1.00  0.00     0.344 HD
ATOM     22  H   UNL A   1      34.316  20.882  27.839  1.00  0.00     0.344 HD
ENDBRANCH  15  19
ENDBRANCH  14  15
ENDBRANCH  11  14
ENDBRANCH   9  10
ENDBRANCH   5   9
ENDBRANCH   3   5
ENDBRANCH   2   3
ENDBRANCH   1   2
BRANCH   1  23
ATOM     23  C   UNL A   1      33.435  29.035  25.713  1.00  0.00     0.275 C 
BRANCH  23  24
ATOM     24  O   UNL A   1      33.996  28.869  27.020  1.00  0.00    -0.458 OA
BRANCH  24  25
ATOM     25  C   UNL A   1      34.363  30.002  27.657  1.00  0.00     0.338 C 
ATOM     26  O   UNL A   1      33.668  30.963  27.942  1.00  0.00    -0.246 OA
BRANCH  25  27
ATOM     27  C   UNL A   1      35.773  29.851  28.023  1.00  0.00     0.060 A 
ATOM     28  C   UNL A   1      36.083  29.447  29.322  1.00  0.00     0.016 A 
ATOM     29  C   UNL A   1      36.779  30.074  27.088  1.00  0.00     0.016 A 
ATOM     30  C   UNL A   1      37.401  29.256  29.702  1.00  0.00     0.010 A 
ATOM     31  C   UNL A   1      38.103  29.813  27.448  1.00  0.00     0.010 A 
ATOM     32  C   UNL A   1      38.418  29.389  28.753  1.00  0.00    -0.014 A 
BRANCH  32  33
ATOM     33  C   UNL A   1      39.806  29.030  29.117  1.00  0.00     0.031 A 
ATOM     34  C   UNL A   1      40.679  30.028  29.815  1.00  0.00     0.074 A 
ATOM     35  C   UNL A   1      40.264  27.800  28.811  1.00  0.00     0.049 A 
ATOM     36  N   UNL A   1      41.954  29.957  30.086  1.00  0.00    -0.248 NA
ATOM     37  C   UNL A   1      40.032  31.272  30.262  1.00  0.00     0.031 C 
ATOM     38  C   UNL A   1      39.476  26.734  28.182  1.00  0.00     0.029 A 
ATOM     39  N   UNL A   1      41.499  27.232  28.989  1.00  0.00    -0.354 N 
ATOM     40  C   UNL A   1      42.276  31.161  30.697  1.00  0.00     0.074 A 
ATOM     41  C   UNL A   1      41.061  31.945  30.758  1.00  0.00     0.031 C 
ATOM     42  C   UNL A   1      40.238  25.638  28.052  1.00  0.00     0.029 A 
ATOM     43  C   UNL A   1      41.586  25.944  28.512  1.00  0.00     0.049 A 
ATOM     44  H   UNL A   1      42.251  27.700  29.417  1.00  0.00     0.167 HD
ATOM     45  C   UNL A   1      43.482  31.575  31.152  1.00  0.00     0.031 A 
ATOM     46  C   UNL A   1      42.645  25.118  28.417  1.00  0.00     0.031 A 
ATOM     47  C   UNL A   1      44.678  30.777  31.073  1.00  0.00     0.049 A 
ATOM     48  C   UNL A   1      43.983  25.620  28.881  1.00  0.00     0.074 A 
ATOM     49  C   UNL A   1      45.961  31.099  31.478  1.00  0.00     0.029 A 
ATOM     50  N   UNL A   1      44.733  29.489  30.555  1.00  0.00    -0.354 N 
ATOM     51  N   UNL A   1      44.284  26.782  29.414  1.00  0.00    -0.248 NA
ATOM     52  C   UNL A   1      45.124  24.712  28.718  1.00  0.00     0.031 C 
ATOM     53  C   UNL A   1      46.799  30.022  31.167  1.00  0.00     0.029 A 
ATOM     54  C   UNL A   1      46.028  29.008  30.618  1.00  0.00     0.049 A 
ATOM     55  H   UNL A   1      43.962  28.991  30.197  1.00  0.00     0.167 HD
ATOM     56  C   UNL A   1      45.649  26.741  29.660  1.00  0.00     0.074 A 
ATOM     57  C   UNL A   1      46.109  25.432  29.239  1.00  0.00     0.031 C 
ATOM     58  C   UNL A   1      46.453  27.699  30.185  1.00  0.00     0.031 A 
BRANCH  45  59
ATOM     59  C   UNL A   1      43.570  32.969  31.710  1.00  0.00    -0.014 A 
ATOM     60  C   UNL A   1      43.841  34.076  30.885  1.00  0.00     0.010 A 
ATOM     61  C   UNL A   1      43.378  33.176  33.089  1.00  0.00     0.010 A 
ATOM     62  C   UNL A   1      43.962  35.356  31.435  1.00  0.00     0.020 A 
ATOM     63  C   UNL A   1      43.472  34.458  33.639  1.00  0.00     0.020 A 
ATOM     64  C   UNL A   1      43.784  35.538  32.811  1.00  0.00     0.054 A 
BRANCH  64  65
ATOM     65  S   UNL A   1      43.945  37.209  33.500  1.00  0.00     0.124 S 
ATOM     66  O   UNL A   1      44.007  38.028  32.292  1.00  0.00    -0.237 OA
ATOM     67  O   UNL A   1      42.727  37.349  34.292  1.00  0.00    -0.237 OA
ATOM     68  O   UNL A   1      45.184  37.147  34.273  1.00  0.00    -0.744 OA
ENDBRANCH  64  65
ENDBRANCH  45  59
BRANCH  46  69
ATOM     69  C   UNL A   1      42.484  23.763  27.821  1.00  0.00    -0.014 A 
ATOM     70  C   UNL A   1      42.768  23.537  26.464  1.00  0.00     0.010 A 
ATOM     71  C   UNL A   1      42.077  22.679  28.622  1.00  0.00     0.010 A 
ATOM     72  C   UNL A   1      42.641  22.256  25.917  1.00  0.00     0.020 A 
ATOM     73  C   UNL A   1      41.977  21.391  28.086  1.00  0.00     0.020 A 
ATOM     74  C   UNL A   1      42.251  21.190  26.733  1.00  0.00     0.054 A 
BRANCH  74  75
ATOM     75  S   UNL A   1      42.158  19.524  26.018  1.00  0.00     0.124 S 
ATOM     76  O   UNL A   1      40.729  19.386  25.756  1.00  0.00    -0.237 OA
ATOM     77  O   UNL A   1      43.010  19.637  24.837  1.00  0.00    -0.237 OA
ATOM     78  O   UNL A   1      42.688  18.669  27.079  1.00  0.00    -0.744 OA
ENDBRANCH  74  75
ENDBRANCH  46  69
BRANCH  58  79
ATOM     79  C   UNL A   1      47.905  27.349  30.353  1.00  0.00    -0.014 A 
ATOM     80  C   UNL A   1      48.855  27.710  29.384  1.00  0.00     0.010 A 
ATOM     81  C   UNL A   1      48.324  26.692  31.523  1.00  0.00     0.010 A 
ATOM     82  C   UNL A   1      50.203  27.391  29.569  1.00  0.00     0.020 A 
ATOM     83  C   UNL A   1      49.674  26.393  31.722  1.00  0.00     0.020 A 
ATOM     84  C   UNL A   1      50.603  26.734  30.736  1.00  0.00     0.054 A 
BRANCH  84  85
ATOM     85  S   UNL A   1      52.363  26.370  30.975  1.00  0.00     0.124 S 
ATOM     86  O   UNL A   1      52.314  25.107  31.706  1.00  0.00    -0.237 OA
ATOM     87  O   UNL A   1      52.863  26.285  29.604  1.00  0.00    -0.237 OA
ATOM     88  O   UNL A   1      52.852  27.515  31.739  1.00  0.00    -0.744 OA
ENDBRANCH  84  85
ENDBRANCH  58  79
ENDBRANCH  32  33
ENDBRANCH  25  27
ENDBRANCH  24  25
ENDBRANCH  23  24
ENDBRANCH   1  23
TORSDOF 20
ENDMDL
