MODEL 1
REMARK VINA RESULT:     -12.2      0.000      0.000
REMARK SMILES Cc1cccc(OCC(=O)Nc2cc(C(=O)OCCOC(=O)c3ccc(-c4c5nc(c(-c6ccc(S(=O)(=O)[O-])cc6)c6ccc([nH]6)c(-c6ccc(S(=O)(=O)[O-])cc6)c6nc(c(-c7ccc(S(=O)(=O)[O-])cc7)c7ccc4[nH]7)C=C6)C=C5)cc3)c(Cl)cc2Cl)c1
REMARK SMILES IDX 18 1 17 2 15 3 16 4 14 5 12 6 13 7 86 8 85 9 87 10 83 11
REMARK SMILES IDX 84 12 11 13 9 14 10 15 8 17 7 18 6 19 1 20 2 21 3 22 88 23
REMARK SMILES IDX 4 24 5 25 19 26 20 27 21 28 22 29 23 30 24 31 82 32 25 33
REMARK SMILES IDX 81 34 26 35 27 36 28 37 75 38 29 39 80 40 74 41 76 42 30 43
REMARK SMILES IDX 79 44 73 45 72 46 31 48 61 49 42 50 60 51 43 52 46 53 59 54
REMARK SMILES IDX 77 55 44 56 45 57 58 59 78 60 47 61 32 62 33 63 41 64 34 65
REMARK SMILES IDX 40 66 35 67 36 68 37 69 38 70 39 71 62 72 63 73 71 74 64 75
REMARK SMILES IDX 70 76 65 77 66 78 67 79 68 80 69 81 48 82 49 83 57 84 50 85
REMARK SMILES IDX 56 86 51 87 52 88 53 89 54 90 55 91
REMARK H PARENT 11 16 76 47 46 58
REMARK Flexibility Score: inf
ROOT
ATOM      1  C   UNL A   1      33.239  29.349  26.691  1.00  0.00     0.275 C 
ENDROOT
BRANCH   1   2
ATOM      2  O   UNL A   1      32.631  28.395  25.796  1.00  0.00    -0.458 OA
BRANCH   2   3
ATOM      3  C   UNL A   1      32.193  27.239  26.347  1.00  0.00     0.339 C 
ATOM      4  O   UNL A   1      31.375  27.125  27.242  1.00  0.00    -0.246 OA
BRANCH   3   5
ATOM      5  C   UNL A   1      32.664  26.107  25.523  1.00  0.00     0.080 A 
ATOM      6  C   UNL A   1      34.567  24.672  24.997  1.00  0.00     0.061 A 
ATOM      7  C   UNL A   1      33.943  25.605  25.825  1.00  0.00     0.045 A 
ATOM      8  C   UNL A   1      33.880  24.228  23.855  1.00  0.00     0.066 A 
ATOM      9  C   UNL A   1      32.595  24.690  23.567  1.00  0.00     0.044 A 
ATOM     10  Cl  UNL A   1      34.620  23.127  22.743  1.00  0.00    -0.082 Cl
ATOM     11  C   UNL A   1      32.002  25.661  24.379  1.00  0.00     0.057 A 
ATOM     12  Cl  UNL A   1      30.521  26.330  23.824  1.00  0.00    -0.083 Cl
BRANCH   6  13
ATOM     13  N   UNL A   1      35.920  24.325  25.155  1.00  0.00    -0.322 N 
ATOM     14  C   UNL A   1      36.535  23.337  25.871  1.00  0.00     0.262 C 
ATOM     15  O   UNL A   1      37.732  23.480  26.147  1.00  0.00    -0.271 OA
ATOM     16  H   UNL A   1      36.542  24.903  24.658  1.00  0.00     0.170 HD
BRANCH  14  17
ATOM     17  C   UNL A   1      35.827  21.990  26.122  1.00  0.00     0.329 C 
BRANCH  17  18
ATOM     18  O   UNL A   1      34.782  21.818  27.048  1.00  0.00    -0.484 OA
BRANCH  18  19
ATOM     19  C   UNL A   1      33.491  21.855  26.614  1.00  0.00     0.120 A 
ATOM     20  C   UNL A   1      30.140  23.622  26.920  1.00  0.00     0.044 C 
ATOM     21  C   UNL A   1      31.235  22.719  26.435  1.00  0.00    -0.047 A 
ATOM     22  C   UNL A   1      31.018  21.906  25.316  1.00  0.00     0.003 A 
ATOM     23  C   UNL A   1      32.475  22.679  27.092  1.00  0.00     0.049 A 
ATOM     24  C   UNL A   1      32.013  21.041  24.874  1.00  0.00     0.004 A 
ATOM     25  C   UNL A   1      33.239  21.009  25.531  1.00  0.00     0.046 A 
ENDBRANCH  18  19
ENDBRANCH  17  18
ENDBRANCH  14  17
ENDBRANCH   6  13
ENDBRANCH   3   5
ENDBRANCH   2   3
ENDBRANCH   1   2
BRANCH   1  26
ATOM     26  C   UNL A   1      34.746  29.155  26.958  1.00  0.00     0.275 C 
BRANCH  26  27
ATOM     27  O   UNL A   1      35.161  29.588  28.261  1.00  0.00    -0.458 OA
BRANCH  27  28
ATOM     28  C   UNL A   1      36.073  30.604  28.223  1.00  0.00     0.338 C 
ATOM     29  O   UNL A   1      35.779  31.777  28.330  1.00  0.00    -0.246 OA
BRANCH  28  30
ATOM     30  C   UNL A   1      37.394  29.992  28.546  1.00  0.00     0.060 A 
ATOM     31  C   UNL A   1      37.516  29.155  29.666  1.00  0.00     0.016 A 
ATOM     32  C   UNL A   1      38.363  29.966  27.536  1.00  0.00     0.016 A 
ATOM     33  C   UNL A   1      38.561  28.229  29.728  1.00  0.00     0.010 A 
ATOM     34  C   UNL A   1      39.312  28.975  27.534  1.00  0.00     0.010 A 
ATOM     35  C   UNL A   1      39.437  28.128  28.641  1.00  0.00    -0.014 A 
BRANCH  35  36
ATOM     36  C   UNL A   1      40.735  27.473  28.710  1.00  0.00     0.031 A 
ATOM     37  C   UNL A   1      40.996  26.087  28.294  1.00  0.00     0.074 A 
ATOM     38  C   UNL A   1      41.718  28.295  29.142  1.00  0.00     0.049 A 
ATOM     39  N   UNL A   1      41.883  25.332  28.847  1.00  0.00    -0.248 NA
ATOM     40  C   UNL A   1      40.278  25.430  27.205  1.00  0.00     0.031 C 
ATOM     41  C   UNL A   1      43.151  28.084  29.195  1.00  0.00     0.029 A 
ATOM     42  N   UNL A   1      41.525  29.499  29.834  1.00  0.00    -0.354 N 
ATOM     43  C   UNL A   1      42.076  24.254  28.010  1.00  0.00     0.074 A 
ATOM     44  C   UNL A   1      40.977  24.293  27.070  1.00  0.00     0.031 C 
ATOM     45  C   UNL A   1      43.650  28.899  30.145  1.00  0.00     0.029 A 
ATOM     46  C   UNL A   1      42.519  29.553  30.800  1.00  0.00     0.049 A 
ATOM     47  H   UNL A   1      40.825  30.170  29.667  1.00  0.00     0.167 HD
ATOM     48  C   UNL A   1      43.248  23.558  28.055  1.00  0.00     0.031 A 
ATOM     49  C   UNL A   1      42.204  29.508  32.126  1.00  0.00     0.031 A 
ATOM     50  C   UNL A   1      44.167  24.145  29.026  1.00  0.00     0.049 A 
ATOM     51  C   UNL A   1      42.841  28.300  32.764  1.00  0.00     0.074 A 
ATOM     52  C   UNL A   1      45.209  25.044  28.868  1.00  0.00     0.029 A 
ATOM     53  N   UNL A   1      43.861  24.124  30.381  1.00  0.00    -0.354 N 
ATOM     54  N   UNL A   1      43.111  27.193  32.125  1.00  0.00    -0.248 NA
ATOM     55  C   UNL A   1      43.273  28.274  34.155  1.00  0.00     0.031 C 
ATOM     56  C   UNL A   1      45.457  25.648  30.125  1.00  0.00     0.029 A 
ATOM     57  C   UNL A   1      44.590  25.089  31.048  1.00  0.00     0.049 A 
ATOM     58  H   UNL A   1      43.218  23.510  30.805  1.00  0.00     0.167 HD
ATOM     59  C   UNL A   1      43.867  26.387  32.935  1.00  0.00     0.074 A 
ATOM     60  C   UNL A   1      43.897  27.085  34.211  1.00  0.00     0.031 C 
ATOM     61  C   UNL A   1      44.477  25.250  32.490  1.00  0.00     0.031 A 
BRANCH  48  62
ATOM     62  C   UNL A   1      43.681  22.597  26.971  1.00  0.00    -0.014 A 
ATOM     63  C   UNL A   1      42.943  21.413  26.756  1.00  0.00     0.010 A 
ATOM     64  C   UNL A   1      44.808  22.792  26.149  1.00  0.00     0.010 A 
ATOM     65  C   UNL A   1      43.347  20.434  25.841  1.00  0.00     0.020 A 
ATOM     66  C   UNL A   1      45.234  21.809  25.234  1.00  0.00     0.020 A 
ATOM     67  C   UNL A   1      44.506  20.627  25.096  1.00  0.00     0.054 A 
BRANCH  67  68
ATOM     68  S   UNL A   1      45.036  19.312  23.964  1.00  0.00     0.124 S 
ATOM     69  O   UNL A   1      44.487  19.757  22.686  1.00  0.00    -0.237 OA
ATOM     70  O   UNL A   1      46.491  19.368  24.076  1.00  0.00    -0.237 OA
ATOM     71  O   UNL A   1      44.416  18.110  24.515  1.00  0.00    -0.744 OA
ENDBRANCH  67  68
ENDBRANCH  48  62
BRANCH  49  72
ATOM     72  C   UNL A   1      40.888  30.110  32.518  1.00  0.00    -0.014 A 
ATOM     73  C   UNL A   1      40.564  31.385  31.993  1.00  0.00     0.010 A 
ATOM     74  C   UNL A   1      39.865  29.377  33.143  1.00  0.00     0.010 A 
ATOM     75  C   UNL A   1      39.251  31.869  32.002  1.00  0.00     0.020 A 
ATOM     76  C   UNL A   1      38.545  29.870  33.172  1.00  0.00     0.020 A 
ATOM     77  C   UNL A   1      38.244  31.098  32.576  1.00  0.00     0.054 A 
BRANCH  77  78
ATOM     78  S   UNL A   1      36.520  31.645  32.366  1.00  0.00     0.124 S 
ATOM     79  O   UNL A   1      36.206  32.177  33.688  1.00  0.00    -0.237 OA
ATOM     80  O   UNL A   1      36.647  32.637  31.301  1.00  0.00    -0.237 OA
ATOM     81  O   UNL A   1      35.829  30.412  32.001  1.00  0.00    -0.744 OA
ENDBRANCH  77  78
ENDBRANCH  49  72
BRANCH  61  82
ATOM     82  C   UNL A   1      45.179  24.231  33.351  1.00  0.00    -0.014 A 
ATOM     83  C   UNL A   1      46.479  24.393  33.848  1.00  0.00     0.010 A 
ATOM     84  C   UNL A   1      44.446  23.108  33.809  1.00  0.00     0.010 A 
ATOM     85  C   UNL A   1      47.043  23.448  34.714  1.00  0.00     0.020 A 
ATOM     86  C   UNL A   1      44.980  22.188  34.710  1.00  0.00     0.020 A 
ATOM     87  C   UNL A   1      46.289  22.354  35.140  1.00  0.00     0.054 A 
BRANCH  87  88
ATOM     88  S   UNL A   1      46.995  21.192  36.332  1.00  0.00     0.124 S 
ATOM     89  O   UNL A   1      47.411  22.085  37.410  1.00  0.00    -0.237 OA
ATOM     90  O   UNL A   1      45.867  20.317  36.642  1.00  0.00    -0.237 OA
ATOM     91  O   UNL A   1      48.080  20.557  35.588  1.00  0.00    -0.744 OA
ENDBRANCH  87  88
ENDBRANCH  61  82
ENDBRANCH  35  36
ENDBRANCH  28  30
ENDBRANCH  27  28
ENDBRANCH  26  27
ENDBRANCH   1  26
TORSDOF 18
ENDMDL
MODEL 2
REMARK VINA RESULT:     -12.2      0.939      1.650
REMARK SMILES Cc1cccc(OCC(=O)Nc2cc(C(=O)OCCOC(=O)c3ccc(-c4c5nc(c(-c6ccc(S(=O)(=O)[O-])cc6)c6ccc([nH]6)c(-c6ccc(S(=O)(=O)[O-])cc6)c6nc(c(-c7ccc(S(=O)(=O)[O-])cc7)c7ccc4[nH]7)C=C6)C=C5)cc3)c(Cl)cc2Cl)c1
REMARK SMILES IDX 18 1 17 2 15 3 16 4 14 5 12 6 13 7 86 8 85 9 87 10 83 11
REMARK SMILES IDX 84 12 11 13 9 14 10 15 8 17 7 18 6 19 1 20 2 21 3 22 88 23
REMARK SMILES IDX 4 24 5 25 19 26 20 27 21 28 22 29 23 30 24 31 82 32 25 33
REMARK SMILES IDX 81 34 26 35 27 36 28 37 75 38 29 39 80 40 74 41 76 42 30 43
REMARK SMILES IDX 79 44 73 45 72 46 31 48 61 49 42 50 60 51 43 52 46 53 59 54
REMARK SMILES IDX 77 55 44 56 45 57 58 59 78 60 47 61 32 62 33 63 41 64 34 65
REMARK SMILES IDX 40 66 35 67 36 68 37 69 38 70 39 71 62 72 63 73 71 74 64 75
REMARK SMILES IDX 70 76 65 77 66 78 67 79 68 80 69 81 48 82 49 83 57 84 50 85
REMARK SMILES IDX 56 86 51 87 52 88 53 89 54 90 55 91
REMARK H PARENT 11 16 76 47 46 58
REMARK Flexibility Score: inf
ROOT
ATOM      1  C   UNL A   1      33.230  28.960  27.137  1.00  0.00     0.275 C 
ENDROOT
BRANCH   1   2
ATOM      2  O   UNL A   1      32.781  28.128  26.047  1.00  0.00    -0.458 OA
BRANCH   2   3
ATOM      3  C   UNL A   1      32.146  26.980  26.382  1.00  0.00     0.339 C 
ATOM      4  O   UNL A   1      31.182  26.870  27.117  1.00  0.00    -0.246 OA
BRANCH   3   5
ATOM      5  C   UNL A   1      32.641  25.890  25.516  1.00  0.00     0.080 A 
ATOM      6  C   UNL A   1      34.559  24.483  24.969  1.00  0.00     0.061 A 
ATOM      7  C   UNL A   1      33.913  25.374  25.826  1.00  0.00     0.045 A 
ATOM      8  C   UNL A   1      33.902  24.096  23.789  1.00  0.00     0.066 A 
ATOM      9  C   UNL A   1      32.625  24.572  23.491  1.00  0.00     0.044 A 
ATOM     10  Cl  UNL A   1      34.673  23.052  22.643  1.00  0.00    -0.082 Cl
ATOM     11  C   UNL A   1      32.009  25.501  24.335  1.00  0.00     0.057 A 
ATOM     12  Cl  UNL A   1      30.543  26.196  23.775  1.00  0.00    -0.083 Cl
BRANCH   6  13
ATOM     13  N   UNL A   1      35.908  24.129  25.146  1.00  0.00    -0.322 N 
ATOM     14  C   UNL A   1      36.505  23.095  25.810  1.00  0.00     0.262 C 
ATOM     15  O   UNL A   1      37.692  23.221  26.132  1.00  0.00    -0.271 OA
ATOM     16  H   UNL A   1      36.542  24.742  24.710  1.00  0.00     0.170 HD
BRANCH  14  17
ATOM     17  C   UNL A   1      35.795  21.732  25.943  1.00  0.00     0.329 C 
BRANCH  17  18
ATOM     18  O   UNL A   1      35.943  20.682  25.018  1.00  0.00    -0.484 OA
BRANCH  18  19
ATOM     19  C   UNL A   1      34.875  19.883  24.737  1.00  0.00     0.120 A 
ATOM     20  C   UNL A   1      33.719  16.317  24.112  1.00  0.00     0.044 C 
ATOM     21  C   UNL A   1      33.705  17.795  24.364  1.00  0.00    -0.047 A 
ATOM     22  C   UNL A   1      32.481  18.465  24.488  1.00  0.00     0.003 A 
ATOM     23  C   UNL A   1      34.905  18.515  24.476  1.00  0.00     0.049 A 
ATOM     24  C   UNL A   1      32.452  19.841  24.691  1.00  0.00     0.004 A 
ATOM     25  C   UNL A   1      33.647  20.545  24.801  1.00  0.00     0.046 A 
ENDBRANCH  18  19
ENDBRANCH  17  18
ENDBRANCH  14  17
ENDBRANCH   6  13
ENDBRANCH   3   5
ENDBRANCH   2   3
ENDBRANCH   1   2
BRANCH   1  26
ATOM     26  C   UNL A   1      34.727  29.331  27.126  1.00  0.00     0.275 C 
BRANCH  26  27
ATOM     27  O   UNL A   1      35.250  29.653  28.422  1.00  0.00    -0.458 OA
BRANCH  27  28
ATOM     28  C   UNL A   1      36.195  30.640  28.389  1.00  0.00     0.338 C 
ATOM     29  O   UNL A   1      35.937  31.822  28.490  1.00  0.00    -0.246 OA
BRANCH  28  30
ATOM     30  C   UNL A   1      37.493  29.987  28.726  1.00  0.00     0.060 A 
ATOM     31  C   UNL A   1      37.561  29.095  29.807  1.00  0.00     0.016 A 
ATOM     32  C   UNL A   1      38.495  29.991  27.749  1.00  0.00     0.016 A 
ATOM     33  C   UNL A   1      38.586  28.147  29.859  1.00  0.00     0.010 A 
ATOM     34  C   UNL A   1      39.426  28.983  27.730  1.00  0.00     0.010 A 
ATOM     35  C   UNL A   1      39.497  28.081  28.798  1.00  0.00    -0.014 A 
BRANCH  35  36
ATOM     36  C   UNL A   1      40.781  27.398  28.878  1.00  0.00     0.031 A 
ATOM     37  C   UNL A   1      41.024  26.021  28.426  1.00  0.00     0.074 A 
ATOM     38  C   UNL A   1      41.768  28.187  29.357  1.00  0.00     0.049 A 
ATOM     39  N   UNL A   1      41.882  25.232  28.978  1.00  0.00    -0.248 NA
ATOM     40  C   UNL A   1      40.320  25.411  27.302  1.00  0.00     0.031 C 
ATOM     41  C   UNL A   1      43.195  27.945  29.439  1.00  0.00     0.029 A 
ATOM     42  N   UNL A   1      41.582  29.374  30.080  1.00  0.00    -0.354 N 
ATOM     43  C   UNL A   1      42.075  24.175  28.113  1.00  0.00     0.074 A 
ATOM     44  C   UNL A   1      41.000  24.264  27.150  1.00  0.00     0.031 C 
ATOM     45  C   UNL A   1      43.687  28.722  30.424  1.00  0.00     0.029 A 
ATOM     46  C   UNL A   1      42.553  29.380  31.071  1.00  0.00     0.049 A 
ATOM     47  H   UNL A   1      40.900  30.064  29.917  1.00  0.00     0.167 HD
ATOM     48  C   UNL A   1      43.232  23.454  28.166  1.00  0.00     0.031 A 
ATOM     49  C   UNL A   1      42.205  29.301  32.388  1.00  0.00     0.031 A 
ATOM     50  C   UNL A   1      44.138  23.994  29.175  1.00  0.00     0.049 A 
ATOM     51  C   UNL A   1      42.803  28.063  33.004  1.00  0.00     0.074 A 
ATOM     52  C   UNL A   1      45.201  24.876  29.069  1.00  0.00     0.029 A 
ATOM     53  N   UNL A   1      43.799  23.939  30.521  1.00  0.00    -0.354 N 
ATOM     54  N   UNL A   1      43.066  26.970  32.338  1.00  0.00    -0.248 NA
ATOM     55  C   UNL A   1      43.200  27.987  34.403  1.00  0.00     0.031 C 
ATOM     56  C   UNL A   1      45.430  25.437  30.349  1.00  0.00     0.029 A 
ATOM     57  C   UNL A   1      44.530  24.869  31.235  1.00  0.00     0.049 A 
ATOM     58  H   UNL A   1      43.133  23.326  30.911  1.00  0.00     0.167 HD
ATOM     59  C   UNL A   1      43.787  26.125  33.142  1.00  0.00     0.074 A 
ATOM     60  C   UNL A   1      43.799  26.784  34.438  1.00  0.00     0.031 C 
ATOM     61  C   UNL A   1      44.385  24.989  32.677  1.00  0.00     0.031 A 
BRANCH  48  62
ATOM     62  C   UNL A   1      43.672  22.517  27.064  1.00  0.00    -0.014 A 
ATOM     63  C   UNL A   1      42.878  21.393  26.749  1.00  0.00     0.010 A 
ATOM     64  C   UNL A   1      44.858  22.677  26.320  1.00  0.00     0.010 A 
ATOM     65  C   UNL A   1      43.279  20.432  25.813  1.00  0.00     0.020 A 
ATOM     66  C   UNL A   1      45.279  21.711  25.385  1.00  0.00     0.020 A 
ATOM     67  C   UNL A   1      44.491  20.585  25.148  1.00  0.00     0.054 A 
BRANCH  67  68
ATOM     68  S   UNL A   1      45.010  19.290  23.987  1.00  0.00     0.124 S 
ATOM     69  O   UNL A   1      44.394  18.094  24.555  1.00  0.00    -0.237 OA
ATOM     70  O   UNL A   1      44.439  19.751  22.725  1.00  0.00    -0.237 OA
ATOM     71  O   UNL A   1      46.469  19.325  24.059  1.00  0.00    -0.744 OA
ENDBRANCH  67  68
ENDBRANCH  48  62
BRANCH  49  72
ATOM     72  C   UNL A   1      40.892  29.918  32.766  1.00  0.00    -0.014 A 
ATOM     73  C   UNL A   1      40.661  31.263  32.385  1.00  0.00     0.010 A 
ATOM     74  C   UNL A   1      39.796  29.168  33.225  1.00  0.00     0.010 A 
ATOM     75  C   UNL A   1      39.373  31.810  32.370  1.00  0.00     0.020 A 
ATOM     76  C   UNL A   1      38.500  29.721  33.231  1.00  0.00     0.020 A 
ATOM     77  C   UNL A   1      38.295  31.027  32.776  1.00  0.00     0.054 A 
BRANCH  77  78
ATOM     78  S   UNL A   1      36.616  31.684  32.525  1.00  0.00     0.124 S 
ATOM     79  O   UNL A   1      36.826  32.658  31.457  1.00  0.00    -0.237 OA
ATOM     80  O   UNL A   1      35.876  30.483  32.146  1.00  0.00    -0.237 OA
ATOM     81  O   UNL A   1      36.286  32.243  33.832  1.00  0.00    -0.744 OA
ENDBRANCH  77  78
ENDBRANCH  49  72
BRANCH  61  82
ATOM     82  C   UNL A   1      45.045  23.932  33.524  1.00  0.00    -0.014 A 
ATOM     83  C   UNL A   1      46.326  24.062  34.076  1.00  0.00     0.010 A 
ATOM     84  C   UNL A   1      44.288  22.798  33.909  1.00  0.00     0.010 A 
ATOM     85  C   UNL A   1      46.850  23.080  34.925  1.00  0.00     0.020 A 
ATOM     86  C   UNL A   1      44.780  21.838  34.793  1.00  0.00     0.020 A 
ATOM     87  C   UNL A   1      46.072  21.976  35.279  1.00  0.00     0.054 A 
BRANCH  87  88
ATOM     88  S   UNL A   1      46.723  20.762  36.450  1.00  0.00     0.124 S 
ATOM     89  O   UNL A   1      46.530  19.511  35.723  1.00  0.00    -0.237 OA
ATOM     90  O   UNL A   1      48.112  21.184  36.619  1.00  0.00    -0.237 OA
ATOM     91  O   UNL A   1      45.879  20.940  37.630  1.00  0.00    -0.744 OA
ENDBRANCH  87  88
ENDBRANCH  61  82
ENDBRANCH  35  36
ENDBRANCH  28  30
ENDBRANCH  27  28
ENDBRANCH  26  27
ENDBRANCH   1  26
TORSDOF 18
ENDMDL
MODEL 3
REMARK VINA RESULT:     -12.0      1.194      2.178
REMARK SMILES Cc1cccc(OCC(=O)Nc2cc(C(=O)OCCOC(=O)c3ccc(-c4c5nc(c(-c6ccc(S(=O)(=O)[O-])cc6)c6ccc([nH]6)c(-c6ccc(S(=O)(=O)[O-])cc6)c6nc(c(-c7ccc(S(=O)(=O)[O-])cc7)c7ccc4[nH]7)C=C6)C=C5)cc3)c(Cl)cc2Cl)c1
REMARK SMILES IDX 18 1 17 2 15 3 16 4 14 5 12 6 13 7 86 8 85 9 87 10 83 11
REMARK SMILES IDX 84 12 11 13 9 14 10 15 8 17 7 18 6 19 1 20 2 21 3 22 88 23
REMARK SMILES IDX 4 24 5 25 19 26 20 27 21 28 22 29 23 30 24 31 82 32 25 33
REMARK SMILES IDX 81 34 26 35 27 36 28 37 75 38 29 39 80 40 74 41 76 42 30 43
REMARK SMILES IDX 79 44 73 45 72 46 31 48 61 49 42 50 60 51 43 52 46 53 59 54
REMARK SMILES IDX 77 55 44 56 45 57 58 59 78 60 47 61 32 62 33 63 41 64 34 65
REMARK SMILES IDX 40 66 35 67 36 68 37 69 38 70 39 71 62 72 63 73 71 74 64 75
REMARK SMILES IDX 70 76 65 77 66 78 67 79 68 80 69 81 48 82 49 83 57 84 50 85
REMARK SMILES IDX 56 86 51 87 52 88 53 89 54 90 55 91
REMARK H PARENT 11 16 76 47 46 58
REMARK Flexibility Score: inf
ROOT
ATOM      1  C   UNL A   1      33.265  29.159  26.414  1.00  0.00     0.275 C 
ENDROOT
BRANCH   1   2
ATOM      2  O   UNL A   1      33.044  29.397  25.009  1.00  0.00    -0.458 OA
BRANCH   2   3
ATOM      3  C   UNL A   1      31.904  28.895  24.480  1.00  0.00     0.339 C 
ATOM      4  O   UNL A   1      30.848  29.484  24.336  1.00  0.00    -0.246 OA
BRANCH   3   5
ATOM      5  C   UNL A   1      32.200  27.586  23.859  1.00  0.00     0.080 A 
ATOM      6  C   UNL A   1      31.823  25.179  23.990  1.00  0.00     0.061 A 
ATOM      7  C   UNL A   1      31.490  26.481  24.363  1.00  0.00     0.045 A 
ATOM      8  C   UNL A   1      32.878  24.993  23.082  1.00  0.00     0.066 A 
ATOM      9  C   UNL A   1      33.564  26.084  22.548  1.00  0.00     0.044 A 
ATOM     10  Cl  UNL A   1      33.395  23.403  22.632  1.00  0.00    -0.082 Cl
ATOM     11  C   UNL A   1      33.252  27.381  22.966  1.00  0.00     0.057 A 
ATOM     12  Cl  UNL A   1      34.291  28.636  22.426  1.00  0.00    -0.083 Cl
BRANCH   6  13
ATOM     13  N   UNL A   1      31.280  24.058  24.642  1.00  0.00    -0.322 N 
ATOM     14  C   UNL A   1      31.770  23.239  25.620  1.00  0.00     0.262 C 
ATOM     15  O   UNL A   1      31.263  22.118  25.746  1.00  0.00    -0.271 OA
ATOM     16  H   UNL A   1      30.376  23.817  24.337  1.00  0.00     0.170 HD
BRANCH  14  17
ATOM     17  C   UNL A   1      32.756  23.779  26.677  1.00  0.00     0.329 C 
BRANCH  17  18
ATOM     18  O   UNL A   1      33.841  23.040  27.181  1.00  0.00    -0.484 OA
BRANCH  18  19
ATOM     19  C   UNL A   1      34.905  22.776  26.372  1.00  0.00     0.120 A 
ATOM     20  C   UNL A   1      37.043  20.051  24.811  1.00  0.00     0.044 C 
ATOM     21  C   UNL A   1      36.454  21.393  25.126  1.00  0.00    -0.047 A 
ATOM     22  C   UNL A   1      36.899  22.526  24.431  1.00  0.00     0.003 A 
ATOM     23  C   UNL A   1      35.462  21.528  26.109  1.00  0.00     0.049 A 
ATOM     24  C   UNL A   1      36.383  23.781  24.735  1.00  0.00     0.004 A 
ATOM     25  C   UNL A   1      35.399  23.903  25.711  1.00  0.00     0.046 A 
ENDBRANCH  18  19
ENDBRANCH  17  18
ENDBRANCH  14  17
ENDBRANCH   6  13
ENDBRANCH   3   5
ENDBRANCH   2   3
ENDBRANCH   1   2
BRANCH   1  26
ATOM     26  C   UNL A   1      34.732  28.933  26.835  1.00  0.00     0.275 C 
BRANCH  26  27
ATOM     27  O   UNL A   1      35.059  29.499  28.111  1.00  0.00    -0.458 OA
BRANCH  27  28
ATOM     28  C   UNL A   1      35.966  30.517  28.030  1.00  0.00     0.338 C 
ATOM     29  O   UNL A   1      35.665  31.692  28.093  1.00  0.00    -0.246 OA
BRANCH  28  30
ATOM     30  C   UNL A   1      37.291  29.925  28.372  1.00  0.00     0.060 A 
ATOM     31  C   UNL A   1      37.409  29.087  29.491  1.00  0.00     0.016 A 
ATOM     32  C   UNL A   1      38.275  29.918  27.376  1.00  0.00     0.016 A 
ATOM     33  C   UNL A   1      38.467  28.178  29.567  1.00  0.00     0.010 A 
ATOM     34  C   UNL A   1      39.240  28.942  27.386  1.00  0.00     0.010 A 
ATOM     35  C   UNL A   1      39.362  28.093  28.493  1.00  0.00    -0.014 A 
BRANCH  35  36
ATOM     36  C   UNL A   1      40.669  27.459  28.579  1.00  0.00     0.031 A 
ATOM     37  C   UNL A   1      40.951  26.069  28.192  1.00  0.00     0.074 A 
ATOM     38  C   UNL A   1      41.638  28.304  28.997  1.00  0.00     0.049 A 
ATOM     39  N   UNL A   1      41.847  25.339  28.764  1.00  0.00    -0.248 NA
ATOM     40  C   UNL A   1      40.247  25.380  27.115  1.00  0.00     0.031 C 
ATOM     41  C   UNL A   1      43.074  28.115  29.060  1.00  0.00     0.029 A 
ATOM     42  N   UNL A   1      41.425  29.519  29.663  1.00  0.00    -0.354 N 
ATOM     43  C   UNL A   1      42.059  24.246  27.950  1.00  0.00     0.074 A 
ATOM     44  C   UNL A   1      40.963  24.250  27.006  1.00  0.00     0.031 C 
ATOM     45  C   UNL A   1      43.558  28.956  29.994  1.00  0.00     0.029 A 
ATOM     46  C   UNL A   1      42.415  29.608  30.632  1.00  0.00     0.049 A 
ATOM     47  H   UNL A   1      40.716  30.177  29.481  1.00  0.00     0.167 HD
ATOM     48  C   UNL A   1      43.241  23.568  28.014  1.00  0.00     0.031 A 
ATOM     49  C   UNL A   1      42.096  29.585  31.958  1.00  0.00     0.031 A 
ATOM     50  C   UNL A   1      44.147  24.189  28.975  1.00  0.00     0.049 A 
ATOM     51  C   UNL A   1      42.748  28.400  32.622  1.00  0.00     0.074 A 
ATOM     52  C   UNL A   1      45.177  25.099  28.802  1.00  0.00     0.029 A 
ATOM     53  N   UNL A   1      43.837  24.191  30.330  1.00  0.00    -0.354 N 
ATOM     54  N   UNL A   1      43.036  27.284  32.007  1.00  0.00    -0.248 NA
ATOM     55  C   UNL A   1      43.175  28.409  34.015  1.00  0.00     0.031 C 
ATOM     56  C   UNL A   1      45.411  25.733  30.048  1.00  0.00     0.029 A 
ATOM     57  C   UNL A   1      44.550  25.180  30.980  1.00  0.00     0.049 A 
ATOM     58  H   UNL A   1      43.201  23.577  30.764  1.00  0.00     0.167 HD
ATOM     59  C   UNL A   1      43.801  26.506  32.836  1.00  0.00     0.074 A 
ATOM     60  C   UNL A   1      43.816  27.231  34.097  1.00  0.00     0.031 C 
ATOM     61  C   UNL A   1      44.429  25.369  32.417  1.00  0.00     0.031 A 
BRANCH  48  62
ATOM     62  C   UNL A   1      43.692  22.591  26.952  1.00  0.00    -0.014 A 
ATOM     63  C   UNL A   1      42.862  21.499  26.615  1.00  0.00     0.010 A 
ATOM     64  C   UNL A   1      44.919  22.683  26.267  1.00  0.00     0.010 A 
ATOM     65  C   UNL A   1      43.264  20.504  25.716  1.00  0.00     0.020 A 
ATOM     66  C   UNL A   1      45.341  21.681  25.371  1.00  0.00     0.020 A 
ATOM     67  C   UNL A   1      44.514  20.589  25.112  1.00  0.00     0.054 A 
BRANCH  67  68
ATOM     68  S   UNL A   1      45.029  19.250  24.000  1.00  0.00     0.124 S 
ATOM     69  O   UNL A   1      44.479  18.067  24.657  1.00  0.00    -0.237 OA
ATOM     70  O   UNL A   1      44.391  19.622  22.741  1.00  0.00    -0.237 OA
ATOM     71  O   UNL A   1      46.487  19.336  24.007  1.00  0.00    -0.744 OA
ENDBRANCH  67  68
ENDBRANCH  48  62
BRANCH  49  72
ATOM     72  C   UNL A   1      40.770  30.176  32.333  1.00  0.00    -0.014 A 
ATOM     73  C   UNL A   1      40.469  31.476  31.857  1.00  0.00     0.010 A 
ATOM     74  C   UNL A   1      39.723  29.421  32.887  1.00  0.00     0.010 A 
ATOM     75  C   UNL A   1      39.158  31.967  31.844  1.00  0.00     0.020 A 
ATOM     76  C   UNL A   1      38.405  29.919  32.895  1.00  0.00     0.020 A 
ATOM     77  C   UNL A   1      38.129  31.176  32.347  1.00  0.00     0.054 A 
BRANCH  77  78
ATOM     78  S   UNL A   1      36.416  31.742  32.104  1.00  0.00     0.124 S 
ATOM     79  O   UNL A   1      36.563  32.697  31.009  1.00  0.00    -0.237 OA
ATOM     80  O   UNL A   1      35.732  30.497  31.768  1.00  0.00    -0.237 OA
ATOM     81  O   UNL A   1      36.076  32.319  33.402  1.00  0.00    -0.744 OA
ENDBRANCH  77  78
ENDBRANCH  49  72
BRANCH  61  82
ATOM     82  C   UNL A   1      45.142  24.379  33.301  1.00  0.00    -0.014 A 
ATOM     83  C   UNL A   1      46.422  24.587  33.832  1.00  0.00     0.010 A 
ATOM     84  C   UNL A   1      44.437  23.233  33.745  1.00  0.00     0.010 A 
ATOM     85  C   UNL A   1      46.995  23.666  34.717  1.00  0.00     0.020 A 
ATOM     86  C   UNL A   1      44.978  22.335  34.664  1.00  0.00     0.020 A 
ATOM     87  C   UNL A   1      46.268  22.548  35.128  1.00  0.00     0.054 A 
BRANCH  87  88
ATOM     88  S   UNL A   1      46.982  21.416  36.344  1.00  0.00     0.124 S 
ATOM     89  O   UNL A   1      46.031  21.525  37.447  1.00  0.00    -0.237 OA
ATOM     90  O   UNL A   1      46.981  20.136  35.638  1.00  0.00    -0.237 OA
ATOM     91  O   UNL A   1      48.306  21.978  36.598  1.00  0.00    -0.744 OA
ENDBRANCH  87  88
ENDBRANCH  61  82
ENDBRANCH  35  36
ENDBRANCH  28  30
ENDBRANCH  27  28
ENDBRANCH  26  27
ENDBRANCH   1  26
TORSDOF 18
ENDMDL
