MODEL 1
REMARK VINA RESULT:      -9.6      0.000      0.000
REMARK SMILES COc1cc(OC)cc(C(=O)C[C@H](C)CC(=O)OCCOC(=O)c2ccc(-c3c4nc(c(-c5ccc(S(=O)(=O)[O-])cc5)c5ccc([nH]5)c(-c5ccc(S(=O)(=O)[O-])cc5)c5nc(c(-c6ccc(S(=O)(=O)[O-])cc6)c6ccc3[nH]6)C=C5)C=C4)cc2)c1
REMARK SMILES IDX 19 1 18 2 16 3 17 4 15 5 13 6 14 7 12 8 10 9 11 10 9 11 3 12
REMARK SMILES IDX 4 13 84 14 5 15 8 16 2 17 1 18 6 19 7 20 20 21 21 22 22 23
REMARK SMILES IDX 23 24 24 25 25 26 83 27 26 28 82 29 27 30 28 31 29 32 76 33
REMARK SMILES IDX 30 34 81 35 75 36 77 37 31 38 80 39 74 40 73 41 32 43 62 44
REMARK SMILES IDX 43 45 61 46 44 47 47 48 60 49 78 50 45 51 46 52 59 54 79 55
REMARK SMILES IDX 48 56 33 57 34 58 42 59 35 60 41 61 36 62 37 63 38 64 39 65
REMARK SMILES IDX 40 66 63 67 64 68 72 69 65 70 71 71 66 72 67 73 68 74 69 75
REMARK SMILES IDX 70 76 49 77 50 78 58 79 51 80 57 81 52 82 53 83 54 84 55 85
REMARK SMILES IDX 56 86
REMARK H PARENT 77 42 47 53
REMARK Flexibility Score: inf
ROOT
ATOM      1  C   UNL A   1      32.036  29.496  25.903  1.00  0.00     0.274 C 
ENDROOT
BRANCH   1   2
ATOM      2  O   UNL A   1      31.730  28.394  26.777  1.00  0.00    -0.462 OA
BRANCH   2   3
ATOM      3  C   UNL A   1      31.368  27.246  26.156  1.00  0.00     0.306 C 
ATOM      4  O   UNL A   1      30.763  26.326  26.695  1.00  0.00    -0.252 OA
BRANCH   3   5
ATOM      5  C   UNL A   1      31.902  27.129  24.747  1.00  0.00     0.126 C 
BRANCH   5   6
ATOM      6  C   UNL A   1      33.099  26.206  24.469  1.00  0.00     0.005 C 
ATOM      7  C   UNL A   1      34.001  26.091  25.706  1.00  0.00     0.009 C 
BRANCH   6   8
ATOM      8  C   UNL A   1      32.671  24.770  24.064  1.00  0.00     0.085 C 
BRANCH   8   9
ATOM      9  C   UNL A   1      33.601  24.042  23.096  1.00  0.00     0.163 C 
ATOM     10  O   UNL A   1      33.627  24.351  21.906  1.00  0.00    -0.294 OA
BRANCH   9  11
ATOM     11  C   UNL A   1      34.452  22.904  23.573  1.00  0.00     0.025 A 
ATOM     12  C   UNL A   1      36.510  22.085  24.538  1.00  0.00     0.123 A 
ATOM     13  C   UNL A   1      35.887  20.891  24.879  1.00  0.00     0.092 A 
ATOM     14  C   UNL A   1      35.822  23.057  23.815  1.00  0.00     0.058 A 
ATOM     15  C   UNL A   1      34.553  20.676  24.532  1.00  0.00     0.123 A 
ATOM     16  C   UNL A   1      33.825  21.693  23.909  1.00  0.00     0.058 A 
BRANCH  12  17
ATOM     17  O   UNL A   1      37.806  22.270  24.939  1.00  0.00    -0.497 OA
ATOM     18  C   UNL A   1      37.893  23.225  26.001  1.00  0.00     0.278 C 
ENDBRANCH  12  17
BRANCH  15  19
ATOM     19  O   UNL A   1      34.044  19.467  24.917  1.00  0.00    -0.497 OA
ATOM     20  C   UNL A   1      32.857  19.519  25.701  1.00  0.00     0.278 C 
ENDBRANCH  15  19
ENDBRANCH   9  11
ENDBRANCH   8   9
ENDBRANCH   6   8
ENDBRANCH   5   6
ENDBRANCH   3   5
ENDBRANCH   2   3
ENDBRANCH   1   2
BRANCH   1  21
ATOM     21  C   UNL A   1      33.351  30.192  26.269  1.00  0.00     0.275 C 
BRANCH  21  22
ATOM     22  O   UNL A   1      33.643  30.121  27.677  1.00  0.00    -0.458 OA
BRANCH  22  23
ATOM     23  C   UNL A   1      34.649  30.930  28.083  1.00  0.00     0.338 C 
ATOM     24  O   UNL A   1      34.555  32.113  28.374  1.00  0.00    -0.246 OA
BRANCH  23  25
ATOM     25  C   UNL A   1      35.906  30.177  28.230  1.00  0.00     0.060 A 
ATOM     26  C   UNL A   1      36.179  29.583  29.467  1.00  0.00     0.016 A 
ATOM     27  C   UNL A   1      36.867  30.174  27.216  1.00  0.00     0.016 A 
ATOM     28  C   UNL A   1      37.434  29.034  29.716  1.00  0.00     0.010 A 
ATOM     29  C   UNL A   1      38.126  29.616  27.466  1.00  0.00     0.010 A 
ATOM     30  C   UNL A   1      38.428  29.079  28.730  1.00  0.00    -0.014 A 
BRANCH  30  31
ATOM     31  C   UNL A   1      39.817  28.686  29.075  1.00  0.00     0.031 A 
ATOM     32  C   UNL A   1      40.667  29.626  29.887  1.00  0.00     0.074 A 
ATOM     33  C   UNL A   1      40.296  27.483  28.718  1.00  0.00     0.049 A 
ATOM     34  N   UNL A   1      41.902  29.481  30.298  1.00  0.00    -0.248 NA
ATOM     35  C   UNL A   1      40.044  30.896  30.291  1.00  0.00     0.031 C 
ATOM     36  C   UNL A   1      39.553  26.461  27.981  1.00  0.00     0.029 A 
ATOM     37  N   UNL A   1      41.523  26.911  28.943  1.00  0.00    -0.354 N 
ATOM     38  C   UNL A   1      42.207  30.642  30.998  1.00  0.00     0.074 A 
ATOM     39  C   UNL A   1      41.038  31.494  30.930  1.00  0.00     0.031 C 
ATOM     40  C   UNL A   1      40.333  25.377  27.833  1.00  0.00     0.029 A 
ATOM     41  C   UNL A   1      41.639  25.640  28.435  1.00  0.00     0.049 A 
ATOM     42  H   UNL A   1      42.251  27.369  29.422  1.00  0.00     0.167 HD
ATOM     43  C   UNL A   1      43.351  30.971  31.646  1.00  0.00     0.031 A 
ATOM     44  C   UNL A   1      42.682  24.787  28.451  1.00  0.00     0.031 A 
ATOM     45  C   UNL A   1      44.517  30.131  31.710  1.00  0.00     0.049 A 
ATOM     46  C   UNL A   1      43.963  25.196  29.124  1.00  0.00     0.074 A 
ATOM     47  C   UNL A   1      45.731  30.381  32.324  1.00  0.00     0.029 A 
ATOM     48  N   UNL A   1      44.611  28.870  31.140  1.00  0.00    -0.354 N 
ATOM     49  N   UNL A   1      44.244  26.308  29.761  1.00  0.00    -0.248 NA
ATOM     50  C   UNL A   1      45.067  24.227  29.087  1.00  0.00     0.031 C 
ATOM     51  C   UNL A   1      46.571  29.284  32.098  1.00  0.00     0.029 A 
ATOM     52  C   UNL A   1      45.864  28.332  31.381  1.00  0.00     0.049 A 
ATOM     53  H   UNL A   1      43.891  28.423  30.637  1.00  0.00     0.167 HD
ATOM     54  C   UNL A   1      45.545  26.160  30.228  1.00  0.00     0.074 A 
ATOM     55  C   UNL A   1      45.995  24.849  29.802  1.00  0.00     0.031 C 
ATOM     56  C   UNL A   1      46.297  27.027  30.951  1.00  0.00     0.031 A 
BRANCH  43  57
ATOM     57  C   UNL A   1      43.393  32.326  32.302  1.00  0.00    -0.014 A 
ATOM     58  C   UNL A   1      43.053  32.489  33.657  1.00  0.00     0.010 A 
ATOM     59  C   UNL A   1      43.752  33.454  31.545  1.00  0.00     0.010 A 
ATOM     60  C   UNL A   1      43.009  33.765  34.227  1.00  0.00     0.020 A 
ATOM     61  C   UNL A   1      43.733  34.730  32.117  1.00  0.00     0.020 A 
ATOM     62  C   UNL A   1      43.334  34.879  33.446  1.00  0.00     0.054 A 
BRANCH  62  63
ATOM     63  S   UNL A   1      43.237  36.531  34.190  1.00  0.00     0.124 S 
ATOM     64  O   UNL A   1      41.945  36.478  34.870  1.00  0.00    -0.237 OA
ATOM     65  O   UNL A   1      44.406  36.564  35.067  1.00  0.00    -0.237 OA
ATOM     66  O   UNL A   1      43.301  37.431  33.042  1.00  0.00    -0.744 OA
ENDBRANCH  62  63
ENDBRANCH  43  57
BRANCH  44  67
ATOM     67  C   UNL A   1      42.545  23.445  27.826  1.00  0.00    -0.014 A 
ATOM     68  C   UNL A   1      43.061  23.206  26.541  1.00  0.00     0.010 A 
ATOM     69  C   UNL A   1      41.920  22.394  28.521  1.00  0.00     0.010 A 
ATOM     70  C   UNL A   1      42.947  21.942  25.957  1.00  0.00     0.020 A 
ATOM     71  C   UNL A   1      41.825  21.123  27.949  1.00  0.00     0.020 A 
ATOM     72  C   UNL A   1      42.332  20.906  26.667  1.00  0.00     0.054 A 
BRANCH  72  73
ATOM     73  S   UNL A   1      42.254  19.256  25.917  1.00  0.00     0.124 S 
ATOM     74  O   UNL A   1      43.105  19.414  24.743  1.00  0.00    -0.237 OA
ATOM     75  O   UNL A   1      42.788  18.401  26.974  1.00  0.00    -0.237 OA
ATOM     76  O   UNL A   1      40.831  19.075  25.641  1.00  0.00    -0.744 OA
ENDBRANCH  72  73
ENDBRANCH  44  67
BRANCH  56  77
ATOM     77  C   UNL A   1      47.667  26.565  31.369  1.00  0.00    -0.014 A 
ATOM     78  C   UNL A   1      48.773  26.681  30.508  1.00  0.00     0.010 A 
ATOM     79  C   UNL A   1      47.853  26.033  32.659  1.00  0.00     0.010 A 
ATOM     80  C   UNL A   1      50.034  26.236  30.915  1.00  0.00     0.020 A 
ATOM     81  C   UNL A   1      49.116  25.608  33.077  1.00  0.00     0.020 A 
ATOM     82  C   UNL A   1      50.196  25.695  32.195  1.00  0.00     0.054 A 
BRANCH  82  83
ATOM     83  S   UNL A   1      51.845  25.146  32.716  1.00  0.00     0.124 S 
ATOM     84  O   UNL A   1      52.716  26.024  31.940  1.00  0.00    -0.237 OA
ATOM     85  O   UNL A   1      51.829  25.389  34.156  1.00  0.00    -0.237 OA
ATOM     86  O   UNL A   1      51.876  23.736  32.330  1.00  0.00    -0.744 OA
ENDBRANCH  82  83
ENDBRANCH  56  77
ENDBRANCH  30  31
ENDBRANCH  23  25
ENDBRANCH  22  23
ENDBRANCH  21  22
ENDBRANCH   1  21
TORSDOF 20
ENDMDL
MODEL 2
REMARK VINA RESULT:      -9.3      3.960     10.462
REMARK SMILES COc1cc(OC)cc(C(=O)C[C@H](C)CC(=O)OCCOC(=O)c2ccc(-c3c4nc(c(-c5ccc(S(=O)(=O)[O-])cc5)c5ccc([nH]5)c(-c5ccc(S(=O)(=O)[O-])cc5)c5nc(c(-c6ccc(S(=O)(=O)[O-])cc6)c6ccc3[nH]6)C=C5)C=C4)cc2)c1
REMARK SMILES IDX 19 1 18 2 16 3 17 4 15 5 13 6 14 7 12 8 10 9 11 10 9 11 3 12
REMARK SMILES IDX 4 13 84 14 5 15 8 16 2 17 1 18 6 19 7 20 20 21 21 22 22 23
REMARK SMILES IDX 23 24 24 25 25 26 83 27 26 28 82 29 27 30 28 31 29 32 76 33
REMARK SMILES IDX 30 34 81 35 75 36 77 37 31 38 80 39 74 40 73 41 32 43 62 44
REMARK SMILES IDX 43 45 61 46 44 47 47 48 60 49 78 50 45 51 46 52 59 54 79 55
REMARK SMILES IDX 48 56 33 57 34 58 42 59 35 60 41 61 36 62 37 63 38 64 39 65
REMARK SMILES IDX 40 66 63 67 64 68 72 69 65 70 71 71 66 72 67 73 68 74 69 75
REMARK SMILES IDX 70 76 49 77 50 78 58 79 51 80 57 81 52 82 53 83 54 84 55 85
REMARK SMILES IDX 56 86
REMARK H PARENT 77 42 47 53
REMARK Flexibility Score: inf
ROOT
ATOM      1  C   UNL A   1      39.895  21.901  26.865  1.00  0.00     0.274 C 
ENDROOT
BRANCH   1   2
ATOM      2  O   UNL A   1      38.951  21.639  25.810  1.00  0.00    -0.462 OA
BRANCH   2   3
ATOM      3  C   UNL A   1      38.051  22.625  25.581  1.00  0.00     0.306 C 
ATOM      4  O   UNL A   1      37.792  23.525  26.373  1.00  0.00    -0.252 OA
BRANCH   3   5
ATOM      5  C   UNL A   1      37.276  22.448  24.297  1.00  0.00     0.126 C 
BRANCH   5   6
ATOM      6  C   UNL A   1      35.757  22.222  24.359  1.00  0.00     0.005 C 
ATOM      7  C   UNL A   1      35.403  21.169  25.418  1.00  0.00     0.009 C 
BRANCH   6   8
ATOM      8  C   UNL A   1      34.969  23.515  24.700  1.00  0.00     0.085 C 
BRANCH   8   9
ATOM      9  C   UNL A   1      33.669  23.731  23.927  1.00  0.00     0.163 C 
ATOM     10  O   UNL A   1      33.562  23.339  22.766  1.00  0.00    -0.294 OA
BRANCH   9  11
ATOM     11  C   UNL A   1      32.528  24.473  24.555  1.00  0.00     0.025 A 
ATOM     12  C   UNL A   1      30.758  26.111  24.409  1.00  0.00     0.123 A 
ATOM     13  C   UNL A   1      30.135  25.550  25.517  1.00  0.00     0.092 A 
ATOM     14  C   UNL A   1      31.992  25.629  23.977  1.00  0.00     0.058 A 
ATOM     15  C   UNL A   1      30.724  24.473  26.178  1.00  0.00     0.123 A 
ATOM     16  C   UNL A   1      31.902  23.912  25.680  1.00  0.00     0.058 A 
BRANCH  12  17
ATOM     17  O   UNL A   1      30.121  27.137  23.765  1.00  0.00    -0.497 OA
ATOM     18  C   UNL A   1      30.695  27.382  22.478  1.00  0.00     0.278 C 
ENDBRANCH  12  17
BRANCH  15  19
ATOM     19  O   UNL A   1      30.022  24.003  27.253  1.00  0.00    -0.497 OA
ATOM     20  C   UNL A   1      29.494  22.688  27.118  1.00  0.00     0.278 C 
ENDBRANCH  15  19
ENDBRANCH   9  11
ENDBRANCH   8   9
ENDBRANCH   6   8
ENDBRANCH   5   6
ENDBRANCH   3   5
ENDBRANCH   2   3
ENDBRANCH   1   2
BRANCH   1  21
ATOM     21  C   UNL A   1      41.182  22.561  26.356  1.00  0.00     0.275 C 
BRANCH  21  22
ATOM     22  O   UNL A   1      41.592  23.676  27.169  1.00  0.00    -0.458 OA
BRANCH  22  23
ATOM     23  C   UNL A   1      41.583  24.870  26.530  1.00  0.00     0.338 C 
ATOM     24  O   UNL A   1      41.855  25.065  25.356  1.00  0.00    -0.246 OA
BRANCH  23  25
ATOM     25  C   UNL A   1      41.103  25.940  27.420  1.00  0.00     0.060 A 
ATOM     26  C   UNL A   1      41.824  27.138  27.461  1.00  0.00     0.016 A 
ATOM     27  C   UNL A   1      40.046  25.720  28.307  1.00  0.00     0.016 A 
ATOM     28  C   UNL A   1      41.529  28.098  28.425  1.00  0.00     0.010 A 
ATOM     29  C   UNL A   1      39.748  26.688  29.272  1.00  0.00     0.010 A 
ATOM     30  C   UNL A   1      40.514  27.865  29.361  1.00  0.00    -0.014 A 
BRANCH  30  31
ATOM     31  C   UNL A   1      40.351  28.791  30.508  1.00  0.00     0.031 A 
ATOM     32  C   UNL A   1      41.289  28.685  31.680  1.00  0.00     0.074 A 
ATOM     33  C   UNL A   1      39.414  29.755  30.481  1.00  0.00     0.049 A 
ATOM     34  N   UNL A   1      41.323  29.392  32.782  1.00  0.00    -0.248 NA
ATOM     35  C   UNL A   1      42.325  27.643  31.601  1.00  0.00     0.031 C 
ATOM     36  C   UNL A   1      38.483  30.000  29.380  1.00  0.00     0.029 A 
ATOM     37  N   UNL A   1      39.102  30.719  31.406  1.00  0.00    -0.354 N 
ATOM     38  C   UNL A   1      42.375  28.876  33.529  1.00  0.00     0.074 A 
ATOM     39  C   UNL A   1      42.933  27.777  32.770  1.00  0.00     0.031 C 
ATOM     40  C   UNL A   1      37.718  31.061  29.684  1.00  0.00     0.029 A 
ATOM     41  C   UNL A   1      38.082  31.549  31.013  1.00  0.00     0.049 A 
ATOM     42  H   UNL A   1      39.566  30.806  32.271  1.00  0.00     0.167 HD
ATOM     43  C   UNL A   1      42.843  29.283  34.736  1.00  0.00     0.031 A 
ATOM     44  C   UNL A   1      37.504  32.585  31.653  1.00  0.00     0.031 A 
ATOM     45  C   UNL A   1      42.286  30.369  35.496  1.00  0.00     0.049 A 
ATOM     46  C   UNL A   1      37.999  32.980  33.018  1.00  0.00     0.074 A 
ATOM     47  C   UNL A   1      42.675  30.845  36.736  1.00  0.00     0.029 A 
ATOM     48  N   UNL A   1      41.220  31.154  35.084  1.00  0.00    -0.354 N 
ATOM     49  N   UNL A   1      38.980  32.467  33.722  1.00  0.00    -0.248 NA
ATOM     50  C   UNL A   1      37.311  34.104  33.669  1.00  0.00     0.031 C 
ATOM     51  C   UNL A   1      41.822  31.899  37.088  1.00  0.00     0.029 A 
ATOM     52  C   UNL A   1      40.932  32.107  36.047  1.00  0.00     0.049 A 
ATOM     53  H   UNL A   1      40.739  31.050  34.231  1.00  0.00     0.167 HD
ATOM     54  C   UNL A   1      39.047  33.226  34.886  1.00  0.00     0.074 A 
ATOM     55  C   UNL A   1      38.011  34.234  34.789  1.00  0.00     0.031 C 
ATOM     56  C   UNL A   1      39.897  33.104  35.936  1.00  0.00     0.031 A 
BRANCH  43  57
ATOM     57  C   UNL A   1      43.996  28.505  35.312  1.00  0.00    -0.014 A 
ATOM     58  C   UNL A   1      45.327  28.867  35.039  1.00  0.00     0.010 A 
ATOM     59  C   UNL A   1      43.743  27.381  36.118  1.00  0.00     0.010 A 
ATOM     60  C   UNL A   1      46.385  28.081  35.507  1.00  0.00     0.020 A 
ATOM     61  C   UNL A   1      44.798  26.606  36.608  1.00  0.00     0.020 A 
ATOM     62  C   UNL A   1      46.110  26.945  36.275  1.00  0.00     0.054 A 
BRANCH  62  63
ATOM     63  S   UNL A   1      47.492  25.916  36.845  1.00  0.00     0.124 S 
ATOM     64  O   UNL A   1      47.225  24.652  36.162  1.00  0.00    -0.237 OA
ATOM     65  O   UNL A   1      48.663  26.649  36.371  1.00  0.00    -0.237 OA
ATOM     66  O   UNL A   1      47.326  25.888  38.295  1.00  0.00    -0.744 OA
ENDBRANCH  62  63
ENDBRANCH  43  57
BRANCH  44  67
ATOM     67  C   UNL A   1      36.404  33.337  30.995  1.00  0.00    -0.014 A 
ATOM     68  C   UNL A   1      35.222  33.625  31.699  1.00  0.00     0.010 A 
ATOM     69  C   UNL A   1      36.541  33.789  29.671  1.00  0.00     0.010 A 
ATOM     70  C   UNL A   1      34.192  34.344  31.088  1.00  0.00     0.020 A 
ATOM     71  C   UNL A   1      35.522  34.528  29.064  1.00  0.00     0.020 A 
ATOM     72  C   UNL A   1      34.350  34.794  29.774  1.00  0.00     0.054 A 
BRANCH  72  73
ATOM     73  S   UNL A   1      33.028  35.784  29.021  1.00  0.00     0.124 S 
ATOM     74  O   UNL A   1      32.400  34.820  28.123  1.00  0.00    -0.237 OA
ATOM     75  O   UNL A   1      32.230  36.181  30.178  1.00  0.00    -0.237 OA
ATOM     76  O   UNL A   1      33.749  36.873  28.367  1.00  0.00    -0.744 OA
ENDBRANCH  72  73
ENDBRANCH  44  67
BRANCH  56  77
ATOM     77  C   UNL A   1      39.772  34.116  37.043  1.00  0.00    -0.014 A 
ATOM     78  C   UNL A   1      40.391  35.377  36.954  1.00  0.00     0.010 A 
ATOM     79  C   UNL A   1      38.999  33.808  38.177  1.00  0.00     0.010 A 
ATOM     80  C   UNL A   1      40.269  36.297  37.999  1.00  0.00     0.020 A 
ATOM     81  C   UNL A   1      38.857  34.734  39.214  1.00  0.00     0.020 A 
ATOM     82  C   UNL A   1      39.509  35.967  39.126  1.00  0.00     0.054 A 
BRANCH  82  83
ATOM     83  S   UNL A   1      39.342  37.183  40.462  1.00  0.00     0.124 S 
ATOM     84  O   UNL A   1      38.611  36.424  41.473  1.00  0.00    -0.237 OA
ATOM     85  O   UNL A   1      40.730  37.495  40.793  1.00  0.00    -0.237 OA
ATOM     86  O   UNL A   1      38.597  38.277  39.841  1.00  0.00    -0.744 OA
ENDBRANCH  82  83
ENDBRANCH  56  77
ENDBRANCH  30  31
ENDBRANCH  23  25
ENDBRANCH  22  23
ENDBRANCH  21  22
ENDBRANCH   1  21
TORSDOF 20
ENDMDL
MODEL 3
REMARK VINA RESULT:      -9.1      3.393      4.085
REMARK SMILES COc1cc(OC)cc(C(=O)C[C@H](C)CC(=O)OCCOC(=O)c2ccc(-c3c4nc(c(-c5ccc(S(=O)(=O)[O-])cc5)c5ccc([nH]5)c(-c5ccc(S(=O)(=O)[O-])cc5)c5nc(c(-c6ccc(S(=O)(=O)[O-])cc6)c6ccc3[nH]6)C=C5)C=C4)cc2)c1
REMARK SMILES IDX 19 1 18 2 16 3 17 4 15 5 13 6 14 7 12 8 10 9 11 10 9 11 3 12
REMARK SMILES IDX 4 13 84 14 5 15 8 16 2 17 1 18 6 19 7 20 20 21 21 22 22 23
REMARK SMILES IDX 23 24 24 25 25 26 83 27 26 28 82 29 27 30 28 31 29 32 76 33
REMARK SMILES IDX 30 34 81 35 75 36 77 37 31 38 80 39 74 40 73 41 32 43 62 44
REMARK SMILES IDX 43 45 61 46 44 47 47 48 60 49 78 50 45 51 46 52 59 54 79 55
REMARK SMILES IDX 48 56 33 57 34 58 42 59 35 60 41 61 36 62 37 63 38 64 39 65
REMARK SMILES IDX 40 66 63 67 64 68 72 69 65 70 71 71 66 72 67 73 68 74 69 75
REMARK SMILES IDX 70 76 49 77 50 78 58 79 51 80 57 81 52 82 53 83 54 84 55 85
REMARK SMILES IDX 56 86
REMARK H PARENT 77 42 47 53
REMARK Flexibility Score: inf
ROOT
ATOM      1  C   UNL A   1      34.030  30.494  27.041  1.00  0.00     0.274 C 
ENDROOT
BRANCH   1   2
ATOM      2  O   UNL A   1      32.903  29.893  27.707  1.00  0.00    -0.462 OA
BRANCH   2   3
ATOM      3  C   UNL A   1      32.447  28.746  27.150  1.00  0.00     0.306 C 
ATOM      4  O   UNL A   1      31.685  27.961  27.704  1.00  0.00    -0.252 OA
BRANCH   3   5
ATOM      5  C   UNL A   1      33.074  28.434  25.811  1.00  0.00     0.126 C 
BRANCH   5   6
ATOM      6  C   UNL A   1      32.611  27.192  25.033  1.00  0.00     0.005 C 
ATOM      7  C   UNL A   1      32.134  27.574  23.625  1.00  0.00     0.009 C 
BRANCH   6   8
ATOM      8  C   UNL A   1      33.729  26.127  24.878  1.00  0.00     0.085 C 
BRANCH   8   9
ATOM      9  C   UNL A   1      33.528  24.828  25.655  1.00  0.00     0.163 C 
ATOM     10  O   UNL A   1      32.639  24.737  26.499  1.00  0.00    -0.294 OA
BRANCH   9  11
ATOM     11  C   UNL A   1      34.450  23.664  25.438  1.00  0.00     0.025 A 
ATOM     12  C   UNL A   1      36.644  22.668  25.604  1.00  0.00     0.123 A 
ATOM     13  C   UNL A   1      36.090  21.401  25.472  1.00  0.00     0.092 A 
ATOM     14  C   UNL A   1      35.841  23.803  25.504  1.00  0.00     0.058 A 
ATOM     15  C   UNL A   1      34.716  21.257  25.280  1.00  0.00     0.123 A 
ATOM     16  C   UNL A   1      33.891  22.384  25.296  1.00  0.00     0.058 A 
BRANCH  12  17
ATOM     17  O   UNL A   1      37.990  22.759  25.836  1.00  0.00    -0.497 OA
ATOM     18  C   UNL A   1      38.327  23.990  26.481  1.00  0.00     0.278 C 
ENDBRANCH  12  17
BRANCH  15  19
ATOM     19  O   UNL A   1      34.282  19.966  25.163  1.00  0.00    -0.497 OA
ATOM     20  C   UNL A   1      33.183  19.762  24.281  1.00  0.00     0.278 C 
ENDBRANCH  15  19
ENDBRANCH   9  11
ENDBRANCH   8   9
ENDBRANCH   6   8
ENDBRANCH   5   6
ENDBRANCH   3   5
ENDBRANCH   2   3
ENDBRANCH   1   2
BRANCH   1  21
ATOM     21  C   UNL A   1      34.891  31.340  27.985  1.00  0.00     0.275 C 
BRANCH  21  22
ATOM     22  O   UNL A   1      35.644  30.540  28.915  1.00  0.00    -0.458 OA
BRANCH  22  23
ATOM     23  C   UNL A   1      36.767  31.133  29.384  1.00  0.00     0.338 C 
ATOM     24  O   UNL A   1      36.824  32.156  30.048  1.00  0.00    -0.246 OA
BRANCH  23  25
ATOM     25  C   UNL A   1      37.959  30.326  29.069  1.00  0.00     0.060 A 
ATOM     26  C   UNL A   1      38.927  30.162  30.065  1.00  0.00     0.016 A 
ATOM     27  C   UNL A   1      38.190  29.859  27.773  1.00  0.00     0.016 A 
ATOM     28  C   UNL A   1      40.154  29.581  29.757  1.00  0.00     0.010 A 
ATOM     29  C   UNL A   1      39.422  29.271  27.466  1.00  0.00     0.010 A 
ATOM     30  C   UNL A   1      40.424  29.165  28.448  1.00  0.00    -0.014 A 
BRANCH  30  31
ATOM     31  C   UNL A   1      41.801  28.746  28.084  1.00  0.00     0.031 A 
ATOM     32  C   UNL A   1      42.911  29.762  28.113  1.00  0.00     0.074 A 
ATOM     33  C   UNL A   1      42.069  27.463  27.785  1.00  0.00     0.049 A 
ATOM     34  N   UNL A   1      44.182  29.609  27.834  1.00  0.00    -0.248 NA
ATOM     35  C   UNL A   1      42.542  31.129  28.512  1.00  0.00     0.031 C 
ATOM     36  C   UNL A   1      41.093  26.374  27.778  1.00  0.00     0.029 A 
ATOM     37  N   UNL A   1      43.253  26.858  27.444  1.00  0.00    -0.354 N 
ATOM     38  C   UNL A   1      44.760  30.861  28.012  1.00  0.00     0.074 A 
ATOM     39  C   UNL A   1      43.697  31.766  28.394  1.00  0.00     0.031 C 
ATOM     40  C   UNL A   1      41.723  25.228  27.470  1.00  0.00     0.029 A 
ATOM     41  C   UNL A   1      43.136  25.508  27.226  1.00  0.00     0.049 A 
ATOM     42  H   UNL A   1      44.104  27.347  27.363  1.00  0.00     0.167 HD
ATOM     43  C   UNL A   1      46.059  31.225  27.878  1.00  0.00     0.031 A 
ATOM     44  C   UNL A   1      44.065  24.599  26.868  1.00  0.00     0.031 A 
ATOM     45  C   UNL A   1      47.117  30.330  27.492  1.00  0.00     0.049 A 
ATOM     46  C   UNL A   1      45.490  25.037  26.666  1.00  0.00     0.074 A 
ATOM     47  C   UNL A   1      48.460  30.606  27.309  1.00  0.00     0.029 A 
ATOM     48  N   UNL A   1      46.949  28.979  27.232  1.00  0.00    -0.354 N 
ATOM     49  N   UNL A   1      46.017  26.229  26.815  1.00  0.00    -0.248 NA
ATOM     50  C   UNL A   1      46.447  24.001  26.255  1.00  0.00     0.031 C 
ATOM     51  C   UNL A   1      49.100  29.427  26.908  1.00  0.00     0.029 A 
ATOM     52  C   UNL A   1      48.161  28.408  26.884  1.00  0.00     0.049 A 
ATOM     53  H   UNL A   1      46.092  28.495  27.287  1.00  0.00     0.167 HD
ATOM     54  C   UNL A   1      47.374  26.080  26.548  1.00  0.00     0.074 A 
ATOM     55  C   UNL A   1      47.586  24.681  26.230  1.00  0.00     0.031 C 
ATOM     56  C   UNL A   1      48.357  27.014  26.571  1.00  0.00     0.031 A 
BRANCH  43  57
ATOM     57  C   UNL A   1      46.384  32.676  28.118  1.00  0.00    -0.014 A 
ATOM     58  C   UNL A   1      46.755  33.137  29.394  1.00  0.00     0.010 A 
ATOM     59  C   UNL A   1      46.291  33.594  27.058  1.00  0.00     0.010 A 
ATOM     60  C   UNL A   1      46.964  34.501  29.620  1.00  0.00     0.020 A 
ATOM     61  C   UNL A   1      46.524  34.955  27.274  1.00  0.00     0.020 A 
ATOM     62  C   UNL A   1      46.830  35.403  28.560  1.00  0.00     0.054 A 
BRANCH  62  63
ATOM     63  S   UNL A   1      47.070  37.173  28.877  1.00  0.00     0.124 S 
ATOM     64  O   UNL A   1      45.735  37.707  28.620  1.00  0.00    -0.237 OA
ATOM     65  O   UNL A   1      47.497  37.200  30.275  1.00  0.00    -0.237 OA
ATOM     66  O   UNL A   1      48.094  37.562  27.911  1.00  0.00    -0.744 OA
ENDBRANCH  62  63
ENDBRANCH  43  57
BRANCH  44  67
ATOM     67  C   UNL A   1      43.676  23.174  26.701  1.00  0.00    -0.014 A 
ATOM     68  C   UNL A   1      43.207  22.434  27.799  1.00  0.00     0.010 A 
ATOM     69  C   UNL A   1      43.751  22.558  25.439  1.00  0.00     0.010 A 
ATOM     70  C   UNL A   1      42.827  21.099  27.641  1.00  0.00     0.020 A 
ATOM     71  C   UNL A   1      43.351  21.230  25.273  1.00  0.00     0.020 A 
ATOM     72  C   UNL A   1      42.898  20.505  26.377  1.00  0.00     0.054 A 
BRANCH  72  73
ATOM     73  S   UNL A   1      42.337  18.791  26.180  1.00  0.00     0.124 S 
ATOM     74  O   UNL A   1      40.956  18.970  25.746  1.00  0.00    -0.237 OA
ATOM     75  O   UNL A   1      43.255  18.270  25.170  1.00  0.00    -0.237 OA
ATOM     76  O   UNL A   1      42.506  18.222  27.516  1.00  0.00    -0.744 OA
ENDBRANCH  72  73
ENDBRANCH  44  67
BRANCH  56  77
ATOM     77  C   UNL A   1      49.759  26.545  26.292  1.00  0.00    -0.014 A 
ATOM     78  C   UNL A   1      50.553  25.973  27.302  1.00  0.00     0.010 A 
ATOM     79  C   UNL A   1      50.277  26.653  24.988  1.00  0.00     0.010 A 
ATOM     80  C   UNL A   1      51.856  25.553  27.021  1.00  0.00     0.020 A 
ATOM     81  C   UNL A   1      51.572  26.215  24.699  1.00  0.00     0.020 A 
ATOM     82  C   UNL A   1      52.361  25.683  25.723  1.00  0.00     0.054 A 
BRANCH  82  83
ATOM     83  S   UNL A   1      54.046  25.111  25.371  1.00  0.00     0.124 S 
ATOM     84  O   UNL A   1      53.812  23.743  24.916  1.00  0.00    -0.237 OA
ATOM     85  O   UNL A   1      54.499  26.045  24.343  1.00  0.00    -0.237 OA
ATOM     86  O   UNL A   1      54.727  25.234  26.658  1.00  0.00    -0.744 OA
ENDBRANCH  82  83
ENDBRANCH  56  77
ENDBRANCH  30  31
ENDBRANCH  23  25
ENDBRANCH  22  23
ENDBRANCH  21  22
ENDBRANCH   1  21
TORSDOF 20
ENDMDL
