MODEL 1
REMARK VINA RESULT:      -8.0      0.000      0.000
REMARK SMILES CCC[C@@H](Oc1ccc(-c2ccccc2)cc1)C(=O)OCCOC(=O)c1ccc(-c2c3nc(c(-c4ccc(S(=O)(=O)[O-])cc4)c4ccc([nH]4)c(-c4ccc(S(=O)(=O)[O-])cc4)c4nc(c(-c5ccc(S(=O)(=O)[O-])cc5)c5ccc2[nH]5)C=C4)C=C3)cc1
REMARK SMILES IDX 21 1 20 2 18 3 19 4 4 5 3 6 2 7 1 8 5 9 6 10 7 11 17 12 8 13
REMARK SMILES IDX 16 14 9 15 10 16 11 17 15 18 12 19 14 20 13 21 22 22 23 23
REMARK SMILES IDX 24 24 25 25 26 26 27 27 85 28 28 29 84 30 29 31 30 32 31 33
REMARK SMILES IDX 78 34 32 35 83 36 77 37 79 38 33 39 82 40 76 41 75 42 34 44
REMARK SMILES IDX 64 45 45 46 63 47 46 48 49 49 62 50 80 51 47 52 48 53 61 55
REMARK SMILES IDX 81 56 50 57 35 58 36 59 44 60 37 61 43 62 38 63 39 64 40 65
REMARK SMILES IDX 41 66 42 67 65 68 66 69 74 70 67 71 73 72 68 73 69 74 70 75
REMARK SMILES IDX 71 76 72 77 51 78 52 79 60 80 53 81 59 82 54 83 55 84 56 85
REMARK SMILES IDX 57 86 58 87
REMARK H PARENT 79 43 49 54
REMARK Flexibility Score: inf
ROOT
ATOM      1  C   UNL A   1      34.416  33.723  29.563  1.00  0.00     0.274 C 
ENDROOT
BRANCH   1   2
ATOM      2  O   UNL A   1      35.015  32.934  30.609  1.00  0.00    -0.459 OA
BRANCH   2   3
ATOM      3  C   UNL A   1      36.213  33.377  31.085  1.00  0.00     0.347 C 
ATOM      4  O   UNL A   1      37.100  33.865  30.392  1.00  0.00    -0.248 OA
BRANCH   3   5
ATOM      5  C   UNL A   1      36.349  33.191  32.598  1.00  0.00     0.282 C 
BRANCH   5   6
ATOM      6  C   UNL A   1      35.334  34.066  33.359  1.00  0.00     0.057 C 
BRANCH   6   7
ATOM      7  C   UNL A   1      35.146  35.492  32.820  1.00  0.00     0.001 C 
ATOM      8  C   UNL A   1      34.119  36.323  33.575  1.00  0.00     0.004 C 
ENDBRANCH   6   7
ENDBRANCH   5   6
BRANCH   5   9
ATOM      9  O   UNL A   1      36.138  31.792  32.863  1.00  0.00    -0.479 OA
BRANCH   9  10
ATOM     10  C   UNL A   1      37.307  31.141  33.144  1.00  0.00     0.120 A 
ATOM     11  C   UNL A   1      37.507  29.807  32.806  1.00  0.00     0.047 A 
ATOM     12  C   UNL A   1      38.299  31.851  33.805  1.00  0.00     0.047 A 
ATOM     13  C   UNL A   1      38.747  29.208  33.065  1.00  0.00     0.012 A 
ATOM     14  C   UNL A   1      39.543  31.259  34.030  1.00  0.00     0.012 A 
ATOM     15  C   UNL A   1      39.804  29.927  33.656  1.00  0.00    -0.018 A 
BRANCH  15  16
ATOM     16  C   UNL A   1      41.145  29.325  33.860  1.00  0.00    -0.018 A 
ATOM     17  C   UNL A   1      41.524  28.134  33.213  1.00  0.00     0.009 A 
ATOM     18  C   UNL A   1      42.106  29.938  34.686  1.00  0.00     0.009 A 
ATOM     19  C   UNL A   1      42.801  27.586  33.380  1.00  0.00     0.001 A 
ATOM     20  C   UNL A   1      43.388  29.401  34.845  1.00  0.00     0.001 A 
ATOM     21  C   UNL A   1      43.735  28.223  34.192  1.00  0.00     0.000 A 
ENDBRANCH  15  16
ENDBRANCH   9  10
ENDBRANCH   5   9
ENDBRANCH   3   5
ENDBRANCH   2   3
ENDBRANCH   1   2
BRANCH   1  22
ATOM     22  C   UNL A   1      34.118  32.877  28.324  1.00  0.00     0.275 C 
BRANCH  22  23
ATOM     23  O   UNL A   1      34.000  31.485  28.668  1.00  0.00    -0.458 OA
BRANCH  23  24
ATOM     24  C   UNL A   1      34.334  30.621  27.684  1.00  0.00     0.338 C 
ATOM     25  O   UNL A   1      33.714  30.389  26.658  1.00  0.00    -0.246 OA
BRANCH  24  26
ATOM     26  C   UNL A   1      35.651  30.034  27.959  1.00  0.00     0.060 A 
ATOM     27  C   UNL A   1      35.919  29.600  29.258  1.00  0.00     0.016 A 
ATOM     28  C   UNL A   1      36.659  30.059  26.996  1.00  0.00     0.016 A 
ATOM     29  C   UNL A   1      37.217  29.253  29.623  1.00  0.00     0.010 A 
ATOM     30  C   UNL A   1      37.958  29.682  27.357  1.00  0.00     0.010 A 
ATOM     31  C   UNL A   1      38.252  29.318  28.682  1.00  0.00    -0.014 A 
BRANCH  31  32
ATOM     32  C   UNL A   1      39.651  29.103  29.125  1.00  0.00     0.031 A 
ATOM     33  C   UNL A   1      40.342  27.806  28.803  1.00  0.00     0.074 A 
ATOM     34  C   UNL A   1      40.317  30.081  29.765  1.00  0.00     0.049 A 
ATOM     35  N   UNL A   1      41.553  27.415  29.114  1.00  0.00    -0.248 NA
ATOM     36  C   UNL A   1      39.572  26.819  28.029  1.00  0.00     0.031 C 
ATOM     37  C   UNL A   1      39.774  31.398  30.099  1.00  0.00     0.029 A 
ATOM     38  N   UNL A   1      41.605  30.117  30.238  1.00  0.00    -0.354 N 
ATOM     39  C   UNL A   1      41.682  26.132  28.593  1.00  0.00     0.074 A 
ATOM     40  C   UNL A   1      40.424  25.806  27.957  1.00  0.00     0.031 C 
ATOM     41  C   UNL A   1      40.727  32.118  30.715  1.00  0.00     0.029 A 
ATOM     42  C   UNL A   1      41.933  31.306  30.844  1.00  0.00     0.049 A 
ATOM     43  H   UNL A   1      42.232  29.364  30.153  1.00  0.00     0.167 HD
ATOM     44  C   UNL A   1      42.750  25.301  28.640  1.00  0.00     0.031 A 
ATOM     45  C   UNL A   1      43.076  31.693  31.443  1.00  0.00     0.031 A 
ATOM     46  C   UNL A   1      44.005  25.623  29.263  1.00  0.00     0.049 A 
ATOM     47  C   UNL A   1      44.245  30.750  31.490  1.00  0.00     0.074 A 
ATOM     48  C   UNL A   1      45.138  24.836  29.380  1.00  0.00     0.029 A 
ATOM     49  N   UNL A   1      44.295  26.836  29.868  1.00  0.00    -0.354 N 
ATOM     50  N   UNL A   1      44.338  29.530  31.015  1.00  0.00    -0.248 NA
ATOM     51  C   UNL A   1      45.464  31.239  32.148  1.00  0.00     0.031 C 
ATOM     52  C   UNL A   1      46.110  25.570  30.072  1.00  0.00     0.029 A 
ATOM     53  C   UNL A   1      45.590  26.822  30.358  1.00  0.00     0.049 A 
ATOM     54  H   UNL A   1      43.673  27.594  29.939  1.00  0.00     0.167 HD
ATOM     55  C   UNL A   1      45.633  29.114  31.300  1.00  0.00     0.074 A 
ATOM     56  C   UNL A   1      46.290  30.214  31.978  1.00  0.00     0.031 C 
ATOM     57  C   UNL A   1      46.227  27.927  31.024  1.00  0.00     0.031 A 
BRANCH  44  58
ATOM     58  C   UNL A   1      42.584  23.943  28.018  1.00  0.00    -0.014 A 
ATOM     59  C   UNL A   1      42.133  22.848  28.777  1.00  0.00     0.010 A 
ATOM     60  C   UNL A   1      42.879  23.761  26.655  1.00  0.00     0.010 A 
ATOM     61  C   UNL A   1      42.019  21.584  28.191  1.00  0.00     0.020 A 
ATOM     62  C   UNL A   1      42.750  22.502  26.063  1.00  0.00     0.020 A 
ATOM     63  C   UNL A   1      42.340  21.417  26.841  1.00  0.00     0.054 A 
BRANCH  63  64
ATOM     64  S   UNL A   1      42.188  19.768  26.097  1.00  0.00     0.124 S 
ATOM     65  O   UNL A   1      43.155  19.844  25.005  1.00  0.00    -0.237 OA
ATOM     66  O   UNL A   1      42.552  18.879  27.197  1.00  0.00    -0.237 OA
ATOM     67  O   UNL A   1      40.788  19.704  25.687  1.00  0.00    -0.744 OA
ENDBRANCH  63  64
ENDBRANCH  44  58
BRANCH  45  68
ATOM     68  C   UNL A   1      43.167  33.045  32.051  1.00  0.00    -0.014 A 
ATOM     69  C   UNL A   1      42.847  33.242  33.405  1.00  0.00     0.010 A 
ATOM     70  C   UNL A   1      43.589  34.141  31.277  1.00  0.00     0.010 A 
ATOM     71  C   UNL A   1      42.936  34.517  33.972  1.00  0.00     0.020 A 
ATOM     72  C   UNL A   1      43.699  35.412  31.846  1.00  0.00     0.020 A 
ATOM     73  C   UNL A   1      43.360  35.593  33.189  1.00  0.00     0.054 A 
BRANCH  73  74
ATOM     74  S   UNL A   1      43.532  37.231  33.953  1.00  0.00     0.124 S 
ATOM     75  O   UNL A   1      42.213  37.427  34.545  1.00  0.00    -0.237 OA
ATOM     76  O   UNL A   1      44.628  37.032  34.899  1.00  0.00    -0.237 OA
ATOM     77  O   UNL A   1      43.850  38.099  32.820  1.00  0.00    -0.744 OA
ENDBRANCH  73  74
ENDBRANCH  45  68
BRANCH  57  78
ATOM     78  C   UNL A   1      47.667  27.773  31.425  1.00  0.00    -0.014 A 
ATOM     79  C   UNL A   1      48.705  28.135  30.550  1.00  0.00     0.010 A 
ATOM     80  C   UNL A   1      47.982  27.286  32.706  1.00  0.00     0.010 A 
ATOM     81  C   UNL A   1      50.039  27.981  30.938  1.00  0.00     0.020 A 
ATOM     82  C   UNL A   1      49.314  27.146  33.103  1.00  0.00     0.020 A 
ATOM     83  C   UNL A   1      50.335  27.480  32.209  1.00  0.00     0.054 A 
BRANCH  83  84
ATOM     84  S   UNL A   1      52.071  27.309  32.711  1.00  0.00     0.124 S 
ATOM     85  O   UNL A   1      52.503  26.161  31.918  1.00  0.00    -0.237 OA
ATOM     86  O   UNL A   1      52.650  28.594  32.324  1.00  0.00    -0.237 OA
ATOM     87  O   UNL A   1      51.989  27.080  34.152  1.00  0.00    -0.744 OA
ENDBRANCH  83  84
ENDBRANCH  57  78
ENDBRANCH  31  32
ENDBRANCH  24  26
ENDBRANCH  23  24
ENDBRANCH  22  23
ENDBRANCH   1  22
TORSDOF 19
ENDMDL
MODEL 2
REMARK VINA RESULT:      -7.4      3.829     10.660
REMARK SMILES CCC[C@@H](Oc1ccc(-c2ccccc2)cc1)C(=O)OCCOC(=O)c1ccc(-c2c3nc(c(-c4ccc(S(=O)(=O)[O-])cc4)c4ccc([nH]4)c(-c4ccc(S(=O)(=O)[O-])cc4)c4nc(c(-c5ccc(S(=O)(=O)[O-])cc5)c5ccc2[nH]5)C=C4)C=C3)cc1
REMARK SMILES IDX 21 1 20 2 18 3 19 4 4 5 3 6 2 7 1 8 5 9 6 10 7 11 17 12 8 13
REMARK SMILES IDX 16 14 9 15 10 16 11 17 15 18 12 19 14 20 13 21 22 22 23 23
REMARK SMILES IDX 24 24 25 25 26 26 27 27 85 28 28 29 84 30 29 31 30 32 31 33
REMARK SMILES IDX 78 34 32 35 83 36 77 37 79 38 33 39 82 40 76 41 75 42 34 44
REMARK SMILES IDX 64 45 45 46 63 47 46 48 49 49 62 50 80 51 47 52 48 53 61 55
REMARK SMILES IDX 81 56 50 57 35 58 36 59 44 60 37 61 43 62 38 63 39 64 40 65
REMARK SMILES IDX 41 66 42 67 65 68 66 69 74 70 67 71 73 72 68 73 69 74 70 75
REMARK SMILES IDX 71 76 72 77 51 78 52 79 60 80 53 81 59 82 54 83 55 84 56 85
REMARK SMILES IDX 57 86 58 87
REMARK H PARENT 79 43 49 54
REMARK Flexibility Score: inf
ROOT
ATOM      1  C   UNL A   1      39.632  22.555  26.451  1.00  0.00     0.274 C 
ENDROOT
BRANCH   1   2
ATOM      2  O   UNL A   1      40.548  21.649  25.808  1.00  0.00    -0.459 OA
BRANCH   2   3
ATOM      3  C   UNL A   1      41.227  20.796  26.627  1.00  0.00     0.347 C 
ATOM      4  O   UNL A   1      40.753  20.268  27.627  1.00  0.00    -0.248 OA
BRANCH   3   5
ATOM      5  C   UNL A   1      42.670  20.567  26.170  1.00  0.00     0.282 C 
BRANCH   5   6
ATOM      6  C   UNL A   1      42.837  19.170  25.539  1.00  0.00     0.057 C 
BRANCH   6   7
ATOM      7  C   UNL A   1      44.219  18.522  25.707  1.00  0.00     0.001 C 
ATOM      8  C   UNL A   1      45.340  19.218  24.949  1.00  0.00     0.004 C 
ENDBRANCH   6   7
ENDBRANCH   5   6
BRANCH   5   9
ATOM      9  O   UNL A   1      42.975  21.609  25.226  1.00  0.00    -0.479 OA
BRANCH   9  10
ATOM     10  C   UNL A   1      43.479  22.723  25.837  1.00  0.00     0.120 A 
ATOM     11  C   UNL A   1      43.617  23.933  25.167  1.00  0.00     0.047 A 
ATOM     12  C   UNL A   1      43.878  22.608  27.162  1.00  0.00     0.047 A 
ATOM     13  C   UNL A   1      44.084  25.058  25.860  1.00  0.00     0.012 A 
ATOM     14  C   UNL A   1      44.311  23.739  27.856  1.00  0.00     0.012 A 
ATOM     15  C   UNL A   1      44.414  24.995  27.228  1.00  0.00    -0.018 A 
BRANCH  15  16
ATOM     16  C   UNL A   1      44.833  26.198  27.989  1.00  0.00    -0.018 A 
ATOM     17  C   UNL A   1      46.088  26.269  28.621  1.00  0.00     0.009 A 
ATOM     18  C   UNL A   1      44.004  27.332  28.083  1.00  0.00     0.009 A 
ATOM     19  C   UNL A   1      46.496  27.418  29.310  1.00  0.00     0.001 A 
ATOM     20  C   UNL A   1      44.412  28.486  28.759  1.00  0.00     0.001 A 
ATOM     21  C   UNL A   1      45.660  28.529  29.374  1.00  0.00     0.000 A 
ENDBRANCH  15  16
ENDBRANCH   9  10
ENDBRANCH   5   9
ENDBRANCH   3   5
ENDBRANCH   2   3
ENDBRANCH   1   2
BRANCH   1  22
ATOM     22  C   UNL A   1      40.343  23.817  26.941  1.00  0.00     0.275 C 
BRANCH  22  23
ATOM     23  O   UNL A   1      39.612  24.998  26.565  1.00  0.00    -0.458 OA
BRANCH  23  24
ATOM     24  C   UNL A   1      40.347  26.129  26.495  1.00  0.00     0.338 C 
ATOM     25  O   UNL A   1      41.097  26.473  25.595  1.00  0.00    -0.246 OA
BRANCH  24  26
ATOM     26  C   UNL A   1      40.048  26.993  27.644  1.00  0.00     0.060 A 
ATOM     27  C   UNL A   1      40.578  28.284  27.651  1.00  0.00     0.016 A 
ATOM     28  C   UNL A   1      39.394  26.487  28.767  1.00  0.00     0.016 A 
ATOM     29  C   UNL A   1      40.519  29.055  28.809  1.00  0.00     0.010 A 
ATOM     30  C   UNL A   1      39.310  27.274  29.921  1.00  0.00     0.010 A 
ATOM     31  C   UNL A   1      39.908  28.545  29.961  1.00  0.00    -0.014 A 
BRANCH  31  32
ATOM     32  C   UNL A   1      39.996  29.310  31.228  1.00  0.00     0.031 A 
ATOM     33  C   UNL A   1      41.153  29.074  32.161  1.00  0.00     0.074 A 
ATOM     34  C   UNL A   1      39.077  30.250  31.519  1.00  0.00     0.049 A 
ATOM     35  N   UNL A   1      41.405  29.625  33.322  1.00  0.00    -0.248 NA
ATOM     36  C   UNL A   1      42.159  28.089  31.732  1.00  0.00     0.031 C 
ATOM     37  C   UNL A   1      37.933  30.604  30.679  1.00  0.00     0.029 A 
ATOM     38  N   UNL A   1      38.972  31.085  32.603  1.00  0.00    -0.354 N 
ATOM     39  C   UNL A   1      42.583  29.040  33.771  1.00  0.00     0.074 A 
ATOM     40  C   UNL A   1      42.991  28.084  32.764  1.00  0.00     0.031 C 
ATOM     41  C   UNL A   1      37.245  31.593  31.275  1.00  0.00     0.029 A 
ATOM     42  C   UNL A   1      37.883  31.921  32.547  1.00  0.00     0.049 A 
ATOM     43  H   UNL A   1      39.614  31.086  33.348  1.00  0.00     0.167 HD
ATOM     44  C   UNL A   1      43.266  29.277  34.917  1.00  0.00     0.031 A 
ATOM     45  C   UNL A   1      37.443  32.841  33.427  1.00  0.00     0.031 A 
ATOM     46  C   UNL A   1      42.870  30.231  35.917  1.00  0.00     0.049 A 
ATOM     47  C   UNL A   1      38.212  33.080  34.696  1.00  0.00     0.074 A 
ATOM     48  C   UNL A   1      43.485  30.525  37.121  1.00  0.00     0.029 A 
ATOM     49  N   UNL A   1      41.759  31.054  35.823  1.00  0.00    -0.354 N 
ATOM     50  N   UNL A   1      39.311  32.498  35.115  1.00  0.00    -0.248 NA
ATOM     51  C   UNL A   1      37.685  34.106  35.606  1.00  0.00     0.031 C 
ATOM     52  C   UNL A   1      42.735  31.518  37.765  1.00  0.00     0.029 A 
ATOM     53  C   UNL A   1      41.671  31.859  36.947  1.00  0.00     0.049 A 
ATOM     54  H   UNL A   1      41.126  31.065  35.070  1.00  0.00     0.167 HD
ATOM     55  C   UNL A   1      39.617  33.101  36.329  1.00  0.00     0.074 A 
ATOM     56  C   UNL A   1      38.595  34.100  36.572  1.00  0.00     0.031 C 
ATOM     57  C   UNL A   1      40.652  32.850  37.168  1.00  0.00     0.031 A 
BRANCH  44  58
ATOM     58  C   UNL A   1      44.502  28.456  35.156  1.00  0.00    -0.014 A 
ATOM     59  C   UNL A   1      45.763  28.903  34.724  1.00  0.00     0.010 A 
ATOM     60  C   UNL A   1      44.400  27.223  35.826  1.00  0.00     0.010 A 
ATOM     61  C   UNL A   1      46.897  28.109  34.922  1.00  0.00     0.020 A 
ATOM     62  C   UNL A   1      45.534  26.436  36.040  1.00  0.00     0.020 A 
ATOM     63  C   UNL A   1      46.773  26.876  35.568  1.00  0.00     0.054 A 
BRANCH  63  64
ATOM     64  S   UNL A   1      48.255  25.857  35.815  1.00  0.00     0.124 S 
ATOM     65  O   UNL A   1      47.923  25.141  37.044  1.00  0.00    -0.237 OA
ATOM     66  O   UNL A   1      48.296  25.042  34.604  1.00  0.00    -0.237 OA
ATOM     67  O   UNL A   1      49.329  26.839  35.937  1.00  0.00    -0.744 OA
ENDBRANCH  63  64
ENDBRANCH  44  58
BRANCH  45  68
ATOM     68  C   UNL A   1      36.205  33.607  33.134  1.00  0.00    -0.014 A 
ATOM     69  C   UNL A   1      36.277  34.920  32.642  1.00  0.00     0.010 A 
ATOM     70  C   UNL A   1      34.944  33.015  33.336  1.00  0.00     0.010 A 
ATOM     71  C   UNL A   1      35.108  35.636  32.366  1.00  0.00     0.020 A 
ATOM     72  C   UNL A   1      33.775  33.721  33.042  1.00  0.00     0.020 A 
ATOM     73  C   UNL A   1      33.865  35.032  32.570  1.00  0.00     0.054 A 
BRANCH  73  74
ATOM     74  S   UNL A   1      32.355  35.949  32.149  1.00  0.00     0.124 S 
ATOM     75  O   UNL A   1      32.554  37.202  32.869  1.00  0.00    -0.237 OA
ATOM     76  O   UNL A   1      32.427  36.037  30.692  1.00  0.00    -0.237 OA
ATOM     77  O   UNL A   1      31.288  35.092  32.660  1.00  0.00    -0.744 OA
ENDBRANCH  73  74
ENDBRANCH  45  68
BRANCH  57  78
ATOM     78  C   UNL A   1      40.747  33.695  38.407  1.00  0.00    -0.014 A 
ATOM     79  C   UNL A   1      41.482  34.893  38.412  1.00  0.00     0.010 A 
ATOM     80  C   UNL A   1      40.068  33.297  39.572  1.00  0.00     0.010 A 
ATOM     81  C   UNL A   1      41.563  35.664  39.575  1.00  0.00     0.020 A 
ATOM     82  C   UNL A   1      40.134  34.074  40.731  1.00  0.00     0.020 A 
ATOM     83  C   UNL A   1      40.896  35.245  40.730  1.00  0.00     0.054 A 
BRANCH  83  84
ATOM     84  S   UNL A   1      40.987  36.268  42.225  1.00  0.00     0.124 S 
ATOM     85  O   UNL A   1      41.867  37.352  41.797  1.00  0.00    -0.237 OA
ATOM     86  O   UNL A   1      39.593  36.643  42.451  1.00  0.00    -0.237 OA
ATOM     87  O   UNL A   1      41.550  35.363  43.225  1.00  0.00    -0.744 OA
ENDBRANCH  83  84
ENDBRANCH  57  78
ENDBRANCH  31  32
ENDBRANCH  24  26
ENDBRANCH  23  24
ENDBRANCH  22  23
ENDBRANCH   1  22
TORSDOF 19
ENDMDL
MODEL 3
REMARK VINA RESULT:      -7.2      5.053     11.296
REMARK SMILES CCC[C@@H](Oc1ccc(-c2ccccc2)cc1)C(=O)OCCOC(=O)c1ccc(-c2c3nc(c(-c4ccc(S(=O)(=O)[O-])cc4)c4ccc([nH]4)c(-c4ccc(S(=O)(=O)[O-])cc4)c4nc(c(-c5ccc(S(=O)(=O)[O-])cc5)c5ccc2[nH]5)C=C4)C=C3)cc1
REMARK SMILES IDX 21 1 20 2 18 3 19 4 4 5 3 6 2 7 1 8 5 9 6 10 7 11 17 12 8 13
REMARK SMILES IDX 16 14 9 15 10 16 11 17 15 18 12 19 14 20 13 21 22 22 23 23
REMARK SMILES IDX 24 24 25 25 26 26 27 27 85 28 28 29 84 30 29 31 30 32 31 33
REMARK SMILES IDX 78 34 32 35 83 36 77 37 79 38 33 39 82 40 76 41 75 42 34 44
REMARK SMILES IDX 64 45 45 46 63 47 46 48 49 49 62 50 80 51 47 52 48 53 61 55
REMARK SMILES IDX 81 56 50 57 35 58 36 59 44 60 37 61 43 62 38 63 39 64 40 65
REMARK SMILES IDX 41 66 42 67 65 68 66 69 74 70 67 71 73 72 68 73 69 74 70 75
REMARK SMILES IDX 71 76 72 77 51 78 52 79 60 80 53 81 59 82 54 83 55 84 56 85
REMARK SMILES IDX 57 86 58 87
REMARK H PARENT 79 43 49 54
REMARK Flexibility Score: inf
ROOT
ATOM      1  C   UNL A   1      33.743  28.943  27.404  1.00  0.00     0.274 C 
ENDROOT
BRANCH   1   2
ATOM      2  O   UNL A   1      33.731  28.148  26.203  1.00  0.00    -0.459 OA
BRANCH   2   3
ATOM      3  C   UNL A   1      32.504  27.781  25.736  1.00  0.00     0.347 C 
ATOM      4  O   UNL A   1      31.490  28.462  25.836  1.00  0.00    -0.248 OA
BRANCH   3   5
ATOM      5  C   UNL A   1      32.517  26.402  25.071  1.00  0.00     0.282 C 
BRANCH   5   6
ATOM      6  C   UNL A   1      33.501  26.367  23.885  1.00  0.00     0.057 C 
BRANCH   6   7
ATOM      7  C   UNL A   1      32.864  26.352  22.488  1.00  0.00     0.001 C 
ATOM      8  C   UNL A   1      31.476  25.730  22.433  1.00  0.00     0.004 C 
ENDBRANCH   6   7
ENDBRANCH   5   6
BRANCH   5   9
ATOM      9  O   UNL A   1      32.889  25.456  26.089  1.00  0.00    -0.479 OA
BRANCH   9  10
ATOM     10  C   UNL A   1      33.033  24.193  25.588  1.00  0.00     0.120 A 
ATOM     11  C   UNL A   1      34.258  23.534  25.586  1.00  0.00     0.047 A 
ATOM     12  C   UNL A   1      31.909  23.580  25.051  1.00  0.00     0.047 A 
ATOM     13  C   UNL A   1      34.334  22.218  25.113  1.00  0.00     0.012 A 
ATOM     14  C   UNL A   1      31.984  22.256  24.612  1.00  0.00     0.012 A 
ATOM     15  C   UNL A   1      33.194  21.537  24.643  1.00  0.00    -0.018 A 
BRANCH  15  16
ATOM     16  C   UNL A   1      33.249  20.117  24.216  1.00  0.00    -0.018 A 
ATOM     17  C   UNL A   1      32.313  19.582  23.311  1.00  0.00     0.009 A 
ATOM     18  C   UNL A   1      34.262  19.252  24.673  1.00  0.00     0.009 A 
ATOM     19  C   UNL A   1      32.387  18.252  22.883  1.00  0.00     0.001 A 
ATOM     20  C   UNL A   1      34.348  17.926  24.237  1.00  0.00     0.001 A 
ATOM     21  C   UNL A   1      33.409  17.425  23.342  1.00  0.00     0.000 A 
ENDBRANCH  15  16
ENDBRANCH   9  10
ENDBRANCH   5   9
ENDBRANCH   3   5
ENDBRANCH   2   3
ENDBRANCH   1   2
BRANCH   1  22
ATOM     22  C   UNL A   1      35.028  29.764  27.520  1.00  0.00     0.275 C 
BRANCH  22  23
ATOM     23  O   UNL A   1      36.037  29.041  28.248  1.00  0.00    -0.458 OA
BRANCH  23  24
ATOM     24  C   UNL A   1      37.011  29.805  28.790  1.00  0.00     0.338 C 
ATOM     25  O   UNL A   1      36.877  30.746  29.555  1.00  0.00    -0.246 OA
BRANCH  24  26
ATOM     26  C   UNL A   1      38.329  29.280  28.410  1.00  0.00     0.060 A 
ATOM     27  C   UNL A   1      39.176  28.833  29.425  1.00  0.00     0.016 A 
ATOM     28  C   UNL A   1      38.785  29.377  27.096  1.00  0.00     0.016 A 
ATOM     29  C   UNL A   1      40.509  28.545  29.145  1.00  0.00     0.010 A 
ATOM     30  C   UNL A   1      40.118  29.060  26.810  1.00  0.00     0.010 A 
ATOM     31  C   UNL A   1      40.997  28.682  27.840  1.00  0.00    -0.014 A 
BRANCH  31  32
ATOM     32  C   UNL A   1      42.450  28.530  27.588  1.00  0.00     0.031 A 
ATOM     33  C   UNL A   1      43.384  29.665  27.911  1.00  0.00     0.074 A 
ATOM     34  C   UNL A   1      42.941  27.366  27.125  1.00  0.00     0.049 A 
ATOM     35  N   UNL A   1      44.681  29.740  27.750  1.00  0.00    -0.248 NA
ATOM     36  C   UNL A   1      42.779  30.875  28.492  1.00  0.00     0.031 C 
ATOM     37  C   UNL A   1      42.147  26.177  26.814  1.00  0.00     0.029 A 
ATOM     38  N   UNL A   1      44.231  26.992  26.846  1.00  0.00    -0.354 N 
ATOM     39  C   UNL A   1      45.045  31.008  28.189  1.00  0.00     0.074 A 
ATOM     40  C   UNL A   1      43.831  31.673  28.611  1.00  0.00     0.031 C 
ATOM     41  C   UNL A   1      42.971  25.200  26.395  1.00  0.00     0.029 A 
ATOM     42  C   UNL A   1      44.341  25.704  26.383  1.00  0.00     0.049 A 
ATOM     43  H   UNL A   1      45.004  27.590  26.966  1.00  0.00     0.167 HD
ATOM     44  C   UNL A   1      46.277  31.569  28.236  1.00  0.00     0.031 A 
ATOM     45  C   UNL A   1      45.425  25.009  25.985  1.00  0.00     0.031 A 
ATOM     46  C   UNL A   1      47.487  30.910  27.826  1.00  0.00     0.049 A 
ATOM     47  C   UNL A   1      46.781  25.656  26.038  1.00  0.00     0.074 A 
ATOM     48  C   UNL A   1      48.779  31.406  27.816  1.00  0.00     0.029 A 
ATOM     49  N   UNL A   1      47.554  29.607  27.359  1.00  0.00    -0.354 N 
ATOM     50  N   UNL A   1      47.100  26.866  26.431  1.00  0.00    -0.248 NA
ATOM     51  C   UNL A   1      47.921  24.839  25.601  1.00  0.00     0.031 C 
ATOM     52  C   UNL A   1      49.628  30.404  27.327  1.00  0.00     0.029 A 
ATOM     53  C   UNL A   1      48.866  29.278  27.062  1.00  0.00     0.049 A 
ATOM     54  H   UNL A   1      46.784  29.004  27.255  1.00  0.00     0.167 HD
ATOM     55  C   UNL A   1      48.482  26.949  26.307  1.00  0.00     0.074 A 
ATOM     56  C   UNL A   1      48.938  25.665  25.813  1.00  0.00     0.031 C 
ATOM     57  C   UNL A   1      49.301  27.995  26.578  1.00  0.00     0.031 A 
BRANCH  44  58
ATOM     58  C   UNL A   1      46.362  32.987  28.726  1.00  0.00    -0.014 A 
ATOM     59  C   UNL A   1      46.231  33.290  30.093  1.00  0.00     0.010 A 
ATOM     60  C   UNL A   1      46.579  34.030  27.807  1.00  0.00     0.010 A 
ATOM     61  C   UNL A   1      46.275  34.618  30.527  1.00  0.00     0.020 A 
ATOM     62  C   UNL A   1      46.641  35.357  28.240  1.00  0.00     0.020 A 
ATOM     63  C   UNL A   1      46.468  35.644  29.597  1.00  0.00     0.054 A 
BRANCH  63  64
ATOM     64  S   UNL A   1      46.521  37.362  30.177  1.00  0.00     0.124 S 
ATOM     65  O   UNL A   1      45.400  37.396  31.113  1.00  0.00    -0.237 OA
ATOM     66  O   UNL A   1      47.847  37.463  30.781  1.00  0.00    -0.237 OA
ATOM     67  O   UNL A   1      46.337  38.142  28.956  1.00  0.00    -0.744 OA
ENDBRANCH  63  64
ENDBRANCH  44  58
BRANCH  45  68
ATOM     68  C   UNL A   1      45.267  23.615  25.497  1.00  0.00    -0.014 A 
ATOM     69  C   UNL A   1      45.374  22.532  26.384  1.00  0.00     0.010 A 
ATOM     70  C   UNL A   1      44.995  23.369  24.139  1.00  0.00     0.010 A 
ATOM     71  C   UNL A   1      45.223  21.222  25.920  1.00  0.00     0.020 A 
ATOM     72  C   UNL A   1      44.824  22.062  23.676  1.00  0.00     0.020 A 
ATOM     73  C   UNL A   1      44.951  20.996  24.568  1.00  0.00     0.054 A 
BRANCH  73  74
ATOM     74  S   UNL A   1      44.695  19.294  23.989  1.00  0.00     0.124 S 
ATOM     75  O   UNL A   1      44.502  19.490  22.556  1.00  0.00    -0.237 OA
ATOM     76  O   UNL A   1      45.938  18.631  24.376  1.00  0.00    -0.237 OA
ATOM     77  O   UNL A   1      43.512  18.861  24.731  1.00  0.00    -0.744 OA
ENDBRANCH  73  74
ENDBRANCH  45  68
BRANCH  57  78
ATOM     78  C   UNL A   1      50.775  27.779  26.379  1.00  0.00    -0.014 A 
ATOM     79  C   UNL A   1      51.591  27.339  27.434  1.00  0.00     0.010 A 
ATOM     80  C   UNL A   1      51.341  27.992  25.110  1.00  0.00     0.010 A 
ATOM     81  C   UNL A   1      52.961  27.147  27.232  1.00  0.00     0.020 A 
ATOM     82  C   UNL A   1      52.708  27.786  24.900  1.00  0.00     0.020 A 
ATOM     83  C   UNL A   1      53.512  27.380  25.968  1.00  0.00     0.054 A 
BRANCH  83  84
ATOM     84  S   UNL A   1      55.287  27.103  25.712  1.00  0.00     0.124 S 
ATOM     85  O   UNL A   1      55.645  26.327  26.895  1.00  0.00    -0.237 OA
ATOM     86  O   UNL A   1      55.324  26.372  24.446  1.00  0.00    -0.237 OA
ATOM     87  O   UNL A   1      55.840  28.454  25.658  1.00  0.00    -0.744 OA
ENDBRANCH  83  84
ENDBRANCH  57  78
ENDBRANCH  31  32
ENDBRANCH  24  26
ENDBRANCH  23  24
ENDBRANCH  22  23
ENDBRANCH   1  22
TORSDOF 19
ENDMDL
