MODEL 1
REMARK VINA RESULT:     -10.7      0.000      0.000
REMARK SMILES C[C@H]1CC[C@@]1(C(=O)OCCOC(=O)c1ccc(-c2c3nc(c(-c4ccc(S(=O)(=O)[O-])cc4)c4ccc([nH]4)c(-c4ccc(S(=O)(=O)[O-])cc4)c4nc(c(-c5ccc(S(=O)(=O)[O-])cc5)c5ccc2[nH]5)C=C4)C=C3)cc1)c1cc(F)cc(F)c1
REMARK SMILES IDX 10 1 9 2 8 3 6 4 7 5 5 6 1 7 2 8 3 9 4 10 74 11 75 12 81 13
REMARK SMILES IDX 76 14 79 15 77 16 78 17 80 18 11 19 12 20 13 21 14 22 15 23
REMARK SMILES IDX 73 24 16 25 72 26 17 27 18 28 19 29 66 30 20 31 71 32 65 33
REMARK SMILES IDX 67 34 21 35 70 36 64 37 63 38 22 40 52 41 33 42 51 43 34 44
REMARK SMILES IDX 37 45 50 46 68 47 35 48 36 49 49 51 69 52 38 53 23 54 24 55
REMARK SMILES IDX 32 56 25 57 31 58 26 59 27 60 28 61 29 62 30 63 53 64 54 65
REMARK SMILES IDX 62 66 55 67 61 68 56 69 57 70 58 71 59 72 60 73 39 74 40 75
REMARK SMILES IDX 48 76 41 77 47 78 42 79 43 80 44 81 45 82 46 83
REMARK H PARENT 67 39 37 50
REMARK Flexibility Score: inf
ROOT
ATOM      1  C   UNL A   1      32.293  29.689  27.185  1.00  0.00     0.275 C 
ENDROOT
BRANCH   1   2
ATOM      2  C   UNL A   1      31.654  28.326  27.482  1.00  0.00     0.274 C 
BRANCH   2   3
ATOM      3  O   UNL A   1      32.543  27.251  27.094  1.00  0.00    -0.461 OA
BRANCH   3   4
ATOM      4  C   UNL A   1      31.965  26.275  26.320  1.00  0.00     0.316 C 
ATOM      5  O   UNL A   1      31.329  25.352  26.833  1.00  0.00    -0.251 OA
BRANCH   4   6
ATOM      6  C   UNL A   1      32.218  26.440  24.724  1.00  0.00     0.096 C 
ATOM      7  C   UNL A   1      32.419  24.519  22.702  1.00  0.00     0.009 C 
ATOM      8  C   UNL A   1      32.704  25.023  24.108  1.00  0.00     0.008 C 
ATOM      9  C   UNL A   1      34.157  25.495  24.344  1.00  0.00     0.006 C 
ATOM     10  C   UNL A   1      33.664  26.951  24.383  1.00  0.00     0.024 C 
BRANCH   6  11
ATOM     11  C   UNL A   1      30.992  27.251  23.940  1.00  0.00    -0.025 A 
ATOM     12  C   UNL A   1      31.267  28.334  23.068  1.00  0.00     0.044 A 
ATOM     13  C   UNL A   1      29.611  27.002  24.090  1.00  0.00     0.044 A 
ATOM     14  C   UNL A   1      30.273  29.051  22.390  1.00  0.00     0.126 A 
ATOM     15  C   UNL A   1      28.616  27.743  23.436  1.00  0.00     0.126 A 
ATOM     16  F   UNL A   1      30.631  30.048  21.570  1.00  0.00    -0.207 F 
ATOM     17  C   UNL A   1      28.937  28.764  22.568  1.00  0.00     0.078 A 
ATOM     18  F   UNL A   1      27.329  27.464  23.680  1.00  0.00    -0.207 F 
ENDBRANCH   6  11
ENDBRANCH   4   6
ENDBRANCH   3   4
ENDBRANCH   2   3
ENDBRANCH   1   2
BRANCH   1  19
ATOM     19  O   UNL A   1      33.725  29.574  27.262  1.00  0.00    -0.458 OA
BRANCH  19  20
ATOM     20  C   UNL A   1      34.364  30.512  27.998  1.00  0.00     0.338 C 
ATOM     21  O   UNL A   1      33.896  31.574  28.380  1.00  0.00    -0.246 OA
BRANCH  20  22
ATOM     22  C   UNL A   1      35.759  30.079  28.246  1.00  0.00     0.060 A 
ATOM     23  C   UNL A   1      36.176  29.667  29.516  1.00  0.00     0.016 A 
ATOM     24  C   UNL A   1      36.681  30.117  27.199  1.00  0.00     0.016 A 
ATOM     25  C   UNL A   1      37.506  29.307  29.748  1.00  0.00     0.010 A 
ATOM     26  C   UNL A   1      38.002  29.710  27.418  1.00  0.00     0.010 A 
ATOM     27  C   UNL A   1      38.433  29.316  28.698  1.00  0.00    -0.014 A 
BRANCH  27  28
ATOM     28  C   UNL A   1      39.862  28.970  28.931  1.00  0.00     0.031 A 
ATOM     29  C   UNL A   1      40.803  30.013  29.477  1.00  0.00     0.074 A 
ATOM     30  C   UNL A   1      40.331  27.740  28.642  1.00  0.00     0.049 A 
ATOM     31  N   UNL A   1      42.106  29.976  29.589  1.00  0.00    -0.248 NA
ATOM     32  C   UNL A   1      40.192  31.266  29.948  1.00  0.00     0.031 C 
ATOM     33  C   UNL A   1      39.530  26.616  28.153  1.00  0.00     0.029 A 
ATOM     34  N   UNL A   1      41.607  27.231  28.712  1.00  0.00    -0.354 N 
ATOM     35  C   UNL A   1      42.476  31.214  30.100  1.00  0.00     0.074 A 
ATOM     36  C   UNL A   1      41.260  31.981  30.272  1.00  0.00     0.031 C 
ATOM     37  C   UNL A   1      40.330  25.550  27.978  1.00  0.00     0.029 A 
ATOM     38  C   UNL A   1      41.707  25.930  28.280  1.00  0.00     0.049 A 
ATOM     39  H   UNL A   1      42.376  27.750  29.040  1.00  0.00     0.167 HD
ATOM     40  C   UNL A   1      43.716  31.676  30.394  1.00  0.00     0.031 A 
ATOM     41  C   UNL A   1      42.786  25.139  28.111  1.00  0.00     0.031 A 
ATOM     42  C   UNL A   1      44.924  30.909  30.244  1.00  0.00     0.049 A 
ATOM     43  C   UNL A   1      44.156  25.682  28.412  1.00  0.00     0.074 A 
ATOM     44  C   UNL A   1      46.228  31.291  30.516  1.00  0.00     0.029 A 
ATOM     45  N   UNL A   1      44.979  29.600  29.792  1.00  0.00    -0.354 N 
ATOM     46  N   UNL A   1      44.493  26.871  28.852  1.00  0.00    -0.248 NA
ATOM     47  C   UNL A   1      45.293  24.778  28.185  1.00  0.00     0.031 C 
ATOM     48  C   UNL A   1      47.073  30.223  30.197  1.00  0.00     0.029 A 
ATOM     49  C   UNL A   1      46.293  29.161  29.769  1.00  0.00     0.049 A 
ATOM     50  H   UNL A   1      44.199  29.060  29.526  1.00  0.00     0.167 HD
ATOM     51  C   UNL A   1      45.879  26.853  28.967  1.00  0.00     0.074 A 
ATOM     52  C   UNL A   1      46.316  25.532  28.567  1.00  0.00     0.031 C 
ATOM     53  C   UNL A   1      46.713  27.844  29.366  1.00  0.00     0.031 A 
BRANCH  40  54
ATOM     54  C   UNL A   1      43.828  33.100  30.868  1.00  0.00    -0.014 A 
ATOM     55  C   UNL A   1      44.089  34.151  29.972  1.00  0.00     0.010 A 
ATOM     56  C   UNL A   1      43.649  33.389  32.233  1.00  0.00     0.010 A 
ATOM     57  C   UNL A   1      44.211  35.464  30.440  1.00  0.00     0.020 A 
ATOM     58  C   UNL A   1      43.747  34.704  32.700  1.00  0.00     0.020 A 
ATOM     59  C   UNL A   1      44.046  35.729  31.803  1.00  0.00     0.054 A 
BRANCH  59  60
ATOM     60  S   UNL A   1      44.201  37.441  32.387  1.00  0.00     0.124 S 
ATOM     61  O   UNL A   1      45.612  37.503  32.761  1.00  0.00    -0.237 OA
ATOM     62  O   UNL A   1      43.831  38.219  31.207  1.00  0.00    -0.237 OA
ATOM     63  O   UNL A   1      43.257  37.514  33.498  1.00  0.00    -0.744 OA
ENDBRANCH  59  60
ENDBRANCH  40  54
BRANCH  41  64
ATOM     64  C   UNL A   1      42.615  23.754  27.595  1.00  0.00    -0.014 A 
ATOM     65  C   UNL A   1      42.698  23.488  26.217  1.00  0.00     0.010 A 
ATOM     66  C   UNL A   1      42.382  22.689  28.485  1.00  0.00     0.010 A 
ATOM     67  C   UNL A   1      42.549  22.183  25.737  1.00  0.00     0.020 A 
ATOM     68  C   UNL A   1      42.258  21.379  28.011  1.00  0.00     0.020 A 
ATOM     69  C   UNL A   1      42.334  21.136  26.638  1.00  0.00     0.054 A 
BRANCH  69  70
ATOM     70  S   UNL A   1      42.216  19.439  26.006  1.00  0.00     0.124 S 
ATOM     71  O   UNL A   1      40.791  19.321  25.717  1.00  0.00    -0.237 OA
ATOM     72  O   UNL A   1      43.098  19.472  24.840  1.00  0.00    -0.237 OA
ATOM     73  O   UNL A   1      42.702  18.627  27.119  1.00  0.00    -0.744 OA
ENDBRANCH  69  70
ENDBRANCH  41  64
BRANCH  53  74
ATOM     74  C   UNL A   1      48.183  27.527  29.418  1.00  0.00    -0.014 A 
ATOM     75  C   UNL A   1      49.048  27.919  28.381  1.00  0.00     0.010 A 
ATOM     76  C   UNL A   1      48.711  26.864  30.541  1.00  0.00     0.010 A 
ATOM     77  C   UNL A   1      50.413  27.624  28.451  1.00  0.00     0.020 A 
ATOM     78  C   UNL A   1      50.078  26.586  30.624  1.00  0.00     0.020 A 
ATOM     79  C   UNL A   1      50.918  26.954  29.570  1.00  0.00     0.054 A 
BRANCH  79  80
ATOM     80  S   UNL A   1      52.697  26.608  29.658  1.00  0.00     0.124 S 
ATOM     81  O   UNL A   1      52.785  25.779  30.857  1.00  0.00    -0.237 OA
ATOM     82  O   UNL A   1      52.955  25.917  28.397  1.00  0.00    -0.237 OA
ATOM     83  O   UNL A   1      53.301  27.933  29.770  1.00  0.00    -0.744 OA
ENDBRANCH  79  80
ENDBRANCH  53  74
ENDBRANCH  27  28
ENDBRANCH  20  22
ENDBRANCH  19  20
ENDBRANCH   1  19
TORSDOF 15
ENDMDL
MODEL 2
REMARK VINA RESULT:     -10.5      2.654      3.799
REMARK SMILES C[C@H]1CC[C@@]1(C(=O)OCCOC(=O)c1ccc(-c2c3nc(c(-c4ccc(S(=O)(=O)[O-])cc4)c4ccc([nH]4)c(-c4ccc(S(=O)(=O)[O-])cc4)c4nc(c(-c5ccc(S(=O)(=O)[O-])cc5)c5ccc2[nH]5)C=C4)C=C3)cc1)c1cc(F)cc(F)c1
REMARK SMILES IDX 10 1 9 2 8 3 6 4 7 5 5 6 1 7 2 8 3 9 4 10 74 11 75 12 81 13
REMARK SMILES IDX 76 14 79 15 77 16 78 17 80 18 11 19 12 20 13 21 14 22 15 23
REMARK SMILES IDX 73 24 16 25 72 26 17 27 18 28 19 29 66 30 20 31 71 32 65 33
REMARK SMILES IDX 67 34 21 35 70 36 64 37 63 38 22 40 52 41 33 42 51 43 34 44
REMARK SMILES IDX 37 45 50 46 68 47 35 48 36 49 49 51 69 52 38 53 23 54 24 55
REMARK SMILES IDX 32 56 25 57 31 58 26 59 27 60 28 61 29 62 30 63 53 64 54 65
REMARK SMILES IDX 62 66 55 67 61 68 56 69 57 70 58 71 59 72 60 73 39 74 40 75
REMARK SMILES IDX 48 76 41 77 47 78 42 79 43 80 44 81 45 82 46 83
REMARK H PARENT 67 39 37 50
REMARK Flexibility Score: inf
ROOT
ATOM      1  C   UNL A   1      34.246  30.622  27.613  1.00  0.00     0.275 C 
ENDROOT
BRANCH   1   2
ATOM      2  C   UNL A   1      33.317  29.862  26.657  1.00  0.00     0.274 C 
BRANCH   2   3
ATOM      3  O   UNL A   1      33.484  28.432  26.813  1.00  0.00    -0.461 OA
BRANCH   3   4
ATOM      4  C   UNL A   1      32.314  27.715  26.844  1.00  0.00     0.316 C 
ATOM      5  O   UNL A   1      31.481  27.897  27.735  1.00  0.00    -0.251 OA
BRANCH   4   6
ATOM      6  C   UNL A   1      32.158  26.625  25.650  1.00  0.00     0.096 C 
ATOM      7  C   UNL A   1      32.702  26.827  22.915  1.00  0.00     0.009 C 
ATOM      8  C   UNL A   1      32.165  27.388  24.222  1.00  0.00     0.008 C 
ATOM      9  C   UNL A   1      30.623  27.442  24.318  1.00  0.00     0.006 C 
ATOM     10  C   UNL A   1      30.658  26.283  25.327  1.00  0.00     0.024 C 
BRANCH   6  11
ATOM     11  C   UNL A   1      33.149  25.298  25.830  1.00  0.00    -0.025 A 
ATOM     12  C   UNL A   1      32.703  24.131  26.498  1.00  0.00     0.044 A 
ATOM     13  C   UNL A   1      34.494  25.212  25.409  1.00  0.00     0.044 A 
ATOM     14  C   UNL A   1      33.498  22.993  26.679  1.00  0.00     0.126 A 
ATOM     15  C   UNL A   1      35.299  24.083  25.622  1.00  0.00     0.126 A 
ATOM     16  F   UNL A   1      32.982  21.928  27.306  1.00  0.00    -0.207 F 
ATOM     17  C   UNL A   1      34.806  22.958  26.245  1.00  0.00     0.078 A 
ATOM     18  F   UNL A   1      36.580  24.113  25.230  1.00  0.00    -0.207 F 
ENDBRANCH   6  11
ENDBRANCH   4   6
ENDBRANCH   3   4
ENDBRANCH   2   3
ENDBRANCH   1   2
BRANCH   1  19
ATOM     19  O   UNL A   1      35.280  29.738  28.081  1.00  0.00    -0.458 OA
BRANCH  19  20
ATOM     20  C   UNL A   1      36.022  30.180  29.122  1.00  0.00     0.338 C 
ATOM     21  O   UNL A   1      35.612  30.806  30.088  1.00  0.00    -0.246 OA
BRANCH  20  22
ATOM     22  C   UNL A   1      37.444  29.824  28.902  1.00  0.00     0.060 A 
ATOM     23  C   UNL A   1      37.969  29.703  27.611  1.00  0.00     0.016 A 
ATOM     24  C   UNL A   1      38.262  29.571  30.004  1.00  0.00     0.016 A 
ATOM     25  C   UNL A   1      39.299  29.320  27.417  1.00  0.00     0.010 A 
ATOM     26  C   UNL A   1      39.607  29.235  29.811  1.00  0.00     0.010 A 
ATOM     27  C   UNL A   1      40.136  29.090  28.516  1.00  0.00    -0.014 A 
BRANCH  27  28
ATOM     28  C   UNL A   1      41.545  28.648  28.331  1.00  0.00     0.031 A 
ATOM     29  C   UNL A   1      42.661  29.656  28.421  1.00  0.00     0.074 A 
ATOM     30  C   UNL A   1      41.836  27.359  28.064  1.00  0.00     0.049 A 
ATOM     31  N   UNL A   1      43.928  29.519  28.123  1.00  0.00    -0.248 NA
ATOM     32  C   UNL A   1      42.297  30.998  28.901  1.00  0.00     0.031 C 
ATOM     33  C   UNL A   1      40.866  26.264  27.994  1.00  0.00     0.029 A 
ATOM     34  N   UNL A   1      43.040  26.752  27.793  1.00  0.00    -0.354 N 
ATOM     35  C   UNL A   1      44.503  30.767  28.334  1.00  0.00     0.074 A 
ATOM     36  C   UNL A   1      43.446  31.648  28.783  1.00  0.00     0.031 C 
ATOM     37  C   UNL A   1      41.514  25.121  27.711  1.00  0.00     0.029 A 
ATOM     38  C   UNL A   1      42.932  25.410  27.516  1.00  0.00     0.049 A 
ATOM     39  H   UNL A   1      43.898  27.235  27.796  1.00  0.00     0.167 HD
ATOM     40  C   UNL A   1      45.793  31.148  28.165  1.00  0.00     0.031 A 
ATOM     41  C   UNL A   1      43.859  24.516  27.117  1.00  0.00     0.031 A 
ATOM     42  C   UNL A   1      46.849  30.269  27.740  1.00  0.00     0.049 A 
ATOM     43  C   UNL A   1      45.279  24.967  26.904  1.00  0.00     0.074 A 
ATOM     44  C   UNL A   1      48.188  30.563  27.541  1.00  0.00     0.029 A 
ATOM     45  N   UNL A   1      46.692  28.920  27.459  1.00  0.00    -0.354 N 
ATOM     46  N   UNL A   1      45.796  26.162  27.066  1.00  0.00    -0.248 NA
ATOM     47  C   UNL A   1      46.236  23.951  26.446  1.00  0.00     0.031 C 
ATOM     48  C   UNL A   1      48.833  29.399  27.107  1.00  0.00     0.029 A 
ATOM     49  C   UNL A   1      47.906  28.370  27.081  1.00  0.00     0.049 A 
ATOM     50  H   UNL A   1      45.842  28.426  27.520  1.00  0.00     0.167 HD
ATOM     51  C   UNL A   1      47.143  26.037  26.742  1.00  0.00     0.074 A 
ATOM     52  C   UNL A   1      47.363  24.649  26.392  1.00  0.00     0.031 C 
ATOM     53  C   UNL A   1      48.109  26.988  26.733  1.00  0.00     0.031 A 
BRANCH  40  54
ATOM     54  C   UNL A   1      46.121  32.598  28.400  1.00  0.00    -0.014 A 
ATOM     55  C   UNL A   1      46.115  33.529  27.347  1.00  0.00     0.010 A 
ATOM     56  C   UNL A   1      46.420  33.036  29.703  1.00  0.00     0.010 A 
ATOM     57  C   UNL A   1      46.445  34.867  27.586  1.00  0.00     0.020 A 
ATOM     58  C   UNL A   1      46.727  34.377  29.949  1.00  0.00     0.020 A 
ATOM     59  C   UNL A   1      46.757  35.280  28.885  1.00  0.00     0.054 A 
BRANCH  59  60
ATOM     60  S   UNL A   1      47.174  37.022  29.174  1.00  0.00     0.124 S 
ATOM     61  O   UNL A   1      48.078  36.928  30.318  1.00  0.00    -0.237 OA
ATOM     62  O   UNL A   1      47.798  37.418  27.914  1.00  0.00    -0.237 OA
ATOM     63  O   UNL A   1      45.883  37.647  29.449  1.00  0.00    -0.744 OA
ENDBRANCH  59  60
ENDBRANCH  40  54
BRANCH  41  64
ATOM     64  C   UNL A   1      43.464  23.106  26.857  1.00  0.00    -0.014 A 
ATOM     65  C   UNL A   1      43.757  22.496  25.624  1.00  0.00     0.010 A 
ATOM     66  C   UNL A   1      42.804  22.359  27.850  1.00  0.00     0.010 A 
ATOM     67  C   UNL A   1      43.394  21.166  25.388  1.00  0.00     0.020 A 
ATOM     68  C   UNL A   1      42.463  21.021  27.626  1.00  0.00     0.020 A 
ATOM     69  C   UNL A   1      42.753  20.437  26.393  1.00  0.00     0.054 A 
BRANCH  69  70
ATOM     70  S   UNL A   1      42.357  18.690  26.096  1.00  0.00     0.124 S 
ATOM     71  O   UNL A   1      43.263  18.354  25.004  1.00  0.00    -0.237 OA
ATOM     72  O   UNL A   1      42.662  18.071  27.385  1.00  0.00    -0.237 OA
ATOM     73  O   UNL A   1      40.937  18.719  25.751  1.00  0.00    -0.744 OA
ENDBRANCH  69  70
ENDBRANCH  41  64
BRANCH  53  74
ATOM     74  C   UNL A   1      49.500  26.553  26.360  1.00  0.00    -0.014 A 
ATOM     75  C   UNL A   1      50.327  25.891  27.285  1.00  0.00     0.010 A 
ATOM     76  C   UNL A   1      49.970  26.775  25.053  1.00  0.00     0.010 A 
ATOM     77  C   UNL A   1      51.614  25.488  26.918  1.00  0.00     0.020 A 
ATOM     78  C   UNL A   1      51.248  26.354  24.677  1.00  0.00     0.020 A 
ATOM     79  C   UNL A   1      52.069  25.727  25.617  1.00  0.00     0.054 A 
BRANCH  79  80
ATOM     80  S   UNL A   1      53.730  25.167  25.150  1.00  0.00     0.124 S 
ATOM     81  O   UNL A   1      54.572  25.895  26.096  1.00  0.00    -0.237 OA
ATOM     82  O   UNL A   1      53.656  23.723  25.359  1.00  0.00    -0.237 OA
ATOM     83  O   UNL A   1      53.855  25.582  23.756  1.00  0.00    -0.744 OA
ENDBRANCH  79  80
ENDBRANCH  53  74
ENDBRANCH  27  28
ENDBRANCH  20  22
ENDBRANCH  19  20
ENDBRANCH   1  19
TORSDOF 15
ENDMDL
MODEL 3
REMARK VINA RESULT:     -10.4      5.183     10.739
REMARK SMILES C[C@H]1CC[C@@]1(C(=O)OCCOC(=O)c1ccc(-c2c3nc(c(-c4ccc(S(=O)(=O)[O-])cc4)c4ccc([nH]4)c(-c4ccc(S(=O)(=O)[O-])cc4)c4nc(c(-c5ccc(S(=O)(=O)[O-])cc5)c5ccc2[nH]5)C=C4)C=C3)cc1)c1cc(F)cc(F)c1
REMARK SMILES IDX 10 1 9 2 8 3 6 4 7 5 5 6 1 7 2 8 3 9 4 10 74 11 75 12 81 13
REMARK SMILES IDX 76 14 79 15 77 16 78 17 80 18 11 19 12 20 13 21 14 22 15 23
REMARK SMILES IDX 73 24 16 25 72 26 17 27 18 28 19 29 66 30 20 31 71 32 65 33
REMARK SMILES IDX 67 34 21 35 70 36 64 37 63 38 22 40 52 41 33 42 51 43 34 44
REMARK SMILES IDX 37 45 50 46 68 47 35 48 36 49 49 51 69 52 38 53 23 54 24 55
REMARK SMILES IDX 32 56 25 57 31 58 26 59 27 60 28 61 29 62 30 63 53 64 54 65
REMARK SMILES IDX 62 66 55 67 61 68 56 69 57 70 58 71 59 72 60 73 39 74 40 75
REMARK SMILES IDX 48 76 41 77 47 78 42 79 43 80 44 81 45 82 46 83
REMARK H PARENT 67 39 37 50
REMARK Flexibility Score: inf
ROOT
ATOM      1  C   UNL A   1      38.651  22.754  25.909  1.00  0.00     0.275 C 
ENDROOT
BRANCH   1   2
ATOM      2  C   UNL A   1      37.347  23.441  25.481  1.00  0.00     0.274 C 
BRANCH   2   3
ATOM      3  O   UNL A   1      36.426  22.477  24.915  1.00  0.00    -0.461 OA
BRANCH   3   4
ATOM      4  C   UNL A   1      35.766  22.901  23.789  1.00  0.00     0.316 C 
ATOM      5  O   UNL A   1      36.351  22.990  22.707  1.00  0.00    -0.251 OA
BRANCH   4   6
ATOM      6  C   UNL A   1      34.205  23.283  24.023  1.00  0.00     0.096 C 
ATOM      7  C   UNL A   1      32.481  22.692  26.143  1.00  0.00     0.009 C 
ATOM      8  C   UNL A   1      33.580  22.316  25.162  1.00  0.00     0.008 C 
ATOM      9  C   UNL A   1      33.134  21.373  24.022  1.00  0.00     0.006 C 
ATOM     10  C   UNL A   1      33.238  22.542  23.030  1.00  0.00     0.024 C 
BRANCH   6  11
ATOM     11  C   UNL A   1      33.937  24.922  24.159  1.00  0.00    -0.025 A 
ATOM     12  C   UNL A   1      33.546  25.699  23.041  1.00  0.00     0.044 A 
ATOM     13  C   UNL A   1      34.116  25.691  25.329  1.00  0.00     0.044 A 
ATOM     14  C   UNL A   1      33.315  27.080  23.102  1.00  0.00     0.126 A 
ATOM     15  C   UNL A   1      33.916  27.079  25.380  1.00  0.00     0.126 A 
ATOM     16  F   UNL A   1      32.928  27.727  21.996  1.00  0.00    -0.207 F 
ATOM     17  C   UNL A   1      33.499  27.784  24.272  1.00  0.00     0.078 A 
ATOM     18  F   UNL A   1      34.158  27.731  26.525  1.00  0.00    -0.207 F 
ENDBRANCH   6  11
ENDBRANCH   4   6
ENDBRANCH   3   4
ENDBRANCH   2   3
ENDBRANCH   1   2
BRANCH   1  19
ATOM     19  O   UNL A   1      39.227  23.467  27.018  1.00  0.00    -0.458 OA
BRANCH  19  20
ATOM     20  C   UNL A   1      40.249  24.304  26.729  1.00  0.00     0.338 C 
ATOM     21  O   UNL A   1      41.084  24.148  25.851  1.00  0.00    -0.246 OA
BRANCH  20  22
ATOM     22  C   UNL A   1      40.239  25.443  27.676  1.00  0.00     0.060 A 
ATOM     23  C   UNL A   1      41.227  26.432  27.633  1.00  0.00     0.016 A 
ATOM     24  C   UNL A   1      39.242  25.509  28.651  1.00  0.00     0.016 A 
ATOM     25  C   UNL A   1      41.232  27.474  28.563  1.00  0.00     0.010 A 
ATOM     26  C   UNL A   1      39.219  26.580  29.552  1.00  0.00     0.010 A 
ATOM     27  C   UNL A   1      40.222  27.565  29.529  1.00  0.00    -0.014 A 
BRANCH  27  28
ATOM     28  C   UNL A   1      40.229  28.648  30.550  1.00  0.00     0.031 A 
ATOM     29  C   UNL A   1      41.203  28.584  31.698  1.00  0.00     0.074 A 
ATOM     30  C   UNL A   1      39.362  29.677  30.473  1.00  0.00     0.049 A 
ATOM     31  N   UNL A   1      41.260  29.320  32.778  1.00  0.00    -0.248 NA
ATOM     32  C   UNL A   1      42.242  27.545  31.621  1.00  0.00     0.031 C 
ATOM     33  C   UNL A   1      38.396  29.897  29.395  1.00  0.00     0.029 A 
ATOM     34  N   UNL A   1      39.150  30.733  31.328  1.00  0.00    -0.354 N 
ATOM     35  C   UNL A   1      42.310  28.806  33.531  1.00  0.00     0.074 A 
ATOM     36  C   UNL A   1      42.859  27.694  32.785  1.00  0.00     0.031 C 
ATOM     37  C   UNL A   1      37.703  31.020  29.649  1.00  0.00     0.029 A 
ATOM     38  C   UNL A   1      38.130  31.566  30.934  1.00  0.00     0.049 A 
ATOM     39  H   UNL A   1      39.679  30.878  32.145  1.00  0.00     0.167 HD
ATOM     40  C   UNL A   1      42.773  29.218  34.736  1.00  0.00     0.031 A 
ATOM     41  C   UNL A   1      37.574  32.629  31.550  1.00  0.00     0.031 A 
ATOM     42  C   UNL A   1      42.243  30.336  35.470  1.00  0.00     0.049 A 
ATOM     43  C   UNL A   1      38.081  33.049  32.903  1.00  0.00     0.074 A 
ATOM     44  C   UNL A   1      42.646  30.830  36.700  1.00  0.00     0.029 A 
ATOM     45  N   UNL A   1      41.202  31.144  35.039  1.00  0.00    -0.354 N 
ATOM     46  N   UNL A   1      39.046  32.524  33.621  1.00  0.00    -0.248 NA
ATOM     47  C   UNL A   1      37.418  34.200  33.532  1.00  0.00     0.031 C 
ATOM     48  C   UNL A   1      41.826  31.916  37.026  1.00  0.00     0.029 A 
ATOM     49  C   UNL A   1      40.943  32.127  35.980  1.00  0.00     0.049 A 
ATOM     50  H   UNL A   1      40.718  31.035  34.188  1.00  0.00     0.167 HD
ATOM     51  C   UNL A   1      39.113  33.289  34.780  1.00  0.00     0.074 A 
ATOM     52  C   UNL A   1      38.105  34.322  34.660  1.00  0.00     0.031 C 
ATOM     53  C   UNL A   1      39.935  33.146  35.848  1.00  0.00     0.031 A 
BRANCH  40  54
ATOM     54  C   UNL A   1      43.886  28.418  35.358  1.00  0.00    -0.014 A 
ATOM     55  C   UNL A   1      43.621  27.322  36.197  1.00  0.00     0.010 A 
ATOM     56  C   UNL A   1      45.221  28.762  35.079  1.00  0.00     0.010 A 
ATOM     57  C   UNL A   1      44.672  26.609  36.781  1.00  0.00     0.020 A 
ATOM     58  C   UNL A   1      46.276  28.036  35.642  1.00  0.00     0.020 A 
ATOM     59  C   UNL A   1      45.993  26.976  36.505  1.00  0.00     0.054 A 
BRANCH  59  60
ATOM     60  S   UNL A   1      47.342  26.032  37.267  1.00  0.00     0.124 S 
ATOM     61  O   UNL A   1      47.543  24.960  36.296  1.00  0.00    -0.237 OA
ATOM     62  O   UNL A   1      48.420  27.016  37.347  1.00  0.00    -0.237 OA
ATOM     63  O   UNL A   1      46.789  25.614  38.552  1.00  0.00    -0.744 OA
ENDBRANCH  59  60
ENDBRANCH  40  54
BRANCH  41  64
ATOM     64  C   UNL A   1      36.445  33.351  30.905  1.00  0.00    -0.014 A 
ATOM     65  C   UNL A   1      35.216  33.501  31.572  1.00  0.00     0.010 A 
ATOM     66  C   UNL A   1      36.598  33.908  29.622  1.00  0.00     0.010 A 
ATOM     67  C   UNL A   1      34.161  34.191  30.968  1.00  0.00     0.020 A 
ATOM     68  C   UNL A   1      35.553  34.620  29.024  1.00  0.00     0.020 A 
ATOM     69  C   UNL A   1      34.338  34.749  29.699  1.00  0.00     0.054 A 
BRANCH  69  70
ATOM     70  S   UNL A   1      32.984  35.705  28.960  1.00  0.00     0.124 S 
ATOM     71  O   UNL A   1      32.415  34.747  28.018  1.00  0.00    -0.237 OA
ATOM     72  O   UNL A   1      32.151  36.024  30.117  1.00  0.00    -0.237 OA
ATOM     73  O   UNL A   1      33.664  36.850  28.360  1.00  0.00    -0.744 OA
ENDBRANCH  69  70
ENDBRANCH  41  64
BRANCH  53  74
ATOM     74  C   UNL A   1      39.799  34.149  36.961  1.00  0.00    -0.014 A 
ATOM     75  C   UNL A   1      40.488  35.375  36.924  1.00  0.00     0.010 A 
ATOM     76  C   UNL A   1      38.938  33.877  38.040  1.00  0.00     0.010 A 
ATOM     77  C   UNL A   1      40.342  36.298  37.963  1.00  0.00     0.020 A 
ATOM     78  C   UNL A   1      38.774  34.807  39.070  1.00  0.00     0.020 A 
ATOM     79  C   UNL A   1      39.490  36.005  39.033  1.00  0.00     0.054 A 
BRANCH  79  80
ATOM     80  S   UNL A   1      39.289  37.230  40.356  1.00  0.00     0.124 S 
ATOM     81  O   UNL A   1      40.676  37.547  40.688  1.00  0.00    -0.237 OA
ATOM     82  O   UNL A   1      38.541  38.298  39.699  1.00  0.00    -0.237 OA
ATOM     83  O   UNL A   1      38.552  36.505  41.389  1.00  0.00    -0.744 OA
ENDBRANCH  79  80
ENDBRANCH  53  74
ENDBRANCH  27  28
ENDBRANCH  20  22
ENDBRANCH  19  20
ENDBRANCH   1  19
TORSDOF 15
ENDMDL
