MODEL 1
REMARK VINA RESULT:     -10.0      0.000      0.000
REMARK SMILES CS(=O)(=O)N1CCC[C@@H]1C(=O)N1CCC[C@@H]1C(=O)OCCOC(=O)c1ccc(-c2c3nc(c(-c4ccc(S(=O)(=O)[O-])cc4)c4ccc([nH]4)c(-c4ccc(S(=O)(=O)[O-])cc4)c4nc(c(-c5ccc(S(=O)(=O)[O-])cc5)c5ccc2[nH]5)C=C4)C=C3)cc1
REMARK SMILES IDX 20 1 19 2 17 3 18 4 16 5 12 6 13 7 14 8 15 9 10 10 11 11
REMARK SMILES IDX 9 12 5 13 6 14 7 15 8 16 2 17 1 18 3 19 4 20 21 21 22 22
REMARK SMILES IDX 23 23 24 24 25 25 26 26 84 27 27 28 83 29 28 30 29 31 30 32
REMARK SMILES IDX 77 33 31 34 82 35 76 36 78 37 32 38 81 39 75 40 74 41 33 43
REMARK SMILES IDX 63 44 44 45 62 46 45 47 48 48 61 49 79 50 46 51 47 52 60 54
REMARK SMILES IDX 80 55 49 56 34 57 35 58 43 59 36 60 42 61 37 62 38 63 39 64
REMARK SMILES IDX 40 65 41 66 64 67 65 68 73 69 66 70 72 71 67 72 68 73 69 74
REMARK SMILES IDX 70 75 71 76 50 77 51 78 59 79 52 80 58 81 53 82 54 83 55 84
REMARK SMILES IDX 56 85 57 86
REMARK H PARENT 78 42 48 53
REMARK Flexibility Score: inf
ROOT
ATOM      1  C   UNL A   1      31.904  28.718  26.093  1.00  0.00     0.274 C 
ENDROOT
BRANCH   1   2
ATOM      2  O   UNL A   1      32.204  27.382  25.652  1.00  0.00    -0.461 OA
BRANCH   2   3
ATOM      3  C   UNL A   1      31.145  26.539  25.543  1.00  0.00     0.328 C 
ATOM      4  O   UNL A   1      30.349  26.306  26.448  1.00  0.00    -0.250 OA
BRANCH   3   5
ATOM      5  C   UNL A   1      31.053  25.855  24.173  1.00  0.00     0.195 C 
ATOM      6  N   UNL A   1      32.064  24.831  23.915  1.00  0.00    -0.327 N 
ATOM      7  C   UNL A   1      32.092  24.654  22.478  1.00  0.00     0.120 C 
ATOM      8  C   UNL A   1      32.053  26.075  21.963  1.00  0.00     0.024 C 
ATOM      9  C   UNL A   1      31.109  26.778  22.941  1.00  0.00     0.039 C 
BRANCH   6  10
ATOM     10  C   UNL A   1      32.167  23.761  24.778  1.00  0.00     0.241 C 
ATOM     11  O   UNL A   1      31.431  22.780  24.653  1.00  0.00    -0.273 OA
BRANCH  10  12
ATOM     12  C   UNL A   1      33.272  23.781  25.843  1.00  0.00     0.162 C 
ATOM     13  N   UNL A   1      34.484  22.884  25.823  1.00  0.00    -0.190 NA
ATOM     14  C   UNL A   1      34.554  22.131  27.085  1.00  0.00     0.103 C 
ATOM     15  C   UNL A   1      33.162  22.204  27.661  1.00  0.00     0.019 C 
ATOM     16  C   UNL A   1      32.689  23.586  27.248  1.00  0.00     0.032 C 
BRANCH  13  17
ATOM     17  S   UNL A   1      34.901  22.106  24.405  1.00  0.00     0.211 S 
ATOM     18  C   UNL A   1      36.498  21.404  24.751  1.00  0.00     0.176 C 
ATOM     19  O   UNL A   1      35.100  23.117  23.398  1.00  0.00    -0.212 OA
ATOM     20  O   UNL A   1      33.996  20.989  24.228  1.00  0.00    -0.212 OA
ENDBRANCH  13  17
ENDBRANCH  10  12
ENDBRANCH   6  10
ENDBRANCH   3   5
ENDBRANCH   2   3
ENDBRANCH   1   2
BRANCH   1  21
ATOM     21  C   UNL A   1      32.449  28.958  27.498  1.00  0.00     0.275 C 
BRANCH  21  22
ATOM     22  O   UNL A   1      33.884  28.956  27.502  1.00  0.00    -0.458 OA
BRANCH  22  23
ATOM     23  C   UNL A   1      34.460  30.117  27.897  1.00  0.00     0.338 C 
ATOM     24  O   UNL A   1      33.924  31.195  28.084  1.00  0.00    -0.246 OA
BRANCH  23  25
ATOM     25  C   UNL A   1      35.861  29.848  28.227  1.00  0.00     0.060 A 
ATOM     26  C   UNL A   1      36.822  29.955  27.218  1.00  0.00     0.016 A 
ATOM     27  C   UNL A   1      36.212  29.462  29.517  1.00  0.00     0.016 A 
ATOM     28  C   UNL A   1      38.154  29.686  27.491  1.00  0.00     0.010 A 
ATOM     29  C   UNL A   1      37.548  29.189  29.793  1.00  0.00     0.010 A 
ATOM     30  C   UNL A   1      38.521  29.298  28.781  1.00  0.00    -0.014 A 
BRANCH  30  31
ATOM     31  C   UNL A   1      39.919  28.957  29.091  1.00  0.00     0.031 A 
ATOM     32  C   UNL A   1      40.828  30.033  29.596  1.00  0.00     0.074 A 
ATOM     33  C   UNL A   1      40.363  27.710  28.854  1.00  0.00     0.049 A 
ATOM     34  N   UNL A   1      42.127  30.023  29.722  1.00  0.00    -0.248 NA
ATOM     35  C   UNL A   1      40.189  31.298  29.999  1.00  0.00     0.031 C 
ATOM     36  C   UNL A   1      39.533  26.584  28.420  1.00  0.00     0.029 A 
ATOM     37  N   UNL A   1      41.628  27.190  28.919  1.00  0.00    -0.354 N 
ATOM     38  C   UNL A   1      42.467  31.289  30.182  1.00  0.00     0.074 A 
ATOM     39  C   UNL A   1      41.241  32.046  30.301  1.00  0.00     0.031 C 
ATOM     40  C   UNL A   1      40.317  25.509  28.238  1.00  0.00     0.029 A 
ATOM     41  C   UNL A   1      41.704  25.891  28.476  1.00  0.00     0.049 A 
ATOM     42  H   UNL A   1      42.405  27.696  29.250  1.00  0.00     0.167 HD
ATOM     43  C   UNL A   1      43.700  31.766  30.468  1.00  0.00     0.031 A 
ATOM     44  C   UNL A   1      42.780  25.120  28.236  1.00  0.00     0.031 A 
ATOM     45  C   UNL A   1      44.900  30.986  30.327  1.00  0.00     0.049 A 
ATOM     46  C   UNL A   1      44.145  25.704  28.477  1.00  0.00     0.074 A 
ATOM     47  C   UNL A   1      46.203  31.355  30.602  1.00  0.00     0.029 A 
ATOM     48  N   UNL A   1      44.942  29.679  29.859  1.00  0.00    -0.354 N 
ATOM     49  N   UNL A   1      44.464  26.897  28.924  1.00  0.00    -0.248 NA
ATOM     50  C   UNL A   1      45.297  24.844  28.176  1.00  0.00     0.031 C 
ATOM     51  C   UNL A   1      47.039  30.294  30.238  1.00  0.00     0.029 A 
ATOM     52  C   UNL A   1      46.252  29.239  29.804  1.00  0.00     0.049 A 
ATOM     53  H   UNL A   1      44.154  29.145  29.606  1.00  0.00     0.167 HD
ATOM     54  C   UNL A   1      45.851  26.924  28.979  1.00  0.00     0.074 A 
ATOM     55  C   UNL A   1      46.310  25.622  28.536  1.00  0.00     0.031 C 
ATOM     56  C   UNL A   1      46.675  27.932  29.358  1.00  0.00     0.031 A 
BRANCH  43  57
ATOM     57  C   UNL A   1      43.811  33.201  30.910  1.00  0.00    -0.014 A 
ATOM     58  C   UNL A   1      43.972  33.543  32.265  1.00  0.00     0.010 A 
ATOM     59  C   UNL A   1      43.786  34.227  29.947  1.00  0.00     0.010 A 
ATOM     60  C   UNL A   1      44.071  34.883  32.651  1.00  0.00     0.020 A 
ATOM     61  C   UNL A   1      43.916  35.567  30.325  1.00  0.00     0.020 A 
ATOM     62  C   UNL A   1      44.044  35.886  31.678  1.00  0.00     0.054 A 
BRANCH  62  63
ATOM     63  S   UNL A   1      44.206  37.613  32.207  1.00  0.00     0.124 S 
ATOM     64  O   UNL A   1      45.596  37.665  32.651  1.00  0.00    -0.237 OA
ATOM     65  O   UNL A   1      43.911  38.351  30.981  1.00  0.00    -0.237 OA
ATOM     66  O   UNL A   1      43.209  37.748  33.267  1.00  0.00    -0.744 OA
ENDBRANCH  62  63
ENDBRANCH  43  57
BRANCH  44  67
ATOM     67  C   UNL A   1      42.604  23.741  27.704  1.00  0.00    -0.014 A 
ATOM     68  C   UNL A   1      42.873  23.457  26.355  1.00  0.00     0.010 A 
ATOM     69  C   UNL A   1      42.190  22.695  28.552  1.00  0.00     0.010 A 
ATOM     70  C   UNL A   1      42.714  22.160  25.859  1.00  0.00     0.020 A 
ATOM     71  C   UNL A   1      42.061  21.390  28.066  1.00  0.00     0.020 A 
ATOM     72  C   UNL A   1      42.313  21.134  26.718  1.00  0.00     0.054 A 
BRANCH  72  73
ATOM     73  S   UNL A   1      42.154  19.452  26.055  1.00  0.00     0.124 S 
ATOM     74  O   UNL A   1      42.721  18.647  27.132  1.00  0.00    -0.237 OA
ATOM     75  O   UNL A   1      40.712  19.324  25.862  1.00  0.00    -0.237 OA
ATOM     76  O   UNL A   1      42.941  19.493  24.824  1.00  0.00    -0.744 OA
ENDBRANCH  72  73
ENDBRANCH  44  67
BRANCH  56  77
ATOM     77  C   UNL A   1      48.154  27.661  29.339  1.00  0.00    -0.014 A 
ATOM     78  C   UNL A   1      48.934  27.970  28.211  1.00  0.00     0.010 A 
ATOM     79  C   UNL A   1      48.783  27.171  30.498  1.00  0.00     0.010 A 
ATOM     80  C   UNL A   1      50.317  27.781  28.239  1.00  0.00     0.020 A 
ATOM     81  C   UNL A   1      50.170  27.011  30.540  1.00  0.00     0.020 A 
ATOM     82  C   UNL A   1      50.927  27.312  29.406  1.00  0.00     0.054 A 
BRANCH  82  83
ATOM     83  S   UNL A   1      52.733  27.154  29.440  1.00  0.00     0.124 S 
ATOM     84  O   UNL A   1      52.948  25.937  28.663  1.00  0.00    -0.237 OA
ATOM     85  O   UNL A   1      53.173  28.393  28.804  1.00  0.00    -0.237 OA
ATOM     86  O   UNL A   1      53.046  27.046  30.864  1.00  0.00    -0.744 OA
ENDBRANCH  82  83
ENDBRANCH  56  77
ENDBRANCH  30  31
ENDBRANCH  23  25
ENDBRANCH  22  23
ENDBRANCH  21  22
ENDBRANCH   1  21
TORSDOF 17
ENDMDL
MODEL 2
REMARK VINA RESULT:      -9.6      2.427      3.283
REMARK SMILES CS(=O)(=O)N1CCC[C@@H]1C(=O)N1CCC[C@@H]1C(=O)OCCOC(=O)c1ccc(-c2c3nc(c(-c4ccc(S(=O)(=O)[O-])cc4)c4ccc([nH]4)c(-c4ccc(S(=O)(=O)[O-])cc4)c4nc(c(-c5ccc(S(=O)(=O)[O-])cc5)c5ccc2[nH]5)C=C4)C=C3)cc1
REMARK SMILES IDX 20 1 19 2 17 3 18 4 16 5 12 6 13 7 14 8 15 9 10 10 11 11
REMARK SMILES IDX 9 12 5 13 6 14 7 15 8 16 2 17 1 18 3 19 4 20 21 21 22 22
REMARK SMILES IDX 23 23 24 24 25 25 26 26 84 27 27 28 83 29 28 30 29 31 30 32
REMARK SMILES IDX 77 33 31 34 82 35 76 36 78 37 32 38 81 39 75 40 74 41 33 43
REMARK SMILES IDX 63 44 44 45 62 46 45 47 48 48 61 49 79 50 46 51 47 52 60 54
REMARK SMILES IDX 80 55 49 56 34 57 35 58 43 59 36 60 42 61 37 62 38 63 39 64
REMARK SMILES IDX 40 65 41 66 64 67 65 68 73 69 66 70 72 71 67 72 68 73 69 74
REMARK SMILES IDX 70 75 71 76 50 77 51 78 59 79 52 80 58 81 53 82 54 83 55 84
REMARK SMILES IDX 56 85 57 86
REMARK H PARENT 78 42 48 53
REMARK Flexibility Score: inf
ROOT
ATOM      1  C   UNL A   1      33.345  29.081  26.382  1.00  0.00     0.274 C 
ENDROOT
BRANCH   1   2
ATOM      2  O   UNL A   1      33.726  29.574  25.086  1.00  0.00    -0.461 OA
BRANCH   2   3
ATOM      3  C   UNL A   1      33.173  28.940  24.020  1.00  0.00     0.328 C 
ATOM      4  O   UNL A   1      33.769  28.688  22.978  1.00  0.00    -0.250 OA
BRANCH   3   5
ATOM      5  C   UNL A   1      31.692  28.597  24.222  1.00  0.00     0.195 C 
ATOM      6  N   UNL A   1      31.291  27.263  23.778  1.00  0.00    -0.327 N 
ATOM      7  C   UNL A   1      29.852  27.309  23.630  1.00  0.00     0.120 C 
ATOM      8  C   UNL A   1      29.627  28.631  22.931  1.00  0.00     0.024 C 
ATOM      9  C   UNL A   1      30.672  29.549  23.568  1.00  0.00     0.039 C 
BRANCH   6  10
ATOM     10  C   UNL A   1      31.930  26.162  24.308  1.00  0.00     0.241 C 
ATOM     11  O   UNL A   1      32.840  26.299  25.128  1.00  0.00    -0.273 OA
BRANCH  10  12
ATOM     12  C   UNL A   1      31.428  24.765  23.921  1.00  0.00     0.162 C 
ATOM     13  N   UNL A   1      31.001  23.713  24.914  1.00  0.00    -0.190 NA
ATOM     14  C   UNL A   1      31.782  22.487  24.691  1.00  0.00     0.103 C 
ATOM     15  C   UNL A   1      32.991  22.932  23.905  1.00  0.00     0.019 C 
ATOM     16  C   UNL A   1      32.442  24.041  23.026  1.00  0.00     0.032 C 
BRANCH  13  17
ATOM     17  S   UNL A   1      30.652  24.164  26.483  1.00  0.00     0.211 S 
ATOM     18  C   UNL A   1      29.602  22.862  27.084  1.00  0.00     0.176 C 
ATOM     19  O   UNL A   1      29.845  25.357  26.423  1.00  0.00    -0.212 OA
ATOM     20  O   UNL A   1      31.878  24.084  27.251  1.00  0.00    -0.212 OA
ENDBRANCH  13  17
ENDBRANCH  10  12
ENDBRANCH   6  10
ENDBRANCH   3   5
ENDBRANCH   2   3
ENDBRANCH   1   2
BRANCH   1  21
ATOM     21  C   UNL A   1      33.991  29.909  27.489  1.00  0.00     0.275 C 
BRANCH  21  22
ATOM     22  O   UNL A   1      35.372  29.555  27.658  1.00  0.00    -0.458 OA
BRANCH  22  23
ATOM     23  C   UNL A   1      36.003  30.180  28.681  1.00  0.00     0.338 C 
ATOM     24  O   UNL A   1      35.508  30.828  29.586  1.00  0.00    -0.246 OA
BRANCH  23  25
ATOM     25  C   UNL A   1      37.423  29.827  28.631  1.00  0.00     0.060 A 
ATOM     26  C   UNL A   1      38.038  29.686  27.383  1.00  0.00     0.016 A 
ATOM     27  C   UNL A   1      38.130  29.605  29.809  1.00  0.00     0.016 A 
ATOM     28  C   UNL A   1      39.375  29.331  27.298  1.00  0.00     0.010 A 
ATOM     29  C   UNL A   1      39.472  29.246  29.726  1.00  0.00     0.010 A 
ATOM     30  C   UNL A   1      40.095  29.106  28.472  1.00  0.00    -0.014 A 
BRANCH  30  31
ATOM     31  C   UNL A   1      41.504  28.679  28.415  1.00  0.00     0.031 A 
ATOM     32  C   UNL A   1      42.576  29.718  28.509  1.00  0.00     0.074 A 
ATOM     33  C   UNL A   1      41.792  27.381  28.219  1.00  0.00     0.049 A 
ATOM     34  N   UNL A   1      43.853  29.608  28.264  1.00  0.00    -0.248 NA
ATOM     35  C   UNL A   1      42.149  31.068  28.916  1.00  0.00     0.031 C 
ATOM     36  C   UNL A   1      40.813  26.292  28.177  1.00  0.00     0.029 A 
ATOM     37  N   UNL A   1      42.993  26.762  27.988  1.00  0.00    -0.354 N 
ATOM     38  C   UNL A   1      44.379  30.881  28.451  1.00  0.00     0.074 A 
ATOM     39  C   UNL A   1      43.282  31.749  28.816  1.00  0.00     0.031 C 
ATOM     40  C   UNL A   1      41.452  25.140  27.915  1.00  0.00     0.029 A 
ATOM     41  C   UNL A   1      42.867  25.423  27.704  1.00  0.00     0.049 A 
ATOM     42  H   UNL A   1      43.858  27.231  28.023  1.00  0.00     0.167 HD
ATOM     43  C   UNL A   1      45.666  31.277  28.317  1.00  0.00     0.031 A 
ATOM     44  C   UNL A   1      43.785  24.542  27.268  1.00  0.00     0.031 A 
ATOM     45  C   UNL A   1      46.730  30.385  27.941  1.00  0.00     0.049 A 
ATOM     46  C   UNL A   1      45.191  25.027  27.042  1.00  0.00     0.074 A 
ATOM     47  C   UNL A   1      48.075  30.666  27.792  1.00  0.00     0.029 A 
ATOM     48  N   UNL A   1      46.565  29.038  27.645  1.00  0.00    -0.354 N 
ATOM     49  N   UNL A   1      45.688  26.227  27.231  1.00  0.00    -0.248 NA
ATOM     50  C   UNL A   1      46.158  24.045  26.536  1.00  0.00     0.031 C 
ATOM     51  C   UNL A   1      48.712  29.506  27.340  1.00  0.00     0.029 A 
ATOM     52  C   UNL A   1      47.777  28.483  27.278  1.00  0.00     0.049 A 
ATOM     53  H   UNL A   1      45.710  28.551  27.691  1.00  0.00     0.167 HD
ATOM     54  C   UNL A   1      47.032  26.140  26.889  1.00  0.00     0.074 A 
ATOM     55  C   UNL A   1      47.272  24.764  26.499  1.00  0.00     0.031 C 
ATOM     56  C   UNL A   1      47.983  27.107  26.895  1.00  0.00     0.031 A 
BRANCH  43  57
ATOM     57  C   UNL A   1      45.977  32.734  28.531  1.00  0.00    -0.014 A 
ATOM     58  C   UNL A   1      45.869  33.670  27.487  1.00  0.00     0.010 A 
ATOM     59  C   UNL A   1      46.352  33.182  29.811  1.00  0.00     0.010 A 
ATOM     60  C   UNL A   1      46.165  35.018  27.710  1.00  0.00     0.020 A 
ATOM     61  C   UNL A   1      46.618  34.534  30.047  1.00  0.00     0.020 A 
ATOM     62  C   UNL A   1      46.536  35.441  28.990  1.00  0.00     0.054 A 
BRANCH  62  63
ATOM     63  S   UNL A   1      46.883  37.201  29.255  1.00  0.00     0.124 S 
ATOM     64  O   UNL A   1      47.944  37.451  28.282  1.00  0.00    -0.237 OA
ATOM     65  O   UNL A   1      45.598  37.828  28.956  1.00  0.00    -0.237 OA
ATOM     66  O   UNL A   1      47.296  37.269  30.655  1.00  0.00    -0.744 OA
ENDBRANCH  62  63
ENDBRANCH  43  57
BRANCH  44  67
ATOM     67  C   UNL A   1      43.389  23.135  26.981  1.00  0.00    -0.014 A 
ATOM     68  C   UNL A   1      43.484  22.620  25.678  1.00  0.00     0.010 A 
ATOM     69  C   UNL A   1      42.937  22.294  28.016  1.00  0.00     0.010 A 
ATOM     70  C   UNL A   1      43.119  21.297  25.411  1.00  0.00     0.020 A 
ATOM     71  C   UNL A   1      42.602  20.961  27.758  1.00  0.00     0.020 A 
ATOM     72  C   UNL A   1      42.683  20.475  26.453  1.00  0.00     0.054 A 
BRANCH  72  73
ATOM     73  S   UNL A   1      42.255  18.751  26.084  1.00  0.00     0.124 S 
ATOM     74  O   UNL A   1      43.174  18.436  24.996  1.00  0.00    -0.237 OA
ATOM     75  O   UNL A   1      42.525  18.080  27.354  1.00  0.00    -0.237 OA
ATOM     76  O   UNL A   1      40.844  18.820  25.711  1.00  0.00    -0.744 OA
ENDBRANCH  72  73
ENDBRANCH  44  67
BRANCH  56  77
ATOM     77  C   UNL A   1      49.376  26.707  26.494  1.00  0.00    -0.014 A 
ATOM     78  C   UNL A   1      50.190  25.949  27.353  1.00  0.00     0.010 A 
ATOM     79  C   UNL A   1      49.842  27.022  25.204  1.00  0.00     0.010 A 
ATOM     80  C   UNL A   1      51.452  25.524  26.933  1.00  0.00     0.020 A 
ATOM     81  C   UNL A   1      51.090  26.571  24.769  1.00  0.00     0.020 A 
ATOM     82  C   UNL A   1      51.890  25.829  25.641  1.00  0.00     0.054 A 
BRANCH  82  83
ATOM     83  S   UNL A   1      53.498  25.195  25.095  1.00  0.00     0.124 S 
ATOM     84  O   UNL A   1      53.494  25.534  23.675  1.00  0.00    -0.237 OA
ATOM     85  O   UNL A   1      54.435  25.952  25.921  1.00  0.00    -0.237 OA
ATOM     86  O   UNL A   1      53.427  23.766  25.394  1.00  0.00    -0.744 OA
ENDBRANCH  82  83
ENDBRANCH  56  77
ENDBRANCH  30  31
ENDBRANCH  23  25
ENDBRANCH  22  23
ENDBRANCH  21  22
ENDBRANCH   1  21
TORSDOF 17
ENDMDL
MODEL 3
REMARK VINA RESULT:      -9.5      5.987     12.101
REMARK SMILES CS(=O)(=O)N1CCC[C@@H]1C(=O)N1CCC[C@@H]1C(=O)OCCOC(=O)c1ccc(-c2c3nc(c(-c4ccc(S(=O)(=O)[O-])cc4)c4ccc([nH]4)c(-c4ccc(S(=O)(=O)[O-])cc4)c4nc(c(-c5ccc(S(=O)(=O)[O-])cc5)c5ccc2[nH]5)C=C4)C=C3)cc1
REMARK SMILES IDX 20 1 19 2 17 3 18 4 16 5 12 6 13 7 14 8 15 9 10 10 11 11
REMARK SMILES IDX 9 12 5 13 6 14 7 15 8 16 2 17 1 18 3 19 4 20 21 21 22 22
REMARK SMILES IDX 23 23 24 24 25 25 26 26 84 27 27 28 83 29 28 30 29 31 30 32
REMARK SMILES IDX 77 33 31 34 82 35 76 36 78 37 32 38 81 39 75 40 74 41 33 43
REMARK SMILES IDX 63 44 44 45 62 46 45 47 48 48 61 49 79 50 46 51 47 52 60 54
REMARK SMILES IDX 80 55 49 56 34 57 35 58 43 59 36 60 42 61 37 62 38 63 39 64
REMARK SMILES IDX 40 65 41 66 64 67 65 68 73 69 66 70 72 71 67 72 68 73 69 74
REMARK SMILES IDX 70 75 71 76 50 77 51 78 59 79 52 80 58 81 53 82 54 83 55 84
REMARK SMILES IDX 56 85 57 86
REMARK H PARENT 78 42 48 53
REMARK Flexibility Score: inf
ROOT
ATOM      1  C   UNL A   1      42.847  26.204  26.254  1.00  0.00     0.274 C 
ENDROOT
BRANCH   1   2
ATOM      2  O   UNL A   1      43.405  25.679  27.471  1.00  0.00    -0.461 OA
BRANCH   2   3
ATOM      3  C   UNL A   1      44.346  24.711  27.326  1.00  0.00     0.328 C 
ATOM      4  O   UNL A   1      44.694  23.943  28.218  1.00  0.00    -0.250 OA
BRANCH   3   5
ATOM      5  C   UNL A   1      44.980  24.688  25.929  1.00  0.00     0.195 C 
ATOM      6  N   UNL A   1      45.039  23.375  25.289  1.00  0.00    -0.327 N 
ATOM      7  C   UNL A   1      46.037  23.485  24.246  1.00  0.00     0.120 C 
ATOM      8  C   UNL A   1      47.156  24.240  24.929  1.00  0.00     0.024 C 
ATOM      9  C   UNL A   1      46.414  25.241  25.818  1.00  0.00     0.039 C 
BRANCH   6  10
ATOM     10  C   UNL A   1      43.869  22.671  25.100  1.00  0.00     0.241 C 
ATOM     11  O   UNL A   1      43.183  22.853  24.092  1.00  0.00    -0.273 OA
BRANCH  10  12
ATOM     12  C   UNL A   1      43.486  21.595  26.125  1.00  0.00     0.162 C 
ATOM     13  N   UNL A   1      43.668  20.114  25.908  1.00  0.00    -0.190 NA
ATOM     14  C   UNL A   1      42.376  19.433  26.082  1.00  0.00     0.103 C 
ATOM     15  C   UNL A   1      41.339  20.518  25.931  1.00  0.00     0.019 C 
ATOM     16  C   UNL A   1      42.016  21.730  26.544  1.00  0.00     0.032 C 
BRANCH  13  17
ATOM     17  S   UNL A   1      44.693  19.585  24.700  1.00  0.00     0.211 S 
ATOM     18  C   UNL A   1      46.297  20.152  25.217  1.00  0.00     0.176 C 
ATOM     19  O   UNL A   1      44.361  20.311  23.500  1.00  0.00    -0.212 OA
ATOM     20  O   UNL A   1      44.736  18.138  24.755  1.00  0.00    -0.212 OA
ENDBRANCH  13  17
ENDBRANCH  10  12
ENDBRANCH   6  10
ENDBRANCH   3   5
ENDBRANCH   2   3
ENDBRANCH   1   2
BRANCH   1  21
ATOM     21  C   UNL A   1      41.536  25.501  25.913  1.00  0.00     0.275 C 
BRANCH  21  22
ATOM     22  O   UNL A   1      40.412  26.359  26.155  1.00  0.00    -0.458 OA
BRANCH  22  23
ATOM     23  C   UNL A   1      39.582  25.953  27.145  1.00  0.00     0.338 C 
ATOM     24  O   UNL A   1      38.933  24.924  27.206  1.00  0.00    -0.246 OA
BRANCH  23  25
ATOM     25  C   UNL A   1      39.691  26.900  28.257  1.00  0.00     0.060 A 
ATOM     26  C   UNL A   1      40.301  28.137  28.030  1.00  0.00     0.016 A 
ATOM     27  C   UNL A   1      39.224  26.550  29.521  1.00  0.00     0.016 A 
ATOM     28  C   UNL A   1      40.441  29.047  29.065  1.00  0.00     0.010 A 
ATOM     29  C   UNL A   1      39.366  27.462  30.562  1.00  0.00     0.010 A 
ATOM     30  C   UNL A   1      39.977  28.710  30.337  1.00  0.00    -0.014 A 
BRANCH  30  31
ATOM     31  C   UNL A   1      40.156  29.635  31.468  1.00  0.00     0.031 A 
ATOM     32  C   UNL A   1      41.299  29.413  32.408  1.00  0.00     0.074 A 
ATOM     33  C   UNL A   1      39.258  30.616  31.667  1.00  0.00     0.049 A 
ATOM     34  N   UNL A   1      41.523  29.952  33.574  1.00  0.00    -0.248 NA
ATOM     35  C   UNL A   1      42.319  28.439  31.982  1.00  0.00     0.031 C 
ATOM     36  C   UNL A   1      38.148  30.943  30.769  1.00  0.00     0.029 A 
ATOM     37  N   UNL A   1      39.121  31.498  32.705  1.00  0.00    -0.354 N 
ATOM     38  C   UNL A   1      42.689  29.358  34.042  1.00  0.00     0.074 A 
ATOM     39  C   UNL A   1      43.118  28.408  33.040  1.00  0.00     0.031 C 
ATOM     40  C   UNL A   1      37.431  31.943  31.307  1.00  0.00     0.029 A 
ATOM     41  C   UNL A   1      37.991  32.275  32.612  1.00  0.00     0.049 A 
ATOM     42  H   UNL A   1      39.768  31.569  33.445  1.00  0.00     0.167 HD
ATOM     43  C   UNL A   1      43.329  29.588  35.211  1.00  0.00     0.031 A 
ATOM     44  C   UNL A   1      37.443  33.117  33.508  1.00  0.00     0.031 A 
ATOM     45  C   UNL A   1      42.866  30.534  36.191  1.00  0.00     0.049 A 
ATOM     46  C   UNL A   1      38.125  33.289  34.837  1.00  0.00     0.074 A 
ATOM     47  C   UNL A   1      43.439  30.867  37.404  1.00  0.00     0.029 A 
ATOM     48  N   UNL A   1      41.708  31.292  36.071  1.00  0.00    -0.354 N 
ATOM     49  N   UNL A   1      39.234  32.736  35.271  1.00  0.00    -0.248 NA
ATOM     50  C   UNL A   1      37.483  34.192  35.801  1.00  0.00     0.031 C 
ATOM     51  C   UNL A   1      42.593  31.776  38.046  1.00  0.00     0.029 A 
ATOM     52  C   UNL A   1      41.530  32.065  37.204  1.00  0.00     0.049 A 
ATOM     53  H   UNL A   1      41.104  31.281  35.293  1.00  0.00     0.167 HD
ATOM     54  C   UNL A   1      39.434  33.239  36.550  1.00  0.00     0.074 A 
ATOM     55  C   UNL A   1      38.341  34.156  36.811  1.00  0.00     0.031 C 
ATOM     56  C   UNL A   1      40.429  32.970  37.432  1.00  0.00     0.031 A 
BRANCH  43  57
ATOM     57  C   UNL A   1      44.559  28.774  35.509  1.00  0.00    -0.014 A 
ATOM     58  C   UNL A   1      45.844  29.225  35.156  1.00  0.00     0.010 A 
ATOM     59  C   UNL A   1      44.431  27.546  36.186  1.00  0.00     0.010 A 
ATOM     60  C   UNL A   1      46.972  28.450  35.442  1.00  0.00     0.020 A 
ATOM     61  C   UNL A   1      45.558  26.782  36.502  1.00  0.00     0.020 A 
ATOM     62  C   UNL A   1      46.821  27.234  36.115  1.00  0.00     0.054 A 
BRANCH  62  63
ATOM     63  S   UNL A   1      48.305  26.265  36.499  1.00  0.00     0.124 S 
ATOM     64  O   UNL A   1      47.767  24.911  36.597  1.00  0.00    -0.237 OA
ATOM     65  O   UNL A   1      49.160  26.519  35.342  1.00  0.00    -0.237 OA
ATOM     66  O   UNL A   1      48.779  26.838  37.758  1.00  0.00    -0.744 OA
ENDBRANCH  62  63
ENDBRANCH  43  57
BRANCH  44  67
ATOM     67  C   UNL A   1      36.169  33.818  33.188  1.00  0.00    -0.014 A 
ATOM     68  C   UNL A   1      34.936  33.264  33.569  1.00  0.00     0.010 A 
ATOM     69  C   UNL A   1      36.183  35.057  32.520  1.00  0.00     0.010 A 
ATOM     70  C   UNL A   1      33.741  33.927  33.275  1.00  0.00     0.020 A 
ATOM     71  C   UNL A   1      34.991  35.738  32.252  1.00  0.00     0.020 A 
ATOM     72  C   UNL A   1      33.776  35.161  32.621  1.00  0.00     0.054 A 
BRANCH  72  73
ATOM     73  S   UNL A   1      32.211  36.017  32.289  1.00  0.00     0.124 S 
ATOM     74  O   UNL A   1      31.229  34.976  32.571  1.00  0.00    -0.237 OA
ATOM     75  O   UNL A   1      32.249  37.125  33.241  1.00  0.00    -0.237 OA
ATOM     76  O   UNL A   1      32.324  36.407  30.885  1.00  0.00    -0.744 OA
ENDBRANCH  72  73
ENDBRANCH  44  67
BRANCH  56  77
ATOM     77  C   UNL A   1      40.398  33.694  38.750  1.00  0.00    -0.014 A 
ATOM     78  C   UNL A   1      39.816  33.107  39.887  1.00  0.00     0.010 A 
ATOM     79  C   UNL A   1      41.039  34.941  38.870  1.00  0.00     0.010 A 
ATOM     80  C   UNL A   1      39.865  33.762  41.119  1.00  0.00     0.020 A 
ATOM     81  C   UNL A   1      41.117  35.583  40.107  1.00  0.00     0.020 A 
ATOM     82  C   UNL A   1      40.523  34.991  41.224  1.00  0.00     0.054 A 
BRANCH  82  83
ATOM     83  S   UNL A   1      40.640  35.779  42.852  1.00  0.00     0.124 S 
ATOM     84  O   UNL A   1      41.771  36.684  42.673  1.00  0.00    -0.237 OA
ATOM     85  O   UNL A   1      39.335  36.422  42.989  1.00  0.00    -0.237 OA
ATOM     86  O   UNL A   1      40.876  34.661  43.763  1.00  0.00    -0.744 OA
ENDBRANCH  82  83
ENDBRANCH  56  77
ENDBRANCH  30  31
ENDBRANCH  23  25
ENDBRANCH  22  23
ENDBRANCH  21  22
ENDBRANCH   1  21
TORSDOF 17
ENDMDL
