MODEL 1
REMARK VINA RESULT:     -10.4      0.000      0.000
REMARK SMILES C[C@H](c1ccc(Br)s1)[NH+]1CCC(CC(=O)OCCOC(=O)c2ccc(-c3c4nc(c(-c5ccc(S(=O)(=O)[O-])cc5)c5ccc([nH]5)c(-c5ccc(S(=O)(=O)[O-])cc5)c5nc(c(-c6ccc(S(=O)(=O)[O-])cc6)c6ccc3[nH]6)C=C5)C=C4)cc2)CC1
REMARK SMILES IDX 17 1 16 2 14 3 15 4 13 5 12 6 9 7 10 8 83 9 11 11 82 12 2 13
REMARK SMILES IDX 1 14 3 15 4 16 8 17 5 18 6 19 7 20 18 21 19 22 20 23 21 24
REMARK SMILES IDX 22 25 23 26 81 27 24 28 80 29 25 30 26 31 27 32 74 33 28 34
REMARK SMILES IDX 79 35 73 36 75 37 29 38 78 39 72 40 71 41 30 43 60 44 41 45
REMARK SMILES IDX 59 46 42 47 45 48 58 49 76 50 43 51 44 52 57 54 77 55 46 56
REMARK SMILES IDX 31 57 32 58 40 59 33 60 39 61 34 62 35 63 36 64 37 65 38 66
REMARK SMILES IDX 61 67 62 68 70 69 63 70 69 71 64 72 65 73 66 74 67 75 68 76
REMARK SMILES IDX 47 77 48 78 56 79 49 80 55 81 50 82 51 83 52 84 53 85 54 86
REMARK H PARENT 9 10 75 42 45 53
REMARK Flexibility Score: inf
ROOT
ATOM      1  C   UNL A   1      34.651  32.500  28.255  1.00  0.00     0.274 C 
ENDROOT
BRANCH   1   2
ATOM      2  O   UNL A   1      34.766  31.352  27.393  1.00  0.00    -0.462 OA
BRANCH   2   3
ATOM      3  C   UNL A   1      33.685  30.540  27.299  1.00  0.00     0.306 C 
ATOM      4  O   UNL A   1      32.539  30.926  27.106  1.00  0.00    -0.252 OA
BRANCH   3   5
ATOM      5  C   UNL A   1      34.026  29.085  27.542  1.00  0.00     0.126 C 
BRANCH   5   6
ATOM      6  C   UNL A   1      33.433  28.064  26.554  1.00  0.00     0.011 C 
ATOM      7  N   UNL A   1      31.426  27.759  24.432  1.00  0.00    -0.328 N 
ATOM      8  C   UNL A   1      31.266  27.036  25.706  1.00  0.00     0.263 C 
ATOM      9  C   UNL A   1      32.847  27.752  24.071  1.00  0.00     0.263 C 
ATOM     10  H   UNL A   1      31.154  28.739  24.521  1.00  0.00     0.348 HD
ATOM     11  C   UNL A   1      31.944  27.814  26.825  1.00  0.00     0.066 C 
ATOM     12  C   UNL A   1      33.641  28.555  25.110  1.00  0.00     0.066 C 
BRANCH   7  13
ATOM     13  C   UNL A   1      30.503  27.230  23.402  1.00  0.00     0.222 C 
ATOM     14  C   UNL A   1      31.213  26.713  22.137  1.00  0.00     0.082 C 
BRANCH  13  15
ATOM     15  C   UNL A   1      29.551  28.345  22.982  1.00  0.00     0.063 A 
ATOM     16  C   UNL A   1      28.180  28.420  23.176  1.00  0.00     0.023 A 
ATOM     17  S   UNL A   1      30.127  29.703  22.100  1.00  0.00    -0.127 S 
ATOM     18  C   UNL A   1      27.602  29.566  22.555  1.00  0.00     0.028 A 
ATOM     19  C   UNL A   1      28.559  30.322  21.929  1.00  0.00     0.070 A 
ATOM     20  Br  UNL A   1      28.174  31.884  20.969  1.00  0.00    -0.039 Br
ENDBRANCH  13  15
ENDBRANCH   7  13
ENDBRANCH   5   6
ENDBRANCH   3   5
ENDBRANCH   2   3
ENDBRANCH   1   2
BRANCH   1  21
ATOM     21  C   UNL A   1      35.086  32.162  29.681  1.00  0.00     0.275 C 
BRANCH  21  22
ATOM     22  O   UNL A   1      35.954  31.015  29.696  1.00  0.00    -0.458 OA
BRANCH  22  23
ATOM     23  C   UNL A   1      36.729  30.887  30.798  1.00  0.00     0.338 C 
ATOM     24  O   UNL A   1      36.378  30.943  31.962  1.00  0.00    -0.246 OA
BRANCH  23  25
ATOM     25  C   UNL A   1      38.102  30.571  30.379  1.00  0.00     0.060 A 
ATOM     26  C   UNL A   1      38.378  30.405  29.018  1.00  0.00     0.016 A 
ATOM     27  C   UNL A   1      39.094  30.377  31.341  1.00  0.00     0.016 A 
ATOM     28  C   UNL A   1      39.659  30.033  28.610  1.00  0.00     0.010 A 
ATOM     29  C   UNL A   1      40.374  30.005  30.929  1.00  0.00     0.010 A 
ATOM     30  C   UNL A   1      40.661  29.818  29.565  1.00  0.00    -0.014 A 
BRANCH  30  31
ATOM     31  C   UNL A   1      42.000  29.324  29.170  1.00  0.00     0.031 A 
ATOM     32  C   UNL A   1      43.142  30.294  29.091  1.00  0.00     0.074 A 
ATOM     33  C   UNL A   1      42.177  28.032  28.837  1.00  0.00     0.049 A 
ATOM     34  N   UNL A   1      44.338  30.125  28.591  1.00  0.00    -0.248 NA
ATOM     35  C   UNL A   1      42.901  31.639  29.641  1.00  0.00     0.031 C 
ATOM     36  C   UNL A   1      41.157  26.987  28.924  1.00  0.00     0.029 A 
ATOM     37  N   UNL A   1      43.279  27.388  28.334  1.00  0.00    -0.354 N 
ATOM     38  C   UNL A   1      44.983  31.346  28.737  1.00  0.00     0.074 A 
ATOM     39  C   UNL A   1      44.045  32.251  29.367  1.00  0.00     0.031 C 
ATOM     40  C   UNL A   1      41.677  25.833  28.471  1.00  0.00     0.029 A 
ATOM     41  C   UNL A   1      43.044  26.071  28.016  1.00  0.00     0.049 A 
ATOM     42  H   UNL A   1      44.152  27.825  28.212  1.00  0.00     0.167 HD
ATOM     43  C   UNL A   1      46.243  31.684  28.370  1.00  0.00     0.031 A 
ATOM     44  C   UNL A   1      43.829  25.172  27.390  1.00  0.00     0.031 A 
ATOM     45  C   UNL A   1      47.166  30.779  27.741  1.00  0.00     0.049 A 
ATOM     46  C   UNL A   1      45.203  25.585  26.935  1.00  0.00     0.074 A 
ATOM     47  C   UNL A   1      48.464  31.022  27.327  1.00  0.00     0.029 A 
ATOM     48  N   UNL A   1      46.889  29.454  27.437  1.00  0.00    -0.354 N 
ATOM     49  N   UNL A   1      45.796  26.747  27.063  1.00  0.00    -0.248 NA
ATOM     50  C   UNL A   1      46.013  24.567  26.250  1.00  0.00     0.031 C 
ATOM     51  C   UNL A   1      48.959  29.854  26.739  1.00  0.00     0.029 A 
ATOM     52  C   UNL A   1      47.987  28.871  26.832  1.00  0.00     0.049 A 
ATOM     53  H   UNL A   1      46.038  28.997  27.625  1.00  0.00     0.167 HD
ATOM     54  C   UNL A   1      47.060  26.592  26.504  1.00  0.00     0.074 A 
ATOM     55  C   UNL A   1      47.147  25.224  26.036  1.00  0.00     0.031 C 
ATOM     56  C   UNL A   1      48.060  27.499  26.393  1.00  0.00     0.031 A 
BRANCH  43  57
ATOM     57  C   UNL A   1      46.676  33.104  28.604  1.00  0.00    -0.014 A 
ATOM     58  C   UNL A   1      47.410  33.464  29.746  1.00  0.00     0.010 A 
ATOM     59  C   UNL A   1      46.366  34.090  27.648  1.00  0.00     0.010 A 
ATOM     60  C   UNL A   1      47.794  34.793  29.950  1.00  0.00     0.020 A 
ATOM     61  C   UNL A   1      46.768  35.415  27.837  1.00  0.00     0.020 A 
ATOM     62  C   UNL A   1      47.465  35.761  28.997  1.00  0.00     0.054 A 
BRANCH  62  63
ATOM     63  S   UNL A   1      47.982  37.477  29.279  1.00  0.00     0.124 S 
ATOM     64  O   UNL A   1      47.461  38.145  28.088  1.00  0.00    -0.237 OA
ATOM     65  O   UNL A   1      47.312  37.815  30.531  1.00  0.00    -0.237 OA
ATOM     66  O   UNL A   1      49.438  37.391  29.357  1.00  0.00    -0.744 OA
ENDBRANCH  62  63
ENDBRANCH  43  57
BRANCH  44  67
ATOM     67  C   UNL A   1      43.318  23.798  27.128  1.00  0.00    -0.014 A 
ATOM     68  C   UNL A   1      43.340  22.824  28.140  1.00  0.00     0.010 A 
ATOM     69  C   UNL A   1      42.791  23.464  25.867  1.00  0.00     0.010 A 
ATOM     70  C   UNL A   1      42.856  21.536  27.894  1.00  0.00     0.020 A 
ATOM     71  C   UNL A   1      42.284  22.184  25.624  1.00  0.00     0.020 A 
ATOM     72  C   UNL A   1      42.330  21.224  26.636  1.00  0.00     0.054 A 
BRANCH  72  73
ATOM     73  S   UNL A   1      41.656  19.564  26.353  1.00  0.00     0.124 S 
ATOM     74  O   UNL A   1      42.401  19.131  25.175  1.00  0.00    -0.237 OA
ATOM     75  O   UNL A   1      41.982  18.871  27.598  1.00  0.00    -0.237 OA
ATOM     76  O   UNL A   1      40.231  19.806  26.140  1.00  0.00    -0.744 OA
ENDBRANCH  72  73
ENDBRANCH  44  67
BRANCH  56  77
ATOM     77  C   UNL A   1      49.363  27.039  25.798  1.00  0.00    -0.014 A 
ATOM     78  C   UNL A   1      49.685  27.302  24.457  1.00  0.00     0.010 A 
ATOM     79  C   UNL A   1      50.318  26.427  26.630  1.00  0.00     0.010 A 
ATOM     80  C   UNL A   1      50.942  26.956  23.955  1.00  0.00     0.020 A 
ATOM     81  C   UNL A   1      51.583  26.099  26.137  1.00  0.00     0.020 A 
ATOM     82  C   UNL A   1      51.885  26.361  24.800  1.00  0.00     0.054 A 
BRANCH  82  83
ATOM     83  S   UNL A   1      53.541  26.002  24.150  1.00  0.00     0.124 S 
ATOM     84  O   UNL A   1      54.317  27.131  24.654  1.00  0.00    -0.237 OA
ATOM     85  O   UNL A   1      53.850  24.708  24.752  1.00  0.00    -0.237 OA
ATOM     86  O   UNL A   1      53.345  25.978  22.701  1.00  0.00    -0.744 OA
ENDBRANCH  82  83
ENDBRANCH  56  77
ENDBRANCH  30  31
ENDBRANCH  23  25
ENDBRANCH  22  23
ENDBRANCH  21  22
ENDBRANCH   1  21
TORSDOF 17
ENDMDL
MODEL 2
REMARK VINA RESULT:     -10.3      2.289      8.829
REMARK SMILES C[C@H](c1ccc(Br)s1)[NH+]1CCC(CC(=O)OCCOC(=O)c2ccc(-c3c4nc(c(-c5ccc(S(=O)(=O)[O-])cc5)c5ccc([nH]5)c(-c5ccc(S(=O)(=O)[O-])cc5)c5nc(c(-c6ccc(S(=O)(=O)[O-])cc6)c6ccc3[nH]6)C=C5)C=C4)cc2)CC1
REMARK SMILES IDX 17 1 16 2 14 3 15 4 13 5 12 6 9 7 10 8 83 9 11 11 82 12 2 13
REMARK SMILES IDX 1 14 3 15 4 16 8 17 5 18 6 19 7 20 18 21 19 22 20 23 21 24
REMARK SMILES IDX 22 25 23 26 81 27 24 28 80 29 25 30 26 31 27 32 74 33 28 34
REMARK SMILES IDX 79 35 73 36 75 37 29 38 78 39 72 40 71 41 30 43 60 44 41 45
REMARK SMILES IDX 59 46 42 47 45 48 58 49 76 50 43 51 44 52 57 54 77 55 46 56
REMARK SMILES IDX 31 57 32 58 40 59 33 60 39 61 34 62 35 63 36 64 37 65 38 66
REMARK SMILES IDX 61 67 62 68 70 69 63 70 69 71 64 72 65 73 66 74 67 75 68 76
REMARK SMILES IDX 47 77 48 78 56 79 49 80 55 81 50 82 51 83 52 84 53 85 54 86
REMARK H PARENT 9 10 75 42 45 53
REMARK Flexibility Score: inf
ROOT
ATOM      1  C   UNL A   1      34.271  31.688  28.020  1.00  0.00     0.274 C 
ENDROOT
BRANCH   1   2
ATOM      2  O   UNL A   1      33.661  30.448  27.616  1.00  0.00    -0.462 OA
BRANCH   2   3
ATOM      3  C   UNL A   1      32.454  30.526  27.004  1.00  0.00     0.306 C 
ATOM      4  O   UNL A   1      31.837  31.566  26.810  1.00  0.00    -0.252 OA
BRANCH   3   5
ATOM      5  C   UNL A   1      31.893  29.165  26.648  1.00  0.00     0.126 C 
BRANCH   5   6
ATOM      6  C   UNL A   1      32.042  28.721  25.181  1.00  0.00     0.011 C 
ATOM      7  N   UNL A   1      33.007  26.522  23.490  1.00  0.00    -0.328 N 
ATOM      8  C   UNL A   1      33.683  27.831  23.453  1.00  0.00     0.263 C 
ATOM      9  C   UNL A   1      31.562  26.750  23.601  1.00  0.00     0.263 C 
ATOM     10  H   UNL A   1      33.280  25.983  24.312  1.00  0.00     0.348 HD
ATOM     11  C   UNL A   1      33.514  28.533  24.793  1.00  0.00     0.066 C 
ATOM     12  C   UNL A   1      31.254  27.419  24.948  1.00  0.00     0.066 C 
BRANCH   7  13
ATOM     13  C   UNL A   1      33.432  25.673  22.354  1.00  0.00     0.222 C 
ATOM     14  C   UNL A   1      32.442  25.666  21.176  1.00  0.00     0.082 C 
BRANCH  13  15
ATOM     15  C   UNL A   1      33.580  24.238  22.850  1.00  0.00     0.063 A 
ATOM     16  C   UNL A   1      32.727  23.165  22.640  1.00  0.00     0.023 A 
ATOM     17  S   UNL A   1      34.901  23.789  23.854  1.00  0.00    -0.127 S 
ATOM     18  C   UNL A   1      33.133  21.995  23.345  1.00  0.00     0.028 A 
ATOM     19  C   UNL A   1      34.287  22.222  24.049  1.00  0.00     0.070 A 
ATOM     20  Br  UNL A   1      35.105  20.930  25.132  1.00  0.00    -0.039 Br
ENDBRANCH  13  15
ENDBRANCH   7  13
ENDBRANCH   5   6
ENDBRANCH   3   5
ENDBRANCH   2   3
ENDBRANCH   1   2
BRANCH   1  21
ATOM     21  C   UNL A   1      35.420  31.442  29.000  1.00  0.00     0.275 C 
BRANCH  21  22
ATOM     22  O   UNL A   1      35.935  30.106  28.863  1.00  0.00    -0.458 OA
BRANCH  22  23
ATOM     23  C   UNL A   1      36.729  29.682  29.873  1.00  0.00     0.338 C 
ATOM     24  O   UNL A   1      36.390  29.364  30.999  1.00  0.00    -0.246 OA
BRANCH  23  25
ATOM     25  C   UNL A   1      38.108  29.572  29.381  1.00  0.00     0.060 A 
ATOM     26  C   UNL A   1      38.336  29.517  28.002  1.00  0.00     0.016 A 
ATOM     27  C   UNL A   1      39.162  29.459  30.287  1.00  0.00     0.016 A 
ATOM     28  C   UNL A   1      39.633  29.339  27.519  1.00  0.00     0.010 A 
ATOM     29  C   UNL A   1      40.458  29.281  29.801  1.00  0.00     0.010 A 
ATOM     30  C   UNL A   1      40.699  29.207  28.417  1.00  0.00    -0.014 A 
BRANCH  30  31
ATOM     31  C   UNL A   1      42.070  28.915  27.938  1.00  0.00     0.031 A 
ATOM     32  C   UNL A   1      42.434  27.502  27.584  1.00  0.00     0.074 A 
ATOM     33  C   UNL A   1      42.990  29.894  27.870  1.00  0.00     0.049 A 
ATOM     34  N   UNL A   1      43.610  26.990  27.331  1.00  0.00    -0.248 NA
ATOM     35  C   UNL A   1      41.325  26.535  27.517  1.00  0.00     0.031 C 
ATOM     36  C   UNL A   1      42.741  31.311  28.137  1.00  0.00     0.029 A 
ATOM     37  N   UNL A   1      44.330  29.836  27.577  1.00  0.00    -0.354 N 
ATOM     38  C   UNL A   1      43.390  25.637  27.104  1.00  0.00     0.074 A 
ATOM     39  C   UNL A   1      41.969  25.406  27.255  1.00  0.00     0.031 C 
ATOM     40  C   UNL A   1      43.897  31.986  28.013  1.00  0.00     0.029 A 
ATOM     41  C   UNL A   1      44.971  31.045  27.711  1.00  0.00     0.049 A 
ATOM     42  H   UNL A   1      44.787  29.010  27.299  1.00  0.00     0.167 HD
ATOM     43  C   UNL A   1      44.294  24.674  26.804  1.00  0.00     0.031 A 
ATOM     44  C   UNL A   1      46.282  31.349  27.638  1.00  0.00     0.031 A 
ATOM     45  C   UNL A   1      45.704  24.914  26.659  1.00  0.00     0.049 A 
ATOM     46  C   UNL A   1      47.278  30.253  27.365  1.00  0.00     0.074 A 
ATOM     47  C   UNL A   1      46.706  24.007  26.360  1.00  0.00     0.029 A 
ATOM     48  N   UNL A   1      46.313  26.152  26.802  1.00  0.00    -0.354 N 
ATOM     49  N   UNL A   1      47.060  28.975  27.169  1.00  0.00    -0.248 NA
ATOM     50  C   UNL A   1      48.695  30.639  27.305  1.00  0.00     0.031 C 
ATOM     51  C   UNL A   1      47.925  24.691  26.359  1.00  0.00     0.029 A 
ATOM     52  C   UNL A   1      47.677  26.031  26.607  1.00  0.00     0.049 A 
ATOM     53  H   UNL A   1      45.844  26.992  27.010  1.00  0.00     0.167 HD
ATOM     54  C   UNL A   1      48.308  28.409  26.930  1.00  0.00     0.074 A 
ATOM     55  C   UNL A   1      49.277  29.484  27.007  1.00  0.00     0.031 C 
ATOM     56  C   UNL A   1      48.622  27.118  26.667  1.00  0.00     0.031 A 
BRANCH  43  57
ATOM     57  C   UNL A   1      43.786  23.268  26.655  1.00  0.00    -0.014 A 
ATOM     58  C   UNL A   1      43.972  22.547  25.463  1.00  0.00     0.010 A 
ATOM     59  C   UNL A   1      43.134  22.647  27.737  1.00  0.00     0.010 A 
ATOM     60  C   UNL A   1      43.482  21.243  25.341  1.00  0.00     0.020 A 
ATOM     61  C   UNL A   1      42.663  21.336  27.628  1.00  0.00     0.020 A 
ATOM     62  C   UNL A   1      42.825  20.648  26.423  1.00  0.00     0.054 A 
BRANCH  62  63
ATOM     63  S   UNL A   1      42.206  18.953  26.244  1.00  0.00     0.124 S 
ATOM     64  O   UNL A   1      42.361  18.434  27.601  1.00  0.00    -0.237 OA
ATOM     65  O   UNL A   1      40.829  19.156  25.805  1.00  0.00    -0.237 OA
ATOM     66  O   UNL A   1      43.095  18.363  25.246  1.00  0.00    -0.744 OA
ENDBRANCH  62  63
ENDBRANCH  43  57
BRANCH  44  67
ATOM     67  C   UNL A   1      46.731  32.750  27.860  1.00  0.00    -0.014 A 
ATOM     68  C   UNL A   1      46.799  33.656  26.788  1.00  0.00     0.010 A 
ATOM     69  C   UNL A   1      47.076  33.190  29.151  1.00  0.00     0.010 A 
ATOM     70  C   UNL A   1      47.216  34.973  27.000  1.00  0.00     0.020 A 
ATOM     71  C   UNL A   1      47.471  34.513  29.371  1.00  0.00     0.020 A 
ATOM     72  C   UNL A   1      47.549  35.394  28.291  1.00  0.00     0.054 A 
BRANCH  72  73
ATOM     73  S   UNL A   1      48.035  37.122  28.554  1.00  0.00     0.124 S 
ATOM     74  O   UNL A   1      46.977  37.603  29.437  1.00  0.00    -0.237 OA
ATOM     75  O   UNL A   1      49.357  36.993  29.163  1.00  0.00    -0.237 OA
ATOM     76  O   UNL A   1      48.032  37.686  27.206  1.00  0.00    -0.744 OA
ENDBRANCH  72  73
ENDBRANCH  44  67
BRANCH  56  77
ATOM     77  C   UNL A   1      50.062  26.791  26.379  1.00  0.00    -0.014 A 
ATOM     78  C   UNL A   1      50.954  26.458  27.411  1.00  0.00     0.010 A 
ATOM     79  C   UNL A   1      50.493  26.713  25.042  1.00  0.00     0.010 A 
ATOM     80  C   UNL A   1      52.258  26.057  27.110  1.00  0.00     0.020 A 
ATOM     81  C   UNL A   1      51.790  26.294  24.737  1.00  0.00     0.020 A 
ATOM     82  C   UNL A   1      52.666  25.973  25.775  1.00  0.00     0.054 A 
BRANCH  82  83
ATOM     83  S   UNL A   1      54.336  25.365  25.406  1.00  0.00     0.124 S 
ATOM     84  O   UNL A   1      54.082  23.971  25.054  1.00  0.00    -0.237 OA
ATOM     85  O   UNL A   1      54.756  26.225  24.302  1.00  0.00    -0.237 OA
ATOM     86  O   UNL A   1      55.063  25.570  26.657  1.00  0.00    -0.744 OA
ENDBRANCH  82  83
ENDBRANCH  56  77
ENDBRANCH  30  31
ENDBRANCH  23  25
ENDBRANCH  22  23
ENDBRANCH  21  22
ENDBRANCH   1  21
TORSDOF 17
ENDMDL
MODEL 3
REMARK VINA RESULT:     -10.3      4.440     10.331
REMARK SMILES C[C@H](c1ccc(Br)s1)[NH+]1CCC(CC(=O)OCCOC(=O)c2ccc(-c3c4nc(c(-c5ccc(S(=O)(=O)[O-])cc5)c5ccc([nH]5)c(-c5ccc(S(=O)(=O)[O-])cc5)c5nc(c(-c6ccc(S(=O)(=O)[O-])cc6)c6ccc3[nH]6)C=C5)C=C4)cc2)CC1
REMARK SMILES IDX 17 1 16 2 14 3 15 4 13 5 12 6 9 7 10 8 83 9 11 11 82 12 2 13
REMARK SMILES IDX 1 14 3 15 4 16 8 17 5 18 6 19 7 20 18 21 19 22 20 23 21 24
REMARK SMILES IDX 22 25 23 26 81 27 24 28 80 29 25 30 26 31 27 32 74 33 28 34
REMARK SMILES IDX 79 35 73 36 75 37 29 38 78 39 72 40 71 41 30 43 60 44 41 45
REMARK SMILES IDX 59 46 42 47 45 48 58 49 76 50 43 51 44 52 57 54 77 55 46 56
REMARK SMILES IDX 31 57 32 58 40 59 33 60 39 61 34 62 35 63 36 64 37 65 38 66
REMARK SMILES IDX 61 67 62 68 70 69 63 70 69 71 64 72 65 73 66 74 67 75 68 76
REMARK SMILES IDX 47 77 48 78 56 79 49 80 55 81 50 82 51 83 52 84 53 85 54 86
REMARK H PARENT 9 10 75 42 45 53
REMARK Flexibility Score: inf
ROOT
ATOM      1  C   UNL A   1      36.890  20.824  25.176  1.00  0.00     0.274 C 
ENDROOT
BRANCH   1   2
ATOM      2  O   UNL A   1      35.573  21.056  25.708  1.00  0.00    -0.462 OA
BRANCH   2   3
ATOM      3  C   UNL A   1      34.530  20.521  25.028  1.00  0.00     0.306 C 
ATOM      4  O   UNL A   1      34.498  19.379  24.588  1.00  0.00    -0.252 OA
BRANCH   3   5
ATOM      5  C   UNL A   1      33.417  21.520  24.790  1.00  0.00     0.126 C 
BRANCH   5   6
ATOM      6  C   UNL A   1      33.794  22.801  24.023  1.00  0.00     0.011 C 
ATOM      7  N   UNL A   1      32.755  25.419  23.191  1.00  0.00    -0.328 N 
ATOM      8  C   UNL A   1      33.059  24.392  22.179  1.00  0.00     0.263 C 
ATOM      9  C   UNL A   1      33.787  25.363  24.232  1.00  0.00     0.263 C 
ATOM     10  H   UNL A   1      31.865  25.236  23.655  1.00  0.00     0.348 HD
ATOM     11  C   UNL A   1      32.903  23.007  22.792  1.00  0.00     0.066 C 
ATOM     12  C   UNL A   1      33.701  24.017  24.963  1.00  0.00     0.066 C 
BRANCH   7  13
ATOM     13  C   UNL A   1      32.557  26.744  22.559  1.00  0.00     0.222 C 
ATOM     14  C   UNL A   1      33.555  27.815  23.034  1.00  0.00     0.082 C 
BRANCH  13  15
ATOM     15  C   UNL A   1      31.151  27.234  22.890  1.00  0.00     0.063 A 
ATOM     16  C   UNL A   1      30.102  26.518  23.447  1.00  0.00     0.023 A 
ATOM     17  S   UNL A   1      30.672  28.841  22.514  1.00  0.00    -0.127 S 
ATOM     18  C   UNL A   1      28.897  27.277  23.516  1.00  0.00     0.028 A 
ATOM     19  C   UNL A   1      29.084  28.542  23.023  1.00  0.00     0.070 A 
ATOM     20  Br  UNL A   1      27.716  29.818  22.912  1.00  0.00    -0.039 Br
ENDBRANCH  13  15
ENDBRANCH   7  13
ENDBRANCH   5   6
ENDBRANCH   3   5
ENDBRANCH   2   3
ENDBRANCH   1   2
BRANCH   1  21
ATOM     21  C   UNL A   1      37.488  22.111  24.607  1.00  0.00     0.275 C 
BRANCH  21  22
ATOM     22  O   UNL A   1      37.768  23.056  25.655  1.00  0.00    -0.458 OA
BRANCH  22  23
ATOM     23  C   UNL A   1      38.995  22.957  26.215  1.00  0.00     0.338 C 
ATOM     24  O   UNL A   1      39.750  22.002  26.182  1.00  0.00    -0.246 OA
BRANCH  23  25
ATOM     25  C   UNL A   1      39.347  24.247  26.824  1.00  0.00     0.060 A 
ATOM     26  C   UNL A   1      40.106  25.163  26.088  1.00  0.00     0.016 A 
ATOM     27  C   UNL A   1      38.978  24.516  28.142  1.00  0.00     0.016 A 
ATOM     28  C   UNL A   1      40.509  26.362  26.677  1.00  0.00     0.010 A 
ATOM     29  C   UNL A   1      39.383  25.716  28.728  1.00  0.00     0.010 A 
ATOM     30  C   UNL A   1      40.161  26.639  28.005  1.00  0.00    -0.014 A 
BRANCH  30  31
ATOM     31  C   UNL A   1      40.661  27.853  28.688  1.00  0.00     0.031 A 
ATOM     32  C   UNL A   1      42.039  27.842  29.283  1.00  0.00     0.074 A 
ATOM     33  C   UNL A   1      39.870  28.935  28.819  1.00  0.00     0.049 A 
ATOM     34  N   UNL A   1      42.603  28.710  30.081  1.00  0.00    -0.248 NA
ATOM     35  C   UNL A   1      42.893  26.692  28.939  1.00  0.00     0.031 C 
ATOM     36  C   UNL A   1      38.535  29.083  28.240  1.00  0.00     0.029 A 
ATOM     37  N   UNL A   1      40.073  30.106  29.505  1.00  0.00    -0.354 N 
ATOM     38  C   UNL A   1      43.864  28.200  30.361  1.00  0.00     0.074 A 
ATOM     39  C   UNL A   1      43.982  26.944  29.652  1.00  0.00     0.031 C 
ATOM     40  C   UNL A   1      38.030  30.272  28.611  1.00  0.00     0.029 A 
ATOM     41  C   UNL A   1      38.981  30.942  29.493  1.00  0.00     0.049 A 
ATOM     42  H   UNL A   1      40.916  30.326  29.961  1.00  0.00     0.167 HD
ATOM     43  C   UNL A   1      44.833  28.730  31.145  1.00  0.00     0.031 A 
ATOM     44  C   UNL A   1      38.760  32.096  30.151  1.00  0.00     0.031 A 
ATOM     45  C   UNL A   1      44.704  29.978  31.848  1.00  0.00     0.049 A 
ATOM     46  C   UNL A   1      39.826  32.637  31.067  1.00  0.00     0.074 A 
ATOM     47  C   UNL A   1      45.625  30.602  32.671  1.00  0.00     0.029 A 
ATOM     48  N   UNL A   1      43.584  30.794  31.808  1.00  0.00    -0.354 N 
ATOM     49  N   UNL A   1      41.008  32.138  31.337  1.00  0.00    -0.248 NA
ATOM     50  C   UNL A   1      39.528  33.895  31.767  1.00  0.00     0.031 C 
ATOM     51  C   UNL A   1      45.046  31.777  33.159  1.00  0.00     0.029 A 
ATOM     52  C   UNL A   1      43.786  31.910  32.600  1.00  0.00     0.049 A 
ATOM     53  H   UNL A   1      42.766  30.607  31.292  1.00  0.00     0.167 HD
ATOM     54  C   UNL A   1      41.608  33.036  32.213  1.00  0.00     0.074 A 
ATOM     55  C   UNL A   1      40.659  34.109  32.429  1.00  0.00     0.031 C 
ATOM     56  C   UNL A   1      42.836  32.979  32.784  1.00  0.00     0.031 A 
BRANCH  43  57
ATOM     57  C   UNL A   1      46.099  27.937  31.316  1.00  0.00    -0.014 A 
ATOM     58  C   UNL A   1      47.229  28.188  30.519  1.00  0.00     0.010 A 
ATOM     59  C   UNL A   1      46.166  26.943  32.309  1.00  0.00     0.010 A 
ATOM     60  C   UNL A   1      48.393  27.432  30.686  1.00  0.00     0.020 A 
ATOM     61  C   UNL A   1      47.335  26.200  32.495  1.00  0.00     0.020 A 
ATOM     62  C   UNL A   1      48.436  26.438  31.669  1.00  0.00     0.054 A 
BRANCH  62  63
ATOM     63  S   UNL A   1      49.961  25.477  31.873  1.00  0.00     0.124 S 
ATOM     64  O   UNL A   1      49.570  24.512  32.898  1.00  0.00    -0.237 OA
ATOM     65  O   UNL A   1      50.174  24.922  30.539  1.00  0.00    -0.237 OA
ATOM     66  O   UNL A   1      50.944  26.471  32.295  1.00  0.00    -0.744 OA
ENDBRANCH  62  63
ENDBRANCH  43  57
BRANCH  44  67
ATOM     67  C   UNL A   1      37.459  32.802  29.993  1.00  0.00    -0.014 A 
ATOM     68  C   UNL A   1      37.244  33.666  28.906  1.00  0.00     0.010 A 
ATOM     69  C   UNL A   1      36.422  32.598  30.922  1.00  0.00     0.010 A 
ATOM     70  C   UNL A   1      36.020  34.325  28.757  1.00  0.00     0.020 A 
ATOM     71  C   UNL A   1      35.189  33.237  30.763  1.00  0.00     0.020 A 
ATOM     72  C   UNL A   1      34.999  34.105  29.687  1.00  0.00     0.054 A 
BRANCH  72  73
ATOM     73  S   UNL A   1      33.399  34.925  29.444  1.00  0.00     0.124 S 
ATOM     74  O   UNL A   1      32.805  34.828  30.774  1.00  0.00    -0.237 OA
ATOM     75  O   UNL A   1      33.791  36.269  29.023  1.00  0.00    -0.237 OA
ATOM     76  O   UNL A   1      32.756  34.120  28.410  1.00  0.00    -0.744 OA
ENDBRANCH  72  73
ENDBRANCH  44  67
BRANCH  56  77
ATOM     77  C   UNL A   1      43.262  34.132  33.650  1.00  0.00    -0.014 A 
ATOM     78  C   UNL A   1      43.763  35.319  33.089  1.00  0.00     0.010 A 
ATOM     79  C   UNL A   1      43.055  34.060  35.039  1.00  0.00     0.010 A 
ATOM     80  C   UNL A   1      44.054  36.414  33.906  1.00  0.00     0.020 A 
ATOM     81  C   UNL A   1      43.326  35.159  35.857  1.00  0.00     0.020 A 
ATOM     82  C   UNL A   1      43.829  36.328  35.284  1.00  0.00     0.054 A 
BRANCH  82  83
ATOM     83  S   UNL A   1      44.131  37.792  36.314  1.00  0.00     0.124 S 
ATOM     84  O   UNL A   1      43.106  37.657  37.345  1.00  0.00    -0.237 OA
ATOM     85  O   UNL A   1      45.506  37.592  36.764  1.00  0.00    -0.237 OA
ATOM     86  O   UNL A   1      43.941  38.910  35.390  1.00  0.00    -0.744 OA
ENDBRANCH  82  83
ENDBRANCH  56  77
ENDBRANCH  30  31
ENDBRANCH  23  25
ENDBRANCH  22  23
ENDBRANCH  21  22
ENDBRANCH   1  21
TORSDOF 17
ENDMDL
