MODEL 1
REMARK VINA RESULT:     -10.5      0.000      0.000
REMARK SMILES C[C@H](NC(N)=O)C(=O)N[C@@H](CO)C(=O)OCCOC(=O)c1ccc(-c2c3nc(c(-c4ccc(S(=O)(=O)[O-])cc4)c4ccc([nH]4)c(-c4ccc(S(=O)(=O)[O-])cc4)c4nc(c(-c5ccc(S(=O)(=O)[O-])cc5)c5ccc2[nH]5)C=C4)C=C3)cc1
REMARK SMILES IDX 16 1 15 2 13 3 14 4 10 5 9 6 7 7 8 8 2 10 1 11 3 12 4 13
REMARK SMILES IDX 5 15 6 16 11 19 12 20 17 22 18 23 19 24 20 25 21 26 22 27
REMARK SMILES IDX 80 28 23 29 79 30 24 31 25 32 26 33 73 34 27 35 78 36 72 37
REMARK SMILES IDX 74 38 28 39 77 40 71 41 70 42 29 44 59 45 40 46 58 47 41 48
REMARK SMILES IDX 44 49 57 50 75 51 42 52 43 53 56 55 76 56 45 57 30 58 31 59
REMARK SMILES IDX 39 60 32 61 38 62 33 63 34 64 35 65 36 66 37 67 60 68 61 69
REMARK SMILES IDX 69 70 62 71 68 72 63 73 64 74 65 75 66 76 67 77 46 78 47 79
REMARK SMILES IDX 55 80 48 81 54 82 49 83 50 84 51 85 52 86 53 87
REMARK H PARENT 9 9 3 14 5 17 5 18 12 21 74 43 44 54
REMARK Flexibility Score: inf
ROOT
ATOM      1  C   UNL A   1      36.354  33.122  30.436  1.00  0.00     0.274 C 
ENDROOT
BRANCH   1   2
ATOM      2  O   UNL A   1      36.218  33.118  31.872  1.00  0.00    -0.460 OA
BRANCH   2   3
ATOM      3  C   UNL A   1      34.957  33.326  32.341  1.00  0.00     0.331 C 
ATOM      4  O   UNL A   1      34.025  32.540  32.209  1.00  0.00    -0.250 OA
BRANCH   3   5
ATOM      5  C   UNL A   1      34.798  34.670  33.065  1.00  0.00     0.218 C 
BRANCH   5   6
ATOM      6  N   UNL A   1      33.437  35.219  33.098  1.00  0.00    -0.339 N 
ATOM      7  C   UNL A   1      32.951  36.442  32.733  1.00  0.00     0.243 C 
ATOM      8  O   UNL A   1      31.763  36.661  32.999  1.00  0.00    -0.273 OA
ATOM      9  H   UNL A   1      32.756  34.597  33.441  1.00  0.00     0.164 HD
BRANCH   7  10
ATOM     10  C   UNL A   1      33.755  37.433  31.852  1.00  0.00     0.170 C 
ATOM     11  C   UNL A   1      33.816  38.750  32.621  1.00  0.00     0.041 C 
BRANCH  10  12
ATOM     12  N   UNL A   1      33.254  37.538  30.478  1.00  0.00    -0.327 N 
ATOM     13  C   UNL A   1      33.290  36.508  29.589  1.00  0.00     0.312 C 
ATOM     14  H   UNL A   1      32.872  38.396  30.184  1.00  0.00     0.166 HD
ATOM     15  N   UNL A   1      32.698  36.799  28.409  1.00  0.00    -0.352 N 
ATOM     16  O   UNL A   1      33.811  35.418  29.771  1.00  0.00    -0.249 OA
ATOM     17  H   UNL A   1      32.280  37.681  28.272  1.00  0.00     0.161 HD
ATOM     18  H   UNL A   1      32.683  36.131  27.686  1.00  0.00     0.161 HD
ENDBRANCH  10  12
ENDBRANCH   7  10
ENDBRANCH   5   6
BRANCH   5  19
ATOM     19  C   UNL A   1      35.310  34.471  34.498  1.00  0.00     0.193 C 
BRANCH  19  20
ATOM     20  O   UNL A   1      35.650  33.104  34.741  1.00  0.00    -0.394 OA
ATOM     21  H   UNL A   1      35.118  32.763  35.477  1.00  0.00     0.210 HD
ENDBRANCH  19  20
ENDBRANCH   5  19
ENDBRANCH   3   5
ENDBRANCH   2   3
ENDBRANCH   1   2
BRANCH   1  22
ATOM     22  C   UNL A   1      35.317  32.212  29.779  1.00  0.00     0.275 C 
BRANCH  22  23
ATOM     23  O   UNL A   1      35.932  31.022  29.247  1.00  0.00    -0.458 OA
BRANCH  23  24
ATOM     24  C   UNL A   1      36.386  30.165  30.189  1.00  0.00     0.338 C 
ATOM     25  O   UNL A   1      35.853  29.894  31.253  1.00  0.00    -0.246 OA
BRANCH  24  26
ATOM     26  C   UNL A   1      37.615  29.495  29.745  1.00  0.00     0.060 A 
ATOM     27  C   UNL A   1      38.409  28.858  30.698  1.00  0.00     0.016 A 
ATOM     28  C   UNL A   1      38.109  29.735  28.464  1.00  0.00     0.016 A 
ATOM     29  C   UNL A   1      39.743  28.582  30.411  1.00  0.00     0.010 A 
ATOM     30  C   UNL A   1      39.414  29.340  28.144  1.00  0.00     0.010 A 
ATOM     31  C   UNL A   1      40.262  28.798  29.125  1.00  0.00    -0.014 A 
BRANCH  31  32
ATOM     32  C   UNL A   1      41.682  28.459  28.815  1.00  0.00     0.031 A 
ATOM     33  C   UNL A   1      42.762  29.514  28.871  1.00  0.00     0.074 A 
ATOM     34  C   UNL A   1      42.006  27.196  28.465  1.00  0.00     0.049 A 
ATOM     35  N   UNL A   1      43.997  29.452  28.438  1.00  0.00    -0.248 NA
ATOM     36  C   UNL A   1      42.406  30.811  29.469  1.00  0.00     0.031 C 
ATOM     37  C   UNL A   1      41.077  26.064  28.403  1.00  0.00     0.029 A 
ATOM     38  N   UNL A   1      43.211  26.649  28.094  1.00  0.00    -0.354 N 
ATOM     39  C   UNL A   1      44.543  30.714  28.654  1.00  0.00     0.074 A 
ATOM     40  C   UNL A   1      43.506  31.523  29.257  1.00  0.00     0.031 C 
ATOM     41  C   UNL A   1      41.747  24.957  28.059  1.00  0.00     0.029 A 
ATOM     42  C   UNL A   1      43.131  25.314  27.773  1.00  0.00     0.049 A 
ATOM     43  H   UNL A   1      44.049  27.162  28.061  1.00  0.00     0.167 HD
ATOM     44  C   UNL A   1      45.794  31.155  28.371  1.00  0.00     0.031 A 
ATOM     45  C   UNL A   1      44.045  24.473  27.253  1.00  0.00     0.031 A 
ATOM     46  C   UNL A   1      46.842  30.324  27.832  1.00  0.00     0.049 A 
ATOM     47  C   UNL A   1      45.413  24.995  26.923  1.00  0.00     0.074 A 
ATOM     48  C   UNL A   1      48.155  30.671  27.553  1.00  0.00     0.029 A 
ATOM     49  N   UNL A   1      46.709  28.983  27.509  1.00  0.00    -0.354 N 
ATOM     50  N   UNL A   1      45.899  26.199  27.100  1.00  0.00    -0.248 NA
ATOM     51  C   UNL A   1      46.353  24.048  26.308  1.00  0.00     0.031 C 
ATOM     52  C   UNL A   1      48.799  29.553  27.013  1.00  0.00     0.029 A 
ATOM     53  C   UNL A   1      47.905  28.495  27.011  1.00  0.00     0.049 A 
ATOM     54  H   UNL A   1      45.885  28.455  27.616  1.00  0.00     0.167 HD
ATOM     55  C   UNL A   1      47.208  26.149  26.636  1.00  0.00     0.074 A 
ATOM     56  C   UNL A   1      47.444  24.791  26.192  1.00  0.00     0.031 C 
ATOM     57  C   UNL A   1      48.130  27.141  26.578  1.00  0.00     0.031 A 
BRANCH  44  58
ATOM     58  C   UNL A   1      46.113  32.612  28.597  1.00  0.00    -0.014 A 
ATOM     59  C   UNL A   1      45.863  33.586  27.615  1.00  0.00     0.010 A 
ATOM     60  C   UNL A   1      46.571  33.024  29.864  1.00  0.00     0.010 A 
ATOM     61  C   UNL A   1      46.076  34.942  27.893  1.00  0.00     0.020 A 
ATOM     62  C   UNL A   1      46.763  34.378  30.154  1.00  0.00     0.020 A 
ATOM     63  C   UNL A   1      46.521  35.329  29.162  1.00  0.00     0.054 A 
BRANCH  63  64
ATOM     64  S   UNL A   1      46.723  37.099  29.518  1.00  0.00     0.124 S 
ATOM     65  O   UNL A   1      45.499  37.662  28.954  1.00  0.00    -0.237 OA
ATOM     66  O   UNL A   1      46.814  37.126  30.975  1.00  0.00    -0.237 OA
ATOM     67  O   UNL A   1      47.953  37.457  28.815  1.00  0.00    -0.744 OA
ENDBRANCH  63  64
ENDBRANCH  44  58
BRANCH  45  68
ATOM     68  C   UNL A   1      43.673  23.063  26.951  1.00  0.00    -0.014 A 
ATOM     69  C   UNL A   1      42.929  22.304  27.870  1.00  0.00     0.010 A 
ATOM     70  C   UNL A   1      44.068  22.472  25.735  1.00  0.00     0.010 A 
ATOM     71  C   UNL A   1      42.606  20.973  27.590  1.00  0.00     0.020 A 
ATOM     72  C   UNL A   1      43.717  21.154  25.437  1.00  0.00     0.020 A 
ATOM     73  C   UNL A   1      43.004  20.407  26.374  1.00  0.00     0.054 A 
BRANCH  73  74
ATOM     74  S   UNL A   1      42.544  18.690  26.013  1.00  0.00     0.124 S 
ATOM     75  O   UNL A   1      42.818  18.030  27.284  1.00  0.00    -0.237 OA
ATOM     76  O   UNL A   1      41.132  18.809  25.652  1.00  0.00    -0.237 OA
ATOM     77  O   UNL A   1      43.430  18.325  24.911  1.00  0.00    -0.744 OA
ENDBRANCH  73  74
ENDBRANCH  45  68
BRANCH  57  78
ATOM     78  C   UNL A   1      49.493  26.780  26.055  1.00  0.00    -0.014 A 
ATOM     79  C   UNL A   1      50.467  26.207  26.891  1.00  0.00     0.010 A 
ATOM     80  C   UNL A   1      49.791  26.993  24.697  1.00  0.00     0.010 A 
ATOM     81  C   UNL A   1      51.730  25.887  26.386  1.00  0.00     0.020 A 
ATOM     82  C   UNL A   1      51.043  26.649  24.181  1.00  0.00     0.020 A 
ATOM     83  C   UNL A   1      52.011  26.113  25.034  1.00  0.00     0.054 A 
BRANCH  83  84
ATOM     84  S   UNL A   1      53.647  25.662  24.395  1.00  0.00     0.124 S 
ATOM     85  O   UNL A   1      54.519  26.587  25.114  1.00  0.00    -0.237 OA
ATOM     86  O   UNL A   1      53.767  24.258  24.779  1.00  0.00    -0.237 OA
ATOM     87  O   UNL A   1      53.535  25.901  22.957  1.00  0.00    -0.744 OA
ENDBRANCH  83  84
ENDBRANCH  57  78
ENDBRANCH  31  32
ENDBRANCH  24  26
ENDBRANCH  23  24
ENDBRANCH  22  23
ENDBRANCH   1  22
TORSDOF 19
ENDMDL
MODEL 2
REMARK VINA RESULT:     -10.3      5.190     11.796
REMARK SMILES C[C@H](NC(N)=O)C(=O)N[C@@H](CO)C(=O)OCCOC(=O)c1ccc(-c2c3nc(c(-c4ccc(S(=O)(=O)[O-])cc4)c4ccc([nH]4)c(-c4ccc(S(=O)(=O)[O-])cc4)c4nc(c(-c5ccc(S(=O)(=O)[O-])cc5)c5ccc2[nH]5)C=C4)C=C3)cc1
REMARK SMILES IDX 16 1 15 2 13 3 14 4 10 5 9 6 7 7 8 8 2 10 1 11 3 12 4 13
REMARK SMILES IDX 5 15 6 16 11 19 12 20 17 22 18 23 19 24 20 25 21 26 22 27
REMARK SMILES IDX 80 28 23 29 79 30 24 31 25 32 26 33 73 34 27 35 78 36 72 37
REMARK SMILES IDX 74 38 28 39 77 40 71 41 70 42 29 44 59 45 40 46 58 47 41 48
REMARK SMILES IDX 44 49 57 50 75 51 42 52 43 53 56 55 76 56 45 57 30 58 31 59
REMARK SMILES IDX 39 60 32 61 38 62 33 63 34 64 35 65 36 66 37 67 60 68 61 69
REMARK SMILES IDX 69 70 62 71 68 72 63 73 64 74 65 75 66 76 67 77 46 78 47 79
REMARK SMILES IDX 55 80 48 81 54 82 49 83 50 84 51 85 52 86 53 87
REMARK H PARENT 9 9 3 14 5 17 5 18 12 21 74 43 44 54
REMARK Flexibility Score: inf
ROOT
ATOM      1  C   UNL A   1      35.965  22.135  25.999  1.00  0.00     0.274 C 
ENDROOT
BRANCH   1   2
ATOM      2  O   UNL A   1      34.743  21.369  25.982  1.00  0.00    -0.460 OA
BRANCH   2   3
ATOM      3  C   UNL A   1      34.299  21.004  24.748  1.00  0.00     0.331 C 
ATOM      4  O   UNL A   1      34.246  21.750  23.776  1.00  0.00    -0.250 OA
BRANCH   3   5
ATOM      5  C   UNL A   1      33.852  19.537  24.679  1.00  0.00     0.218 C 
BRANCH   5   6
ATOM      6  N   UNL A   1      34.893  18.540  24.962  1.00  0.00    -0.339 N 
ATOM      7  C   UNL A   1      34.916  17.187  24.779  1.00  0.00     0.243 C 
ATOM      8  O   UNL A   1      35.896  16.589  25.238  1.00  0.00    -0.273 OA
ATOM      9  H   UNL A   1      35.717  18.912  25.351  1.00  0.00     0.164 HD
BRANCH   7  10
ATOM     10  C   UNL A   1      33.897  16.449  23.872  1.00  0.00     0.170 C 
ATOM     11  C   UNL A   1      33.698  17.326  22.638  1.00  0.00     0.041 C 
BRANCH  10  12
ATOM     12  N   UNL A   1      32.665  16.062  24.565  1.00  0.00    -0.327 N 
ATOM     13  C   UNL A   1      32.559  14.942  25.332  1.00  0.00     0.312 C 
ATOM     14  H   UNL A   1      31.874  16.642  24.472  1.00  0.00     0.166 HD
ATOM     15  N   UNL A   1      31.359  14.826  25.945  1.00  0.00    -0.352 N 
ATOM     16  O   UNL A   1      33.414  14.082  25.471  1.00  0.00    -0.249 OA
ATOM     17  H   UNL A   1      30.676  15.525  25.827  1.00  0.00     0.161 HD
ATOM     18  H   UNL A   1      31.168  14.043  26.510  1.00  0.00     0.161 HD
ENDBRANCH  10  12
ENDBRANCH   7  10
ENDBRANCH   5   6
BRANCH   5  19
ATOM     19  C   UNL A   1      32.695  19.373  25.674  1.00  0.00     0.193 C 
BRANCH  19  20
ATOM     20  O   UNL A   1      31.716  20.401  25.502  1.00  0.00    -0.394 OA
ATOM     21  H   UNL A   1      32.121  21.164  25.062  1.00  0.00     0.210 HD
ENDBRANCH  19  20
ENDBRANCH   5  19
ENDBRANCH   3   5
ENDBRANCH   2   3
ENDBRANCH   1   2
BRANCH   1  22
ATOM     22  C   UNL A   1      37.129  21.337  25.411  1.00  0.00     0.275 C 
BRANCH  22  23
ATOM     23  O   UNL A   1      38.294  22.166  25.238  1.00  0.00    -0.458 OA
BRANCH  23  24
ATOM     24  C   UNL A   1      39.307  21.881  26.086  1.00  0.00     0.338 C 
ATOM     25  O   UNL A   1      39.884  20.813  26.208  1.00  0.00    -0.246 OA
BRANCH  24  26
ATOM     26  C   UNL A   1      39.722  23.076  26.835  1.00  0.00     0.060 A 
ATOM     27  C   UNL A   1      39.280  24.323  26.398  1.00  0.00     0.016 A 
ATOM     28  C   UNL A   1      40.749  22.981  27.773  1.00  0.00     0.016 A 
ATOM     29  C   UNL A   1      39.956  25.473  26.797  1.00  0.00     0.010 A 
ATOM     30  C   UNL A   1      41.340  24.151  28.266  1.00  0.00     0.010 A 
ATOM     31  C   UNL A   1      40.982  25.410  27.753  1.00  0.00    -0.014 A 
BRANCH  31  32
ATOM     32  C   UNL A   1      41.671  26.653  28.207  1.00  0.00     0.031 A 
ATOM     33  C   UNL A   1      40.893  27.794  28.819  1.00  0.00     0.074 A 
ATOM     34  C   UNL A   1      43.008  26.768  28.055  1.00  0.00     0.049 A 
ATOM     35  N   UNL A   1      41.288  29.016  29.075  1.00  0.00    -0.248 NA
ATOM     36  C   UNL A   1      39.486  27.538  29.167  1.00  0.00     0.031 C 
ATOM     37  C   UNL A   1      43.896  25.736  27.514  1.00  0.00     0.029 A 
ATOM     38  N   UNL A   1      43.857  27.809  28.343  1.00  0.00    -0.354 N 
ATOM     39  C   UNL A   1      40.167  29.689  29.555  1.00  0.00     0.074 A 
ATOM     40  C   UNL A   1      39.075  28.739  29.554  1.00  0.00     0.031 C 
ATOM     41  C   UNL A   1      45.161  26.175  27.547  1.00  0.00     0.029 A 
ATOM     42  C   UNL A   1      45.167  27.557  28.011  1.00  0.00     0.049 A 
ATOM     43  H   UNL A   1      43.557  28.653  28.749  1.00  0.00     0.167 HD
ATOM     44  C   UNL A   1      40.062  30.980  29.955  1.00  0.00     0.031 A 
ATOM     45  C   UNL A   1      46.252  28.355  28.019  1.00  0.00     0.031 A 
ATOM     46  C   UNL A   1      41.170  31.901  30.016  1.00  0.00     0.049 A 
ATOM     47  C   UNL A   1      46.101  29.788  28.439  1.00  0.00     0.074 A 
ATOM     48  C   UNL A   1      41.169  33.217  30.450  1.00  0.00     0.029 A 
ATOM     49  N   UNL A   1      42.474  31.604  29.653  1.00  0.00    -0.354 N 
ATOM     50  N   UNL A   1      45.027  30.415  28.854  1.00  0.00    -0.248 NA
ATOM     51  C   UNL A   1      47.306  30.626  28.378  1.00  0.00     0.031 C 
ATOM     52  C   UNL A   1      42.462  33.730  30.300  1.00  0.00     0.029 A 
ATOM     53  C   UNL A   1      43.279  32.716  29.829  1.00  0.00     0.049 A 
ATOM     54  H   UNL A   1      42.782  30.731  29.319  1.00  0.00     0.167 HD
ATOM     55  C   UNL A   1      45.432  31.716  29.122  1.00  0.00     0.074 A 
ATOM     56  C   UNL A   1      46.852  31.781  28.844  1.00  0.00     0.031 C 
ATOM     57  C   UNL A   1      44.692  32.766  29.554  1.00  0.00     0.031 A 
BRANCH  44  58
ATOM     58  C   UNL A   1      38.700  31.510  30.330  1.00  0.00    -0.014 A 
ATOM     59  C   UNL A   1      38.236  31.486  31.656  1.00  0.00     0.010 A 
ATOM     60  C   UNL A   1      37.919  32.146  29.346  1.00  0.00     0.010 A 
ATOM     61  C   UNL A   1      37.010  32.077  31.987  1.00  0.00     0.020 A 
ATOM     62  C   UNL A   1      36.706  32.759  29.676  1.00  0.00     0.020 A 
ATOM     63  C   UNL A   1      36.255  32.714  30.995  1.00  0.00     0.054 A 
BRANCH  63  64
ATOM     64  S   UNL A   1      34.703  33.532  31.465  1.00  0.00     0.124 S 
ATOM     65  O   UNL A   1      34.098  32.544  32.355  1.00  0.00    -0.237 OA
ATOM     66  O   UNL A   1      35.169  34.757  32.111  1.00  0.00    -0.237 OA
ATOM     67  O   UNL A   1      34.013  33.727  30.192  1.00  0.00    -0.744 OA
ENDBRANCH  63  64
ENDBRANCH  44  58
BRANCH  45  68
ATOM     68  C   UNL A   1      47.565  27.831  27.552  1.00  0.00    -0.014 A 
ATOM     69  C   UNL A   1      48.457  27.223  28.452  1.00  0.00     0.010 A 
ATOM     70  C   UNL A   1      47.931  27.943  26.197  1.00  0.00     0.010 A 
ATOM     71  C   UNL A   1      49.699  26.758  28.010  1.00  0.00     0.020 A 
ATOM     72  C   UNL A   1      49.155  27.447  25.745  1.00  0.00     0.020 A 
ATOM     73  C   UNL A   1      50.040  26.874  26.659  1.00  0.00     0.054 A 
BRANCH  73  74
ATOM     74  S   UNL A   1      51.641  26.231  26.098  1.00  0.00     0.124 S 
ATOM     75  O   UNL A   1      51.539  26.390  24.652  1.00  0.00    -0.237 OA
ATOM     76  O   UNL A   1      52.591  27.116  26.769  1.00  0.00    -0.237 OA
ATOM     77  O   UNL A   1      51.641  24.852  26.580  1.00  0.00    -0.744 OA
ENDBRANCH  73  74
ENDBRANCH  45  68
BRANCH  57  78
ATOM     78  C   UNL A   1      45.415  34.063  29.796  1.00  0.00    -0.014 A 
ATOM     79  C   UNL A   1      45.783  34.903  28.730  1.00  0.00     0.010 A 
ATOM     80  C   UNL A   1      45.705  34.458  31.114  1.00  0.00     0.010 A 
ATOM     81  C   UNL A   1      46.461  36.099  28.976  1.00  0.00     0.020 A 
ATOM     82  C   UNL A   1      46.358  35.667  31.367  1.00  0.00     0.020 A 
ATOM     83  C   UNL A   1      46.747  36.472  30.295  1.00  0.00     0.054 A 
BRANCH  83  84
ATOM     84  S   UNL A   1      47.602  38.044  30.591  1.00  0.00     0.124 S 
ATOM     85  O   UNL A   1      48.508  37.696  31.682  1.00  0.00    -0.237 OA
ATOM     86  O   UNL A   1      48.241  38.311  29.305  1.00  0.00    -0.237 OA
ATOM     87  O   UNL A   1      46.522  38.963  30.947  1.00  0.00    -0.744 OA
ENDBRANCH  83  84
ENDBRANCH  57  78
ENDBRANCH  31  32
ENDBRANCH  24  26
ENDBRANCH  23  24
ENDBRANCH  22  23
ENDBRANCH   1  22
TORSDOF 19
ENDMDL
MODEL 3
REMARK VINA RESULT:     -10.2      5.799     14.048
REMARK SMILES C[C@H](NC(N)=O)C(=O)N[C@@H](CO)C(=O)OCCOC(=O)c1ccc(-c2c3nc(c(-c4ccc(S(=O)(=O)[O-])cc4)c4ccc([nH]4)c(-c4ccc(S(=O)(=O)[O-])cc4)c4nc(c(-c5ccc(S(=O)(=O)[O-])cc5)c5ccc2[nH]5)C=C4)C=C3)cc1
REMARK SMILES IDX 16 1 15 2 13 3 14 4 10 5 9 6 7 7 8 8 2 10 1 11 3 12 4 13
REMARK SMILES IDX 5 15 6 16 11 19 12 20 17 22 18 23 19 24 20 25 21 26 22 27
REMARK SMILES IDX 80 28 23 29 79 30 24 31 25 32 26 33 73 34 27 35 78 36 72 37
REMARK SMILES IDX 74 38 28 39 77 40 71 41 70 42 29 44 59 45 40 46 58 47 41 48
REMARK SMILES IDX 44 49 57 50 75 51 42 52 43 53 56 55 76 56 45 57 30 58 31 59
REMARK SMILES IDX 39 60 32 61 38 62 33 63 34 64 35 65 36 66 37 67 60 68 61 69
REMARK SMILES IDX 69 70 62 71 68 72 63 73 64 74 65 75 66 76 67 77 46 78 47 79
REMARK SMILES IDX 55 80 48 81 54 82 49 83 50 84 51 85 52 86 53 87
REMARK H PARENT 9 9 3 14 5 17 5 18 12 21 74 43 44 54
REMARK Flexibility Score: inf
ROOT
ATOM      1  C   UNL A   1      46.113  23.524  25.542  1.00  0.00     0.274 C 
ENDROOT
BRANCH   1   2
ATOM      2  O   UNL A   1      46.218  22.704  24.361  1.00  0.00    -0.460 OA
BRANCH   2   3
ATOM      3  C   UNL A   1      45.140  21.915  24.099  1.00  0.00     0.331 C 
ATOM      4  O   UNL A   1      44.402  22.041  23.127  1.00  0.00    -0.250 OA
BRANCH   3   5
ATOM      5  C   UNL A   1      44.919  20.827  25.158  1.00  0.00     0.218 C 
BRANCH   5   6
ATOM      6  N   UNL A   1      43.652  20.091  25.061  1.00  0.00    -0.339 N 
ATOM      7  C   UNL A   1      42.523  20.140  25.828  1.00  0.00     0.243 C 
ATOM      8  O   UNL A   1      41.653  19.298  25.576  1.00  0.00    -0.273 OA
ATOM      9  H   UNL A   1      43.608  19.453  24.313  1.00  0.00     0.164 HD
BRANCH   7  10
ATOM     10  C   UNL A   1      42.233  21.299  26.817  1.00  0.00     0.170 C 
ATOM     11  C   UNL A   1      41.247  22.231  26.116  1.00  0.00     0.041 C 
BRANCH  10  12
ATOM     12  N   UNL A   1      43.442  21.948  27.333  1.00  0.00    -0.327 N 
ATOM     13  C   UNL A   1      43.494  22.576  28.540  1.00  0.00     0.312 C 
ATOM     14  H   UNL A   1      44.256  21.927  26.781  1.00  0.00     0.166 HD
ATOM     15  N   UNL A   1      44.729  23.029  28.853  1.00  0.00    -0.352 N 
ATOM     16  O   UNL A   1      42.553  22.765  29.294  1.00  0.00    -0.249 OA
ATOM     17  H   UNL A   1      45.482  22.872  28.238  1.00  0.00     0.161 HD
ATOM     18  H   UNL A   1      44.877  23.516  29.696  1.00  0.00     0.161 HD
ENDBRANCH  10  12
ENDBRANCH   7  10
ENDBRANCH   5   6
BRANCH   5  19
ATOM     19  C   UNL A   1      46.095  19.846  25.047  1.00  0.00     0.193 C 
BRANCH  19  20
ATOM     20  O   UNL A   1      46.875  20.105  23.877  1.00  0.00    -0.394 OA
ATOM     21  H   UNL A   1      47.184  19.266  23.500  1.00  0.00     0.210 HD
ENDBRANCH  19  20
ENDBRANCH   5  19
ENDBRANCH   3   5
ENDBRANCH   2   3
ENDBRANCH   1   2
BRANCH   1  22
ATOM     22  C   UNL A   1      45.265  24.769  25.279  1.00  0.00     0.275 C 
BRANCH  22  23
ATOM     23  O   UNL A   1      44.202  24.887  26.245  1.00  0.00    -0.458 OA
BRANCH  23  24
ATOM     24  C   UNL A   1      43.070  25.444  25.758  1.00  0.00     0.338 C 
ATOM     25  O   UNL A   1      42.582  25.267  24.653  1.00  0.00    -0.246 OA
BRANCH  24  26
ATOM     26  C   UNL A   1      42.406  26.268  26.777  1.00  0.00     0.060 A 
ATOM     27  C   UNL A   1      42.878  27.561  26.999  1.00  0.00     0.016 A 
ATOM     28  C   UNL A   1      41.525  25.675  27.679  1.00  0.00     0.016 A 
ATOM     29  C   UNL A   1      42.574  28.209  28.193  1.00  0.00     0.010 A 
ATOM     30  C   UNL A   1      41.124  26.385  28.817  1.00  0.00     0.010 A 
ATOM     31  C   UNL A   1      41.677  27.643  29.112  1.00  0.00    -0.014 A 
BRANCH  31  32
ATOM     32  C   UNL A   1      41.324  28.366  30.369  1.00  0.00     0.031 A 
ATOM     33  C   UNL A   1      40.133  29.293  30.424  1.00  0.00     0.074 A 
ATOM     34  C   UNL A   1      42.089  28.203  31.469  1.00  0.00     0.049 A 
ATOM     35  N   UNL A   1      39.801  30.154  31.354  1.00  0.00    -0.248 NA
ATOM     36  C   UNL A   1      39.207  29.267  29.280  1.00  0.00     0.031 C 
ATOM     37  C   UNL A   1      43.250  27.314  31.576  1.00  0.00     0.029 A 
ATOM     38  N   UNL A   1      42.006  28.780  32.714  1.00  0.00    -0.354 N 
ATOM     39  C   UNL A   1      38.669  30.811  30.883  1.00  0.00     0.074 A 
ATOM     40  C   UNL A   1      38.369  30.251  29.582  1.00  0.00     0.031 C 
ATOM     41  C   UNL A   1      43.742  27.373  32.821  1.00  0.00     0.029 A 
ATOM     42  C   UNL A   1      43.003  28.379  33.572  1.00  0.00     0.049 A 
ATOM     43  H   UNL A   1      41.302  29.418  32.966  1.00  0.00     0.167 HD
ATOM     44  C   UNL A   1      37.950  31.794  31.480  1.00  0.00     0.031 A 
ATOM     45  C   UNL A   1      43.332  28.806  34.806  1.00  0.00     0.031 A 
ATOM     46  C   UNL A   1      38.215  32.299  32.805  1.00  0.00     0.049 A 
ATOM     47  C   UNL A   1      42.537  29.914  35.432  1.00  0.00     0.074 A 
ATOM     48  C   UNL A   1      37.515  33.264  33.512  1.00  0.00     0.029 A 
ATOM     49  N   UNL A   1      39.246  31.874  33.628  1.00  0.00    -0.354 N 
ATOM     50  N   UNL A   1      41.493  30.549  34.956  1.00  0.00    -0.248 NA
ATOM     51  C   UNL A   1      42.973  30.376  36.757  1.00  0.00     0.031 C 
ATOM     52  C   UNL A   1      38.152  33.457  34.741  1.00  0.00     0.029 A 
ATOM     53  C   UNL A   1      39.215  32.572  34.823  1.00  0.00     0.049 A 
ATOM     54  H   UNL A   1      39.903  31.178  33.397  1.00  0.00     0.167 HD
ATOM     55  C   UNL A   1      41.136  31.471  35.931  1.00  0.00     0.074 A 
ATOM     56  C   UNL A   1      42.061  31.297  37.032  1.00  0.00     0.031 C 
ATOM     57  C   UNL A   1      40.136  32.385  35.914  1.00  0.00     0.031 A 
BRANCH  44  58
ATOM     58  C   UNL A   1      36.820  32.431  30.710  1.00  0.00    -0.014 A 
ATOM     59  C   UNL A   1      35.478  32.085  30.941  1.00  0.00     0.010 A 
ATOM     60  C   UNL A   1      37.108  33.480  29.815  1.00  0.00     0.010 A 
ATOM     61  C   UNL A   1      34.448  32.767  30.282  1.00  0.00     0.020 A 
ATOM     62  C   UNL A   1      36.083  34.180  29.173  1.00  0.00     0.020 A 
ATOM     63  C   UNL A   1      34.757  33.813  29.405  1.00  0.00     0.054 A 
BRANCH  63  64
ATOM     64  S   UNL A   1      33.399  34.726  28.617  1.00  0.00     0.124 S 
ATOM     65  O   UNL A   1      32.871  33.734  27.683  1.00  0.00    -0.237 OA
ATOM     66  O   UNL A   1      32.531  35.049  29.746  1.00  0.00    -0.237 OA
ATOM     67  O   UNL A   1      34.062  35.871  27.998  1.00  0.00    -0.744 OA
ENDBRANCH  63  64
ENDBRANCH  44  58
BRANCH  45  68
ATOM     68  C   UNL A   1      44.511  28.225  35.505  1.00  0.00    -0.014 A 
ATOM     69  C   UNL A   1      45.783  28.807  35.374  1.00  0.00     0.010 A 
ATOM     70  C   UNL A   1      44.364  27.077  36.307  1.00  0.00     0.010 A 
ATOM     71  C   UNL A   1      46.890  28.241  36.012  1.00  0.00     0.020 A 
ATOM     72  C   UNL A   1      45.461  26.529  36.975  1.00  0.00     0.020 A 
ATOM     73  C   UNL A   1      46.721  27.104  36.808  1.00  0.00     0.054 A 
BRANCH  73  74
ATOM     74  S   UNL A   1      48.163  26.404  37.659  1.00  0.00     0.124 S 
ATOM     75  O   UNL A   1      47.537  25.614  38.713  1.00  0.00    -0.237 OA
ATOM     76  O   UNL A   1      48.818  25.641  36.597  1.00  0.00    -0.237 OA
ATOM     77  O   UNL A   1      48.897  27.584  38.109  1.00  0.00    -0.744 OA
ENDBRANCH  73  74
ENDBRANCH  45  68
BRANCH  57  78
ATOM     78  C   UNL A   1      39.962  33.236  37.142  1.00  0.00    -0.014 A 
ATOM     79  C   UNL A   1      39.114  32.839  38.191  1.00  0.00     0.010 A 
ATOM     80  C   UNL A   1      40.684  34.438  37.259  1.00  0.00     0.010 A 
ATOM     81  C   UNL A   1      38.962  33.649  39.319  1.00  0.00     0.020 A 
ATOM     82  C   UNL A   1      40.556  35.236  38.397  1.00  0.00     0.020 A 
ATOM     83  C   UNL A   1      39.683  34.845  39.414  1.00  0.00     0.054 A 
BRANCH  83  84
ATOM     84  S   UNL A   1      39.491  35.864  40.902  1.00  0.00     0.124 S 
ATOM     85  O   UNL A   1      40.346  35.168  41.859  1.00  0.00    -0.237 OA
ATOM     86  O   UNL A   1      39.974  37.170  40.462  1.00  0.00    -0.237 OA
ATOM     87  O   UNL A   1      38.058  35.799  41.184  1.00  0.00    -0.744 OA
ENDBRANCH  83  84
ENDBRANCH  57  78
ENDBRANCH  31  32
ENDBRANCH  24  26
ENDBRANCH  23  24
ENDBRANCH  22  23
ENDBRANCH   1  22
TORSDOF 19
ENDMDL
