MODEL 1
REMARK VINA RESULT:      -8.9      0.000      0.000
REMARK SMILES CC(C)C[C@H](NC(=O)Cc1ccccc1)C(=O)OCCOC(=O)c1ccc(-c2c3nc(c(-c4ccc(S(=O)(=O)[O-])cc4)c4ccc([nH]4)c(-c4ccc(S(=O)(=O)[O-])cc4)c4nc(c(-c5ccc(S(=O)(=O)[O-])cc5)c5ccc2[nH]5)C=C4)C=C3)cc1
REMARK SMILES IDX 19 1 18 2 16 3 17 4 5 5 4 6 2 7 1 8 3 9 6 10 7 11 8 13 9 14
REMARK SMILES IDX 10 15 11 16 15 17 12 18 14 19 13 20 20 21 21 22 22 23 23 24
REMARK SMILES IDX 24 25 25 26 83 27 26 28 82 29 27 30 28 31 29 32 76 33 30 34
REMARK SMILES IDX 81 35 75 36 77 37 31 38 80 39 74 40 73 41 32 43 62 44 43 45
REMARK SMILES IDX 61 46 44 47 47 48 60 49 78 50 45 51 46 52 59 54 79 55 48 56
REMARK SMILES IDX 33 57 34 58 42 59 35 60 41 61 36 62 37 63 38 64 39 65 40 66
REMARK SMILES IDX 63 67 64 68 72 69 65 70 71 71 66 72 67 73 68 74 69 75 70 76
REMARK SMILES IDX 49 77 50 78 58 79 51 80 57 81 52 82 53 83 54 84 55 85 56 86
REMARK H PARENT 6 12 77 42 47 53
REMARK Flexibility Score: inf
ROOT
ATOM      1  C   UNL A   1      40.163  20.125  26.288  1.00  0.00     0.274 C 
ENDROOT
BRANCH   1   2
ATOM      2  O   UNL A   1      41.324  20.596  26.996  1.00  0.00    -0.461 OA
BRANCH   2   3
ATOM      3  C   UNL A   1      42.505  20.459  26.323  1.00  0.00     0.328 C 
ATOM      4  O   UNL A   1      42.954  19.381  25.951  1.00  0.00    -0.250 OA
BRANCH   3   5
ATOM      5  C   UNL A   1      43.265  21.793  26.185  1.00  0.00     0.192 C 
BRANCH   5   6
ATOM      6  C   UNL A   1      42.498  22.903  26.919  1.00  0.00     0.040 C 
BRANCH   6   7
ATOM      7  C   UNL A   1      43.157  23.572  28.141  1.00  0.00    -0.015 C 
ATOM      8  C   UNL A   1      42.506  23.152  29.460  1.00  0.00     0.007 C 
ATOM      9  C   UNL A   1      44.647  23.215  28.176  1.00  0.00     0.007 C 
ENDBRANCH   6   7
ENDBRANCH   5   6
BRANCH   5  10
ATOM     10  N   UNL A   1      43.501  22.088  24.754  1.00  0.00    -0.342 N 
ATOM     11  C   UNL A   1      44.543  22.644  24.076  1.00  0.00     0.225 C 
ATOM     12  H   UNL A   1      42.749  21.830  24.173  1.00  0.00     0.164 HD
ATOM     13  O   UNL A   1      44.503  22.634  22.842  1.00  0.00    -0.275 OA
BRANCH  11  14
ATOM     14  C   UNL A   1      45.696  23.315  24.803  1.00  0.00     0.135 C 
BRANCH  14  15
ATOM     15  C   UNL A   1      45.484  24.797  25.042  1.00  0.00    -0.039 A 
ATOM     16  C   UNL A   1      44.202  25.364  25.054  1.00  0.00     0.004 A 
ATOM     17  C   UNL A   1      46.586  25.613  25.342  1.00  0.00     0.004 A 
ATOM     18  C   UNL A   1      44.013  26.676  25.486  1.00  0.00     0.000 A 
ATOM     19  C   UNL A   1      46.395  26.924  25.780  1.00  0.00     0.000 A 
ATOM     20  C   UNL A   1      45.107  27.448  25.874  1.00  0.00     0.000 A 
ENDBRANCH  14  15
ENDBRANCH  11  14
ENDBRANCH   5  10
ENDBRANCH   3   5
ENDBRANCH   2   3
ENDBRANCH   1   2
BRANCH   1  21
ATOM     21  C   UNL A   1      39.317  21.263  25.704  1.00  0.00     0.275 C 
BRANCH  21  22
ATOM     22  O   UNL A   1      38.983  22.272  26.676  1.00  0.00    -0.458 OA
BRANCH  22  23
ATOM     23  C   UNL A   1      38.576  23.453  26.150  1.00  0.00     0.338 C 
ATOM     24  O   UNL A   1      37.668  23.610  25.341  1.00  0.00    -0.246 OA
BRANCH  23  25
ATOM     25  C   UNL A   1      39.245  24.583  26.819  1.00  0.00     0.060 A 
ATOM     26  C   UNL A   1      38.961  24.787  28.175  1.00  0.00     0.016 A 
ATOM     27  C   UNL A   1      40.080  25.468  26.136  1.00  0.00     0.016 A 
ATOM     28  C   UNL A   1      39.506  25.870  28.856  1.00  0.00     0.010 A 
ATOM     29  C   UNL A   1      40.608  26.573  26.812  1.00  0.00     0.010 A 
ATOM     30  C   UNL A   1      40.312  26.787  28.170  1.00  0.00    -0.014 A 
BRANCH  30  31
ATOM     31  C   UNL A   1      40.734  28.032  28.854  1.00  0.00     0.031 A 
ATOM     32  C   UNL A   1      42.134  28.131  29.390  1.00  0.00     0.074 A 
ATOM     33  C   UNL A   1      39.892  29.077  28.951  1.00  0.00     0.049 A 
ATOM     34  N   UNL A   1      42.688  29.092  30.081  1.00  0.00    -0.248 NA
ATOM     35  C   UNL A   1      43.030  26.997  29.102  1.00  0.00     0.031 C 
ATOM     36  C   UNL A   1      38.539  29.127  28.399  1.00  0.00     0.029 A 
ATOM     37  N   UNL A   1      40.059  30.300  29.548  1.00  0.00    -0.354 N 
ATOM     38  C   UNL A   1      43.989  28.672  30.333  1.00  0.00     0.074 A 
ATOM     39  C   UNL A   1      44.139  27.368  29.725  1.00  0.00     0.031 C 
ATOM     40  C   UNL A   1      37.994  30.322  28.690  1.00  0.00     0.029 A 
ATOM     41  C   UNL A   1      38.943  31.099  29.484  1.00  0.00     0.049 A 
ATOM     42  H   UNL A   1      40.898  30.579  29.981  1.00  0.00     0.167 HD
ATOM     43  C   UNL A   1      44.967  29.315  31.013  1.00  0.00     0.031 A 
ATOM     44  C   UNL A   1      38.703  32.307  30.033  1.00  0.00     0.031 A 
ATOM     45  C   UNL A   1      44.809  30.610  31.620  1.00  0.00     0.049 A 
ATOM     46  C   UNL A   1      39.780  32.969  30.850  1.00  0.00     0.074 A 
ATOM     47  C   UNL A   1      45.734  31.340  32.344  1.00  0.00     0.029 A 
ATOM     48  N   UNL A   1      43.649  31.368  31.571  1.00  0.00    -0.354 N 
ATOM     49  N   UNL A   1      40.996  32.549  31.106  1.00  0.00    -0.248 NA
ATOM     50  C   UNL A   1      39.451  34.267  31.457  1.00  0.00     0.031 C 
ATOM     51  C   UNL A   1      45.119  32.523  32.771  1.00  0.00     0.029 A 
ATOM     52  C   UNL A   1      43.828  32.551  32.267  1.00  0.00     0.049 A 
ATOM     53  H   UNL A   1      42.821  31.105  31.109  1.00  0.00     0.167 HD
ATOM     54  C   UNL A   1      41.584  33.539  31.885  1.00  0.00     0.074 A 
ATOM     55  C   UNL A   1      40.594  34.585  32.049  1.00  0.00     0.031 C 
ATOM     56  C   UNL A   1      42.831  33.580  32.417  1.00  0.00     0.031 A 
BRANCH  43  57
ATOM     57  C   UNL A   1      46.278  28.599  31.179  1.00  0.00    -0.014 A 
ATOM     58  C   UNL A   1      47.321  28.755  30.249  1.00  0.00     0.010 A 
ATOM     59  C   UNL A   1      46.476  27.770  32.299  1.00  0.00     0.010 A 
ATOM     60  C   UNL A   1      48.524  28.063  30.416  1.00  0.00     0.020 A 
ATOM     61  C   UNL A   1      47.686  27.096  32.481  1.00  0.00     0.020 A 
ATOM     62  C   UNL A   1      48.697  27.233  31.528  1.00  0.00     0.054 A 
BRANCH  62  63
ATOM     63  S   UNL A   1      50.272  26.356  31.730  1.00  0.00     0.124 S 
ATOM     64  O   UNL A   1      51.242  27.426  31.516  1.00  0.00    -0.237 OA
ATOM     65  O   UNL A   1      50.186  25.849  33.097  1.00  0.00    -0.237 OA
ATOM     66  O   UNL A   1      50.233  25.333  30.686  1.00  0.00    -0.744 OA
ENDBRANCH  62  63
ENDBRANCH  43  57
BRANCH  44  67
ATOM     67  C   UNL A   1      37.372  32.950  29.861  1.00  0.00    -0.014 A 
ATOM     68  C   UNL A   1      36.515  33.137  30.958  1.00  0.00     0.010 A 
ATOM     69  C   UNL A   1      36.959  33.386  28.587  1.00  0.00     0.010 A 
ATOM     70  C   UNL A   1      35.264  33.738  30.784  1.00  0.00     0.020 A 
ATOM     71  C   UNL A   1      35.721  34.010  28.414  1.00  0.00     0.020 A 
ATOM     72  C   UNL A   1      34.875  34.172  29.513  1.00  0.00     0.054 A 
BRANCH  72  73
ATOM     73  S   UNL A   1      33.273  35.002  29.318  1.00  0.00     0.124 S 
ATOM     74  O   UNL A   1      32.641  34.199  28.278  1.00  0.00    -0.237 OA
ATOM     75  O   UNL A   1      32.690  34.884  30.652  1.00  0.00    -0.237 OA
ATOM     76  O   UNL A   1      33.640  36.362  28.926  1.00  0.00    -0.744 OA
ENDBRANCH  72  73
ENDBRANCH  44  67
BRANCH  56  77
ATOM     77  C   UNL A   1      43.212  34.810  33.196  1.00  0.00    -0.014 A 
ATOM     78  C   UNL A   1      43.213  34.809  34.602  1.00  0.00     0.010 A 
ATOM     79  C   UNL A   1      43.632  35.962  32.509  1.00  0.00     0.010 A 
ATOM     80  C   UNL A   1      43.606  35.950  35.307  1.00  0.00     0.020 A 
ATOM     81  C   UNL A   1      44.047  37.097  33.210  1.00  0.00     0.020 A 
ATOM     82  C   UNL A   1      44.019  37.088  34.605  1.00  0.00     0.054 A 
BRANCH  82  83
ATOM     83  S   UNL A   1      44.571  38.542  35.541  1.00  0.00     0.124 S 
ATOM     84  O   UNL A   1      44.003  38.285  36.862  1.00  0.00    -0.237 OA
ATOM     85  O   UNL A   1      46.027  38.447  35.453  1.00  0.00    -0.237 OA
ATOM     86  O   UNL A   1      43.981  39.663  34.815  1.00  0.00    -0.744 OA
ENDBRANCH  82  83
ENDBRANCH  56  77
ENDBRANCH  30  31
ENDBRANCH  23  25
ENDBRANCH  22  23
ENDBRANCH  21  22
ENDBRANCH   1  21
TORSDOF 19
ENDMDL
MODEL 2
REMARK VINA RESULT:      -8.5      4.229      6.771
REMARK SMILES CC(C)C[C@H](NC(=O)Cc1ccccc1)C(=O)OCCOC(=O)c1ccc(-c2c3nc(c(-c4ccc(S(=O)(=O)[O-])cc4)c4ccc([nH]4)c(-c4ccc(S(=O)(=O)[O-])cc4)c4nc(c(-c5ccc(S(=O)(=O)[O-])cc5)c5ccc2[nH]5)C=C4)C=C3)cc1
REMARK SMILES IDX 19 1 18 2 16 3 17 4 5 5 4 6 2 7 1 8 3 9 6 10 7 11 8 13 9 14
REMARK SMILES IDX 10 15 11 16 15 17 12 18 14 19 13 20 20 21 21 22 22 23 23 24
REMARK SMILES IDX 24 25 25 26 83 27 26 28 82 29 27 30 28 31 29 32 76 33 30 34
REMARK SMILES IDX 81 35 75 36 77 37 31 38 80 39 74 40 73 41 32 43 62 44 43 45
REMARK SMILES IDX 61 46 44 47 47 48 60 49 78 50 45 51 46 52 59 54 79 55 48 56
REMARK SMILES IDX 33 57 34 58 42 59 35 60 41 61 36 62 37 63 38 64 39 65 40 66
REMARK SMILES IDX 63 67 64 68 72 69 65 70 71 71 66 72 67 73 68 74 69 75 70 76
REMARK SMILES IDX 49 77 50 78 58 79 51 80 57 81 52 82 53 83 54 84 55 85 56 86
REMARK H PARENT 6 12 77 42 47 53
REMARK Flexibility Score: inf
ROOT
ATOM      1  C   UNL A   1      38.059  21.822  25.447  1.00  0.00     0.274 C 
ENDROOT
BRANCH   1   2
ATOM      2  O   UNL A   1      37.031  22.811  25.258  1.00  0.00    -0.461 OA
BRANCH   2   3
ATOM      3  C   UNL A   1      36.379  22.745  24.060  1.00  0.00     0.328 C 
ATOM      4  O   UNL A   1      36.941  22.838  22.974  1.00  0.00    -0.250 OA
BRANCH   3   5
ATOM      5  C   UNL A   1      34.848  22.656  24.223  1.00  0.00     0.192 C 
BRANCH   5   6
ATOM      6  C   UNL A   1      34.212  24.007  23.865  1.00  0.00     0.040 C 
BRANCH   6   7
ATOM      7  C   UNL A   1      33.085  24.037  22.814  1.00  0.00    -0.015 C 
ATOM      8  C   UNL A   1      31.697  23.889  23.441  1.00  0.00     0.007 C 
ATOM      9  C   UNL A   1      33.149  25.355  22.035  1.00  0.00     0.007 C 
ENDBRANCH   6   7
ENDBRANCH   5   6
BRANCH   5  10
ATOM     10  N   UNL A   1      34.518  22.194  25.589  1.00  0.00    -0.342 N 
ATOM     11  C   UNL A   1      33.541  21.388  26.090  1.00  0.00     0.225 C 
ATOM     12  H   UNL A   1      35.129  22.542  26.279  1.00  0.00     0.164 HD
ATOM     13  O   UNL A   1      33.606  21.070  27.281  1.00  0.00    -0.275 OA
BRANCH  11  14
ATOM     14  C   UNL A   1      32.368  20.936  25.236  1.00  0.00     0.135 C 
BRANCH  14  15
ATOM     15  C   UNL A   1      32.504  19.517  24.719  1.00  0.00    -0.039 A 
ATOM     16  C   UNL A   1      32.419  19.222  23.351  1.00  0.00     0.004 A 
ATOM     17  C   UNL A   1      32.804  18.481  25.616  1.00  0.00     0.004 A 
ATOM     18  C   UNL A   1      32.759  17.954  22.879  1.00  0.00     0.000 A 
ATOM     19  C   UNL A   1      33.149  17.214  25.142  1.00  0.00     0.000 A 
ATOM     20  C   UNL A   1      33.149  16.958  23.772  1.00  0.00     0.000 A 
ENDBRANCH  14  15
ENDBRANCH  11  14
ENDBRANCH   5  10
ENDBRANCH   3   5
ENDBRANCH   2   3
ENDBRANCH   1   2
BRANCH   1  21
ATOM     21  C   UNL A   1      39.269  22.359  26.220  1.00  0.00     0.275 C 
BRANCH  21  22
ATOM     22  O   UNL A   1      39.235  23.787  26.401  1.00  0.00    -0.458 OA
BRANCH  22  23
ATOM     23  C   UNL A   1      40.416  24.341  26.767  1.00  0.00     0.338 C 
ATOM     24  O   UNL A   1      41.517  24.069  26.303  1.00  0.00    -0.246 OA
BRANCH  23  25
ATOM     25  C   UNL A   1      40.201  25.474  27.684  1.00  0.00     0.060 A 
ATOM     26  C   UNL A   1      41.138  26.515  27.650  1.00  0.00     0.016 A 
ATOM     27  C   UNL A   1      39.153  25.503  28.604  1.00  0.00     0.016 A 
ATOM     28  C   UNL A   1      41.035  27.587  28.530  1.00  0.00     0.010 A 
ATOM     29  C   UNL A   1      39.063  26.568  29.508  1.00  0.00     0.010 A 
ATOM     30  C   UNL A   1      40.011  27.606  29.484  1.00  0.00    -0.014 A 
BRANCH  30  31
ATOM     31  C   UNL A   1      40.019  28.653  30.532  1.00  0.00     0.031 A 
ATOM     32  C   UNL A   1      40.999  28.543  31.666  1.00  0.00     0.074 A 
ATOM     33  C   UNL A   1      39.195  29.712  30.446  1.00  0.00     0.049 A 
ATOM     34  N   UNL A   1      41.130  29.302  32.722  1.00  0.00    -0.248 NA
ATOM     35  C   UNL A   1      41.964  27.432  31.595  1.00  0.00     0.031 C 
ATOM     36  C   UNL A   1      38.258  29.969  29.352  1.00  0.00     0.029 A 
ATOM     37  N   UNL A   1      39.018  30.774  31.297  1.00  0.00    -0.354 N 
ATOM     38  C   UNL A   1      42.173  28.750  33.455  1.00  0.00     0.074 A 
ATOM     39  C   UNL A   1      42.638  27.589  32.726  1.00  0.00     0.031 C 
ATOM     40  C   UNL A   1      37.599  31.114  29.602  1.00  0.00     0.029 A 
ATOM     41  C   UNL A   1      38.036  31.645  30.892  1.00  0.00     0.049 A 
ATOM     42  H   UNL A   1      39.545  30.899  32.119  1.00  0.00     0.167 HD
ATOM     43  C   UNL A   1      42.694  29.170  34.631  1.00  0.00     0.031 A 
ATOM     44  C   UNL A   1      37.524  32.729  31.508  1.00  0.00     0.031 A 
ATOM     45  C   UNL A   1      42.225  30.322  35.355  1.00  0.00     0.049 A 
ATOM     46  C   UNL A   1      38.067  33.133  32.853  1.00  0.00     0.074 A 
ATOM     47  C   UNL A   1      42.675  30.823  36.564  1.00  0.00     0.029 A 
ATOM     48  N   UNL A   1      41.198  31.153  34.934  1.00  0.00    -0.354 N 
ATOM     49  N   UNL A   1      39.034  32.586  33.550  1.00  0.00    -0.248 NA
ATOM     50  C   UNL A   1      37.446  34.300  33.497  1.00  0.00     0.031 C 
ATOM     51  C   UNL A   1      41.890  31.934  36.895  1.00  0.00     0.029 A 
ATOM     52  C   UNL A   1      40.987  32.154  35.867  1.00  0.00     0.049 A 
ATOM     53  H   UNL A   1      40.693  31.048  34.095  1.00  0.00     0.167 HD
ATOM     54  C   UNL A   1      39.152  33.353  34.704  1.00  0.00     0.074 A 
ATOM     55  C   UNL A   1      38.165  34.410  34.606  1.00  0.00     0.031 C 
ATOM     56  C   UNL A   1      40.001  33.198  35.750  1.00  0.00     0.031 A 
BRANCH  43  57
ATOM     57  C   UNL A   1      43.798  28.346  35.233  1.00  0.00    -0.014 A 
ATOM     58  C   UNL A   1      43.525  27.313  36.147  1.00  0.00     0.010 A 
ATOM     59  C   UNL A   1      45.132  28.599  34.861  1.00  0.00     0.010 A 
ATOM     60  C   UNL A   1      44.570  26.572  36.707  1.00  0.00     0.020 A 
ATOM     61  C   UNL A   1      46.177  27.845  35.402  1.00  0.00     0.020 A 
ATOM     62  C   UNL A   1      45.890  26.848  36.335  1.00  0.00     0.054 A 
BRANCH  62  63
ATOM     63  S   UNL A   1      47.229  25.866  37.067  1.00  0.00     0.124 S 
ATOM     64  O   UNL A   1      47.230  24.678  36.216  1.00  0.00    -0.237 OA
ATOM     65  O   UNL A   1      48.387  26.743  36.923  1.00  0.00    -0.237 OA
ATOM     66  O   UNL A   1      46.785  25.647  38.442  1.00  0.00    -0.744 OA
ENDBRANCH  62  63
ENDBRANCH  43  57
BRANCH  44  67
ATOM     67  C   UNL A   1      36.409  33.485  30.877  1.00  0.00    -0.014 A 
ATOM     68  C   UNL A   1      36.525  33.984  29.569  1.00  0.00     0.010 A 
ATOM     69  C   UNL A   1      35.214  33.705  31.590  1.00  0.00     0.010 A 
ATOM     70  C   UNL A   1      35.473  34.699  28.987  1.00  0.00     0.020 A 
ATOM     71  C   UNL A   1      34.151  34.396  31.003  1.00  0.00     0.020 A 
ATOM     72  C   UNL A   1      34.292  34.899  29.708  1.00  0.00     0.054 A 
BRANCH  72  73
ATOM     73  S   UNL A   1      32.916  35.777  28.915  1.00  0.00     0.124 S 
ATOM     74  O   UNL A   1      33.606  36.864  28.229  1.00  0.00    -0.237 OA
ATOM     75  O   UNL A   1      32.338  34.750  28.053  1.00  0.00    -0.237 OA
ATOM     76  O   UNL A   1      32.075  36.179  30.041  1.00  0.00    -0.744 OA
ENDBRANCH  72  73
ENDBRANCH  44  67
BRANCH  56  77
ATOM     77  C   UNL A   1      39.928  34.213  36.858  1.00  0.00    -0.014 A 
ATOM     78  C   UNL A   1      40.632  35.427  36.780  1.00  0.00     0.010 A 
ATOM     79  C   UNL A   1      39.093  33.972  37.963  1.00  0.00     0.010 A 
ATOM     80  C   UNL A   1      40.520  36.373  37.803  1.00  0.00     0.020 A 
ATOM     81  C   UNL A   1      38.961  34.924  38.977  1.00  0.00     0.020 A 
ATOM     82  C   UNL A   1      39.686  36.115  38.896  1.00  0.00     0.054 A 
BRANCH  82  83
ATOM     83  S   UNL A   1      39.517  37.377  40.188  1.00  0.00     0.124 S 
ATOM     84  O   UNL A   1      38.704  38.389  39.519  1.00  0.00    -0.237 OA
ATOM     85  O   UNL A   1      38.853  36.648  41.266  1.00  0.00    -0.237 OA
ATOM     86  O   UNL A   1      40.896  37.770  40.468  1.00  0.00    -0.744 OA
ENDBRANCH  82  83
ENDBRANCH  56  77
ENDBRANCH  30  31
ENDBRANCH  23  25
ENDBRANCH  22  23
ENDBRANCH  21  22
ENDBRANCH   1  21
TORSDOF 19
ENDMDL
MODEL 3
REMARK VINA RESULT:      -8.5      4.378      9.101
REMARK SMILES CC(C)C[C@H](NC(=O)Cc1ccccc1)C(=O)OCCOC(=O)c1ccc(-c2c3nc(c(-c4ccc(S(=O)(=O)[O-])cc4)c4ccc([nH]4)c(-c4ccc(S(=O)(=O)[O-])cc4)c4nc(c(-c5ccc(S(=O)(=O)[O-])cc5)c5ccc2[nH]5)C=C4)C=C3)cc1
REMARK SMILES IDX 19 1 18 2 16 3 17 4 5 5 4 6 2 7 1 8 3 9 6 10 7 11 8 13 9 14
REMARK SMILES IDX 10 15 11 16 15 17 12 18 14 19 13 20 20 21 21 22 22 23 23 24
REMARK SMILES IDX 24 25 25 26 83 27 26 28 82 29 27 30 28 31 29 32 76 33 30 34
REMARK SMILES IDX 81 35 75 36 77 37 31 38 80 39 74 40 73 41 32 43 62 44 43 45
REMARK SMILES IDX 61 46 44 47 47 48 60 49 78 50 45 51 46 52 59 54 79 55 48 56
REMARK SMILES IDX 33 57 34 58 42 59 35 60 41 61 36 62 37 63 38 64 39 65 40 66
REMARK SMILES IDX 63 67 64 68 72 69 65 70 71 71 66 72 67 73 68 74 69 75 70 76
REMARK SMILES IDX 49 77 50 78 58 79 51 80 57 81 52 82 53 83 54 84 55 85 56 86
REMARK H PARENT 6 12 77 42 47 53
REMARK Flexibility Score: inf
ROOT
ATOM      1  C   UNL A   1      31.703  28.462  26.221  1.00  0.00     0.274 C 
ENDROOT
BRANCH   1   2
ATOM      2  O   UNL A   1      31.185  27.124  26.334  1.00  0.00    -0.461 OA
BRANCH   2   3
ATOM      3  C   UNL A   1      30.838  26.539  25.150  1.00  0.00     0.328 C 
ATOM      4  O   UNL A   1      29.878  26.889  24.473  1.00  0.00    -0.250 OA
BRANCH   3   5
ATOM      5  C   UNL A   1      31.716  25.315  24.816  1.00  0.00     0.192 C 
BRANCH   5   6
ATOM      6  C   UNL A   1      32.306  24.735  26.109  1.00  0.00     0.040 C 
BRANCH   6   7
ATOM      7  C   UNL A   1      32.034  23.257  26.447  1.00  0.00    -0.015 C 
ATOM      8  C   UNL A   1      32.910  22.747  27.593  1.00  0.00     0.007 C 
ATOM      9  C   UNL A   1      30.558  23.083  26.823  1.00  0.00     0.007 C 
ENDBRANCH   6   7
ENDBRANCH   5   6
BRANCH   5  10
ATOM     10  N   UNL A   1      32.742  25.694  23.819  1.00  0.00    -0.342 N 
ATOM     11  C   UNL A   1      33.136  25.150  22.635  1.00  0.00     0.225 C 
ATOM     12  H   UNL A   1      33.242  26.507  24.062  1.00  0.00     0.164 HD
ATOM     13  O   UNL A   1      33.942  25.783  21.946  1.00  0.00    -0.275 OA
BRANCH  11  14
ATOM     14  C   UNL A   1      32.655  23.778  22.190  1.00  0.00     0.135 C 
BRANCH  14  15
ATOM     15  C   UNL A   1      33.249  22.637  22.992  1.00  0.00    -0.039 A 
ATOM     16  C   UNL A   1      34.518  22.734  23.581  1.00  0.00     0.004 A 
ATOM     17  C   UNL A   1      32.482  21.485  23.226  1.00  0.00     0.004 A 
ATOM     18  C   UNL A   1      34.952  21.767  24.487  1.00  0.00     0.000 A 
ATOM     19  C   UNL A   1      32.916  20.521  24.137  1.00  0.00     0.000 A 
ATOM     20  C   UNL A   1      34.140  20.675  24.785  1.00  0.00     0.000 A 
ENDBRANCH  14  15
ENDBRANCH  11  14
ENDBRANCH   5  10
ENDBRANCH   3   5
ENDBRANCH   2   3
ENDBRANCH   1   2
BRANCH   1  21
ATOM     21  C   UNL A   1      32.864  28.736  27.185  1.00  0.00     0.275 C 
BRANCH  21  22
ATOM     22  O   UNL A   1      33.877  29.588  26.619  1.00  0.00    -0.458 OA
BRANCH  22  23
ATOM     23  C   UNL A   1      34.358  30.534  27.461  1.00  0.00     0.338 C 
ATOM     24  O   UNL A   1      33.762  31.536  27.839  1.00  0.00    -0.246 OA
BRANCH  23  25
ATOM     25  C   UNL A   1      35.649  30.116  28.038  1.00  0.00     0.060 A 
ATOM     26  C   UNL A   1      35.645  29.662  29.362  1.00  0.00     0.016 A 
ATOM     27  C   UNL A   1      36.849  30.220  27.335  1.00  0.00     0.016 A 
ATOM     28  C   UNL A   1      36.834  29.311  29.992  1.00  0.00     0.010 A 
ATOM     29  C   UNL A   1      38.049  29.892  27.976  1.00  0.00     0.010 A 
ATOM     30  C   UNL A   1      38.048  29.450  29.311  1.00  0.00    -0.014 A 
BRANCH  30  31
ATOM     31  C   UNL A   1      39.318  29.251  30.047  1.00  0.00     0.031 A 
ATOM     32  C   UNL A   1      40.279  28.199  29.573  1.00  0.00     0.074 A 
ATOM     33  C   UNL A   1      39.630  30.034  31.096  1.00  0.00     0.049 A 
ATOM     34  N   UNL A   1      41.407  27.808  30.106  1.00  0.00    -0.248 NA
ATOM     35  C   UNL A   1      39.923  27.496  28.328  1.00  0.00     0.031 C 
ATOM     36  C   UNL A   1      38.814  31.140  31.598  1.00  0.00     0.029 A 
ATOM     37  N   UNL A   1      40.722  30.017  31.925  1.00  0.00    -0.354 N 
ATOM     38  C   UNL A   1      41.886  26.800  29.278  1.00  0.00     0.074 A 
ATOM     39  C   UNL A   1      40.924  26.635  28.210  1.00  0.00     0.031 C 
ATOM     40  C   UNL A   1      39.434  31.693  32.655  1.00  0.00     0.029 A 
ATOM     41  C   UNL A   1      40.664  30.953  32.929  1.00  0.00     0.049 A 
ATOM     42  H   UNL A   1      41.476  29.394  31.811  1.00  0.00     0.167 HD
ATOM     43  C   UNL A   1      43.022  26.075  29.400  1.00  0.00     0.031 A 
ATOM     44  C   UNL A   1      41.493  31.166  33.971  1.00  0.00     0.031 A 
ATOM     45  C   UNL A   1      43.972  26.241  30.467  1.00  0.00     0.049 A 
ATOM     46  C   UNL A   1      42.711  30.296  34.129  1.00  0.00     0.074 A 
ATOM     47  C   UNL A   1      45.148  25.545  30.690  1.00  0.00     0.029 A 
ATOM     48  N   UNL A   1      43.856  27.169  31.491  1.00  0.00    -0.354 N 
ATOM     49  N   UNL A   1      43.138  29.326  33.356  1.00  0.00    -0.248 NA
ATOM     50  C   UNL A   1      43.559  30.547  35.304  1.00  0.00     0.031 C 
ATOM     51  C   UNL A   1      45.721  26.025  31.874  1.00  0.00     0.029 A 
ATOM     52  C   UNL A   1      44.928  27.054  32.358  1.00  0.00     0.049 A 
ATOM     53  H   UNL A   1      43.120  27.815  31.586  1.00  0.00     0.167 HD
ATOM     54  C   UNL A   1      44.313  28.865  33.938  1.00  0.00     0.074 A 
ATOM     55  C   UNL A   1      44.537  29.670  35.123  1.00  0.00     0.031 C 
ATOM     56  C   UNL A   1      45.134  27.866  33.530  1.00  0.00     0.031 A 
BRANCH  43  57
ATOM     57  C   UNL A   1      43.270  25.001  28.378  1.00  0.00    -0.014 A 
ATOM     58  C   UNL A   1      42.678  23.731  28.492  1.00  0.00     0.010 A 
ATOM     59  C   UNL A   1      44.098  25.275  27.273  1.00  0.00     0.010 A 
ATOM     60  C   UNL A   1      42.939  22.742  27.539  1.00  0.00     0.020 A 
ATOM     61  C   UNL A   1      44.342  24.297  26.306  1.00  0.00     0.020 A 
ATOM     62  C   UNL A   1      43.774  23.030  26.455  1.00  0.00     0.054 A 
BRANCH  62  63
ATOM     63  S   UNL A   1      44.089  21.734  25.224  1.00  0.00     0.124 S 
ATOM     64  O   UNL A   1      45.479  21.384  25.506  1.00  0.00    -0.237 OA
ATOM     65  O   UNL A   1      43.102  20.716  25.570  1.00  0.00    -0.237 OA
ATOM     66  O   UNL A   1      43.863  22.408  23.948  1.00  0.00    -0.744 OA
ENDBRANCH  62  63
ENDBRANCH  43  57
BRANCH  44  67
ATOM     67  C   UNL A   1      41.175  32.223  34.969  1.00  0.00    -0.014 A 
ATOM     68  C   UNL A   1      40.382  31.938  36.093  1.00  0.00     0.010 A 
ATOM     69  C   UNL A   1      41.676  33.528  34.797  1.00  0.00     0.010 A 
ATOM     70  C   UNL A   1      40.085  32.941  37.022  1.00  0.00     0.020 A 
ATOM     71  C   UNL A   1      41.403  34.526  35.736  1.00  0.00     0.020 A 
ATOM     72  C   UNL A   1      40.599  34.228  36.839  1.00  0.00     0.054 A 
BRANCH  72  73
ATOM     73  S   UNL A   1      40.252  35.501  38.085  1.00  0.00     0.124 S 
ATOM     74  O   UNL A   1      39.125  34.918  38.806  1.00  0.00    -0.237 OA
ATOM     75  O   UNL A   1      41.509  35.572  38.825  1.00  0.00    -0.237 OA
ATOM     76  O   UNL A   1      39.941  36.684  37.286  1.00  0.00    -0.744 OA
ENDBRANCH  72  73
ENDBRANCH  44  67
BRANCH  56  77
ATOM     77  C   UNL A   1      46.371  27.608  34.348  1.00  0.00    -0.014 A 
ATOM     78  C   UNL A   1      47.587  28.248  34.049  1.00  0.00     0.010 A 
ATOM     79  C   UNL A   1      46.297  26.760  35.467  1.00  0.00     0.010 A 
ATOM     80  C   UNL A   1      48.714  28.024  34.844  1.00  0.00     0.020 A 
ATOM     81  C   UNL A   1      47.416  26.551  36.276  1.00  0.00     0.020 A 
ATOM     82  C   UNL A   1      48.621  27.175  35.952  1.00  0.00     0.054 A 
BRANCH  82  83
ATOM     83  S   UNL A   1      50.085  26.936  36.999  1.00  0.00     0.124 S 
ATOM     84  O   UNL A   1      51.173  27.224  36.068  1.00  0.00    -0.237 OA
ATOM     85  O   UNL A   1      49.887  27.922  38.058  1.00  0.00    -0.237 OA
ATOM     86  O   UNL A   1      49.981  25.543  37.425  1.00  0.00    -0.744 OA
ENDBRANCH  82  83
ENDBRANCH  56  77
ENDBRANCH  30  31
ENDBRANCH  23  25
ENDBRANCH  22  23
ENDBRANCH  21  22
ENDBRANCH   1  21
TORSDOF 19
ENDMDL
