MODEL 1
REMARK VINA RESULT:     -10.6      0.000      0.000
REMARK SMILES O=C(OCCOC(=O)[C@H]1CC[C@@H](CNc2cccc(F)c2[N+](=O)[O-])O1)c1ccc(-c2c3nc(c(-c4ccc(S(=O)(=O)[O-])cc4)c4ccc([nH]4)c(-c4ccc(S(=O)(=O)[O-])cc4)c4nc(c(-c5ccc(S(=O)(=O)[O-])cc5)c5ccc2[nH]5)C=C4)C=C3)cc1
REMARK SMILES IDX 5 1 4 2 3 3 2 4 1 5 26 6 27 7 85 8 28 9 84 10 29 11 30 12
REMARK SMILES IDX 31 13 78 14 32 15 83 16 77 17 79 18 33 19 82 20 76 21 75 22
REMARK SMILES IDX 34 24 64 25 45 26 63 27 46 28 49 29 62 30 80 31 47 32 48 33
REMARK SMILES IDX 61 35 81 36 50 37 35 38 36 39 44 40 37 41 43 42 38 43 39 44
REMARK SMILES IDX 40 45 41 46 42 47 65 48 66 49 74 50 67 51 73 52 68 53 69 54
REMARK SMILES IDX 70 55 71 56 72 57 51 58 52 59 60 60 53 61 59 62 54 63 55 64
REMARK SMILES IDX 56 65 57 66 58 67 6 68 7 69 8 70 9 71 10 72 25 73 11 74
REMARK SMILES IDX 12 75 13 76 14 77 15 79 16 80 21 81 17 82 19 83 18 84 20 85
REMARK SMILES IDX 22 86 23 87 24 88
REMARK H PARENT 79 23 49 34 14 78
REMARK Flexibility Score: inf
ROOT
ATOM      1  C   UNL A   1      32.460  29.627  25.298  1.00  0.00     0.274 C 
ENDROOT
BRANCH   1   2
ATOM      2  C   UNL A   1      32.281  30.460  26.570  1.00  0.00     0.275 C 
BRANCH   2   3
ATOM      3  O   UNL A   1      33.287  30.260  27.579  1.00  0.00    -0.458 OA
BRANCH   3   4
ATOM      4  C   UNL A   1      34.265  31.080  28.033  1.00  0.00     0.338 C 
ATOM      5  O   UNL A   1      34.056  32.293  28.010  1.00  0.00    -0.246 OA
BRANCH   4   6
ATOM      6  C   UNL A   1      35.636  30.622  28.437  1.00  0.00     0.060 A 
ATOM      7  C   UNL A   1      36.087  30.403  29.743  1.00  0.00     0.016 A 
ATOM      8  C   UNL A   1      36.524  30.330  27.382  1.00  0.00     0.016 A 
ATOM      9  C   UNL A   1      37.328  29.800  29.993  1.00  0.00     0.010 A 
ATOM     10  C   UNL A   1      37.762  29.719  27.627  1.00  0.00     0.010 A 
ATOM     11  C   UNL A   1      38.163  29.430  28.939  1.00  0.00    -0.014 A 
BRANCH  11  12
ATOM     12  C   UNL A   1      39.523  28.900  29.202  1.00  0.00     0.031 A 
ATOM     13  C   UNL A   1      40.497  29.826  29.866  1.00  0.00     0.074 A 
ATOM     14  C   UNL A   1      39.881  27.640  28.879  1.00  0.00     0.049 A 
ATOM     15  N   UNL A   1      41.706  29.577  30.289  1.00  0.00    -0.248 NA
ATOM     16  C   UNL A   1      40.035  31.201  30.128  1.00  0.00     0.031 C 
ATOM     17  C   UNL A   1      38.997  26.617  28.323  1.00  0.00     0.029 A 
ATOM     18  N   UNL A   1      41.095  27.002  28.950  1.00  0.00    -0.354 N 
ATOM     19  C   UNL A   1      42.118  30.741  30.922  1.00  0.00     0.074 A 
ATOM     20  C   UNL A   1      41.084  31.728  30.734  1.00  0.00     0.031 C 
ATOM     21  C   UNL A   1      39.711  25.517  28.013  1.00  0.00     0.029 A 
ATOM     22  C   UNL A   1      41.096  25.735  28.403  1.00  0.00     0.049 A 
ATOM     23  H   UNL A   1      41.893  27.411  29.356  1.00  0.00     0.167 HD
ATOM     24  C   UNL A   1      43.236  30.947  31.652  1.00  0.00     0.031 A 
ATOM     25  C   UNL A   1      42.106  24.853  28.264  1.00  0.00     0.031 A 
ATOM     26  C   UNL A   1      44.283  29.977  31.776  1.00  0.00     0.049 A 
ATOM     27  C   UNL A   1      43.427  25.191  28.908  1.00  0.00     0.074 A 
ATOM     28  C   UNL A   1      45.466  30.066  32.483  1.00  0.00     0.029 A 
ATOM     29  N   UNL A   1      44.282  28.744  31.138  1.00  0.00    -0.354 N 
ATOM     30  N   UNL A   1      43.763  26.262  29.589  1.00  0.00    -0.248 NA
ATOM     31  C   UNL A   1      44.477  24.166  28.832  1.00  0.00     0.031 C 
ATOM     32  C   UNL A   1      46.211  28.910  32.218  1.00  0.00     0.029 A 
ATOM     33  C   UNL A   1      45.462  28.076  31.400  1.00  0.00     0.049 A 
ATOM     34  H   UNL A   1      43.549  28.397  30.581  1.00  0.00     0.167 HD
ATOM     35  C   UNL A   1      45.034  26.006  30.087  1.00  0.00     0.074 A 
ATOM     36  C   UNL A   1      45.414  24.691  29.608  1.00  0.00     0.031 C 
ATOM     37  C   UNL A   1      45.806  26.771  30.898  1.00  0.00     0.031 A 
BRANCH  24  38
ATOM     38  C   UNL A   1      43.349  32.279  32.337  1.00  0.00    -0.014 A 
ATOM     39  C   UNL A   1      42.839  32.462  33.638  1.00  0.00     0.010 A 
ATOM     40  C   UNL A   1      43.901  33.374  31.655  1.00  0.00     0.010 A 
ATOM     41  C   UNL A   1      42.819  33.731  34.217  1.00  0.00     0.020 A 
ATOM     42  C   UNL A   1      43.908  34.642  32.244  1.00  0.00     0.020 A 
ATOM     43  C   UNL A   1      43.344  34.816  33.510  1.00  0.00     0.054 A 
BRANCH  43  44
ATOM     44  S   UNL A   1      43.275  36.460  34.271  1.00  0.00     0.124 S 
ATOM     45  O   UNL A   1      41.920  36.479  34.819  1.00  0.00    -0.237 OA
ATOM     46  O   UNL A   1      44.349  36.400  35.259  1.00  0.00    -0.237 OA
ATOM     47  O   UNL A   1      43.508  37.370  33.152  1.00  0.00    -0.744 OA
ENDBRANCH  43  44
ENDBRANCH  24  38
BRANCH  25  48
ATOM     48  C   UNL A   1      41.940  23.526  27.603  1.00  0.00    -0.014 A 
ATOM     49  C   UNL A   1      41.440  22.437  28.338  1.00  0.00     0.010 A 
ATOM     50  C   UNL A   1      42.435  23.299  26.305  1.00  0.00     0.010 A 
ATOM     51  C   UNL A   1      41.494  21.140  27.817  1.00  0.00     0.020 A 
ATOM     52  C   UNL A   1      42.491  21.998  25.779  1.00  0.00     0.020 A 
ATOM     53  C   UNL A   1      42.043  20.923  26.550  1.00  0.00     0.054 A 
BRANCH  53  54
ATOM     54  S   UNL A   1      42.143  19.210  25.941  1.00  0.00     0.124 S 
ATOM     55  O   UNL A   1      40.747  18.903  25.654  1.00  0.00    -0.237 OA
ATOM     56  O   UNL A   1      43.014  19.348  24.773  1.00  0.00    -0.237 OA
ATOM     57  O   UNL A   1      42.733  18.472  27.052  1.00  0.00    -0.744 OA
ENDBRANCH  53  54
ENDBRANCH  25  48
BRANCH  37  58
ATOM     58  C   UNL A   1      47.110  26.180  31.355  1.00  0.00    -0.014 A 
ATOM     59  C   UNL A   1      48.254  26.207  30.539  1.00  0.00     0.010 A 
ATOM     60  C   UNL A   1      47.196  25.639  32.651  1.00  0.00     0.010 A 
ATOM     61  C   UNL A   1      49.458  25.677  31.005  1.00  0.00     0.020 A 
ATOM     62  C   UNL A   1      48.407  25.141  33.131  1.00  0.00     0.020 A 
ATOM     63  C   UNL A   1      49.527  25.151  32.299  1.00  0.00     0.054 A 
BRANCH  63  64
ATOM     64  S   UNL A   1      51.118  24.528  32.904  1.00  0.00     0.124 S 
ATOM     65  O   UNL A   1      50.868  24.398  34.336  1.00  0.00    -0.237 OA
ATOM     66  O   UNL A   1      51.267  23.273  32.172  1.00  0.00    -0.237 OA
ATOM     67  O   UNL A   1      52.065  25.576  32.527  1.00  0.00    -0.744 OA
ENDBRANCH  63  64
ENDBRANCH  37  58
ENDBRANCH  11  12
ENDBRANCH   4   6
ENDBRANCH   3   4
ENDBRANCH   2   3
ENDBRANCH   1   2
BRANCH   1  68
ATOM     68  O   UNL A   1      31.544  28.527  25.226  1.00  0.00    -0.460 OA
BRANCH  68  69
ATOM     69  C   UNL A   1      30.707  28.527  24.152  1.00  0.00     0.335 C 
ATOM     70  O   UNL A   1      30.108  29.524  23.753  1.00  0.00    -0.249 OA
BRANCH  69  71
ATOM     71  C   UNL A   1      30.582  27.152  23.487  1.00  0.00     0.228 C 
ATOM     72  C   UNL A   1      30.959  27.035  22.027  1.00  0.00     0.047 C 
ATOM     73  O   UNL A   1      31.428  26.237  24.192  1.00  0.00    -0.361 OA
ATOM     74  C   UNL A   1      32.387  26.596  22.037  1.00  0.00     0.037 C 
ATOM     75  C   UNL A   1      32.485  25.811  23.321  1.00  0.00     0.138 C 
BRANCH  75  76
ATOM     76  C   UNL A   1      33.858  26.005  23.982  1.00  0.00     0.145 C 
BRANCH  76  77
ATOM     77  N   UNL A   1      33.751  25.533  25.339  1.00  0.00    -0.377 N 
ATOM     78  H   UNL A   1      33.393  26.182  25.988  1.00  0.00     0.160 HD
BRANCH  77  79
ATOM     79  C   UNL A   1      34.082  24.300  25.851  1.00  0.00     0.116 A 
ATOM     80  C   UNL A   1      35.339  23.717  25.643  1.00  0.00     0.033 A 
ATOM     81  C   UNL A   1      33.153  23.563  26.616  1.00  0.00     0.327 A 
ATOM     82  C   UNL A   1      35.692  22.513  26.265  1.00  0.00     0.006 A 
ATOM     83  C   UNL A   1      33.522  22.412  27.293  1.00  0.00     0.202 A 
ATOM     84  C   UNL A   1      34.796  21.887  27.127  1.00  0.00     0.047 A 
ATOM     85  F   UNL A   1      32.674  21.833  28.149  1.00  0.00    -0.199 F 
BRANCH  81  86
ATOM     86  N   UNL A   1      31.753  23.958  26.672  1.00  0.00     0.068 N 
ATOM     87  O   UNL A   1      31.473  25.012  27.270  1.00  0.00    -0.258 OA
ATOM     88  O   UNL A   1      30.922  23.266  26.066  1.00  0.00    -0.258 OA
ENDBRANCH  81  86
ENDBRANCH  77  79
ENDBRANCH  76  77
ENDBRANCH  75  76
ENDBRANCH  69  71
ENDBRANCH  68  69
ENDBRANCH   1  68
TORSDOF 18
ENDMDL
MODEL 2
REMARK VINA RESULT:     -10.6      4.577     11.600
REMARK SMILES O=C(OCCOC(=O)[C@H]1CC[C@@H](CNc2cccc(F)c2[N+](=O)[O-])O1)c1ccc(-c2c3nc(c(-c4ccc(S(=O)(=O)[O-])cc4)c4ccc([nH]4)c(-c4ccc(S(=O)(=O)[O-])cc4)c4nc(c(-c5ccc(S(=O)(=O)[O-])cc5)c5ccc2[nH]5)C=C4)C=C3)cc1
REMARK SMILES IDX 5 1 4 2 3 3 2 4 1 5 26 6 27 7 85 8 28 9 84 10 29 11 30 12
REMARK SMILES IDX 31 13 78 14 32 15 83 16 77 17 79 18 33 19 82 20 76 21 75 22
REMARK SMILES IDX 34 24 64 25 45 26 63 27 46 28 49 29 62 30 80 31 47 32 48 33
REMARK SMILES IDX 61 35 81 36 50 37 35 38 36 39 44 40 37 41 43 42 38 43 39 44
REMARK SMILES IDX 40 45 41 46 42 47 65 48 66 49 74 50 67 51 73 52 68 53 69 54
REMARK SMILES IDX 70 55 71 56 72 57 51 58 52 59 60 60 53 61 59 62 54 63 55 64
REMARK SMILES IDX 56 65 57 66 58 67 6 68 7 69 8 70 9 71 10 72 25 73 11 74
REMARK SMILES IDX 12 75 13 76 14 77 15 79 16 80 21 81 17 82 19 83 18 84 20 85
REMARK SMILES IDX 22 86 23 87 24 88
REMARK H PARENT 79 23 49 34 14 78
REMARK Flexibility Score: inf
ROOT
ATOM      1  C   UNL A   1      42.020  20.403  25.828  1.00  0.00     0.274 C 
ENDROOT
BRANCH   1   2
ATOM      2  C   UNL A   1      41.141  21.025  26.915  1.00  0.00     0.275 C 
BRANCH   2   3
ATOM      3  O   UNL A   1      39.801  21.353  26.505  1.00  0.00    -0.458 OA
BRANCH   3   4
ATOM      4  C   UNL A   1      39.208  22.550  26.285  1.00  0.00     0.338 C 
ATOM      5  O   UNL A   1      38.299  22.599  25.457  1.00  0.00    -0.246 OA
BRANCH   4   6
ATOM      6  C   UNL A   1      39.669  23.848  26.882  1.00  0.00     0.060 A 
ATOM      7  C   UNL A   1      40.562  24.757  26.304  1.00  0.00     0.016 A 
ATOM      8  C   UNL A   1      39.089  24.199  28.118  1.00  0.00     0.016 A 
ATOM      9  C   UNL A   1      40.779  26.023  26.868  1.00  0.00     0.010 A 
ATOM     10  C   UNL A   1      39.297  25.466  28.680  1.00  0.00     0.010 A 
ATOM     11  C   UNL A   1      40.130  26.397  28.044  1.00  0.00    -0.014 A 
BRANCH  11  12
ATOM     12  C   UNL A   1      40.446  27.687  28.704  1.00  0.00     0.031 A 
ATOM     13  C   UNL A   1      41.794  27.810  29.347  1.00  0.00     0.074 A 
ATOM     14  C   UNL A   1      39.577  28.719  28.724  1.00  0.00     0.049 A 
ATOM     15  N   UNL A   1      42.347  28.856  29.899  1.00  0.00    -0.248 NA
ATOM     16  C   UNL A   1      42.652  26.612  29.326  1.00  0.00     0.031 C 
ATOM     17  C   UNL A   1      38.279  28.756  28.051  1.00  0.00     0.029 A 
ATOM     18  N   UNL A   1      39.640  29.938  29.352  1.00  0.00    -0.354 N 
ATOM     19  C   UNL A   1      43.634  28.457  30.229  1.00  0.00     0.074 A 
ATOM     20  C   UNL A   1      43.747  27.053  29.920  1.00  0.00     0.031 C 
ATOM     21  C   UNL A   1      37.628  29.889  28.379  1.00  0.00     0.029 A 
ATOM     22  C   UNL A   1      38.487  30.688  29.240  1.00  0.00     0.049 A 
ATOM     23  H   UNL A   1      40.437  30.250  29.839  1.00  0.00     0.167 HD
ATOM     24  C   UNL A   1      44.654  29.214  30.690  1.00  0.00     0.031 A 
ATOM     25  C   UNL A   1      38.185  31.895  29.758  1.00  0.00     0.031 A 
ATOM     26  C   UNL A   1      44.506  30.593  31.052  1.00  0.00     0.049 A 
ATOM     27  C   UNL A   1      39.283  32.650  30.464  1.00  0.00     0.074 A 
ATOM     28  C   UNL A   1      45.461  31.467  31.533  1.00  0.00     0.029 A 
ATOM     29  N   UNL A   1      43.305  31.287  31.001  1.00  0.00    -0.354 N 
ATOM     30  N   UNL A   1      40.527  32.290  30.678  1.00  0.00    -0.248 NA
ATOM     31  C   UNL A   1      38.956  34.006  30.926  1.00  0.00     0.031 C 
ATOM     32  C   UNL A   1      44.819  32.674  31.839  1.00  0.00     0.029 A 
ATOM     33  C   UNL A   1      43.482  32.569  31.483  1.00  0.00     0.049 A 
ATOM     34  H   UNL A   1      42.454  30.921  30.672  1.00  0.00     0.167 HD
ATOM     35  C   UNL A   1      41.150  33.401  31.230  1.00  0.00     0.074 A 
ATOM     36  C   UNL A   1      40.140  34.437  31.337  1.00  0.00     0.031 C 
ATOM     37  C   UNL A   1      42.449  33.569  31.582  1.00  0.00     0.031 A 
BRANCH  24  38
ATOM     38  C   UNL A   1      45.983  28.529  30.828  1.00  0.00    -0.014 A 
ATOM     39  C   UNL A   1      46.785  28.286  29.695  1.00  0.00     0.010 A 
ATOM     40  C   UNL A   1      46.404  28.061  32.081  1.00  0.00     0.010 A 
ATOM     41  C   UNL A   1      47.952  27.529  29.805  1.00  0.00     0.020 A 
ATOM     42  C   UNL A   1      47.587  27.326  32.200  1.00  0.00     0.020 A 
ATOM     43  C   UNL A   1      48.339  27.043  31.056  1.00  0.00     0.054 A 
BRANCH  43  44
ATOM     44  S   UNL A   1      49.840  26.033  31.166  1.00  0.00     0.124 S 
ATOM     45  O   UNL A   1      49.444  25.012  32.134  1.00  0.00    -0.237 OA
ATOM     46  O   UNL A   1      50.009  25.562  29.794  1.00  0.00    -0.237 OA
ATOM     47  O   UNL A   1      50.857  26.973  31.631  1.00  0.00    -0.744 OA
ENDBRANCH  43  44
ENDBRANCH  24  38
BRANCH  25  48
ATOM     48  C   UNL A   1      36.859  32.552  29.569  1.00  0.00    -0.014 A 
ATOM     49  C   UNL A   1      36.637  33.368  28.446  1.00  0.00     0.010 A 
ATOM     50  C   UNL A   1      35.881  32.510  30.581  1.00  0.00     0.010 A 
ATOM     51  C   UNL A   1      35.497  34.174  28.364  1.00  0.00     0.020 A 
ATOM     52  C   UNL A   1      34.737  33.320  30.502  1.00  0.00     0.020 A 
ATOM     53  C   UNL A   1      34.564  34.166  29.405  1.00  0.00     0.054 A 
BRANCH  53  54
ATOM     54  S   UNL A   1      33.128  35.277  29.278  1.00  0.00     0.124 S 
ATOM     55  O   UNL A   1      32.307  34.605  28.278  1.00  0.00    -0.237 OA
ATOM     56  O   UNL A   1      32.603  35.261  30.643  1.00  0.00    -0.237 OA
ATOM     57  O   UNL A   1      33.701  36.553  28.865  1.00  0.00    -0.744 OA
ENDBRANCH  53  54
ENDBRANCH  25  48
BRANCH  37  58
ATOM     58  C   UNL A   1      42.855  34.932  32.066  1.00  0.00    -0.014 A 
ATOM     59  C   UNL A   1      42.701  35.308  33.411  1.00  0.00     0.010 A 
ATOM     60  C   UNL A   1      43.453  35.826  31.160  1.00  0.00     0.010 A 
ATOM     61  C   UNL A   1      43.116  36.572  33.836  1.00  0.00     0.020 A 
ATOM     62  C   UNL A   1      43.901  37.076  31.589  1.00  0.00     0.020 A 
ATOM     63  C   UNL A   1      43.717  37.445  32.923  1.00  0.00     0.054 A 
BRANCH  63  64
ATOM     64  S   UNL A   1      44.306  39.054  33.513  1.00  0.00     0.124 S 
ATOM     65  O   UNL A   1      45.171  39.481  32.418  1.00  0.00    -0.237 OA
ATOM     66  O   UNL A   1      43.066  39.810  33.669  1.00  0.00    -0.237 OA
ATOM     67  O   UNL A   1      44.993  38.733  34.763  1.00  0.00    -0.744 OA
ENDBRANCH  63  64
ENDBRANCH  37  58
ENDBRANCH  11  12
ENDBRANCH   4   6
ENDBRANCH   3   4
ENDBRANCH   2   3
ENDBRANCH   1   2
BRANCH   1  68
ATOM     68  O   UNL A   1      43.414  20.670  26.027  1.00  0.00    -0.460 OA
BRANCH  68  69
ATOM     69  C   UNL A   1      43.914  21.734  25.340  1.00  0.00     0.335 C 
ATOM     70  O   UNL A   1      43.264  22.390  24.528  1.00  0.00    -0.249 OA
BRANCH  69  71
ATOM     71  C   UNL A   1      45.378  22.033  25.678  1.00  0.00     0.228 C 
ATOM     72  C   UNL A   1      46.235  22.675  24.608  1.00  0.00     0.047 C 
ATOM     73  O   UNL A   1      45.405  22.925  26.797  1.00  0.00    -0.361 OA
ATOM     74  C   UNL A   1      46.156  24.141  24.887  1.00  0.00     0.037 C 
ATOM     75  C   UNL A   1      45.949  24.184  26.380  1.00  0.00     0.138 C 
BRANCH  75  76
ATOM     76  C   UNL A   1      45.022  25.345  26.773  1.00  0.00     0.145 C 
BRANCH  76  77
ATOM     77  N   UNL A   1      45.316  26.446  25.891  1.00  0.00    -0.377 N 
ATOM     78  H   UNL A   1      45.587  26.199  24.977  1.00  0.00     0.160 HD
BRANCH  77  79
ATOM     79  C   UNL A   1      45.269  27.796  26.154  1.00  0.00     0.116 A 
ATOM     80  C   UNL A   1      44.080  28.448  26.510  1.00  0.00     0.033 A 
ATOM     81  C   UNL A   1      46.434  28.588  26.073  1.00  0.00     0.327 A 
ATOM     82  C   UNL A   1      44.077  29.797  26.881  1.00  0.00     0.006 A 
ATOM     83  C   UNL A   1      46.449  29.902  26.510  1.00  0.00     0.202 A 
ATOM     84  C   UNL A   1      45.272  30.509  26.924  1.00  0.00     0.047 A 
ATOM     85  F   UNL A   1      47.603  30.573  26.587  1.00  0.00    -0.199 F 
BRANCH  81  86
ATOM     86  N   UNL A   1      47.651  28.065  25.469  1.00  0.00     0.068 N 
ATOM     87  O   UNL A   1      48.500  27.558  26.223  1.00  0.00    -0.258 OA
ATOM     88  O   UNL A   1      47.750  28.087  24.233  1.00  0.00    -0.258 OA
ENDBRANCH  81  86
ENDBRANCH  77  79
ENDBRANCH  76  77
ENDBRANCH  75  76
ENDBRANCH  69  71
ENDBRANCH  68  69
ENDBRANCH   1  68
TORSDOF 18
ENDMDL
MODEL 3
REMARK VINA RESULT:     -10.5      4.699     11.453
REMARK SMILES O=C(OCCOC(=O)[C@H]1CC[C@@H](CNc2cccc(F)c2[N+](=O)[O-])O1)c1ccc(-c2c3nc(c(-c4ccc(S(=O)(=O)[O-])cc4)c4ccc([nH]4)c(-c4ccc(S(=O)(=O)[O-])cc4)c4nc(c(-c5ccc(S(=O)(=O)[O-])cc5)c5ccc2[nH]5)C=C4)C=C3)cc1
REMARK SMILES IDX 5 1 4 2 3 3 2 4 1 5 26 6 27 7 85 8 28 9 84 10 29 11 30 12
REMARK SMILES IDX 31 13 78 14 32 15 83 16 77 17 79 18 33 19 82 20 76 21 75 22
REMARK SMILES IDX 34 24 64 25 45 26 63 27 46 28 49 29 62 30 80 31 47 32 48 33
REMARK SMILES IDX 61 35 81 36 50 37 35 38 36 39 44 40 37 41 43 42 38 43 39 44
REMARK SMILES IDX 40 45 41 46 42 47 65 48 66 49 74 50 67 51 73 52 68 53 69 54
REMARK SMILES IDX 70 55 71 56 72 57 51 58 52 59 60 60 53 61 59 62 54 63 55 64
REMARK SMILES IDX 56 65 57 66 58 67 6 68 7 69 8 70 9 71 10 72 25 73 11 74
REMARK SMILES IDX 12 75 13 76 14 77 15 79 16 80 21 81 17 82 19 83 18 84 20 85
REMARK SMILES IDX 22 86 23 87 24 88
REMARK H PARENT 79 23 49 34 14 78
REMARK Flexibility Score: inf
ROOT
ATOM      1  C   UNL A   1      42.238  19.384  26.222  1.00  0.00     0.274 C 
ENDROOT
BRANCH   1   2
ATOM      2  C   UNL A   1      41.027  20.195  26.689  1.00  0.00     0.275 C 
BRANCH   2   3
ATOM      3  O   UNL A   1      40.836  21.452  26.014  1.00  0.00    -0.458 OA
BRANCH   3   4
ATOM      4  C   UNL A   1      39.967  22.463  26.249  1.00  0.00     0.338 C 
ATOM      5  O   UNL A   1      38.807  22.328  25.861  1.00  0.00    -0.246 OA
BRANCH   4   6
ATOM      6  C   UNL A   1      40.350  23.792  26.831  1.00  0.00     0.060 A 
ATOM      7  C   UNL A   1      41.074  24.803  26.189  1.00  0.00     0.016 A 
ATOM      8  C   UNL A   1      39.872  24.057  28.131  1.00  0.00     0.016 A 
ATOM      9  C   UNL A   1      41.216  26.075  26.763  1.00  0.00     0.010 A 
ATOM     10  C   UNL A   1      40.003  25.329  28.705  1.00  0.00     0.010 A 
ATOM     11  C   UNL A   1      40.660  26.356  28.011  1.00  0.00    -0.014 A 
BRANCH  11  12
ATOM     12  C   UNL A   1      40.907  27.661  28.671  1.00  0.00     0.031 A 
ATOM     13  C   UNL A   1      42.242  27.851  29.326  1.00  0.00     0.074 A 
ATOM     14  C   UNL A   1      39.988  28.649  28.681  1.00  0.00     0.049 A 
ATOM     15  N   UNL A   1      42.738  28.923  29.881  1.00  0.00    -0.248 NA
ATOM     16  C   UNL A   1      43.158  26.695  29.315  1.00  0.00     0.031 C 
ATOM     17  C   UNL A   1      38.697  28.622  27.997  1.00  0.00     0.029 A 
ATOM     18  N   UNL A   1      39.986  29.871  29.308  1.00  0.00    -0.354 N 
ATOM     19  C   UNL A   1      44.040  28.588  30.223  1.00  0.00     0.074 A 
ATOM     20  C   UNL A   1      44.224  27.190  29.919  1.00  0.00     0.031 C 
ATOM     21  C   UNL A   1      37.988  29.722  28.316  1.00  0.00     0.029 A 
ATOM     22  C   UNL A   1      38.799  30.564  29.184  1.00  0.00     0.049 A 
ATOM     23  H   UNL A   1      40.763  30.222  29.801  1.00  0.00     0.167 HD
ATOM     24  C   UNL A   1      45.017  29.394  30.692  1.00  0.00     0.031 A 
ATOM     25  C   UNL A   1      38.435  31.755  29.696  1.00  0.00     0.031 A 
ATOM     26  C   UNL A   1      44.800  30.765  31.050  1.00  0.00     0.049 A 
ATOM     27  C   UNL A   1      39.488  32.564  30.411  1.00  0.00     0.074 A 
ATOM     28  C   UNL A   1      45.706  31.685  31.538  1.00  0.00     0.029 A 
ATOM     29  N   UNL A   1      43.566  31.400  30.987  1.00  0.00    -0.354 N 
ATOM     30  N   UNL A   1      40.746  32.265  30.636  1.00  0.00    -0.248 NA
ATOM     31  C   UNL A   1      39.091  33.904  30.867  1.00  0.00     0.031 C 
ATOM     32  C   UNL A   1      45.004  32.860  31.835  1.00  0.00     0.029 A 
ATOM     33  C   UNL A   1      43.676  32.690  31.468  1.00  0.00     0.049 A 
ATOM     34  H   UNL A   1      42.737  30.992  30.651  1.00  0.00     0.167 HD
ATOM     35  C   UNL A   1      41.309  33.407  31.192  1.00  0.00     0.074 A 
ATOM     36  C   UNL A   1      40.249  34.392  31.288  1.00  0.00     0.031 C 
ATOM     37  C   UNL A   1      42.595  33.638  31.555  1.00  0.00     0.031 A 
BRANCH  24  38
ATOM     38  C   UNL A   1      46.377  28.775  30.843  1.00  0.00    -0.014 A 
ATOM     39  C   UNL A   1      46.765  28.187  32.063  1.00  0.00     0.010 A 
ATOM     40  C   UNL A   1      47.300  28.843  29.788  1.00  0.00     0.010 A 
ATOM     41  C   UNL A   1      48.074  27.737  32.246  1.00  0.00     0.020 A 
ATOM     42  C   UNL A   1      48.604  28.369  29.959  1.00  0.00     0.020 A 
ATOM     43  C   UNL A   1      48.988  27.843  31.195  1.00  0.00     0.054 A 
BRANCH  43  44
ATOM     44  S   UNL A   1      50.690  27.283  31.471  1.00  0.00     0.124 S 
ATOM     45  O   UNL A   1      51.452  28.231  30.659  1.00  0.00    -0.237 OA
ATOM     46  O   UNL A   1      50.845  27.431  32.915  1.00  0.00    -0.237 OA
ATOM     47  O   UNL A   1      50.686  25.906  30.982  1.00  0.00    -0.744 OA
ENDBRANCH  43  44
ENDBRANCH  24  38
BRANCH  25  48
ATOM     48  C   UNL A   1      37.080  32.347  29.494  1.00  0.00    -0.014 A 
ATOM     49  C   UNL A   1      36.801  33.068  28.320  1.00  0.00     0.010 A 
ATOM     50  C   UNL A   1      36.128  32.344  30.531  1.00  0.00     0.010 A 
ATOM     51  C   UNL A   1      35.628  33.823  28.209  1.00  0.00     0.020 A 
ATOM     52  C   UNL A   1      34.951  33.102  30.423  1.00  0.00     0.020 A 
ATOM     53  C   UNL A   1      34.721  33.858  29.271  1.00  0.00     0.054 A 
BRANCH  53  54
ATOM     54  S   UNL A   1      33.240  34.902  29.100  1.00  0.00     0.124 S 
ATOM     55  O   UNL A   1      32.466  34.177  28.100  1.00  0.00    -0.237 OA
ATOM     56  O   UNL A   1      32.693  34.887  30.457  1.00  0.00    -0.237 OA
ATOM     57  O   UNL A   1      33.763  36.194  28.673  1.00  0.00    -0.744 OA
ENDBRANCH  53  54
ENDBRANCH  25  48
BRANCH  37  58
ATOM     58  C   UNL A   1      42.930  35.020  32.040  1.00  0.00    -0.014 A 
ATOM     59  C   UNL A   1      42.808  35.371  33.395  1.00  0.00     0.010 A 
ATOM     60  C   UNL A   1      43.429  35.962  31.122  1.00  0.00     0.010 A 
ATOM     61  C   UNL A   1      43.155  36.655  33.819  1.00  0.00     0.020 A 
ATOM     62  C   UNL A   1      43.811  37.233  31.549  1.00  0.00     0.020 A 
ATOM     63  C   UNL A   1      43.659  37.576  32.893  1.00  0.00     0.054 A 
BRANCH  63  64
ATOM     64  S   UNL A   1      44.164  39.214  33.480  1.00  0.00     0.124 S 
ATOM     65  O   UNL A   1      44.656  38.918  34.822  1.00  0.00    -0.237 OA
ATOM     66  O   UNL A   1      45.181  39.602  32.506  1.00  0.00    -0.237 OA
ATOM     67  O   UNL A   1      42.931  39.996  33.426  1.00  0.00    -0.744 OA
ENDBRANCH  63  64
ENDBRANCH  37  58
ENDBRANCH  11  12
ENDBRANCH   4   6
ENDBRANCH   3   4
ENDBRANCH   2   3
ENDBRANCH   1   2
BRANCH   1  68
ATOM     68  O   UNL A   1      43.025  20.079  25.248  1.00  0.00    -0.460 OA
BRANCH  68  69
ATOM     69  C   UNL A   1      44.264  19.565  25.015  1.00  0.00     0.335 C 
ATOM     70  O   UNL A   1      44.530  18.367  25.083  1.00  0.00    -0.249 OA
BRANCH  69  71
ATOM     71  C   UNL A   1      45.303  20.635  24.662  1.00  0.00     0.228 C 
ATOM     72  C   UNL A   1      44.886  21.741  23.718  1.00  0.00     0.047 C 
ATOM     73  O   UNL A   1      45.711  21.278  25.874  1.00  0.00    -0.361 OA
ATOM     74  C   UNL A   1      44.444  22.855  24.609  1.00  0.00     0.037 C 
ATOM     75  C   UNL A   1      45.285  22.647  25.843  1.00  0.00     0.138 C 
BRANCH  75  76
ATOM     76  C   UNL A   1      44.499  23.009  27.112  1.00  0.00     0.145 C 
BRANCH  76  77
ATOM     77  N   UNL A   1      44.750  24.401  27.390  1.00  0.00    -0.377 N 
ATOM     78  H   UNL A   1      43.964  24.932  27.655  1.00  0.00     0.160 HD
BRANCH  77  79
ATOM     79  C   UNL A   1      45.940  25.089  27.333  1.00  0.00     0.116 A 
ATOM     80  C   UNL A   1      47.070  24.690  28.061  1.00  0.00     0.033 A 
ATOM     81  C   UNL A   1      46.071  26.241  26.530  1.00  0.00     0.327 A 
ATOM     82  C   UNL A   1      48.301  25.338  27.903  1.00  0.00     0.006 A 
ATOM     83  C   UNL A   1      47.302  26.839  26.313  1.00  0.00     0.202 A 
ATOM     84  C   UNL A   1      48.424  26.384  26.992  1.00  0.00     0.047 A 
ATOM     85  F   UNL A   1      47.427  27.817  25.410  1.00  0.00    -0.199 F 
BRANCH  81  86
ATOM     86  N   UNL A   1      44.901  26.879  25.945  1.00  0.00     0.068 N 
ATOM     87  O   UNL A   1      44.267  26.245  25.082  1.00  0.00    -0.258 OA
ATOM     88  O   UNL A   1      44.555  27.986  26.381  1.00  0.00    -0.258 OA
ENDBRANCH  81  86
ENDBRANCH  77  79
ENDBRANCH  76  77
ENDBRANCH  75  76
ENDBRANCH  69  71
ENDBRANCH  68  69
ENDBRANCH   1  68
TORSDOF 18
ENDMDL
