MODEL 1
REMARK VINA RESULT:     -12.0      0.000      0.000
REMARK SMILES CSc1ccc(/C=C2\C(C)=C(CC(=O)OCCOC(=O)c3ccc(-c4c5nc(c(-c6ccc(S(=O)(=O)[O-])cc6)c6ccc([nH]6)c(-c6ccc(S(=O)(=O)[O-])cc6)c6nc(c(-c7ccc(S(=O)(=O)[O-])cc7)c7ccc4[nH]7)C=C6)C=C5)cc3)c3cc(F)ccc32)cc1
REMARK SMILES IDX 16 1 15 2 13 3 14 4 12 5 11 6 7 7 8 8 9 9 87 10 10 11 81 12
REMARK SMILES IDX 86 13 82 14 85 15 83 16 84 17 6 18 3 19 4 20 89 21 5 22
REMARK SMILES IDX 88 23 2 24 1 25 17 26 18 27 19 28 20 29 21 30 22 31 80 32
REMARK SMILES IDX 23 33 79 34 24 35 25 36 26 37 73 38 27 39 78 40 72 41 74 42
REMARK SMILES IDX 28 43 77 44 71 45 70 46 29 48 59 49 40 50 58 51 41 52 44 53
REMARK SMILES IDX 57 54 75 55 42 56 43 57 56 59 76 60 45 61 30 62 31 63 39 64
REMARK SMILES IDX 32 65 38 66 33 67 34 68 35 69 36 70 37 71 60 72 61 73 69 74
REMARK SMILES IDX 62 75 68 76 63 77 64 78 65 79 66 80 67 81 46 82 47 83 55 84
REMARK SMILES IDX 48 85 54 86 49 87 50 88 51 89 52 90 53 91
REMARK H PARENT 74 47 44 58
REMARK Flexibility Score: inf
ROOT
ATOM      1  C   UNL A   1      33.175  31.071  27.250  1.00  0.00     0.274 C 
ENDROOT
BRANCH   1   2
ATOM      2  O   UNL A   1      33.521  29.848  26.561  1.00  0.00    -0.462 OA
BRANCH   2   3
ATOM      3  C   UNL A   1      32.829  28.751  26.969  1.00  0.00     0.310 C 
ATOM      4  O   UNL A   1      31.787  28.794  27.620  1.00  0.00    -0.252 OA
BRANCH   3   5
ATOM      5  C   UNL A   1      33.423  27.439  26.469  1.00  0.00     0.159 C 
BRANCH   5   6
ATOM      6  C   UNL A   1      33.158  26.993  25.015  1.00  0.00    -0.025 C 
ATOM      7  C   UNL A   1      30.941  24.564  26.037  1.00  0.00     0.017 C 
ATOM      8  C   UNL A   1      31.487  25.526  25.274  1.00  0.00    -0.014 C 
ATOM      9  C   UNL A   1      32.902  25.667  24.839  1.00  0.00    -0.039 C 
ATOM     10  C   UNL A   1      30.820  26.720  24.728  1.00  0.00    -0.010 A 
ATOM     11  C   UNL A   1      33.142  25.022  23.477  1.00  0.00     0.045 C 
ATOM     12  C   UNL A   1      31.904  27.572  24.426  1.00  0.00    -0.011 A 
ATOM     13  C   UNL A   1      29.587  26.849  24.106  1.00  0.00     0.012 A 
ATOM     14  C   UNL A   1      31.793  28.503  23.405  1.00  0.00     0.048 A 
ATOM     15  C   UNL A   1      29.463  27.831  23.115  1.00  0.00     0.040 A 
ATOM     16  C   UNL A   1      30.563  28.626  22.764  1.00  0.00     0.123 A 
ATOM     17  F   UNL A   1      30.455  29.466  21.724  1.00  0.00    -0.207 F 
BRANCH   7  18
ATOM     18  C   UNL A   1      31.506  23.216  26.298  1.00  0.00    -0.025 A 
ATOM     19  C   UNL A   1      33.524  21.386  25.741  1.00  0.00     0.007 A 
ATOM     20  C   UNL A   1      33.574  22.139  26.909  1.00  0.00     0.015 A 
ATOM     21  C   UNL A   1      32.333  21.344  25.013  1.00  0.00     0.015 A 
ATOM     22  C   UNL A   1      32.525  22.994  27.228  1.00  0.00     0.009 A 
ATOM     23  C   UNL A   1      31.312  22.257  25.300  1.00  0.00     0.009 A 
BRANCH  19  24
ATOM     24  S   UNL A   1      35.071  20.777  25.095  1.00  0.00    -0.130 SA
ATOM     25  C   UNL A   1      35.692  22.223  24.229  1.00  0.00     0.091 C 
ENDBRANCH  19  24
ENDBRANCH   7  18
ENDBRANCH   5   6
ENDBRANCH   3   5
ENDBRANCH   2   3
ENDBRANCH   1   2
BRANCH   1  26
ATOM     26  C   UNL A   1      34.413  31.551  28.038  1.00  0.00     0.275 C 
BRANCH  26  27
ATOM     27  O   UNL A   1      35.601  30.706  28.033  1.00  0.00    -0.458 OA
BRANCH  27  28
ATOM     28  C   UNL A   1      36.289  30.593  29.180  1.00  0.00     0.338 C 
ATOM     29  O   UNL A   1      35.876  30.917  30.291  1.00  0.00    -0.246 OA
BRANCH  28  30
ATOM     30  C   UNL A   1      37.656  30.074  29.102  1.00  0.00     0.060 A 
ATOM     31  C   UNL A   1      38.137  29.842  27.800  1.00  0.00     0.016 A 
ATOM     32  C   UNL A   1      38.438  29.751  30.209  1.00  0.00     0.016 A 
ATOM     33  C   UNL A   1      39.394  29.309  27.594  1.00  0.00     0.010 A 
ATOM     34  C   UNL A   1      39.727  29.249  30.000  1.00  0.00     0.010 A 
ATOM     35  C   UNL A   1      40.212  29.051  28.694  1.00  0.00    -0.014 A 
BRANCH  35  36
ATOM     36  C   UNL A   1      41.623  28.697  28.446  1.00  0.00     0.031 A 
ATOM     37  C   UNL A   1      42.702  29.725  28.538  1.00  0.00     0.074 A 
ATOM     38  C   UNL A   1      41.904  27.411  28.161  1.00  0.00     0.049 A 
ATOM     39  N   UNL A   1      43.978  29.591  28.287  1.00  0.00    -0.248 NA
ATOM     40  C   UNL A   1      42.304  31.074  28.968  1.00  0.00     0.031 C 
ATOM     41  C   UNL A   1      40.918  26.325  28.110  1.00  0.00     0.029 A 
ATOM     42  N   UNL A   1      43.091  26.797  27.869  1.00  0.00    -0.354 N 
ATOM     43  C   UNL A   1      44.538  30.841  28.505  1.00  0.00     0.074 A 
ATOM     44  C   UNL A   1      43.459  31.723  28.905  1.00  0.00     0.031 C 
ATOM     45  C   UNL A   1      41.545  25.177  27.813  1.00  0.00     0.029 A 
ATOM     46  C   UNL A   1      42.958  25.458  27.591  1.00  0.00     0.049 A 
ATOM     47  H   UNL A   1      43.955  27.268  27.858  1.00  0.00     0.167 HD
ATOM     48  C   UNL A   1      45.834  31.212  28.373  1.00  0.00     0.031 A 
ATOM     49  C   UNL A   1      43.866  24.562  27.166  1.00  0.00     0.031 A 
ATOM     50  C   UNL A   1      46.885  30.319  27.956  1.00  0.00     0.049 A 
ATOM     51  C   UNL A   1      45.279  25.017  26.956  1.00  0.00     0.074 A 
ATOM     52  C   UNL A   1      48.231  30.593  27.786  1.00  0.00     0.029 A 
ATOM     53  N   UNL A   1      46.708  28.979  27.638  1.00  0.00    -0.354 N 
ATOM     54  N   UNL A   1      45.795  26.208  27.153  1.00  0.00    -0.248 NA
ATOM     55  C   UNL A   1      46.232  24.016  26.464  1.00  0.00     0.031 C 
ATOM     56  C   UNL A   1      48.857  29.432  27.317  1.00  0.00     0.029 A 
ATOM     57  C   UNL A   1      47.914  28.419  27.249  1.00  0.00     0.049 A 
ATOM     58  H   UNL A   1      45.850  28.497  27.682  1.00  0.00     0.167 HD
ATOM     59  C   UNL A   1      47.139  26.095  26.827  1.00  0.00     0.074 A 
ATOM     60  C   UNL A   1      47.357  24.716  26.433  1.00  0.00     0.031 C 
ATOM     61  C   UNL A   1      48.105  27.046  26.852  1.00  0.00     0.031 A 
BRANCH  48  62
ATOM     62  C   UNL A   1      46.172  32.656  28.628  1.00  0.00    -0.014 A 
ATOM     63  C   UNL A   1      46.110  33.615  27.602  1.00  0.00     0.010 A 
ATOM     64  C   UNL A   1      46.532  33.064  29.925  1.00  0.00     0.010 A 
ATOM     65  C   UNL A   1      46.444  34.948  27.860  1.00  0.00     0.020 A 
ATOM     66  C   UNL A   1      46.844  34.400  30.193  1.00  0.00     0.020 A 
ATOM     67  C   UNL A   1      46.816  35.330  29.153  1.00  0.00     0.054 A 
BRANCH  67  68
ATOM     68  S   UNL A   1      47.241  37.067  29.463  1.00  0.00     0.124 S 
ATOM     69  O   UNL A   1      46.124  37.504  30.297  1.00  0.00    -0.237 OA
ATOM     70  O   UNL A   1      48.530  36.968  30.143  1.00  0.00    -0.237 OA
ATOM     71  O   UNL A   1      47.288  37.657  28.128  1.00  0.00    -0.744 OA
ENDBRANCH  67  68
ENDBRANCH  48  62
BRANCH  49  72
ATOM     72  C   UNL A   1      43.444  23.165  26.885  1.00  0.00    -0.014 A 
ATOM     73  C   UNL A   1      43.786  22.544  25.673  1.00  0.00     0.010 A 
ATOM     74  C   UNL A   1      42.737  22.432  27.858  1.00  0.00     0.010 A 
ATOM     75  C   UNL A   1      43.423  21.216  25.435  1.00  0.00     0.020 A 
ATOM     76  C   UNL A   1      42.398  21.096  27.633  1.00  0.00     0.020 A 
ATOM     77  C   UNL A   1      42.735  20.499  26.418  1.00  0.00     0.054 A 
BRANCH  77  78
ATOM     78  S   UNL A   1      42.333  18.755  26.114  1.00  0.00     0.124 S 
ATOM     79  O   UNL A   1      43.243  18.422  25.023  1.00  0.00    -0.237 OA
ATOM     80  O   UNL A   1      42.632  18.132  27.400  1.00  0.00    -0.237 OA
ATOM     81  O   UNL A   1      40.916  18.788  25.761  1.00  0.00    -0.744 OA
ENDBRANCH  77  78
ENDBRANCH  49  72
BRANCH  61  82
ATOM     82  C   UNL A   1      49.494  26.614  26.470  1.00  0.00    -0.014 A 
ATOM     83  C   UNL A   1      50.313  25.916  27.374  1.00  0.00     0.010 A 
ATOM     84  C   UNL A   1      49.966  26.874  25.171  1.00  0.00     0.010 A 
ATOM     85  C   UNL A   1      51.594  25.509  26.994  1.00  0.00     0.020 A 
ATOM     86  C   UNL A   1      51.237  26.448  24.779  1.00  0.00     0.020 A 
ATOM     87  C   UNL A   1      52.048  25.778  25.698  1.00  0.00     0.054 A 
BRANCH  87  88
ATOM     88  S   UNL A   1      53.696  25.199  25.211  1.00  0.00     0.124 S 
ATOM     89  O   UNL A   1      54.564  25.980  26.087  1.00  0.00    -0.237 OA
ATOM     90  O   UNL A   1      53.633  23.769  25.502  1.00  0.00    -0.237 OA
ATOM     91  O   UNL A   1      53.775  25.536  23.792  1.00  0.00    -0.744 OA
ENDBRANCH  87  88
ENDBRANCH  61  82
ENDBRANCH  35  36
ENDBRANCH  28  30
ENDBRANCH  27  28
ENDBRANCH  26  27
ENDBRANCH   1  26
TORSDOF 17
ENDMDL
MODEL 2
REMARK VINA RESULT:     -11.8      2.210      8.076
REMARK SMILES CSc1ccc(/C=C2\C(C)=C(CC(=O)OCCOC(=O)c3ccc(-c4c5nc(c(-c6ccc(S(=O)(=O)[O-])cc6)c6ccc([nH]6)c(-c6ccc(S(=O)(=O)[O-])cc6)c6nc(c(-c7ccc(S(=O)(=O)[O-])cc7)c7ccc4[nH]7)C=C6)C=C5)cc3)c3cc(F)ccc32)cc1
REMARK SMILES IDX 16 1 15 2 13 3 14 4 12 5 11 6 7 7 8 8 9 9 87 10 10 11 81 12
REMARK SMILES IDX 86 13 82 14 85 15 83 16 84 17 6 18 3 19 4 20 89 21 5 22
REMARK SMILES IDX 88 23 2 24 1 25 17 26 18 27 19 28 20 29 21 30 22 31 80 32
REMARK SMILES IDX 23 33 79 34 24 35 25 36 26 37 73 38 27 39 78 40 72 41 74 42
REMARK SMILES IDX 28 43 77 44 71 45 70 46 29 48 59 49 40 50 58 51 41 52 44 53
REMARK SMILES IDX 57 54 75 55 42 56 43 57 56 59 76 60 45 61 30 62 31 63 39 64
REMARK SMILES IDX 32 65 38 66 33 67 34 68 35 69 36 70 37 71 60 72 61 73 69 74
REMARK SMILES IDX 62 75 68 76 63 77 64 78 65 79 66 80 67 81 46 82 47 83 55 84
REMARK SMILES IDX 48 85 54 86 49 87 50 88 51 89 52 90 53 91
REMARK H PARENT 74 47 44 58
REMARK Flexibility Score: inf
ROOT
ATOM      1  C   UNL A   1      37.903  21.318  25.575  1.00  0.00     0.274 C 
ENDROOT
BRANCH   1   2
ATOM      2  O   UNL A   1      37.678  22.621  24.990  1.00  0.00    -0.462 OA
BRANCH   2   3
ATOM      3  C   UNL A   1      37.407  23.607  25.887  1.00  0.00     0.310 C 
ATOM      4  O   UNL A   1      38.252  24.373  26.346  1.00  0.00    -0.252 OA
BRANCH   3   5
ATOM      5  C   UNL A   1      35.925  23.737  26.216  1.00  0.00     0.159 C 
BRANCH   5   6
ATOM      6  C   UNL A   1      34.938  24.171  25.111  1.00  0.00    -0.025 C 
ATOM      7  C   UNL A   1      33.045  21.323  25.517  1.00  0.00     0.017 C 
ATOM      8  C   UNL A   1      33.341  22.611  25.275  1.00  0.00    -0.014 C 
ATOM      9  C   UNL A   1      34.390  23.164  24.377  1.00  0.00    -0.039 C 
ATOM     10  C   UNL A   1      32.730  23.800  25.892  1.00  0.00    -0.010 A 
ATOM     11  C   UNL A   1      33.845  23.452  22.981  1.00  0.00     0.045 C 
ATOM     12  C   UNL A   1      33.685  24.808  25.640  1.00  0.00    -0.011 A 
ATOM     13  C   UNL A   1      31.396  24.095  26.138  1.00  0.00     0.012 A 
ATOM     14  C   UNL A   1      33.286  26.130  25.522  1.00  0.00     0.048 A 
ATOM     15  C   UNL A   1      31.010  25.439  26.074  1.00  0.00     0.040 A 
ATOM     16  C   UNL A   1      31.946  26.431  25.749  1.00  0.00     0.123 A 
ATOM     17  F   UNL A   1      31.523  27.691  25.566  1.00  0.00    -0.207 F 
BRANCH   7  18
ATOM     18  C   UNL A   1      33.407  20.158  24.671  1.00  0.00    -0.025 A 
ATOM     19  C   UNL A   1      34.003  17.444  24.572  1.00  0.00     0.007 A 
ATOM     20  C   UNL A   1      32.732  17.888  24.223  1.00  0.00     0.015 A 
ATOM     21  C   UNL A   1      35.038  18.375  24.687  1.00  0.00     0.015 A 
ATOM     22  C   UNL A   1      32.459  19.251  24.192  1.00  0.00     0.009 A 
ATOM     23  C   UNL A   1      34.740  19.741  24.725  1.00  0.00     0.009 A 
BRANCH  19  24
ATOM     24  S   UNL A   1      34.150  15.762  25.147  1.00  0.00    -0.130 SA
ATOM     25  C   UNL A   1      32.442  15.365  25.537  1.00  0.00     0.091 C 
ENDBRANCH  19  24
ENDBRANCH   7  18
ENDBRANCH   5   6
ENDBRANCH   3   5
ENDBRANCH   2   3
ENDBRANCH   1   2
BRANCH   1  26
ATOM     26  C   UNL A   1      39.370  21.244  26.047  1.00  0.00     0.275 C 
BRANCH  26  27
ATOM     27  O   UNL A   1      40.024  19.941  26.057  1.00  0.00    -0.458 OA
BRANCH  27  28
ATOM     28  C   UNL A   1      41.365  19.918  26.097  1.00  0.00     0.338 C 
ATOM     29  O   UNL A   1      42.067  18.946  25.827  1.00  0.00    -0.246 OA
BRANCH  28  30
ATOM     30  C   UNL A   1      42.052  21.136  26.532  1.00  0.00     0.060 A 
ATOM     31  C   UNL A   1      42.463  21.996  25.496  1.00  0.00     0.016 A 
ATOM     32  C   UNL A   1      42.362  21.433  27.857  1.00  0.00     0.016 A 
ATOM     33  C   UNL A   1      43.162  23.153  25.773  1.00  0.00     0.010 A 
ATOM     34  C   UNL A   1      43.034  22.626  28.141  1.00  0.00     0.010 A 
ATOM     35  C   UNL A   1      43.413  23.496  27.102  1.00  0.00    -0.014 A 
BRANCH  35  36
ATOM     36  C   UNL A   1      43.959  24.838  27.386  1.00  0.00     0.031 A 
ATOM     37  C   UNL A   1      43.081  25.934  27.893  1.00  0.00     0.074 A 
ATOM     38  C   UNL A   1      45.278  25.028  27.197  1.00  0.00     0.049 A 
ATOM     39  N   UNL A   1      43.391  27.181  28.129  1.00  0.00    -0.248 NA
ATOM     40  C   UNL A   1      41.679  25.590  28.174  1.00  0.00     0.031 C 
ATOM     41  C   UNL A   1      46.225  23.995  26.761  1.00  0.00     0.029 A 
ATOM     42  N   UNL A   1      46.053  26.145  27.351  1.00  0.00    -0.354 N 
ATOM     43  C   UNL A   1      42.220  27.783  28.566  1.00  0.00     0.074 A 
ATOM     44  C   UNL A   1      41.191  26.762  28.557  1.00  0.00     0.031 C 
ATOM     45  C   UNL A   1      47.454  24.527  26.692  1.00  0.00     0.029 A 
ATOM     46  C   UNL A   1      47.370  25.946  27.015  1.00  0.00     0.049 A 
ATOM     47  H   UNL A   1      45.702  27.007  27.671  1.00  0.00     0.167 HD
ATOM     48  C   UNL A   1      42.028  29.074  28.931  1.00  0.00     0.031 A 
ATOM     49  C   UNL A   1      48.391  26.817  26.937  1.00  0.00     0.031 A 
ATOM     50  C   UNL A   1      43.065  30.074  28.913  1.00  0.00     0.049 A 
ATOM     51  C   UNL A   1      48.134  28.255  27.274  1.00  0.00     0.074 A 
ATOM     52  C   UNL A   1      42.978  31.412  29.259  1.00  0.00     0.029 A 
ATOM     53  N   UNL A   1      44.378  29.849  28.523  1.00  0.00    -0.354 N 
ATOM     54  N   UNL A   1      47.016  28.817  27.674  1.00  0.00    -0.248 NA
ATOM     55  C   UNL A   1      49.267  29.179  27.148  1.00  0.00     0.031 C 
ATOM     56  C   UNL A   1      44.224  32.005  29.030  1.00  0.00     0.029 A 
ATOM     57  C   UNL A   1      45.105  31.026  28.595  1.00  0.00     0.049 A 
ATOM     58  H   UNL A   1      44.740  28.979  28.236  1.00  0.00     0.167 HD
ATOM     59  C   UNL A   1      47.317  30.158  27.866  1.00  0.00     0.074 A 
ATOM     60  C   UNL A   1      48.723  30.319  27.550  1.00  0.00     0.031 C 
ATOM     61  C   UNL A   1      46.502  31.164  28.268  1.00  0.00     0.031 A 
BRANCH  48  62
ATOM     62  C   UNL A   1      40.635  29.484  29.325  1.00  0.00    -0.014 A 
ATOM     63  C   UNL A   1      39.663  29.797  28.358  1.00  0.00     0.010 A 
ATOM     64  C   UNL A   1      40.286  29.532  30.686  1.00  0.00     0.010 A 
ATOM     65  C   UNL A   1      38.380  30.191  28.748  1.00  0.00     0.020 A 
ATOM     66  C   UNL A   1      38.997  29.902  31.081  1.00  0.00     0.020 A 
ATOM     67  C   UNL A   1      38.057  30.248  30.109  1.00  0.00     0.054 A 
BRANCH  67  68
ATOM     68  S   UNL A   1      36.384  30.758  30.589  1.00  0.00     0.124 S 
ATOM     69  O   UNL A   1      36.109  29.864  31.712  1.00  0.00    -0.237 OA
ATOM     70  O   UNL A   1      36.563  32.165  30.938  1.00  0.00    -0.237 OA
ATOM     71  O   UNL A   1      35.588  30.513  29.390  1.00  0.00    -0.744 OA
ENDBRANCH  67  68
ENDBRANCH  48  62
BRANCH  49  72
ATOM     72  C   UNL A   1      49.727  26.345  26.489  1.00  0.00    -0.014 A 
ATOM     73  C   UNL A   1      50.082  26.385  25.130  1.00  0.00     0.010 A 
ATOM     74  C   UNL A   1      50.672  25.900  27.433  1.00  0.00     0.010 A 
ATOM     75  C   UNL A   1      51.356  25.981  24.723  1.00  0.00     0.020 A 
ATOM     76  C   UNL A   1      51.955  25.522  27.032  1.00  0.00     0.020 A 
ATOM     77  C   UNL A   1      52.286  25.556  25.677  1.00  0.00     0.054 A 
BRANCH  77  78
ATOM     78  S   UNL A   1      53.956  25.100  25.132  1.00  0.00     0.124 S 
ATOM     79  O   UNL A   1      54.081  25.847  23.885  1.00  0.00    -0.237 OA
ATOM     80  O   UNL A   1      54.788  25.568  26.237  1.00  0.00    -0.237 OA
ATOM     81  O   UNL A   1      53.883  23.648  24.989  1.00  0.00    -0.744 OA
ENDBRANCH  77  78
ENDBRANCH  49  72
BRANCH  61  82
ATOM     82  C   UNL A   1      47.126  32.525  28.417  1.00  0.00    -0.014 A 
ATOM     83  C   UNL A   1      47.129  33.444  27.354  1.00  0.00     0.010 A 
ATOM     84  C   UNL A   1      47.677  32.901  29.655  1.00  0.00     0.010 A 
ATOM     85  C   UNL A   1      47.699  34.709  27.519  1.00  0.00     0.020 A 
ATOM     86  C   UNL A   1      48.226  34.173  29.831  1.00  0.00     0.020 A 
ATOM     87  C   UNL A   1      48.245  35.064  28.757  1.00  0.00     0.054 A 
BRANCH  87  88
ATOM     88  S   UNL A   1      48.936  36.728  28.962  1.00  0.00     0.124 S 
ATOM     89  O   UNL A   1      48.544  37.053  30.331  1.00  0.00    -0.237 OA
ATOM     90  O   UNL A   1      50.366  36.511  28.754  1.00  0.00    -0.237 OA
ATOM     91  O   UNL A   1      48.273  37.509  27.921  1.00  0.00    -0.744 OA
ENDBRANCH  87  88
ENDBRANCH  61  82
ENDBRANCH  35  36
ENDBRANCH  28  30
ENDBRANCH  27  28
ENDBRANCH  26  27
ENDBRANCH   1  26
TORSDOF 17
ENDMDL
MODEL 3
REMARK VINA RESULT:     -11.7      2.456      8.388
REMARK SMILES CSc1ccc(/C=C2\C(C)=C(CC(=O)OCCOC(=O)c3ccc(-c4c5nc(c(-c6ccc(S(=O)(=O)[O-])cc6)c6ccc([nH]6)c(-c6ccc(S(=O)(=O)[O-])cc6)c6nc(c(-c7ccc(S(=O)(=O)[O-])cc7)c7ccc4[nH]7)C=C6)C=C5)cc3)c3cc(F)ccc32)cc1
REMARK SMILES IDX 16 1 15 2 13 3 14 4 12 5 11 6 7 7 8 8 9 9 87 10 10 11 81 12
REMARK SMILES IDX 86 13 82 14 85 15 83 16 84 17 6 18 3 19 4 20 89 21 5 22
REMARK SMILES IDX 88 23 2 24 1 25 17 26 18 27 19 28 20 29 21 30 22 31 80 32
REMARK SMILES IDX 23 33 79 34 24 35 25 36 26 37 73 38 27 39 78 40 72 41 74 42
REMARK SMILES IDX 28 43 77 44 71 45 70 46 29 48 59 49 40 50 58 51 41 52 44 53
REMARK SMILES IDX 57 54 75 55 42 56 43 57 56 59 76 60 45 61 30 62 31 63 39 64
REMARK SMILES IDX 32 65 38 66 33 67 34 68 35 69 36 70 37 71 60 72 61 73 69 74
REMARK SMILES IDX 62 75 68 76 63 77 64 78 65 79 66 80 67 81 46 82 47 83 55 84
REMARK SMILES IDX 48 85 54 86 49 87 50 88 51 89 52 90 53 91
REMARK H PARENT 74 47 44 58
REMARK Flexibility Score: inf
ROOT
ATOM      1  C   UNL A   1      37.493  20.679  25.339  1.00  0.00     0.274 C 
ENDROOT
BRANCH   1   2
ATOM      2  O   UNL A   1      37.619  22.097  25.589  1.00  0.00    -0.462 OA
BRANCH   2   3
ATOM      3  C   UNL A   1      36.958  22.890  24.705  1.00  0.00     0.310 C 
ATOM      4  O   UNL A   1      37.007  22.754  23.484  1.00  0.00    -0.252 OA
BRANCH   3   5
ATOM      5  C   UNL A   1      36.067  23.931  25.372  1.00  0.00     0.159 C 
BRANCH   5   6
ATOM      6  C   UNL A   1      34.650  23.531  25.838  1.00  0.00    -0.025 C 
ATOM      7  C   UNL A   1      33.182  25.238  23.232  1.00  0.00     0.017 C 
ATOM      8  C   UNL A   1      33.378  24.282  24.156  1.00  0.00    -0.014 C 
ATOM      9  C   UNL A   1      33.669  24.445  25.606  1.00  0.00    -0.039 C 
ATOM     10  C   UNL A   1      33.411  22.825  23.943  1.00  0.00    -0.010 A 
ATOM     11  C   UNL A   1      32.395  24.422  26.445  1.00  0.00     0.045 C 
ATOM     12  C   UNL A   1      34.081  22.357  25.093  1.00  0.00    -0.011 A 
ATOM     13  C   UNL A   1      32.569  22.011  23.199  1.00  0.00     0.012 A 
ATOM     14  C   UNL A   1      33.825  21.084  25.577  1.00  0.00     0.048 A 
ATOM     15  C   UNL A   1      32.359  20.706  23.662  1.00  0.00     0.040 A 
ATOM     16  C   UNL A   1      32.967  20.267  24.846  1.00  0.00     0.123 A 
ATOM     17  F   UNL A   1      32.646  19.060  25.334  1.00  0.00    -0.207 F 
BRANCH   7  18
ATOM     18  C   UNL A   1      32.814  26.653  23.488  1.00  0.00    -0.025 A 
ATOM     19  C   UNL A   1      32.238  28.606  25.382  1.00  0.00     0.007 A 
ATOM     20  C   UNL A   1      33.500  28.558  24.797  1.00  0.00     0.015 A 
ATOM     21  C   UNL A   1      31.198  27.869  24.810  1.00  0.00     0.015 A 
ATOM     22  C   UNL A   1      33.762  27.634  23.791  1.00  0.00     0.009 A 
ATOM     23  C   UNL A   1      31.486  26.895  23.849  1.00  0.00     0.009 A 
BRANCH  19  24
ATOM     24  S   UNL A   1      32.114  29.360  26.993  1.00  0.00    -0.130 SA
ATOM     25  C   UNL A   1      31.717  31.059  26.564  1.00  0.00     0.091 C 
ENDBRANCH  19  24
ENDBRANCH   7  18
ENDBRANCH   5   6
ENDBRANCH   3   5
ENDBRANCH   2   3
ENDBRANCH   1   2
BRANCH   1  26
ATOM     26  C   UNL A   1      38.909  20.086  25.179  1.00  0.00     0.275 C 
BRANCH  26  27
ATOM     27  O   UNL A   1      39.729  19.931  26.374  1.00  0.00    -0.458 OA
BRANCH  27  28
ATOM     28  C   UNL A   1      41.062  19.931  26.220  1.00  0.00     0.338 C 
ATOM     29  O   UNL A   1      41.729  18.987  25.801  1.00  0.00    -0.246 OA
BRANCH  28  30
ATOM     30  C   UNL A   1      41.791  21.138  26.615  1.00  0.00     0.060 A 
ATOM     31  C   UNL A   1      42.039  22.056  25.578  1.00  0.00     0.016 A 
ATOM     32  C   UNL A   1      42.285  21.372  27.897  1.00  0.00     0.016 A 
ATOM     33  C   UNL A   1      42.757  23.211  25.813  1.00  0.00     0.010 A 
ATOM     34  C   UNL A   1      42.978  22.562  28.144  1.00  0.00     0.010 A 
ATOM     35  C   UNL A   1      43.193  23.491  27.109  1.00  0.00    -0.014 A 
BRANCH  35  36
ATOM     36  C   UNL A   1      43.759  24.826  27.381  1.00  0.00     0.031 A 
ATOM     37  C   UNL A   1      42.897  25.942  27.872  1.00  0.00     0.074 A 
ATOM     38  C   UNL A   1      45.082  24.994  27.199  1.00  0.00     0.049 A 
ATOM     39  N   UNL A   1      43.225  27.186  28.097  1.00  0.00    -0.248 NA
ATOM     40  C   UNL A   1      41.487  25.623  28.149  1.00  0.00     0.031 C 
ATOM     41  C   UNL A   1      46.015  23.940  26.779  1.00  0.00     0.029 A 
ATOM     42  N   UNL A   1      45.874  26.099  27.346  1.00  0.00    -0.354 N 
ATOM     43  C   UNL A   1      42.061  27.812  28.521  1.00  0.00     0.074 A 
ATOM     44  C   UNL A   1      41.017  26.808  28.517  1.00  0.00     0.031 C 
ATOM     45  C   UNL A   1      47.253  24.452  26.711  1.00  0.00     0.029 A 
ATOM     46  C   UNL A   1      47.190  25.875  27.019  1.00  0.00     0.049 A 
ATOM     47  H   UNL A   1      45.536  26.970  27.655  1.00  0.00     0.167 HD
ATOM     48  C   UNL A   1      41.889  29.109  28.872  1.00  0.00     0.031 A 
ATOM     49  C   UNL A   1      48.225  26.729  26.938  1.00  0.00     0.031 A 
ATOM     50  C   UNL A   1      42.942  30.092  28.850  1.00  0.00     0.049 A 
ATOM     51  C   UNL A   1      47.990  28.175  27.259  1.00  0.00     0.074 A 
ATOM     52  C   UNL A   1      42.874  31.435  29.182  1.00  0.00     0.029 A 
ATOM     53  N   UNL A   1      44.253  29.842  28.469  1.00  0.00    -0.354 N 
ATOM     54  N   UNL A   1      46.879  28.758  27.646  1.00  0.00    -0.248 NA
ATOM     55  C   UNL A   1      49.139  29.078  27.129  1.00  0.00     0.031 C 
ATOM     56  C   UNL A   1      44.132  32.005  28.953  1.00  0.00     0.029 A 
ATOM     57  C   UNL A   1      44.999  31.008  28.534  1.00  0.00     0.049 A 
ATOM     58  H   UNL A   1      44.603  28.963  28.193  1.00  0.00     0.167 HD
ATOM     59  C   UNL A   1      47.201  30.096  27.826  1.00  0.00     0.074 A 
ATOM     60  C   UNL A   1      48.611  30.231  27.517  1.00  0.00     0.031 C 
ATOM     61  C   UNL A   1      46.400  31.120  28.213  1.00  0.00     0.031 A 
BRANCH  48  62
ATOM     62  C   UNL A   1      40.501  29.545  29.253  1.00  0.00    -0.014 A 
ATOM     63  C   UNL A   1      39.504  29.748  28.283  1.00  0.00     0.010 A 
ATOM     64  C   UNL A   1      40.181  29.731  30.610  1.00  0.00     0.010 A 
ATOM     65  C   UNL A   1      38.225  30.169  28.660  1.00  0.00     0.020 A 
ATOM     66  C   UNL A   1      38.898  30.129  30.995  1.00  0.00     0.020 A 
ATOM     67  C   UNL A   1      37.933  30.364  30.014  1.00  0.00     0.054 A 
BRANCH  67  68
ATOM     68  S   UNL A   1      36.265  30.907  30.478  1.00  0.00     0.124 S 
ATOM     69  O   UNL A   1      36.489  32.311  30.815  1.00  0.00    -0.237 OA
ATOM     70  O   UNL A   1      35.497  30.670  29.258  1.00  0.00    -0.237 OA
ATOM     71  O   UNL A   1      35.920  30.044  31.605  1.00  0.00    -0.744 OA
ENDBRANCH  67  68
ENDBRANCH  48  62
BRANCH  49  72
ATOM     72  C   UNL A   1      49.556  26.231  26.502  1.00  0.00    -0.014 A 
ATOM     73  C   UNL A   1      49.970  26.368  25.167  1.00  0.00     0.010 A 
ATOM     74  C   UNL A   1      50.438  25.660  27.440  1.00  0.00     0.010 A 
ATOM     75  C   UNL A   1      51.241  25.938  24.776  1.00  0.00     0.020 A 
ATOM     76  C   UNL A   1      51.718  25.254  27.057  1.00  0.00     0.020 A 
ATOM     77  C   UNL A   1      52.108  25.387  25.724  1.00  0.00     0.054 A 
BRANCH  77  78
ATOM     78  S   UNL A   1      53.777  24.896  25.206  1.00  0.00     0.124 S 
ATOM     79  O   UNL A   1      53.930  25.624  23.952  1.00  0.00    -0.237 OA
ATOM     80  O   UNL A   1      54.603  25.365  26.316  1.00  0.00    -0.237 OA
ATOM     81  O   UNL A   1      53.682  23.444  25.082  1.00  0.00    -0.744 OA
ENDBRANCH  77  78
ENDBRANCH  49  72
BRANCH  61  82
ATOM     82  C   UNL A   1      47.045  32.471  28.352  1.00  0.00    -0.014 A 
ATOM     83  C   UNL A   1      47.649  32.868  29.557  1.00  0.00     0.010 A 
ATOM     84  C   UNL A   1      47.083  33.337  27.244  1.00  0.00     0.010 A 
ATOM     85  C   UNL A   1      48.258  34.121  29.660  1.00  0.00     0.020 A 
ATOM     86  C   UNL A   1      47.711  34.581  27.336  1.00  0.00     0.020 A 
ATOM     87  C   UNL A   1      48.284  34.970  28.548  1.00  0.00     0.054 A 
BRANCH  87  88
ATOM     88  S   UNL A   1      49.121  36.573  28.691  1.00  0.00     0.124 S 
ATOM     89  O   UNL A   1      50.471  36.176  29.079  1.00  0.00    -0.237 OA
ATOM     90  O   UNL A   1      48.991  37.125  27.345  1.00  0.00    -0.237 OA
ATOM     91  O   UNL A   1      48.356  37.271  29.721  1.00  0.00    -0.744 OA
ENDBRANCH  87  88
ENDBRANCH  61  82
ENDBRANCH  35  36
ENDBRANCH  28  30
ENDBRANCH  27  28
ENDBRANCH  26  27
ENDBRANCH   1  26
TORSDOF 17
ENDMDL
