MODEL 1
REMARK VINA RESULT:     -14.3      0.000      0.000
REMARK SMILES Cc1ccccc1/C=C1\SC(=O)N(CC(=O)Nc2ccccc2C(=O)OCCOC(=O)c2ccc(-c3c4nc(c(-c5ccc(S(=O)(=O)[O-])cc5)c5ccc([nH]5)c(-c5ccc(S(=O)(=O)[O-])cc5)c5nc(c(-c6ccc(S(=O)(=O)[O-])cc6)c6ccc3[nH]6)C=C5)C=C4)cc2)C1=O
REMARK SMILES IDX 27 1 26 2 24 3 25 4 23 5 18 6 19 7 20 8 22 9 21 10 17 11
REMARK SMILES IDX 15 12 16 13 14 15 13 16 8 17 9 18 10 19 92 20 11 21 93 22
REMARK SMILES IDX 12 23 7 24 1 25 2 26 3 27 4 28 6 29 5 30 28 31 29 32 30 33
REMARK SMILES IDX 31 34 32 35 33 36 91 37 34 38 90 39 35 40 36 41 37 42 84 43
REMARK SMILES IDX 38 44 89 45 83 46 85 47 39 48 88 49 82 50 81 51 40 53 70 54
REMARK SMILES IDX 51 55 69 56 52 57 55 58 68 59 86 60 53 61 54 62 67 64 87 65
REMARK SMILES IDX 56 66 41 67 42 68 50 69 43 70 49 71 44 72 45 73 46 74 47 75
REMARK SMILES IDX 48 76 71 77 72 78 80 79 73 80 79 81 74 82 75 83 76 84 77 85
REMARK SMILES IDX 78 86 57 87 58 88 66 89 59 90 65 91 60 92 61 93 62 94 63 95
REMARK SMILES IDX 64 96
REMARK H PARENT 17 14 85 52 55 63
REMARK Flexibility Score: inf
ROOT
ATOM      1  C   UNL A   1      43.842  28.619  28.193  1.00  0.00     0.275 C 
ENDROOT
BRANCH   1   2
ATOM      2  O   UNL A   1      43.678  27.361  26.566  1.00  0.00    -0.458 OA
BRANCH   2   3
ATOM      3  C   UNL A   1      43.789  26.015  25.736  1.00  0.00     0.340 C 
ATOM      4  O   UNL A   1      43.007  26.024  24.769  1.00  0.00    -0.246 OA
BRANCH   3   5
ATOM      5  C   UNL A   1      44.600  24.540  25.786  1.00  0.00     0.083 A 
ATOM      6  C   UNL A   1      44.698  23.334  26.576  1.00  0.00     0.055 A 
ATOM      7  C   UNL A   1      45.518  22.203  26.184  1.00  0.00     0.027 A 
ATOM      8  C   UNL A   1      46.152  22.120  24.970  1.00  0.00     0.002 A 
ATOM      9  C   UNL A   1      45.345  24.384  24.571  1.00  0.00     0.018 A 
ATOM     10  C   UNL A   1      46.057  23.221  24.157  1.00  0.00     0.001 A 
BRANCH   6  11
ATOM     11  N   UNL A   1      44.028  22.889  27.716  1.00  0.00    -0.324 N 
ATOM     12  C   UNL A   1      42.751  22.535  27.901  1.00  0.00     0.244 C 
ATOM     13  O   UNL A   1      42.560  21.636  28.727  1.00  0.00    -0.273 OA
ATOM     14  H   UNL A   1      44.591  22.825  28.521  1.00  0.00     0.170 HD
BRANCH  12  15
ATOM     15  C   UNL A   1      41.747  23.041  26.909  1.00  0.00     0.230 C 
BRANCH  15  16
ATOM     16  N   UNL A   1      40.226  23.068  26.886  1.00  0.00    -0.259 N 
ATOM     17  C   UNL A   1      36.208  24.237  25.499  1.00  0.00     0.029 C 
ATOM     18  C   UNL A   1      37.285  23.489  25.832  1.00  0.00     0.083 C 
ATOM     19  S   UNL A   1      37.737  21.359  25.359  1.00  0.00    -0.022 SA
ATOM     20  C   UNL A   1      38.841  24.267  26.776  1.00  0.00     0.268 C 
ATOM     21  C   UNL A   1      39.866  21.429  26.240  1.00  0.00     0.294 C 
ATOM     22  O   UNL A   1      38.605  25.416  27.055  1.00  0.00    -0.268 OA
ATOM     23  O   UNL A   1      40.645  20.534  25.928  1.00  0.00    -0.261 OA
BRANCH  17  24
ATOM     24  C   UNL A   1      34.972  24.198  24.666  1.00  0.00    -0.021 A 
ATOM     25  C   UNL A   1      33.775  26.208  25.639  1.00  0.00     0.045 C 
ATOM     26  C   UNL A   1      33.821  24.978  24.791  1.00  0.00    -0.044 A 
ATOM     27  C   UNL A   1      32.656  24.635  24.061  1.00  0.00     0.004 A 
ATOM     28  C   UNL A   1      32.664  23.634  23.091  1.00  0.00     0.000 A 
ATOM     29  C   UNL A   1      34.977  23.271  23.593  1.00  0.00     0.008 A 
ATOM     30  C   UNL A   1      33.854  22.995  22.807  1.00  0.00     0.001 A 
ENDBRANCH  17  24
ENDBRANCH  15  16
ENDBRANCH  12  15
ENDBRANCH   6  11
ENDBRANCH   3   5
ENDBRANCH   2   3
ENDBRANCH   1   2
BRANCH   1  31
ATOM     31  C   UNL A   1      43.796  29.018  30.168  1.00  0.00     0.275 C 
BRANCH  31  32
ATOM     32  O   UNL A   1      44.910  29.728  31.613  1.00  0.00    -0.458 OA
BRANCH  32  33
ATOM     33  C   UNL A   1      45.131  29.343  33.397  1.00  0.00     0.338 C 
ATOM     34  O   UNL A   1      46.147  28.667  33.614  1.00  0.00    -0.246 OA
BRANCH  33  35
ATOM     35  C   UNL A   1      43.975  29.676  34.930  1.00  0.00     0.060 A 
ATOM     36  C   UNL A   1      42.911  28.820  35.337  1.00  0.00     0.016 A 
ATOM     37  C   UNL A   1      43.392  30.949  35.379  1.00  0.00     0.016 A 
ATOM     38  C   UNL A   1      41.380  29.300  35.423  1.00  0.00     0.010 A 
ATOM     39  C   UNL A   1      41.964  31.402  35.680  1.00  0.00     0.010 A 
ATOM     40  C   UNL A   1      40.902  30.642  35.287  1.00  0.00    -0.014 A 
BRANCH  40  41
ATOM     41  C   UNL A   1      39.785  31.307  34.217  1.00  0.00     0.031 A 
ATOM     42  C   UNL A   1      39.054  30.558  33.114  1.00  0.00     0.074 A 
ATOM     43  C   UNL A   1      39.116  32.522  34.314  1.00  0.00     0.049 A 
ATOM     44  N   UNL A   1      39.186  30.853  31.855  1.00  0.00    -0.248 NA
ATOM     45  C   UNL A   1      37.897  29.665  33.325  1.00  0.00     0.031 C 
ATOM     46  C   UNL A   1      38.314  33.366  33.388  1.00  0.00     0.029 A 
ATOM     47  N   UNL A   1      39.085  33.385  35.367  1.00  0.00    -0.354 N 
ATOM     48  C   UNL A   1      38.028  30.458  31.179  1.00  0.00     0.074 A 
ATOM     49  C   UNL A   1      37.347  29.571  32.097  1.00  0.00     0.031 C 
ATOM     50  C   UNL A   1      38.352  34.670  33.782  1.00  0.00     0.029 A 
ATOM     51  C   UNL A   1      39.093  34.733  35.014  1.00  0.00     0.049 A 
ATOM     52  H   UNL A   1      39.058  33.080  36.303  1.00  0.00     0.167 HD
ATOM     53  C   UNL A   1      37.596  31.110  30.041  1.00  0.00     0.031 A 
ATOM     54  C   UNL A   1      40.260  35.382  35.326  1.00  0.00     0.031 A 
ATOM     55  C   UNL A   1      38.268  32.424  29.924  1.00  0.00     0.049 A 
ATOM     56  C   UNL A   1      41.220  35.163  34.103  1.00  0.00     0.074 A 
ATOM     57  C   UNL A   1      37.806  33.735  29.957  1.00  0.00     0.029 A 
ATOM     58  N   UNL A   1      39.646  32.513  30.089  1.00  0.00    -0.354 N 
ATOM     59  N   UNL A   1      40.765  34.712  32.959  1.00  0.00    -0.248 NA
ATOM     60  C   UNL A   1      42.661  35.421  33.987  1.00  0.00     0.031 C 
ATOM     61  C   UNL A   1      38.897  34.576  30.334  1.00  0.00     0.029 A 
ATOM     62  C   UNL A   1      40.025  33.789  30.478  1.00  0.00     0.049 A 
ATOM     63  H   UNL A   1      40.272  31.767  29.947  1.00  0.00     0.167 HD
ATOM     64  C   UNL A   1      41.737  34.557  32.020  1.00  0.00     0.074 A 
ATOM     65  C   UNL A   1      42.917  35.061  32.705  1.00  0.00     0.031 C 
ATOM     66  C   UNL A   1      41.438  34.063  30.775  1.00  0.00     0.031 A 
BRANCH  53  67
ATOM     67  C   UNL A   1      36.393  30.754  29.135  1.00  0.00    -0.014 A 
ATOM     68  C   UNL A   1      35.287  31.642  29.037  1.00  0.00     0.010 A 
ATOM     69  C   UNL A   1      36.326  29.638  28.274  1.00  0.00     0.010 A 
ATOM     70  C   UNL A   1      34.175  31.412  28.200  1.00  0.00     0.020 A 
ATOM     71  C   UNL A   1      35.211  29.391  27.427  1.00  0.00     0.020 A 
ATOM     72  C   UNL A   1      34.135  30.277  27.401  1.00  0.00     0.054 A 
BRANCH  72  73
ATOM     73  S   UNL A   1      32.692  30.011  26.320  1.00  0.00     0.124 S 
ATOM     74  O   UNL A   1      31.978  28.937  27.007  1.00  0.00    -0.237 OA
ATOM     75  O   UNL A   1      32.029  31.312  26.340  1.00  0.00    -0.237 OA
ATOM     76  O   UNL A   1      33.281  29.638  25.036  1.00  0.00    -0.744 OA
ENDBRANCH  72  73
ENDBRANCH  53  67
BRANCH  54  77
ATOM     77  C   UNL A   1      40.505  35.069  36.836  1.00  0.00    -0.014 A 
ATOM     78  C   UNL A   1      41.664  35.547  37.452  1.00  0.00     0.010 A 
ATOM     79  C   UNL A   1      39.448  35.379  37.625  1.00  0.00     0.010 A 
ATOM     80  C   UNL A   1      41.625  36.607  38.521  1.00  0.00     0.020 A 
ATOM     81  C   UNL A   1      39.511  36.652  38.465  1.00  0.00     0.020 A 
ATOM     82  C   UNL A   1      40.407  37.439  39.190  1.00  0.00     0.054 A 
BRANCH  82  83
ATOM     83  S   UNL A   1      40.174  37.995  41.576  1.00  0.00     0.124 S 
ATOM     84  O   UNL A   1      39.323  39.149  41.691  1.00  0.00    -0.237 OA
ATOM     85  O   UNL A   1      39.541  36.944  42.414  1.00  0.00    -0.237 OA
ATOM     86  O   UNL A   1      41.494  38.116  42.183  1.00  0.00    -0.744 OA
ENDBRANCH  82  83
ENDBRANCH  54  77
BRANCH  66  87
ATOM     87  C   UNL A   1      42.386  33.874  29.615  1.00  0.00    -0.014 A 
ATOM     88  C   UNL A   1      42.596  34.789  28.582  1.00  0.00     0.010 A 
ATOM     89  C   UNL A   1      43.160  32.680  29.580  1.00  0.00     0.010 A 
ATOM     90  C   UNL A   1      43.461  34.480  27.520  1.00  0.00     0.020 A 
ATOM     91  C   UNL A   1      44.072  32.394  28.572  1.00  0.00     0.020 A 
ATOM     92  C   UNL A   1      44.182  33.282  27.520  1.00  0.00     0.054 A 
BRANCH  92  93
ATOM     93  S   UNL A   1      45.271  32.892  26.135  1.00  0.00     0.124 S 
ATOM     94  O   UNL A   1      45.755  31.564  26.505  1.00  0.00    -0.237 OA
ATOM     95  O   UNL A   1      44.361  32.936  24.994  1.00  0.00    -0.237 OA
ATOM     96  O   UNL A   1      46.273  33.954  26.169  1.00  0.00    -0.744 OA
ENDBRANCH  92  93
ENDBRANCH  66  87
ENDBRANCH  40  41
ENDBRANCH  33  35
ENDBRANCH  32  33
ENDBRANCH  31  32
ENDBRANCH   1  31
TORSDOF 18
ENDMDL
MODEL 2
REMARK VINA RESULT:     -14.1      7.509     13.720
REMARK SMILES Cc1ccccc1/C=C1\SC(=O)N(CC(=O)Nc2ccccc2C(=O)OCCOC(=O)c2ccc(-c3c4nc(c(-c5ccc(S(=O)(=O)[O-])cc5)c5ccc([nH]5)c(-c5ccc(S(=O)(=O)[O-])cc5)c5nc(c(-c6ccc(S(=O)(=O)[O-])cc6)c6ccc3[nH]6)C=C5)C=C4)cc2)C1=O
REMARK SMILES IDX 27 1 26 2 24 3 25 4 23 5 18 6 19 7 20 8 22 9 21 10 17 11
REMARK SMILES IDX 15 12 16 13 14 15 13 16 8 17 9 18 10 19 92 20 11 21 93 22
REMARK SMILES IDX 12 23 7 24 1 25 2 26 3 27 4 28 6 29 5 30 28 31 29 32 30 33
REMARK SMILES IDX 31 34 32 35 33 36 91 37 34 38 90 39 35 40 36 41 37 42 84 43
REMARK SMILES IDX 38 44 89 45 83 46 85 47 39 48 88 49 82 50 81 51 40 53 70 54
REMARK SMILES IDX 51 55 69 56 52 57 55 58 68 59 86 60 53 61 54 62 67 64 87 65
REMARK SMILES IDX 56 66 41 67 42 68 50 69 43 70 49 71 44 72 45 73 46 74 47 75
REMARK SMILES IDX 48 76 71 77 72 78 80 79 73 80 79 81 74 82 75 83 76 84 77 85
REMARK SMILES IDX 78 86 57 87 58 88 66 89 59 90 65 91 60 92 61 93 62 94 63 95
REMARK SMILES IDX 64 96
REMARK H PARENT 17 14 85 52 55 63
REMARK Flexibility Score: inf
ROOT
ATOM      1  C   UNL A   1      48.503  27.274  34.343  1.00  0.00     0.275 C 
ENDROOT
BRANCH   1   2
ATOM      2  O   UNL A   1      48.793  25.440  35.241  1.00  0.00    -0.458 OA
BRANCH   2   3
ATOM      3  C   UNL A   1      49.076  23.884  35.340  1.00  0.00     0.340 C 
ATOM      4  O   UNL A   1      50.204  23.666  35.814  1.00  0.00    -0.246 OA
BRANCH   3   5
ATOM      5  C   UNL A   1      48.344  22.420  34.946  1.00  0.00     0.083 A 
ATOM      6  C   UNL A   1      48.651  21.021  34.750  1.00  0.00     0.055 A 
ATOM      7  C   UNL A   1      47.634  20.022  34.483  1.00  0.00     0.027 A 
ATOM      8  C   UNL A   1      46.289  20.288  34.537  1.00  0.00     0.002 A 
ATOM      9  C   UNL A   1      46.922  22.609  34.921  1.00  0.00     0.018 A 
ATOM     10  C   UNL A   1      45.934  21.594  34.765  1.00  0.00     0.001 A 
BRANCH   6  11
ATOM     11  N   UNL A   1      49.828  20.282  34.876  1.00  0.00    -0.324 N 
ATOM     12  C   UNL A   1      50.430  19.769  35.955  1.00  0.00     0.244 C 
ATOM     13  O   UNL A   1      51.028  18.702  35.777  1.00  0.00    -0.273 OA
ATOM     14  H   UNL A   1      50.295  20.110  34.027  1.00  0.00     0.170 HD
BRANCH  12  15
ATOM     15  C   UNL A   1      50.081  20.366  37.286  1.00  0.00     0.230 C 
BRANCH  15  16
ATOM     16  N   UNL A   1      49.029  20.034  38.332  1.00  0.00    -0.259 N 
ATOM     17  C   UNL A   1      45.468  18.059  40.024  1.00  0.00     0.029 C 
ATOM     18  C   UNL A   1      46.742  18.479  39.847  1.00  0.00     0.083 C 
ATOM     19  S   UNL A   1      48.621  17.763  40.808  1.00  0.00    -0.022 SA
ATOM     20  C   UNL A   1      47.211  19.840  38.488  1.00  0.00     0.268 C 
ATOM     21  C   UNL A   1      49.999  19.064  39.496  1.00  0.00     0.294 C 
ATOM     22  O   UNL A   1      46.202  20.251  37.971  1.00  0.00    -0.268 OA
ATOM     23  O   UNL A   1      51.190  18.776  39.455  1.00  0.00    -0.261 OA
BRANCH  17  24
ATOM     24  C   UNL A   1      44.673  16.994  40.700  1.00  0.00    -0.021 A 
ATOM     25  C   UNL A   1      43.405  16.112  38.691  1.00  0.00     0.045 C 
ATOM     26  C   UNL A   1      43.658  16.202  40.161  1.00  0.00    -0.044 A 
ATOM     27  C   UNL A   1      42.854  15.410  41.019  1.00  0.00     0.004 A 
ATOM     28  C   UNL A   1      43.145  15.267  42.374  1.00  0.00     0.000 A 
ATOM     29  C   UNL A   1      45.010  16.734  42.052  1.00  0.00     0.008 A 
ATOM     30  C   UNL A   1      44.274  15.879  42.879  1.00  0.00     0.001 A 
ENDBRANCH  17  24
ENDBRANCH  15  16
ENDBRANCH  12  15
ENDBRANCH   6  11
ENDBRANCH   3   5
ENDBRANCH   2   3
ENDBRANCH   1   2
BRANCH   1  31
ATOM     31  C   UNL A   1      47.370  28.669  33.428  1.00  0.00     0.275 C 
BRANCH  31  32
ATOM     32  O   UNL A   1      47.520  30.296  32.350  1.00  0.00    -0.458 OA
BRANCH  32  33
ATOM     33  C   UNL A   1      46.555  31.039  30.973  1.00  0.00     0.338 C 
ATOM     34  O   UNL A   1      45.495  31.551  31.359  1.00  0.00    -0.246 OA
BRANCH  33  35
ATOM     35  C   UNL A   1      46.843  31.008  29.047  1.00  0.00     0.060 A 
ATOM     36  C   UNL A   1      45.844  31.314  28.078  1.00  0.00     0.016 A 
ATOM     37  C   UNL A   1      47.604  30.034  28.249  1.00  0.00     0.016 A 
ATOM     38  C   UNL A   1      45.361  30.273  26.953  1.00  0.00     0.010 A 
ATOM     39  C   UNL A   1      47.258  29.170  27.037  1.00  0.00     0.010 A 
ATOM     40  C   UNL A   1      45.960  29.008  26.653  1.00  0.00    -0.014 A 
BRANCH  40  41
ATOM     41  C   UNL A   1      45.306  27.457  26.647  1.00  0.00     0.031 A 
ATOM     42  C   UNL A   1      43.830  27.114  26.518  1.00  0.00     0.074 A 
ATOM     43  C   UNL A   1      45.961  26.245  26.461  1.00  0.00     0.049 A 
ATOM     44  N   UNL A   1      43.167  26.490  27.446  1.00  0.00    -0.248 NA
ATOM     45  C   UNL A   1      43.068  27.136  25.254  1.00  0.00     0.031 C 
ATOM     46  C   UNL A   1      45.616  24.812  26.661  1.00  0.00     0.029 A 
ATOM     47  N   UNL A   1      47.253  26.036  26.083  1.00  0.00    -0.354 N 
ATOM     48  C   UNL A   1      42.097  25.813  26.854  1.00  0.00     0.074 A 
ATOM     49  C   UNL A   1      41.977  26.392  25.534  1.00  0.00     0.031 C 
ATOM     50  C   UNL A   1      46.745  24.076  26.858  1.00  0.00     0.029 A 
ATOM     51  C   UNL A   1      47.874  24.956  26.709  1.00  0.00     0.049 A 
ATOM     52  H   UNL A   1      47.711  26.602  25.421  1.00  0.00     0.167 HD
ATOM     53  C   UNL A   1      41.586  24.651  27.398  1.00  0.00     0.031 A 
ATOM     54  C   UNL A   1      48.852  25.318  27.599  1.00  0.00     0.031 A 
ATOM     55  C   UNL A   1      42.545  24.083  28.372  1.00  0.00     0.049 A 
ATOM     56  C   UNL A   1      48.125  25.561  28.969  1.00  0.00     0.074 A 
ATOM     57  C   UNL A   1      43.278  22.902  28.408  1.00  0.00     0.029 A 
ATOM     58  N   UNL A   1      43.121  24.904  29.335  1.00  0.00    -0.354 N 
ATOM     59  N   UNL A   1      46.893  25.156  29.162  1.00  0.00    -0.248 NA
ATOM     60  C   UNL A   1      48.630  26.191  30.197  1.00  0.00     0.031 C 
ATOM     61  C   UNL A   1      44.404  23.109  29.262  1.00  0.00     0.029 A 
ATOM     62  C   UNL A   1      44.328  24.388  29.782  1.00  0.00     0.049 A 
ATOM     63  H   UNL A   1      42.723  25.744  29.660  1.00  0.00     0.167 HD
ATOM     64  C   UNL A   1      46.413  25.473  30.394  1.00  0.00     0.074 A 
ATOM     65  C   UNL A   1      47.565  26.091  31.031  1.00  0.00     0.031 C 
ATOM     66  C   UNL A   1      45.126  25.152  30.750  1.00  0.00     0.031 A 
BRANCH  53  67
ATOM     67  C   UNL A   1      40.366  23.830  26.919  1.00  0.00    -0.014 A 
ATOM     68  C   UNL A   1      39.137  24.482  26.627  1.00  0.00     0.010 A 
ATOM     69  C   UNL A   1      40.379  22.450  26.625  1.00  0.00     0.010 A 
ATOM     70  C   UNL A   1      37.994  23.813  26.143  1.00  0.00     0.020 A 
ATOM     71  C   UNL A   1      39.235  21.759  26.139  1.00  0.00     0.020 A 
ATOM     72  C   UNL A   1      38.043  22.445  25.908  1.00  0.00     0.054 A 
BRANCH  72  73
ATOM     73  S   UNL A   1      36.556  21.607  25.270  1.00  0.00     0.124 S 
ATOM     74  O   UNL A   1      36.288  22.339  24.034  1.00  0.00    -0.237 OA
ATOM     75  O   UNL A   1      37.012  20.231  25.094  1.00  0.00    -0.237 OA
ATOM     76  O   UNL A   1      35.566  21.799  26.328  1.00  0.00    -0.744 OA
ENDBRANCH  72  73
ENDBRANCH  53  67
BRANCH  54  77
ATOM     77  C   UNL A   1      49.791  26.276  26.800  1.00  0.00    -0.014 A 
ATOM     78  C   UNL A   1      50.678  27.099  27.498  1.00  0.00     0.010 A 
ATOM     79  C   UNL A   1      50.478  25.653  25.814  1.00  0.00     0.010 A 
ATOM     80  C   UNL A   1      52.170  26.910  27.429  1.00  0.00     0.020 A 
ATOM     81  C   UNL A   1      51.952  25.326  26.043  1.00  0.00     0.020 A 
ATOM     82  C   UNL A   1      53.099  25.829  26.659  1.00  0.00     0.054 A 
BRANCH  82  83
ATOM     83  S   UNL A   1      55.217  26.309  25.501  1.00  0.00     0.124 S 
ATOM     84  O   UNL A   1      56.118  26.922  26.439  1.00  0.00    -0.237 OA
ATOM     85  O   UNL A   1      55.936  25.119  24.974  1.00  0.00    -0.237 OA
ATOM     86  O   UNL A   1      54.951  27.069  24.286  1.00  0.00    -0.744 OA
ENDBRANCH  82  83
ENDBRANCH  54  77
BRANCH  66  87
ATOM     87  C   UNL A   1      44.460  25.392  32.084  1.00  0.00    -0.014 A 
ATOM     88  C   UNL A   1      44.183  26.643  32.639  1.00  0.00     0.010 A 
ATOM     89  C   UNL A   1      44.043  24.254  32.831  1.00  0.00     0.010 A 
ATOM     90  C   UNL A   1      43.611  26.746  33.916  1.00  0.00     0.020 A 
ATOM     91  C   UNL A   1      43.412  24.343  34.064  1.00  0.00     0.020 A 
ATOM     92  C   UNL A   1      43.240  25.596  34.621  1.00  0.00     0.054 A 
BRANCH  92  93
ATOM     93  S   UNL A   1      42.528  25.747  36.271  1.00  0.00     0.124 S 
ATOM     94  O   UNL A   1      43.697  26.116  37.066  1.00  0.00    -0.237 OA
ATOM     95  O   UNL A   1      41.531  26.800  36.091  1.00  0.00    -0.237 OA
ATOM     96  O   UNL A   1      41.983  24.419  36.540  1.00  0.00    -0.744 OA
ENDBRANCH  92  93
ENDBRANCH  66  87
ENDBRANCH  40  41
ENDBRANCH  33  35
ENDBRANCH  32  33
ENDBRANCH  31  32
ENDBRANCH   1  31
TORSDOF 18
ENDMDL
MODEL 3
REMARK VINA RESULT:     -13.7      5.227     10.162
REMARK SMILES Cc1ccccc1/C=C1\SC(=O)N(CC(=O)Nc2ccccc2C(=O)OCCOC(=O)c2ccc(-c3c4nc(c(-c5ccc(S(=O)(=O)[O-])cc5)c5ccc([nH]5)c(-c5ccc(S(=O)(=O)[O-])cc5)c5nc(c(-c6ccc(S(=O)(=O)[O-])cc6)c6ccc3[nH]6)C=C5)C=C4)cc2)C1=O
REMARK SMILES IDX 27 1 26 2 24 3 25 4 23 5 18 6 19 7 20 8 22 9 21 10 17 11
REMARK SMILES IDX 15 12 16 13 14 15 13 16 8 17 9 18 10 19 92 20 11 21 93 22
REMARK SMILES IDX 12 23 7 24 1 25 2 26 3 27 4 28 6 29 5 30 28 31 29 32 30 33
REMARK SMILES IDX 31 34 32 35 33 36 91 37 34 38 90 39 35 40 36 41 37 42 84 43
REMARK SMILES IDX 38 44 89 45 83 46 85 47 39 48 88 49 82 50 81 51 40 53 70 54
REMARK SMILES IDX 51 55 69 56 52 57 55 58 68 59 86 60 53 61 54 62 67 64 87 65
REMARK SMILES IDX 56 66 41 67 42 68 50 69 43 70 49 71 44 72 45 73 46 74 47 75
REMARK SMILES IDX 48 76 71 77 72 78 80 79 73 80 79 81 74 82 75 83 76 84 77 85
REMARK SMILES IDX 78 86 57 87 58 88 66 89 59 90 65 91 60 92 61 93 62 94 63 95
REMARK SMILES IDX 64 96
REMARK H PARENT 17 14 85 52 55 63
REMARK Flexibility Score: inf
ROOT
ATOM      1  C   UNL A   1      34.148  26.504  25.703  1.00  0.00     0.275 C 
ENDROOT
BRANCH   1   2
ATOM      2  O   UNL A   1      35.191  24.832  25.093  1.00  0.00    -0.458 OA
BRANCH   2   3
ATOM      3  C   UNL A   1      35.470  23.482  24.311  1.00  0.00     0.340 C 
ATOM      4  O   UNL A   1      35.330  23.639  23.086  1.00  0.00    -0.246 OA
BRANCH   3   5
ATOM      5  C   UNL A   1      35.844  21.870  24.628  1.00  0.00     0.083 A 
ATOM      6  C   UNL A   1      35.242  20.557  24.655  1.00  0.00     0.055 A 
ATOM      7  C   UNL A   1      36.002  19.349  24.919  1.00  0.00     0.027 A 
ATOM      8  C   UNL A   1      37.370  19.330  25.021  1.00  0.00     0.002 A 
ATOM      9  C   UNL A   1      37.263  21.755  24.807  1.00  0.00     0.018 A 
ATOM     10  C   UNL A   1      38.003  20.546  24.957  1.00  0.00     0.001 A 
BRANCH   6  11
ATOM     11  N   UNL A   1      33.963  20.093  24.345  1.00  0.00    -0.324 N 
ATOM     12  C   UNL A   1      32.773  20.700  24.402  1.00  0.00     0.244 C 
ATOM     13  O   UNL A   1      31.957  20.359  23.538  1.00  0.00    -0.273 OA
ATOM     14  H   UNL A   1      33.932  19.161  24.032  1.00  0.00     0.170 HD
BRANCH  12  15
ATOM     15  C   UNL A   1      32.656  21.903  25.290  1.00  0.00     0.230 C 
BRANCH  15  16
ATOM     16  N   UNL A   1      32.363  23.371  25.023  1.00  0.00    -0.259 N 
ATOM     17  C   UNL A   1      30.289  26.842  23.265  1.00  0.00     0.029 C 
ATOM     18  C   UNL A   1      30.804  25.975  24.166  1.00  0.00     0.083 C 
ATOM     19  S   UNL A   1      30.408  25.793  26.351  1.00  0.00    -0.022 SA
ATOM     20  C   UNL A   1      32.014  24.505  23.623  1.00  0.00     0.268 C 
ATOM     21  C   UNL A   1      31.654  23.869  26.599  1.00  0.00     0.294 C 
ATOM     22  O   UNL A   1      32.253  24.599  22.444  1.00  0.00    -0.268 OA
ATOM     23  O   UNL A   1      31.481  23.202  27.613  1.00  0.00    -0.261 OA
BRANCH  17  24
ATOM     24  C   UNL A   1      29.249  27.901  23.127  1.00  0.00    -0.021 A 
ATOM     25  C   UNL A   1      30.646  29.681  21.988  1.00  0.00     0.045 C 
ATOM     26  C   UNL A   1      29.408  29.215  22.683  1.00  0.00    -0.044 A 
ATOM     27  C   UNL A   1      28.352  30.146  22.847  1.00  0.00     0.004 A 
ATOM     28  C   UNL A   1      27.091  29.755  23.292  1.00  0.00     0.000 A 
ATOM     29  C   UNL A   1      27.926  27.517  23.462  1.00  0.00     0.008 A 
ATOM     30  C   UNL A   1      26.857  28.417  23.535  1.00  0.00     0.001 A 
ENDBRANCH  17  24
ENDBRANCH  15  16
ENDBRANCH  12  15
ENDBRANCH   6  11
ENDBRANCH   3   5
ENDBRANCH   2   3
ENDBRANCH   1   2
BRANCH   1  31
ATOM     31  C   UNL A   1      33.920  28.178  26.802  1.00  0.00     0.275 C 
BRANCH  31  32
ATOM     32  O   UNL A   1      34.892  29.339  28.042  1.00  0.00    -0.458 OA
BRANCH  32  33
ATOM     33  C   UNL A   1      36.614  29.972  28.156  1.00  0.00     0.338 C 
ATOM     34  O   UNL A   1      37.058  30.338  27.058  1.00  0.00    -0.246 OA
BRANCH  33  35
ATOM     35  C   UNL A   1      37.869  30.004  29.645  1.00  0.00     0.060 A 
ATOM     36  C   UNL A   1      38.929  30.947  29.786  1.00  0.00     0.016 A 
ATOM     37  C   UNL A   1      38.518  28.870  30.321  1.00  0.00     0.016 A 
ATOM     38  C   UNL A   1      40.476  30.524  29.874  1.00  0.00     0.010 A 
ATOM     39  C   UNL A   1      39.976  28.520  30.620  1.00  0.00     0.010 A 
ATOM     40  C   UNL A   1      40.988  29.193  30.002  1.00  0.00    -0.014 A 
BRANCH  40  41
ATOM     41  C   UNL A   1      42.059  28.330  29.032  1.00  0.00     0.031 A 
ATOM     42  C   UNL A   1      42.021  26.832  28.777  1.00  0.00     0.074 A 
ATOM     43  C   UNL A   1      42.952  28.820  28.086  1.00  0.00     0.049 A 
ATOM     44  N   UNL A   1      42.987  26.033  29.118  1.00  0.00    -0.248 NA
ATOM     45  C   UNL A   1      41.085  26.159  27.853  1.00  0.00     0.031 C 
ATOM     46  C   UNL A   1      44.112  28.267  27.336  1.00  0.00     0.029 A 
ATOM     47  N   UNL A   1      43.058  30.091  27.606  1.00  0.00    -0.354 N 
ATOM     48  C   UNL A   1      42.964  24.917  28.276  1.00  0.00     0.074 A 
ATOM     49  C   UNL A   1      41.666  24.960  27.639  1.00  0.00     0.031 C 
ATOM     50  C   UNL A   1      44.959  29.268  26.967  1.00  0.00     0.029 A 
ATOM     51  C   UNL A   1      44.364  30.515  27.369  1.00  0.00     0.049 A 
ATOM     52  H   UNL A   1      42.274  30.663  27.441  1.00  0.00     0.167 HD
ATOM     53  C   UNL A   1      44.114  24.216  27.971  1.00  0.00     0.031 A 
ATOM     54  C   UNL A   1      44.802  31.478  28.241  1.00  0.00     0.031 A 
ATOM     55  C   UNL A   1      45.306  25.025  28.313  1.00  0.00     0.049 A 
ATOM     56  C   UNL A   1      45.388  30.710  29.478  1.00  0.00     0.074 A 
ATOM     57  C   UNL A   1      46.328  25.582  27.554  1.00  0.00     0.029 A 
ATOM     58  N   UNL A   1      45.385  25.650  29.553  1.00  0.00    -0.354 N 
ATOM     59  N   UNL A   1      45.636  29.424  29.420  1.00  0.00    -0.248 NA
ATOM     60  C   UNL A   1      45.770  31.221  30.802  1.00  0.00     0.031 C 
ATOM     61  C   UNL A   1      46.882  26.671  28.292  1.00  0.00     0.029 A 
ATOM     62  C   UNL A   1      46.237  26.743  29.514  1.00  0.00     0.049 A 
ATOM     63  H   UNL A   1      44.900  25.353  30.356  1.00  0.00     0.167 HD
ATOM     64  C   UNL A   1      46.113  28.917  30.589  1.00  0.00     0.074 A 
ATOM     65  C   UNL A   1      46.222  30.104  31.423  1.00  0.00     0.031 C 
ATOM     66  C   UNL A   1      46.395  27.579  30.711  1.00  0.00     0.031 A 
BRANCH  53  67
ATOM     67  C   UNL A   1      44.250  22.925  27.130  1.00  0.00    -0.014 A 
ATOM     68  C   UNL A   1      43.135  22.057  26.971  1.00  0.00     0.010 A 
ATOM     69  C   UNL A   1      45.388  22.558  26.380  1.00  0.00     0.010 A 
ATOM     70  C   UNL A   1      43.164  20.886  26.185  1.00  0.00     0.020 A 
ATOM     71  C   UNL A   1      45.435  21.381  25.585  1.00  0.00     0.020 A 
ATOM     72  C   UNL A   1      44.322  20.545  25.498  1.00  0.00     0.054 A 
BRANCH  72  73
ATOM     73  S   UNL A   1      44.328  19.034  24.479  1.00  0.00     0.124 S 
ATOM     74  O   UNL A   1      45.390  18.242  25.096  1.00  0.00    -0.237 OA
ATOM     75  O   UNL A   1      42.976  18.515  24.663  1.00  0.00    -0.237 OA
ATOM     76  O   UNL A   1      44.625  19.521  23.133  1.00  0.00    -0.744 OA
ENDBRANCH  72  73
ENDBRANCH  53  67
BRANCH  54  77
ATOM     77  C   UNL A   1      43.706  32.588  28.202  1.00  0.00    -0.014 A 
ATOM     78  C   UNL A   1      43.382  33.269  29.378  1.00  0.00     0.010 A 
ATOM     79  C   UNL A   1      43.906  33.504  27.224  1.00  0.00     0.010 A 
ATOM     80  C   UNL A   1      43.693  34.730  29.571  1.00  0.00     0.020 A 
ATOM     81  C   UNL A   1      44.468  34.871  27.607  1.00  0.00     0.020 A 
ATOM     82  C   UNL A   1      44.423  35.825  28.625  1.00  0.00     0.054 A 
BRANCH  82  83
ATOM     83  S   UNL A   1      43.731  38.167  28.326  1.00  0.00     0.124 S 
ATOM     84  O   UNL A   1      44.082  38.577  26.993  1.00  0.00    -0.237 OA
ATOM     85  O   UNL A   1      42.271  38.419  28.451  1.00  0.00    -0.237 OA
ATOM     86  O   UNL A   1      44.275  38.981  29.405  1.00  0.00    -0.744 OA
ENDBRANCH  82  83
ENDBRANCH  54  77
BRANCH  66  87
ATOM     87  C   UNL A   1      46.968  26.872  31.916  1.00  0.00    -0.014 A 
ATOM     88  C   UNL A   1      48.192  26.203  31.957  1.00  0.00     0.010 A 
ATOM     89  C   UNL A   1      46.220  26.914  33.127  1.00  0.00     0.010 A 
ATOM     90  C   UNL A   1      48.598  25.529  33.120  1.00  0.00     0.020 A 
ATOM     91  C   UNL A   1      46.643  26.311  34.304  1.00  0.00     0.020 A 
ATOM     92  C   UNL A   1      47.816  25.580  34.277  1.00  0.00     0.054 A 
BRANCH  92  93
ATOM     93  S   UNL A   1      48.342  24.688  35.754  1.00  0.00     0.124 S 
ATOM     94  O   UNL A   1      47.213  23.788  35.975  1.00  0.00    -0.237 OA
ATOM     95  O   UNL A   1      49.580  24.049  35.315  1.00  0.00    -0.237 OA
ATOM     96  O   UNL A   1      48.509  25.738  36.756  1.00  0.00    -0.744 OA
ENDBRANCH  92  93
ENDBRANCH  66  87
ENDBRANCH  40  41
ENDBRANCH  33  35
ENDBRANCH  32  33
ENDBRANCH  31  32
ENDBRANCH   1  31
TORSDOF 18
ENDMDL
