MODEL 1
REMARK VINA RESULT:     -12.4      0.000      0.000
REMARK SMILES O=C(Cn1cc(/C=C2\SC(N3CCOCC3)=[NH+]C2=O)c2ccccc21)OCCOC(=O)c1ccc(-c2c3nc(c(-c4ccc(S(=O)(=O)[O-])cc4)c4ccc([nH]4)c(-c4ccc(S(=O)(=O)[O-])cc4)c4nc(c(-c5ccc(S(=O)(=O)[O-])cc5)c5ccc2[nH]5)C=C4)C=C3)cc1
REMARK SMILES IDX 28 1 27 2 26 3 2 4 1 5 3 6 4 7 5 8 25 9 6 10 20 11 24 12
REMARK SMILES IDX 21 13 23 14 22 15 7 16 8 17 9 18 18 19 10 20 17 21 19 22
REMARK SMILES IDX 11 23 12 25 16 26 13 27 15 28 14 29 29 30 30 31 31 32 32 33
REMARK SMILES IDX 33 34 91 35 34 36 90 37 35 38 36 39 37 40 84 41 38 42 89 43
REMARK SMILES IDX 83 44 85 45 39 46 88 47 82 48 81 49 40 51 70 52 51 53 69 54
REMARK SMILES IDX 52 55 55 56 68 57 86 58 53 59 54 60 67 62 87 63 56 64 41 65
REMARK SMILES IDX 42 66 50 67 43 68 49 69 44 70 45 71 46 72 47 73 48 74 71 75
REMARK SMILES IDX 72 76 80 77 73 78 79 79 74 80 75 81 76 82 77 83 78 84 57 85
REMARK SMILES IDX 58 86 66 87 59 88 65 89 60 90 61 91 62 92 63 93 64 94
REMARK H PARENT 17 24 85 50 55 61
REMARK Flexibility Score: inf
ROOT
ATOM      1  C   UNL A   1      35.254  31.553  28.644  1.00  0.00     0.275 C 
ENDROOT
BRANCH   1   2
ATOM      2  C   UNL A   1      34.321  30.411  28.179  1.00  0.00     0.274 C 
BRANCH   2   3
ATOM      3  O   UNL A   1      33.794  30.593  26.876  1.00  0.00    -0.461 OA
BRANCH   3   4
ATOM      4  C   UNL A   1      32.802  29.733  26.505  1.00  0.00     0.326 C 
ATOM      5  O   UNL A   1      33.023  28.533  26.567  1.00  0.00    -0.250 OA
BRANCH   4   6
ATOM      6  C   UNL A   1      31.671  30.339  25.737  1.00  0.00     0.244 C 
BRANCH   6   7
ATOM      7  N   UNL A   1      31.087  29.853  24.524  1.00  0.00    -0.336 N 
ATOM      8  C   UNL A   1      31.799  29.128  23.629  1.00  0.00     0.095 A 
ATOM      9  C   UNL A   1      29.984  30.329  23.887  1.00  0.00     0.049 A 
ATOM     10  C   UNL A   1      30.882  28.595  22.771  1.00  0.00     0.001 A 
ATOM     11  C   UNL A   1      29.695  29.346  22.934  1.00  0.00     0.007 A 
ATOM     12  C   UNL A   1      29.191  31.450  24.111  1.00  0.00     0.027 A 
ATOM     13  C   UNL A   1      28.408  29.333  22.397  1.00  0.00     0.011 A 
ATOM     14  C   UNL A   1      27.891  31.368  23.645  1.00  0.00     0.002 A 
ATOM     15  C   UNL A   1      27.494  30.299  22.844  1.00  0.00     0.001 A 
BRANCH  10  16
ATOM     16  C   UNL A   1      31.342  27.546  21.942  1.00  0.00     0.034 C 
ATOM     17  C   UNL A   1      31.358  26.265  22.370  1.00  0.00     0.110 C 
ATOM     18  S   UNL A   1      30.458  25.425  23.544  1.00  0.00     0.006 SA
ATOM     19  C   UNL A   1      32.560  25.492  22.097  1.00  0.00     0.346 C 
ATOM     20  C   UNL A   1      31.912  24.155  23.912  1.00  0.00     0.319 C 
ATOM     21  N   UNL A   1      32.822  24.534  23.067  1.00  0.00    -0.200 N 
ATOM     22  O   UNL A   1      33.247  25.762  21.115  1.00  0.00    -0.240 OA
ATOM     23  N   UNL A   1      31.795  22.758  25.024  1.00  0.00    -0.251 N 
ATOM     24  H   UNL A   1      33.720  24.133  23.115  1.00  0.00     0.316 HD
ATOM     25  C   UNL A   1      32.153  23.212  26.876  1.00  0.00     0.265 C 
ATOM     26  C   UNL A   1      32.365  20.639  24.676  1.00  0.00     0.265 C 
ATOM     27  C   UNL A   1      33.095  22.265  27.933  1.00  0.00     0.206 C 
ATOM     28  C   UNL A   1      33.657  20.105  26.138  1.00  0.00     0.206 C 
ATOM     29  O   UNL A   1      34.002  21.179  27.411  1.00  0.00    -0.373 OA
ENDBRANCH  10  16
ENDBRANCH   6   7
ENDBRANCH   4   6
ENDBRANCH   3   4
ENDBRANCH   2   3
ENDBRANCH   1   2
BRANCH   1  30
ATOM     30  O   UNL A   1      35.844  31.364  29.969  1.00  0.00    -0.458 OA
BRANCH  30  31
ATOM     31  C   UNL A   1      36.642  30.276  30.173  1.00  0.00     0.338 C 
ATOM     32  O   UNL A   1      36.337  29.331  30.882  1.00  0.00    -0.246 OA
BRANCH  31  33
ATOM     33  C   UNL A   1      37.725  30.200  29.119  1.00  0.00     0.060 A 
ATOM     34  C   UNL A   1      37.827  29.275  28.082  1.00  0.00     0.016 A 
ATOM     35  C   UNL A   1      38.861  30.983  29.362  1.00  0.00     0.016 A 
ATOM     36  C   UNL A   1      39.136  28.899  27.658  1.00  0.00     0.010 A 
ATOM     37  C   UNL A   1      40.137  30.601  28.898  1.00  0.00     0.010 A 
ATOM     38  C   UNL A   1      40.326  29.349  28.347  1.00  0.00    -0.014 A 
BRANCH  38  39
ATOM     39  C   UNL A   1      41.732  28.668  28.134  1.00  0.00     0.031 A 
ATOM     40  C   UNL A   1      42.123  28.722  29.887  1.00  0.00     0.074 A 
ATOM     41  C   UNL A   1      42.373  27.900  26.938  1.00  0.00     0.049 A 
ATOM     42  N   UNL A   1      43.045  29.301  30.614  1.00  0.00    -0.248 NA
ATOM     43  C   UNL A   1      41.050  28.234  30.843  1.00  0.00     0.031 C 
ATOM     44  C   UNL A   1      41.993  27.366  25.568  1.00  0.00     0.029 A 
ATOM     45  N   UNL A   1      43.668  27.230  26.747  1.00  0.00    -0.354 N 
ATOM     46  C   UNL A   1      42.858  29.004  31.984  1.00  0.00     0.074 A 
ATOM     47  C   UNL A   1      41.511  28.539  32.062  1.00  0.00     0.031 C 
ATOM     48  C   UNL A   1      42.781  26.283  25.137  1.00  0.00     0.029 A 
ATOM     49  C   UNL A   1      43.912  26.060  26.028  1.00  0.00     0.049 A 
ATOM     50  H   UNL A   1      44.448  27.653  27.174  1.00  0.00     0.167 HD
ATOM     51  C   UNL A   1      43.829  28.966  32.960  1.00  0.00     0.031 A 
ATOM     52  C   UNL A   1      44.877  25.092  26.432  1.00  0.00     0.031 A 
ATOM     53  C   UNL A   1      45.093  29.518  32.559  1.00  0.00     0.049 A 
ATOM     54  C   UNL A   1      45.647  25.543  27.765  1.00  0.00     0.074 A 
ATOM     55  C   UNL A   1      45.689  30.752  32.443  1.00  0.00     0.029 A 
ATOM     56  N   UNL A   1      46.039  28.608  32.140  1.00  0.00    -0.354 N 
ATOM     57  N   UNL A   1      46.613  26.584  28.100  1.00  0.00    -0.248 NA
ATOM     58  C   UNL A   1      44.489  25.163  29.222  1.00  0.00     0.031 C 
ATOM     59  C   UNL A   1      46.885  30.543  31.661  1.00  0.00     0.029 A 
ATOM     60  C   UNL A   1      46.851  29.218  31.216  1.00  0.00     0.049 A 
ATOM     61  H   UNL A   1      46.118  27.677  32.451  1.00  0.00     0.167 HD
ATOM     62  C   UNL A   1      46.305  27.462  29.633  1.00  0.00     0.074 A 
ATOM     63  C   UNL A   1      44.685  26.553  30.411  1.00  0.00     0.031 C 
ATOM     64  C   UNL A   1      47.159  28.506  29.969  1.00  0.00     0.031 A 
BRANCH  51  65
ATOM     65  C   UNL A   1      43.836  28.093  34.241  1.00  0.00    -0.014 A 
ATOM     66  C   UNL A   1      43.921  26.690  34.273  1.00  0.00     0.010 A 
ATOM     67  C   UNL A   1      44.041  28.745  35.492  1.00  0.00     0.010 A 
ATOM     68  C   UNL A   1      44.203  25.984  35.465  1.00  0.00     0.020 A 
ATOM     69  C   UNL A   1      44.370  28.058  36.672  1.00  0.00     0.020 A 
ATOM     70  C   UNL A   1      44.433  26.673  36.656  1.00  0.00     0.054 A 
BRANCH  70  71
ATOM     71  S   UNL A   1      44.806  25.753  38.177  1.00  0.00     0.124 S 
ATOM     72  O   UNL A   1      44.447  24.388  37.801  1.00  0.00    -0.237 OA
ATOM     73  O   UNL A   1      46.232  26.002  38.364  1.00  0.00    -0.237 OA
ATOM     74  O   UNL A   1      43.936  26.367  39.179  1.00  0.00    -0.744 OA
ENDBRANCH  70  71
ENDBRANCH  51  65
BRANCH  52  75
ATOM     75  C   UNL A   1      44.758  23.523  26.387  1.00  0.00    -0.014 A 
ATOM     76  C   UNL A   1      45.893  22.827  25.944  1.00  0.00     0.010 A 
ATOM     77  C   UNL A   1      43.539  22.758  26.345  1.00  0.00     0.010 A 
ATOM     78  C   UNL A   1      45.836  21.522  25.404  1.00  0.00     0.020 A 
ATOM     79  C   UNL A   1      43.482  21.408  25.845  1.00  0.00     0.020 A 
ATOM     80  C   UNL A   1      44.637  20.819  25.330  1.00  0.00     0.054 A 
BRANCH  80  81
ATOM     81  S   UNL A   1      44.667  19.166  24.526  1.00  0.00     0.124 S 
ATOM     82  O   UNL A   1      44.320  19.493  23.146  1.00  0.00    -0.237 OA
ATOM     83  O   UNL A   1      46.049  18.739  24.731  1.00  0.00    -0.237 OA
ATOM     84  O   UNL A   1      43.668  18.394  25.260  1.00  0.00    -0.744 OA
ENDBRANCH  80  81
ENDBRANCH  52  75
BRANCH  64  85
ATOM     85  C   UNL A   1      47.961  29.185  28.739  1.00  0.00    -0.014 A 
ATOM     86  C   UNL A   1      49.344  29.008  28.589  1.00  0.00     0.010 A 
ATOM     87  C   UNL A   1      47.455  30.243  27.920  1.00  0.00     0.010 A 
ATOM     88  C   UNL A   1      50.154  29.913  27.837  1.00  0.00     0.020 A 
ATOM     89  C   UNL A   1      48.237  31.166  27.189  1.00  0.00     0.020 A 
ATOM     90  C   UNL A   1      49.603  31.022  27.190  1.00  0.00     0.054 A 
BRANCH  90  91
ATOM     91  S   UNL A   1      50.664  32.314  26.473  1.00  0.00     0.124 S 
ATOM     92  O   UNL A   1      49.799  33.493  26.482  1.00  0.00    -0.237 OA
ATOM     93  O   UNL A   1      51.786  32.354  27.408  1.00  0.00    -0.237 OA
ATOM     94  O   UNL A   1      50.996  31.820  25.136  1.00  0.00    -0.744 OA
ENDBRANCH  90  91
ENDBRANCH  64  85
ENDBRANCH  38  39
ENDBRANCH  31  33
ENDBRANCH  30  31
ENDBRANCH   1  30
TORSDOF 16
ENDMDL
MODEL 2
REMARK VINA RESULT:     -12.3      3.465      7.763
REMARK SMILES O=C(Cn1cc(/C=C2\SC(N3CCOCC3)=[NH+]C2=O)c2ccccc21)OCCOC(=O)c1ccc(-c2c3nc(c(-c4ccc(S(=O)(=O)[O-])cc4)c4ccc([nH]4)c(-c4ccc(S(=O)(=O)[O-])cc4)c4nc(c(-c5ccc(S(=O)(=O)[O-])cc5)c5ccc2[nH]5)C=C4)C=C3)cc1
REMARK SMILES IDX 28 1 27 2 26 3 2 4 1 5 3 6 4 7 5 8 25 9 6 10 20 11 24 12
REMARK SMILES IDX 21 13 23 14 22 15 7 16 8 17 9 18 18 19 10 20 17 21 19 22
REMARK SMILES IDX 11 23 12 25 16 26 13 27 15 28 14 29 29 30 30 31 31 32 32 33
REMARK SMILES IDX 33 34 91 35 34 36 90 37 35 38 36 39 37 40 84 41 38 42 89 43
REMARK SMILES IDX 83 44 85 45 39 46 88 47 82 48 81 49 40 51 70 52 51 53 69 54
REMARK SMILES IDX 52 55 55 56 68 57 86 58 53 59 54 60 67 62 87 63 56 64 41 65
REMARK SMILES IDX 42 66 50 67 43 68 49 69 44 70 45 71 46 72 47 73 48 74 71 75
REMARK SMILES IDX 72 76 80 77 73 78 79 79 74 80 75 81 76 82 77 83 78 84 57 85
REMARK SMILES IDX 58 86 66 87 59 88 65 89 60 90 61 91 62 92 63 93 64 94
REMARK H PARENT 17 24 85 50 55 61
REMARK Flexibility Score: inf
ROOT
ATOM      1  C   UNL A   1      39.630  19.275  25.769  1.00  0.00     0.275 C 
ENDROOT
BRANCH   1   2
ATOM      2  C   UNL A   1      38.352  19.752  25.042  1.00  0.00     0.274 C 
BRANCH   2   3
ATOM      3  O   UNL A   1      38.218  21.162  24.980  1.00  0.00    -0.461 OA
BRANCH   3   4
ATOM      4  C   UNL A   1      36.969  21.634  24.703  1.00  0.00     0.326 C 
ATOM      5  O   UNL A   1      36.853  22.496  23.844  1.00  0.00    -0.250 OA
BRANCH   4   6
ATOM      6  C   UNL A   1      35.911  21.304  25.707  1.00  0.00     0.244 C 
BRANCH   6   7
ATOM      7  N   UNL A   1      34.556  20.926  25.447  1.00  0.00    -0.336 N 
ATOM      8  C   UNL A   1      33.514  21.533  26.065  1.00  0.00     0.095 A 
ATOM      9  C   UNL A   1      34.107  19.746  24.943  1.00  0.00     0.049 A 
ATOM     10  C   UNL A   1      32.400  21.143  25.380  1.00  0.00     0.001 A 
ATOM     11  C   UNL A   1      32.765  19.999  24.635  1.00  0.00     0.007 A 
ATOM     12  C   UNL A   1      34.756  18.548  24.659  1.00  0.00     0.027 A 
ATOM     13  C   UNL A   1      32.140  19.132  23.739  1.00  0.00     0.011 A 
ATOM     14  C   UNL A   1      34.155  17.753  23.699  1.00  0.00     0.002 A 
ATOM     15  C   UNL A   1      32.889  18.071  23.210  1.00  0.00     0.001 A 
BRANCH  10  16
ATOM     16  C   UNL A   1      31.225  21.890  25.629  1.00  0.00     0.034 C 
ATOM     17  C   UNL A   1      31.192  23.229  25.463  1.00  0.00     0.110 C 
ATOM     18  S   UNL A   1      32.097  24.300  24.500  1.00  0.00     0.006 SA
ATOM     19  C   UNL A   1      30.557  24.009  26.514  1.00  0.00     0.346 C 
ATOM     20  C   UNL A   1      31.870  25.797  25.752  1.00  0.00     0.319 C 
ATOM     21  N   UNL A   1      31.116  25.271  26.669  1.00  0.00    -0.200 N 
ATOM     22  O   UNL A   1      29.660  23.508  27.188  1.00  0.00    -0.240 OA
ATOM     23  N   UNL A   1      32.452  27.466  25.469  1.00  0.00    -0.251 N 
ATOM     24  H   UNL A   1      30.936  25.777  27.493  1.00  0.00     0.316 HD
ATOM     25  C   UNL A   1      34.303  27.736  25.983  1.00  0.00     0.265 C 
ATOM     26  C   UNL A   1      31.356  29.386  25.681  1.00  0.00     0.265 C 
ATOM     27  C   UNL A   1      34.881  29.106  26.814  1.00  0.00     0.206 C 
ATOM     28  C   UNL A   1      32.416  30.560  26.942  1.00  0.00     0.206 C 
ATOM     29  O   UNL A   1      33.936  30.052  27.512  1.00  0.00    -0.373 OA
ENDBRANCH  10  16
ENDBRANCH   6   7
ENDBRANCH   4   6
ENDBRANCH   3   4
ENDBRANCH   2   3
ENDBRANCH   1   2
BRANCH   1  30
ATOM     30  O   UNL A   1      40.366  20.325  26.473  1.00  0.00    -0.458 OA
BRANCH  30  31
ATOM     31  C   UNL A   1      41.698  20.137  26.707  1.00  0.00     0.338 C 
ATOM     32  O   UNL A   1      42.173  19.104  27.150  1.00  0.00    -0.246 OA
BRANCH  31  33
ATOM     33  C   UNL A   1      42.522  21.179  25.981  1.00  0.00     0.060 A 
ATOM     34  C   UNL A   1      43.829  21.044  25.519  1.00  0.00     0.016 A 
ATOM     35  C   UNL A   1      42.003  22.479  25.999  1.00  0.00     0.016 A 
ATOM     36  C   UNL A   1      44.652  22.210  25.516  1.00  0.00     0.010 A 
ATOM     37  C   UNL A   1      42.842  23.612  25.959  1.00  0.00     0.010 A 
ATOM     38  C   UNL A   1      44.209  23.464  26.086  1.00  0.00    -0.014 A 
BRANCH  38  39
ATOM     39  C   UNL A   1      45.209  24.636  26.422  1.00  0.00     0.031 A 
ATOM     40  C   UNL A   1      44.811  24.591  28.174  1.00  0.00     0.074 A 
ATOM     41  C   UNL A   1      46.368  25.310  25.627  1.00  0.00     0.049 A 
ATOM     42  N   UNL A   1      44.284  25.432  29.028  1.00  0.00    -0.248 NA
ATOM     43  C   UNL A   1      44.804  23.227  28.840  1.00  0.00     0.031 C 
ATOM     44  C   UNL A   1      47.128  25.140  24.322  1.00  0.00     0.029 A 
ATOM     45  N   UNL A   1      47.328  26.376  25.949  1.00  0.00    -0.354 N 
ATOM     46  C   UNL A   1      44.187  24.845  30.310  1.00  0.00     0.074 A 
ATOM     47  C   UNL A   1      44.316  23.445  30.067  1.00  0.00     0.031 C 
ATOM     48  C   UNL A   1      48.428  25.679  24.342  1.00  0.00     0.029 A 
ATOM     49  C   UNL A   1      48.663  26.454  25.554  1.00  0.00     0.049 A 
ATOM     50  H   UNL A   1      46.992  27.115  26.506  1.00  0.00     0.167 HD
ATOM     51  C   UNL A   1      44.193  25.501  31.521  1.00  0.00     0.031 A 
ATOM     52  C   UNL A   1      49.686  26.988  26.390  1.00  0.00     0.031 A 
ATOM     53  C   UNL A   1      44.042  26.927  31.422  1.00  0.00     0.049 A 
ATOM     54  C   UNL A   1      49.099  27.506  27.790  1.00  0.00     0.074 A 
ATOM     55  C   UNL A   1      43.034  27.850  31.271  1.00  0.00     0.029 A 
ATOM     56  N   UNL A   1      45.210  27.657  31.470  1.00  0.00    -0.354 N 
ATOM     57  N   UNL A   1      48.241  28.610  28.206  1.00  0.00    -0.248 NA
ATOM     58  C   UNL A   1      48.849  25.971  28.881  1.00  0.00     0.031 C 
ATOM     59  C   UNL A   1      43.682  29.093  30.929  1.00  0.00     0.029 A 
ATOM     60  C   UNL A   1      45.036  28.805  30.735  1.00  0.00     0.049 A 
ATOM     61  H   UNL A   1      46.030  27.399  31.950  1.00  0.00     0.167 HD
ATOM     62  C   UNL A   1      46.968  28.195  29.398  1.00  0.00     0.074 A 
ATOM     63  C   UNL A   1      47.284  26.249  29.809  1.00  0.00     0.031 C 
ATOM     64  C   UNL A   1      46.083  29.196  29.783  1.00  0.00     0.031 A 
BRANCH  51  65
ATOM     65  C   UNL A   1      44.703  24.957  32.880  1.00  0.00    -0.014 A 
ATOM     66  C   UNL A   1      43.989  24.100  33.737  1.00  0.00     0.010 A 
ATOM     67  C   UNL A   1      46.088  25.103  33.180  1.00  0.00     0.010 A 
ATOM     68  C   UNL A   1      44.613  23.425  34.810  1.00  0.00     0.020 A 
ATOM     69  C   UNL A   1      46.729  24.400  34.213  1.00  0.00     0.020 A 
ATOM     70  C   UNL A   1      45.982  23.573  35.037  1.00  0.00     0.054 A 
BRANCH  70  71
ATOM     71  S   UNL A   1      46.772  22.690  36.414  1.00  0.00     0.124 S 
ATOM     72  O   UNL A   1      47.984  22.172  35.785  1.00  0.00    -0.237 OA
ATOM     73  O   UNL A   1      46.973  23.745  37.401  1.00  0.00    -0.237 OA
ATOM     74  O   UNL A   1      45.788  21.674  36.787  1.00  0.00    -0.744 OA
ENDBRANCH  70  71
ENDBRANCH  51  65
BRANCH  52  75
ATOM     75  C   UNL A   1      51.154  26.455  26.590  1.00  0.00    -0.014 A 
ATOM     76  C   UNL A   1      52.141  27.426  26.818  1.00  0.00     0.010 A 
ATOM     77  C   UNL A   1      51.665  25.176  26.169  1.00  0.00     0.010 A 
ATOM     78  C   UNL A   1      53.513  27.207  26.558  1.00  0.00     0.020 A 
ATOM     79  C   UNL A   1      53.069  24.930  25.954  1.00  0.00     0.020 A 
ATOM     80  C   UNL A   1      53.979  25.976  26.106  1.00  0.00     0.054 A 
BRANCH  80  81
ATOM     81  S   UNL A   1      55.770  25.834  25.716  1.00  0.00     0.124 S 
ATOM     82  O   UNL A   1      55.793  26.121  24.285  1.00  0.00    -0.237 OA
ATOM     83  O   UNL A   1      56.362  26.866  26.564  1.00  0.00    -0.237 OA
ATOM     84  O   UNL A   1      56.108  24.463  26.088  1.00  0.00    -0.744 OA
ENDBRANCH  80  81
ENDBRANCH  52  75
BRANCH  64  85
ATOM     85  C   UNL A   1      45.917  30.427  28.746  1.00  0.00    -0.014 A 
ATOM     86  C   UNL A   1      46.435  31.696  29.039  1.00  0.00     0.010 A 
ATOM     87  C   UNL A   1      44.998  30.453  27.650  1.00  0.00     0.010 A 
ATOM     88  C   UNL A   1      45.945  32.885  28.417  1.00  0.00     0.020 A 
ATOM     89  C   UNL A   1      44.479  31.616  27.037  1.00  0.00     0.020 A 
ATOM     90  C   UNL A   1      44.926  32.843  27.462  1.00  0.00     0.054 A 
BRANCH  90  91
ATOM     91  S   UNL A   1      44.119  34.367  26.881  1.00  0.00     0.124 S 
ATOM     92  O   UNL A   1      43.568  33.974  25.585  1.00  0.00    -0.237 OA
ATOM     93  O   UNL A   1      43.133  34.619  27.929  1.00  0.00    -0.237 OA
ATOM     94  O   UNL A   1      45.199  35.351  26.804  1.00  0.00    -0.744 OA
ENDBRANCH  90  91
ENDBRANCH  64  85
ENDBRANCH  38  39
ENDBRANCH  31  33
ENDBRANCH  30  31
ENDBRANCH   1  30
TORSDOF 16
ENDMDL
MODEL 3
REMARK VINA RESULT:     -12.1      5.232     11.016
REMARK SMILES O=C(Cn1cc(/C=C2\SC(N3CCOCC3)=[NH+]C2=O)c2ccccc21)OCCOC(=O)c1ccc(-c2c3nc(c(-c4ccc(S(=O)(=O)[O-])cc4)c4ccc([nH]4)c(-c4ccc(S(=O)(=O)[O-])cc4)c4nc(c(-c5ccc(S(=O)(=O)[O-])cc5)c5ccc2[nH]5)C=C4)C=C3)cc1
REMARK SMILES IDX 28 1 27 2 26 3 2 4 1 5 3 6 4 7 5 8 25 9 6 10 20 11 24 12
REMARK SMILES IDX 21 13 23 14 22 15 7 16 8 17 9 18 18 19 10 20 17 21 19 22
REMARK SMILES IDX 11 23 12 25 16 26 13 27 15 28 14 29 29 30 30 31 31 32 32 33
REMARK SMILES IDX 33 34 91 35 34 36 90 37 35 38 36 39 37 40 84 41 38 42 89 43
REMARK SMILES IDX 83 44 85 45 39 46 88 47 82 48 81 49 40 51 70 52 51 53 69 54
REMARK SMILES IDX 52 55 55 56 68 57 86 58 53 59 54 60 67 62 87 63 56 64 41 65
REMARK SMILES IDX 42 66 50 67 43 68 49 69 44 70 45 71 46 72 47 73 48 74 71 75
REMARK SMILES IDX 72 76 80 77 73 78 79 79 74 80 75 81 76 82 77 83 78 84 57 85
REMARK SMILES IDX 58 86 66 87 59 88 65 89 60 90 61 91 62 92 63 93 64 94
REMARK H PARENT 17 24 85 50 55 61
REMARK Flexibility Score: inf
ROOT
ATOM      1  C   UNL A   1      35.085  31.189  27.762  1.00  0.00     0.275 C 
ENDROOT
BRANCH   1   2
ATOM      2  C   UNL A   1      33.901  30.659  26.920  1.00  0.00     0.274 C 
BRANCH   2   3
ATOM      3  O   UNL A   1      33.076  29.733  27.606  1.00  0.00    -0.461 OA
BRANCH   3   4
ATOM      4  C   UNL A   1      31.907  29.399  26.988  1.00  0.00     0.326 C 
ATOM      5  O   UNL A   1      31.409  28.311  27.241  1.00  0.00    -0.250 OA
BRANCH   4   6
ATOM      6  C   UNL A   1      31.531  30.240  25.811  1.00  0.00     0.244 C 
BRANCH   6   7
ATOM      7  N   UNL A   1      30.995  29.794  24.561  1.00  0.00    -0.336 N 
ATOM      8  C   UNL A   1      31.732  29.067  23.687  1.00  0.00     0.095 A 
ATOM      9  C   UNL A   1      29.938  30.311  23.881  1.00  0.00     0.049 A 
ATOM     10  C   UNL A   1      30.845  28.576  22.774  1.00  0.00     0.001 A 
ATOM     11  C   UNL A   1      29.671  29.354  22.894  1.00  0.00     0.007 A 
ATOM     12  C   UNL A   1      29.163  31.448  24.089  1.00  0.00     0.027 A 
ATOM     13  C   UNL A   1      28.411  29.386  22.296  1.00  0.00     0.011 A 
ATOM     14  C   UNL A   1      27.886  31.409  23.559  1.00  0.00     0.002 A 
ATOM     15  C   UNL A   1      27.502  30.366  22.718  1.00  0.00     0.001 A 
BRANCH  10  16
ATOM     16  C   UNL A   1      31.318  27.531  21.947  1.00  0.00     0.034 C 
ATOM     17  C   UNL A   1      31.341  26.251  22.373  1.00  0.00     0.110 C 
ATOM     18  S   UNL A   1      30.440  25.402  23.540  1.00  0.00     0.006 SA
ATOM     19  C   UNL A   1      32.551  25.487  22.107  1.00  0.00     0.346 C 
ATOM     20  C   UNL A   1      31.902  24.143  23.917  1.00  0.00     0.319 C 
ATOM     21  N   UNL A   1      32.814  24.530  23.078  1.00  0.00    -0.200 N 
ATOM     22  O   UNL A   1      33.242  25.763  21.130  1.00  0.00    -0.240 OA
ATOM     23  N   UNL A   1      31.787  22.743  25.025  1.00  0.00    -0.251 N 
ATOM     24  H   UNL A   1      33.715  24.136  23.131  1.00  0.00     0.316 HD
ATOM     25  C   UNL A   1      32.130  23.197  26.880  1.00  0.00     0.265 C 
ATOM     26  C   UNL A   1      32.376  20.629  24.679  1.00  0.00     0.265 C 
ATOM     27  C   UNL A   1      33.072  22.257  27.943  1.00  0.00     0.206 C 
ATOM     28  C   UNL A   1      33.663  20.103  26.149  1.00  0.00     0.206 C 
ATOM     29  O   UNL A   1      33.991  21.178  27.425  1.00  0.00    -0.373 OA
ENDBRANCH  10  16
ENDBRANCH   6   7
ENDBRANCH   4   6
ENDBRANCH   3   4
ENDBRANCH   2   3
ENDBRANCH   1   2
BRANCH   1  30
ATOM     30  O   UNL A   1      35.267  32.640  27.722  1.00  0.00    -0.458 OA
BRANCH  30  31
ATOM     31  C   UNL A   1      34.391  33.422  28.418  1.00  0.00     0.338 C 
ATOM     32  O   UNL A   1      33.367  33.887  27.944  1.00  0.00    -0.246 OA
BRANCH  31  33
ATOM     33  C   UNL A   1      34.625  33.294  29.908  1.00  0.00     0.060 A 
ATOM     34  C   UNL A   1      34.640  34.322  30.848  1.00  0.00     0.016 A 
ATOM     35  C   UNL A   1      35.117  32.056  30.338  1.00  0.00     0.016 A 
ATOM     36  C   UNL A   1      35.509  34.178  31.970  1.00  0.00     0.010 A 
ATOM     37  C   UNL A   1      35.946  31.942  31.474  1.00  0.00     0.010 A 
ATOM     38  C   UNL A   1      36.442  33.078  32.084  1.00  0.00    -0.014 A 
BRANCH  38  39
ATOM     39  C   UNL A   1      37.643  33.094  33.105  1.00  0.00     0.031 A 
ATOM     40  C   UNL A   1      38.844  33.466  31.820  1.00  0.00     0.074 A 
ATOM     41  C   UNL A   1      37.719  33.150  34.661  1.00  0.00     0.049 A 
ATOM     42  N   UNL A   1      39.893  32.857  31.327  1.00  0.00    -0.248 NA
ATOM     43  C   UNL A   1      38.496  34.589  30.861  1.00  0.00     0.031 C 
ATOM     44  C   UNL A   1      36.801  33.317  35.859  1.00  0.00     0.029 A 
ATOM     45  N   UNL A   1      38.836  33.204  35.616  1.00  0.00    -0.354 N 
ATOM     46  C   UNL A   1      40.471  33.623  30.289  1.00  0.00     0.074 A 
ATOM     47  C   UNL A   1      39.445  34.544  29.919  1.00  0.00     0.031 C 
ATOM     48  C   UNL A   1      37.437  33.840  37.000  1.00  0.00     0.029 A 
ATOM     49  C   UNL A   1      38.881  33.908  36.818  1.00  0.00     0.049 A 
ATOM     50  H   UNL A   1      39.640  32.687  35.380  1.00  0.00     0.167 HD
ATOM     51  C   UNL A   1      41.790  33.616  29.894  1.00  0.00     0.031 A 
ATOM     52  C   UNL A   1      40.067  34.533  37.304  1.00  0.00     0.031 A 
ATOM     53  C   UNL A   1      42.569  32.544  30.450  1.00  0.00     0.049 A 
ATOM     54  C   UNL A   1      41.312  34.286  36.323  1.00  0.00     0.074 A 
ATOM     55  C   UNL A   1      42.807  31.211  30.213  1.00  0.00     0.029 A 
ATOM     56  N   UNL A   1      43.316  32.862  31.563  1.00  0.00    -0.354 N 
ATOM     57  N   UNL A   1      42.123  33.131  35.952  1.00  0.00    -0.248 NA
ATOM     58  C   UNL A   1      41.123  35.506  34.879  1.00  0.00     0.031 C 
ATOM     59  C   UNL A   1      43.466  30.709  31.395  1.00  0.00     0.029 A 
ATOM     60  C   UNL A   1      43.439  31.737  32.342  1.00  0.00     0.049 A 
ATOM     61  H   UNL A   1      43.697  33.747  31.767  1.00  0.00     0.167 HD
ATOM     62  C   UNL A   1      42.480  32.966  34.202  1.00  0.00     0.074 A 
ATOM     63  C   UNL A   1      41.649  34.598  33.367  1.00  0.00     0.031 C 
ATOM     64  C   UNL A   1      43.197  31.849  33.786  1.00  0.00     0.031 A 
BRANCH  51  65
ATOM     65  C   UNL A   1      42.586  34.787  29.262  1.00  0.00    -0.014 A 
ATOM     66  C   UNL A   1      43.025  35.937  29.942  1.00  0.00     0.010 A 
ATOM     67  C   UNL A   1      43.156  34.586  27.971  1.00  0.00     0.010 A 
ATOM     68  C   UNL A   1      43.975  36.820  29.382  1.00  0.00     0.020 A 
ATOM     69  C   UNL A   1      44.137  35.430  27.425  1.00  0.00     0.020 A 
ATOM     70  C   UNL A   1      44.531  36.558  28.129  1.00  0.00     0.054 A 
BRANCH  70  71
ATOM     71  S   UNL A   1      45.760  37.697  27.428  1.00  0.00     0.124 S 
ATOM     72  O   UNL A   1      44.913  38.713  26.810  1.00  0.00    -0.237 OA
ATOM     73  O   UNL A   1      46.509  38.128  28.604  1.00  0.00    -0.237 OA
ATOM     74  O   UNL A   1      46.511  36.864  26.489  1.00  0.00    -0.744 OA
ENDBRANCH  70  71
ENDBRANCH  51  65
BRANCH  52  75
ATOM     75  C   UNL A   1      40.209  35.935  38.006  1.00  0.00    -0.014 A 
ATOM     76  C   UNL A   1      41.483  36.254  38.503  1.00  0.00     0.010 A 
ATOM     77  C   UNL A   1      39.142  36.729  38.557  1.00  0.00     0.010 A 
ATOM     78  C   UNL A   1      41.695  37.199  39.531  1.00  0.00     0.020 A 
ATOM     79  C   UNL A   1      39.358  37.733  39.568  1.00  0.00     0.020 A 
ATOM     80  C   UNL A   1      40.641  37.922  40.082  1.00  0.00     0.054 A 
BRANCH  80  81
ATOM     81  S   UNL A   1      41.023  39.058  41.475  1.00  0.00     0.124 S 
ATOM     82  O   UNL A   1      39.717  39.210  42.112  1.00  0.00    -0.237 OA
ATOM     83  O   UNL A   1      42.002  38.295  42.247  1.00  0.00    -0.237 OA
ATOM     84  O   UNL A   1      41.548  40.256  40.826  1.00  0.00    -0.744 OA
ENDBRANCH  80  81
ENDBRANCH  52  75
BRANCH  64  85
ATOM     85  C   UNL A   1      43.146  30.570  34.774  1.00  0.00    -0.014 A 
ATOM     86  C   UNL A   1      44.017  29.485  34.601  1.00  0.00     0.010 A 
ATOM     87  C   UNL A   1      42.064  30.265  35.660  1.00  0.00     0.010 A 
ATOM     88  C   UNL A   1      43.731  28.184  35.118  1.00  0.00     0.020 A 
ATOM     89  C   UNL A   1      41.746  28.982  36.161  1.00  0.00     0.020 A 
ATOM     90  C   UNL A   1      42.565  27.927  35.845  1.00  0.00     0.054 A 
BRANCH  90  91
ATOM     91  S   UNL A   1      42.073  26.224  36.258  1.00  0.00     0.124 S 
ATOM     92  O   UNL A   1      43.315  25.473  36.088  1.00  0.00    -0.237 OA
ATOM     93  O   UNL A   1      41.606  26.359  37.636  1.00  0.00    -0.237 OA
ATOM     94  O   UNL A   1      41.031  25.895  35.285  1.00  0.00    -0.744 OA
ENDBRANCH  90  91
ENDBRANCH  64  85
ENDBRANCH  38  39
ENDBRANCH  31  33
ENDBRANCH  30  31
ENDBRANCH   1  30
TORSDOF 16
ENDMDL
