MODEL 1
REMARK VINA RESULT:     -10.9      0.000      0.000
REMARK SMILES O=C(CC1CC[NH+](C[C@H]2COc3ccccc3O2)CC1)OCCOC(=O)c1ccc(-c2c3nc(c(-c4ccc(S(=O)(=O)[O-])cc4)c4ccc([nH]4)c(-c4ccc(S(=O)(=O)[O-])cc4)c4nc(c(-c5ccc(S(=O)(=O)[O-])cc5)c5ccc2[nH]5)C=C4)C=C3)cc1
REMARK SMILES IDX 22 1 21 2 2 3 1 4 3 5 4 6 5 7 20 8 6 9 19 10 7 11 8 13 9 14
REMARK SMILES IDX 10 15 18 16 11 17 17 18 12 19 16 20 13 21 15 22 14 23 23 24
REMARK SMILES IDX 24 25 25 26 26 27 27 28 28 29 86 30 29 31 85 32 30 33 31 34
REMARK SMILES IDX 32 35 79 36 33 37 84 38 78 39 80 40 34 41 83 42 77 43 76 44
REMARK SMILES IDX 35 46 65 47 46 48 64 49 47 50 50 51 63 52 81 53 48 54 49 55
REMARK SMILES IDX 62 57 82 58 51 59 36 60 37 61 45 62 38 63 44 64 39 65 40 66
REMARK SMILES IDX 41 67 42 68 43 69 66 70 67 71 75 72 68 73 74 74 69 75 70 76
REMARK SMILES IDX 71 77 72 78 73 79 52 80 53 81 61 82 54 83 60 84 55 85 56 86
REMARK SMILES IDX 57 87 58 88 59 89
REMARK H PARENT 7 12 80 45 50 56
REMARK Flexibility Score: inf
ROOT
ATOM      1  C   UNL A   1      38.085  22.339  25.895  1.00  0.00     0.274 C 
ENDROOT
BRANCH   1   2
ATOM      2  O   UNL A   1      37.425  22.796  24.713  1.00  0.00    -0.462 OA
BRANCH   2   3
ATOM      3  C   UNL A   1      36.068  22.908  24.771  1.00  0.00     0.306 C 
ATOM      4  O   UNL A   1      35.536  23.923  25.211  1.00  0.00    -0.252 OA
BRANCH   3   5
ATOM      5  C   UNL A   1      35.272  21.672  24.387  1.00  0.00     0.126 C 
BRANCH   5   6
ATOM      6  C   UNL A   1      34.430  20.933  25.454  1.00  0.00     0.011 C 
ATOM      7  C   UNL A   1      32.989  20.688  24.973  1.00  0.00     0.066 C 
ATOM      8  C   UNL A   1      34.414  21.475  26.888  1.00  0.00     0.066 C 
ATOM      9  C   UNL A   1      31.979  21.826  25.236  1.00  0.00     0.262 C 
ATOM     10  C   UNL A   1      33.179  22.300  27.307  1.00  0.00     0.262 C 
ATOM     11  N   UNL A   1      32.387  22.848  26.203  1.00  0.00    -0.332 N 
ATOM     12  H   UNL A   1      33.006  23.465  25.675  1.00  0.00     0.348 HD
BRANCH  11  13
ATOM     13  C   UNL A   1      31.281  23.738  26.674  1.00  0.00     0.311 C 
BRANCH  13  14
ATOM     14  C   UNL A   1      31.403  25.184  26.130  1.00  0.00     0.265 C 
ATOM     15  C   UNL A   1      30.408  25.505  25.012  1.00  0.00     0.281 C 
ATOM     16  O   UNL A   1      31.225  26.213  27.137  1.00  0.00    -0.477 OA
ATOM     17  O   UNL A   1      30.856  26.668  24.296  1.00  0.00    -0.486 OA
ATOM     18  C   UNL A   1      31.423  27.449  26.536  1.00  0.00     0.162 A 
ATOM     19  C   UNL A   1      31.306  27.642  25.150  1.00  0.00     0.161 A 
ATOM     20  C   UNL A   1      31.779  28.525  27.346  1.00  0.00     0.050 A 
ATOM     21  C   UNL A   1      31.659  28.858  24.567  1.00  0.00     0.050 A 
ATOM     22  C   UNL A   1      32.086  29.762  26.764  1.00  0.00     0.004 A 
ATOM     23  C   UNL A   1      32.053  29.921  25.376  1.00  0.00     0.004 A 
ENDBRANCH  13  14
ENDBRANCH  11  13
ENDBRANCH   5   6
ENDBRANCH   3   5
ENDBRANCH   2   3
ENDBRANCH   1   2
BRANCH   1  24
ATOM     24  C   UNL A   1      38.922  21.078  25.718  1.00  0.00     0.275 C 
BRANCH  24  25
ATOM     25  O   UNL A   1      39.782  20.828  26.812  1.00  0.00    -0.458 OA
BRANCH  25  26
ATOM     26  C   UNL A   1      40.996  20.415  26.419  1.00  0.00     0.338 C 
ATOM     27  O   UNL A   1      41.283  19.415  25.774  1.00  0.00    -0.246 OA
BRANCH  26  28
ATOM     28  C   UNL A   1      41.892  21.532  26.669  1.00  0.00     0.060 A 
ATOM     29  C   UNL A   1      42.237  21.744  28.001  1.00  0.00     0.016 A 
ATOM     30  C   UNL A   1      42.393  22.325  25.629  1.00  0.00     0.016 A 
ATOM     31  C   UNL A   1      43.000  22.845  28.317  1.00  0.00     0.010 A 
ATOM     32  C   UNL A   1      43.181  23.423  25.949  1.00  0.00     0.010 A 
ATOM     33  C   UNL A   1      43.419  23.716  27.299  1.00  0.00    -0.014 A 
BRANCH  33  34
ATOM     34  C   UNL A   1      43.919  25.032  27.726  1.00  0.00     0.031 A 
ATOM     35  C   UNL A   1      45.371  25.340  27.500  1.00  0.00     0.074 A 
ATOM     36  C   UNL A   1      43.037  25.965  28.114  1.00  0.00     0.049 A 
ATOM     37  N   UNL A   1      45.986  26.489  27.570  1.00  0.00    -0.248 NA
ATOM     38  C   UNL A   1      46.244  24.213  27.125  1.00  0.00     0.031 C 
ATOM     39  C   UNL A   1      41.603  25.739  28.311  1.00  0.00     0.029 A 
ATOM     40  N   UNL A   1      43.209  27.297  28.361  1.00  0.00    -0.354 N 
ATOM     41  C   UNL A   1      47.306  26.226  27.226  1.00  0.00     0.074 A 
ATOM     42  C   UNL A   1      47.421  24.804  27.004  1.00  0.00     0.031 C 
ATOM     43  C   UNL A   1      41.019  26.907  28.618  1.00  0.00     0.029 A 
ATOM     44  C   UNL A   1      42.039  27.950  28.658  1.00  0.00     0.049 A 
ATOM     45  H   UNL A   1      44.085  27.744  28.328  1.00  0.00     0.167 HD
ATOM     46  C   UNL A   1      48.325  27.104  27.083  1.00  0.00     0.031 A 
ATOM     47  C   UNL A   1      41.825  29.251  28.923  1.00  0.00     0.031 A 
ATOM     48  C   UNL A   1      48.188  28.512  27.334  1.00  0.00     0.049 A 
ATOM     49  C   UNL A   1      42.991  30.195  28.823  1.00  0.00     0.074 A 
ATOM     50  C   UNL A   1      49.150  29.501  27.257  1.00  0.00     0.029 A 
ATOM     51  N   UNL A   1      47.004  29.130  27.715  1.00  0.00    -0.354 N 
ATOM     52  N   UNL A   1      44.235  29.937  28.485  1.00  0.00    -0.248 NA
ATOM     53  C   UNL A   1      42.722  31.607  29.117  1.00  0.00     0.031 C 
ATOM     54  C   UNL A   1      48.561  30.709  27.648  1.00  0.00     0.029 A 
ATOM     55  C   UNL A   1      47.216  30.485  27.902  1.00  0.00     0.049 A 
ATOM     56  H   UNL A   1      46.141  28.672  27.835  1.00  0.00     0.167 HD
ATOM     57  C   UNL A   1      44.897  31.160  28.513  1.00  0.00     0.074 A 
ATOM     58  C   UNL A   1      43.903  32.157  28.866  1.00  0.00     0.031 C 
ATOM     59  C   UNL A   1      46.203  31.440  28.278  1.00  0.00     0.031 A 
BRANCH  46  60
ATOM     60  C   UNL A   1      49.665  26.555  26.671  1.00  0.00    -0.014 A 
ATOM     61  C   UNL A   1      50.584  26.077  27.626  1.00  0.00     0.010 A 
ATOM     62  C   UNL A   1      50.005  26.493  25.308  1.00  0.00     0.010 A 
ATOM     63  C   UNL A   1      51.825  25.574  27.227  1.00  0.00     0.020 A 
ATOM     64  C   UNL A   1      51.235  25.965  24.903  1.00  0.00     0.020 A 
ATOM     65  C   UNL A   1      52.142  25.520  25.866  1.00  0.00     0.054 A 
BRANCH  65  66
ATOM     66  S   UNL A   1      53.745  24.827  25.374  1.00  0.00     0.124 S 
ATOM     67  O   UNL A   1      54.088  25.649  24.215  1.00  0.00    -0.237 OA
ATOM     68  O   UNL A   1      54.565  25.044  26.563  1.00  0.00    -0.237 OA
ATOM     69  O   UNL A   1      53.442  23.428  25.075  1.00  0.00    -0.744 OA
ENDBRANCH  65  66
ENDBRANCH  46  60
BRANCH  47  70
ATOM     70  C   UNL A   1      40.470  29.710  29.328  1.00  0.00    -0.014 A 
ATOM     71  C   UNL A   1      39.467  29.977  28.381  1.00  0.00     0.010 A 
ATOM     72  C   UNL A   1      40.177  29.876  30.695  1.00  0.00     0.010 A 
ATOM     73  C   UNL A   1      38.207  30.429  28.792  1.00  0.00     0.020 A 
ATOM     74  C   UNL A   1      38.912  30.293  31.113  1.00  0.00     0.020 A 
ATOM     75  C   UNL A   1      37.940  30.584  30.156  1.00  0.00     0.054 A 
BRANCH  75  76
ATOM     76  S   UNL A   1      36.294  31.144  30.673  1.00  0.00     0.124 S 
ATOM     77  O   UNL A   1      36.574  32.488  31.171  1.00  0.00    -0.237 OA
ATOM     78  O   UNL A   1      35.531  31.076  29.430  1.00  0.00    -0.237 OA
ATOM     79  O   UNL A   1      35.904  30.169  31.690  1.00  0.00    -0.744 OA
ENDBRANCH  75  76
ENDBRANCH  47  70
BRANCH  59  80
ATOM     80  C   UNL A   1      46.613  32.883  28.389  1.00  0.00    -0.014 A 
ATOM     81  C   UNL A   1      46.620  33.726  27.263  1.00  0.00     0.010 A 
ATOM     82  C   UNL A   1      46.984  33.405  29.642  1.00  0.00     0.010 A 
ATOM     83  C   UNL A   1      47.052  35.048  27.376  1.00  0.00     0.020 A 
ATOM     84  C   UNL A   1      47.382  34.737  29.765  1.00  0.00     0.020 A 
ATOM     85  C   UNL A   1      47.438  35.543  28.626  1.00  0.00     0.054 A 
BRANCH  85  86
ATOM     86  S   UNL A   1      47.997  37.261  28.746  1.00  0.00     0.124 S 
ATOM     87  O   UNL A   1      49.449  37.112  28.687  1.00  0.00    -0.237 OA
ATOM     88  O   UNL A   1      47.381  37.882  27.574  1.00  0.00    -0.237 OA
ATOM     89  O   UNL A   1      47.468  37.710  30.031  1.00  0.00    -0.744 OA
ENDBRANCH  85  86
ENDBRANCH  59  80
ENDBRANCH  33  34
ENDBRANCH  26  28
ENDBRANCH  25  26
ENDBRANCH  24  25
ENDBRANCH   1  24
TORSDOF 17
ENDMDL
MODEL 2
REMARK VINA RESULT:     -10.9      2.881      8.040
REMARK SMILES O=C(CC1CC[NH+](C[C@H]2COc3ccccc3O2)CC1)OCCOC(=O)c1ccc(-c2c3nc(c(-c4ccc(S(=O)(=O)[O-])cc4)c4ccc([nH]4)c(-c4ccc(S(=O)(=O)[O-])cc4)c4nc(c(-c5ccc(S(=O)(=O)[O-])cc5)c5ccc2[nH]5)C=C4)C=C3)cc1
REMARK SMILES IDX 22 1 21 2 2 3 1 4 3 5 4 6 5 7 20 8 6 9 19 10 7 11 8 13 9 14
REMARK SMILES IDX 10 15 18 16 11 17 17 18 12 19 16 20 13 21 15 22 14 23 23 24
REMARK SMILES IDX 24 25 25 26 26 27 27 28 28 29 86 30 29 31 85 32 30 33 31 34
REMARK SMILES IDX 32 35 79 36 33 37 84 38 78 39 80 40 34 41 83 42 77 43 76 44
REMARK SMILES IDX 35 46 65 47 46 48 64 49 47 50 50 51 63 52 81 53 48 54 49 55
REMARK SMILES IDX 62 57 82 58 51 59 36 60 37 61 45 62 38 63 44 64 39 65 40 66
REMARK SMILES IDX 41 67 42 68 43 69 66 70 67 71 75 72 68 73 74 74 69 75 70 76
REMARK SMILES IDX 71 77 72 78 73 79 52 80 53 81 61 82 54 83 60 84 55 85 56 86
REMARK SMILES IDX 57 87 58 88 59 89
REMARK H PARENT 7 12 80 45 50 56
REMARK Flexibility Score: inf
ROOT
ATOM      1  C   UNL A   1      31.854  29.361  26.701  1.00  0.00     0.274 C 
ENDROOT
BRANCH   1   2
ATOM      2  O   UNL A   1      32.516  28.271  26.056  1.00  0.00    -0.462 OA
BRANCH   2   3
ATOM      3  C   UNL A   1      32.616  28.331  24.698  1.00  0.00     0.306 C 
ATOM      4  O   UNL A   1      33.682  28.111  24.132  1.00  0.00    -0.252 OA
BRANCH   3   5
ATOM      5  C   UNL A   1      31.380  28.804  23.951  1.00  0.00     0.126 C 
BRANCH   5   6
ATOM      6  C   UNL A   1      30.567  27.807  23.091  1.00  0.00     0.011 C 
ATOM      7  C   UNL A   1      29.563  27.010  23.941  1.00  0.00     0.066 C 
ATOM      8  C   UNL A   1      31.321  26.857  22.151  1.00  0.00     0.066 C 
ATOM      9  C   UNL A   1      30.097  25.719  24.598  1.00  0.00     0.262 C 
ATOM     10  C   UNL A   1      31.513  25.405  22.636  1.00  0.00     0.262 C 
ATOM     11  N   UNL A   1      31.365  25.201  24.078  1.00  0.00    -0.332 N 
ATOM     12  H   UNL A   1      32.078  25.774  24.531  1.00  0.00     0.348 HD
BRANCH  11  13
ATOM     13  C   UNL A   1      31.686  23.801  24.498  1.00  0.00     0.311 C 
BRANCH  13  14
ATOM     14  C   UNL A   1      33.209  23.555  24.651  1.00  0.00     0.265 C 
ATOM     15  C   UNL A   1      33.894  24.530  25.611  1.00  0.00     0.281 C 
ATOM     16  O   UNL A   1      33.550  22.224  25.115  1.00  0.00    -0.477 OA
ATOM     17  O   UNL A   1      35.312  24.513  25.373  1.00  0.00    -0.486 OA
ATOM     18  C   UNL A   1      34.934  22.114  25.144  1.00  0.00     0.162 A 
ATOM     19  C   UNL A   1      35.779  23.236  25.203  1.00  0.00     0.161 A 
ATOM     20  C   UNL A   1      35.495  20.841  25.085  1.00  0.00     0.050 A 
ATOM     21  C   UNL A   1      37.160  23.095  25.079  1.00  0.00     0.050 A 
ATOM     22  C   UNL A   1      36.887  20.697  25.010  1.00  0.00     0.004 A 
ATOM     23  C   UNL A   1      37.716  21.822  24.979  1.00  0.00     0.004 A 
ENDBRANCH  13  14
ENDBRANCH  11  13
ENDBRANCH   5   6
ENDBRANCH   3   5
ENDBRANCH   2   3
ENDBRANCH   1   2
BRANCH   1  24
ATOM     24  C   UNL A   1      32.776  30.449  27.234  1.00  0.00     0.275 C 
BRANCH  24  25
ATOM     25  O   UNL A   1      34.114  30.017  27.380  1.00  0.00    -0.458 OA
BRANCH  25  26
ATOM     26  C   UNL A   1      34.817  30.809  28.203  1.00  0.00     0.338 C 
ATOM     27  O   UNL A   1      34.415  31.747  28.879  1.00  0.00    -0.246 OA
BRANCH  26  28
ATOM     28  C   UNL A   1      36.112  30.166  28.358  1.00  0.00     0.060 A 
ATOM     29  C   UNL A   1      36.379  29.641  29.619  1.00  0.00     0.016 A 
ATOM     30  C   UNL A   1      37.018  30.062  27.295  1.00  0.00     0.016 A 
ATOM     31  C   UNL A   1      37.625  29.110  29.862  1.00  0.00     0.010 A 
ATOM     32  C   UNL A   1      38.267  29.505  27.537  1.00  0.00     0.010 A 
ATOM     33  C   UNL A   1      38.587  29.098  28.840  1.00  0.00    -0.014 A 
BRANCH  33  34
ATOM     34  C   UNL A   1      39.977  28.847  29.250  1.00  0.00     0.031 A 
ATOM     35  C   UNL A   1      40.585  27.520  28.899  1.00  0.00     0.074 A 
ATOM     36  C   UNL A   1      40.701  29.864  29.739  1.00  0.00     0.049 A 
ATOM     37  N   UNL A   1      41.838  27.155  28.939  1.00  0.00    -0.248 NA
ATOM     38  C   UNL A   1      39.669  26.469  28.419  1.00  0.00     0.031 C 
ATOM     39  C   UNL A   1      40.178  31.194  30.060  1.00  0.00     0.029 A 
ATOM     40  N   UNL A   1      42.040  29.953  30.000  1.00  0.00    -0.354 N 
ATOM     41  C   UNL A   1      41.861  25.848  28.469  1.00  0.00     0.074 A 
ATOM     42  C   UNL A   1      40.496  25.459  28.205  1.00  0.00     0.031 C 
ATOM     43  C   UNL A   1      41.195  31.978  30.447  1.00  0.00     0.029 A 
ATOM     44  C   UNL A   1      42.430  31.200  30.418  1.00  0.00     0.049 A 
ATOM     45  H   UNL A   1      42.661  29.197  29.897  1.00  0.00     0.167 HD
ATOM     46  C   UNL A   1      42.934  25.054  28.255  1.00  0.00     0.031 A 
ATOM     47  C   UNL A   1      43.655  31.656  30.731  1.00  0.00     0.031 A 
ATOM     48  C   UNL A   1      44.281  25.459  28.550  1.00  0.00     0.049 A 
ATOM     49  C   UNL A   1      44.825  30.728  30.547  1.00  0.00     0.074 A 
ATOM     50  C   UNL A   1      45.451  24.737  28.408  1.00  0.00     0.029 A 
ATOM     51  N   UNL A   1      44.633  26.704  29.052  1.00  0.00    -0.354 N 
ATOM     52  N   UNL A   1      44.836  29.496  30.091  1.00  0.00    -0.248 NA
ATOM     53  C   UNL A   1      46.147  31.259  30.897  1.00  0.00     0.031 C 
ATOM     54  C   UNL A   1      46.505  25.527  28.880  1.00  0.00     0.029 A 
ATOM     55  C   UNL A   1      46.002  26.765  29.250  1.00  0.00     0.049 A 
ATOM     56  H   UNL A   1      44.003  27.437  29.239  1.00  0.00     0.167 HD
ATOM     57  C   UNL A   1      46.170  29.106  30.087  1.00  0.00     0.074 A 
ATOM     58  C   UNL A   1      46.934  30.249  30.552  1.00  0.00     0.031 C 
ATOM     59  C   UNL A   1      46.721  27.915  29.739  1.00  0.00     0.031 A 
BRANCH  46  60
ATOM     60  C   UNL A   1      42.681  23.673  27.709  1.00  0.00    -0.014 A 
ATOM     61  C   UNL A   1      42.670  23.427  26.323  1.00  0.00     0.010 A 
ATOM     62  C   UNL A   1      42.475  22.600  28.594  1.00  0.00     0.010 A 
ATOM     63  C   UNL A   1      42.430  22.140  25.832  1.00  0.00     0.020 A 
ATOM     64  C   UNL A   1      42.261  21.306  28.107  1.00  0.00     0.020 A 
ATOM     65  C   UNL A   1      42.229  21.087  26.729  1.00  0.00     0.054 A 
BRANCH  65  66
ATOM     66  S   UNL A   1      41.957  19.420  26.065  1.00  0.00     0.124 S 
ATOM     67  O   UNL A   1      42.411  18.577  27.169  1.00  0.00    -0.237 OA
ATOM     68  O   UNL A   1      40.519  19.407  25.814  1.00  0.00    -0.237 OA
ATOM     69  O   UNL A   1      42.797  19.382  24.869  1.00  0.00    -0.744 OA
ENDBRANCH  65  66
ENDBRANCH  46  60
BRANCH  47  70
ATOM     70  C   UNL A   1      43.817  33.033  31.269  1.00  0.00    -0.014 A 
ATOM     71  C   UNL A   1      44.077  34.128  30.429  1.00  0.00     0.010 A 
ATOM     72  C   UNL A   1      43.699  33.252  32.655  1.00  0.00     0.010 A 
ATOM     73  C   UNL A   1      44.246  35.409  30.968  1.00  0.00     0.020 A 
ATOM     74  C   UNL A   1      43.832  34.532  33.194  1.00  0.00     0.020 A 
ATOM     75  C   UNL A   1      44.123  35.601  32.347  1.00  0.00     0.054 A 
BRANCH  75  76
ATOM     76  S   UNL A   1      44.317  37.273  33.026  1.00  0.00     0.124 S 
ATOM     77  O   UNL A   1      43.507  37.202  34.239  1.00  0.00    -0.237 OA
ATOM     78  O   UNL A   1      45.760  37.365  33.232  1.00  0.00    -0.237 OA
ATOM     79  O   UNL A   1      43.790  38.134  31.970  1.00  0.00    -0.744 OA
ENDBRANCH  75  76
ENDBRANCH  47  70
BRANCH  59  80
ATOM     80  C   UNL A   1      48.217  27.808  29.847  1.00  0.00    -0.014 A 
ATOM     81  C   UNL A   1      49.050  28.153  28.767  1.00  0.00     0.010 A 
ATOM     82  C   UNL A   1      48.798  27.369  31.050  1.00  0.00     0.010 A 
ATOM     83  C   UNL A   1      50.433  27.999  28.867  1.00  0.00     0.020 A 
ATOM     84  C   UNL A   1      50.184  27.249  31.167  1.00  0.00     0.020 A 
ATOM     85  C   UNL A   1      50.991  27.540  30.064  1.00  0.00     0.054 A 
BRANCH  85  86
ATOM     86  S   UNL A   1      52.789  27.345  30.169  1.00  0.00     0.124 S 
ATOM     87  O   UNL A   1      53.185  28.565  30.866  1.00  0.00    -0.237 OA
ATOM     88  O   UNL A   1      52.934  26.108  30.933  1.00  0.00    -0.237 OA
ATOM     89  O   UNL A   1      53.210  27.261  28.772  1.00  0.00    -0.744 OA
ENDBRANCH  85  86
ENDBRANCH  59  80
ENDBRANCH  33  34
ENDBRANCH  26  28
ENDBRANCH  25  26
ENDBRANCH  24  25
ENDBRANCH   1  24
TORSDOF 17
ENDMDL
MODEL 3
REMARK VINA RESULT:     -10.7      5.979     11.732
REMARK SMILES O=C(CC1CC[NH+](C[C@H]2COc3ccccc3O2)CC1)OCCOC(=O)c1ccc(-c2c3nc(c(-c4ccc(S(=O)(=O)[O-])cc4)c4ccc([nH]4)c(-c4ccc(S(=O)(=O)[O-])cc4)c4nc(c(-c5ccc(S(=O)(=O)[O-])cc5)c5ccc2[nH]5)C=C4)C=C3)cc1
REMARK SMILES IDX 22 1 21 2 2 3 1 4 3 5 4 6 5 7 20 8 6 9 19 10 7 11 8 13 9 14
REMARK SMILES IDX 10 15 18 16 11 17 17 18 12 19 16 20 13 21 15 22 14 23 23 24
REMARK SMILES IDX 24 25 25 26 26 27 27 28 28 29 86 30 29 31 85 32 30 33 31 34
REMARK SMILES IDX 32 35 79 36 33 37 84 38 78 39 80 40 34 41 83 42 77 43 76 44
REMARK SMILES IDX 35 46 65 47 46 48 64 49 47 50 50 51 63 52 81 53 48 54 49 55
REMARK SMILES IDX 62 57 82 58 51 59 36 60 37 61 45 62 38 63 44 64 39 65 40 66
REMARK SMILES IDX 41 67 42 68 43 69 66 70 67 71 75 72 68 73 74 74 69 75 70 76
REMARK SMILES IDX 71 77 72 78 73 79 52 80 53 81 61 82 54 83 60 84 55 85 56 86
REMARK SMILES IDX 57 87 58 88 59 89
REMARK H PARENT 7 12 80 45 50 56
REMARK Flexibility Score: inf
ROOT
ATOM      1  C   UNL A   1      33.627  30.570  26.828  1.00  0.00     0.274 C 
ENDROOT
BRANCH   1   2
ATOM      2  O   UNL A   1      33.290  29.285  27.356  1.00  0.00    -0.462 OA
BRANCH   2   3
ATOM      3  C   UNL A   1      32.913  28.332  26.457  1.00  0.00     0.306 C 
ATOM      4  O   UNL A   1      33.647  27.385  26.192  1.00  0.00    -0.252 OA
BRANCH   3   5
ATOM      5  C   UNL A   1      31.606  28.580  25.720  1.00  0.00     0.126 C 
BRANCH   5   6
ATOM      6  C   UNL A   1      31.626  28.970  24.223  1.00  0.00     0.011 C 
ATOM      7  C   UNL A   1      30.560  28.204  23.420  1.00  0.00     0.066 C 
ATOM      8  C   UNL A   1      32.962  28.943  23.470  1.00  0.00     0.066 C 
ATOM      9  C   UNL A   1      30.981  26.823  22.873  1.00  0.00     0.262 C 
ATOM     10  C   UNL A   1      33.229  27.719  22.569  1.00  0.00     0.262 C 
ATOM     11  N   UNL A   1      32.417  26.537  22.862  1.00  0.00    -0.332 N 
ATOM     12  H   UNL A   1      32.629  26.264  23.822  1.00  0.00     0.348 HD
BRANCH  11  13
ATOM     13  C   UNL A   1      32.810  25.350  22.039  1.00  0.00     0.311 C 
BRANCH  13  14
ATOM     14  C   UNL A   1      33.452  24.221  22.886  1.00  0.00     0.265 C 
ATOM     15  C   UNL A   1      32.724  22.880  22.772  1.00  0.00     0.281 C 
ATOM     16  O   UNL A   1      34.841  23.955  22.562  1.00  0.00    -0.477 OA
ATOM     17  O   UNL A   1      33.104  22.038  23.874  1.00  0.00    -0.486 OA
ATOM     18  C   UNL A   1      35.311  22.977  23.429  1.00  0.00     0.162 A 
ATOM     19  C   UNL A   1      34.453  22.097  24.110  1.00  0.00     0.161 A 
ATOM     20  C   UNL A   1      36.684  22.894  23.645  1.00  0.00     0.050 A 
ATOM     21  C   UNL A   1      34.948  21.232  25.084  1.00  0.00     0.050 A 
ATOM     22  C   UNL A   1      37.186  21.989  24.590  1.00  0.00     0.004 A 
ATOM     23  C   UNL A   1      36.319  21.180  25.328  1.00  0.00     0.004 A 
ENDBRANCH  13  14
ENDBRANCH  11  13
ENDBRANCH   5   6
ENDBRANCH   3   5
ENDBRANCH   2   3
ENDBRANCH   1   2
BRANCH   1  24
ATOM     24  C   UNL A   1      33.153  31.752  27.663  1.00  0.00     0.275 C 
BRANCH  24  25
ATOM     25  O   UNL A   1      33.914  32.923  27.445  1.00  0.00    -0.458 OA
BRANCH  25  26
ATOM     26  C   UNL A   1      33.744  33.829  28.419  1.00  0.00     0.338 C 
ATOM     27  O   UNL A   1      32.760  34.519  28.648  1.00  0.00    -0.246 OA
BRANCH  26  28
ATOM     28  C   UNL A   1      34.858  33.638  29.332  1.00  0.00     0.060 A 
ATOM     29  C   UNL A   1      36.089  34.117  28.892  1.00  0.00     0.016 A 
ATOM     30  C   UNL A   1      34.694  33.033  30.585  1.00  0.00     0.016 A 
ATOM     31  C   UNL A   1      37.204  33.878  29.664  1.00  0.00     0.010 A 
ATOM     32  C   UNL A   1      35.817  32.813  31.371  1.00  0.00     0.010 A 
ATOM     33  C   UNL A   1      37.076  33.174  30.871  1.00  0.00    -0.014 A 
BRANCH  33  34
ATOM     34  C   UNL A   1      38.318  32.655  31.462  1.00  0.00     0.031 A 
ATOM     35  C   UNL A   1      38.749  33.206  32.791  1.00  0.00     0.074 A 
ATOM     36  C   UNL A   1      38.907  31.589  30.901  1.00  0.00     0.049 A 
ATOM     37  N   UNL A   1      39.658  32.753  33.611  1.00  0.00    -0.248 NA
ATOM     38  C   UNL A   1      38.054  34.414  33.272  1.00  0.00     0.031 C 
ATOM     39  C   UNL A   1      38.508  30.977  29.631  1.00  0.00     0.029 A 
ATOM     40  N   UNL A   1      39.929  30.802  31.351  1.00  0.00    -0.354 N 
ATOM     41  C   UNL A   1      39.625  33.603  34.710  1.00  0.00     0.074 A 
ATOM     42  C   UNL A   1      38.652  34.633  34.431  1.00  0.00     0.031 C 
ATOM     43  C   UNL A   1      39.260  29.886  29.420  1.00  0.00     0.029 A 
ATOM     44  C   UNL A   1      40.200  29.739  30.526  1.00  0.00     0.049 A 
ATOM     45  H   UNL A   1      40.421  30.980  32.185  1.00  0.00     0.167 HD
ATOM     46  C   UNL A   1      40.329  33.513  35.861  1.00  0.00     0.031 A 
ATOM     47  C   UNL A   1      41.105  28.754  30.664  1.00  0.00     0.031 A 
ATOM     48  C   UNL A   1      41.310  32.490  36.101  1.00  0.00     0.049 A 
ATOM     49  C   UNL A   1      41.924  28.716  31.925  1.00  0.00     0.074 A 
ATOM     50  C   UNL A   1      42.113  32.307  37.211  1.00  0.00     0.029 A 
ATOM     51  N   UNL A   1      41.619  31.473  35.207  1.00  0.00    -0.354 N 
ATOM     52  N   UNL A   1      41.876  29.519  32.964  1.00  0.00    -0.248 NA
ATOM     53  C   UNL A   1      42.900  27.628  32.044  1.00  0.00     0.031 C 
ATOM     54  C   UNL A   1      42.950  31.213  36.963  1.00  0.00     0.029 A 
ATOM     55  C   UNL A   1      42.620  30.673  35.728  1.00  0.00     0.049 A 
ATOM     56  H   UNL A   1      41.190  31.341  34.331  1.00  0.00     0.167 HD
ATOM     57  C   UNL A   1      42.809  29.026  33.869  1.00  0.00     0.074 A 
ATOM     58  C   UNL A   1      43.376  27.834  33.264  1.00  0.00     0.031 C 
ATOM     59  C   UNL A   1      43.175  29.509  35.082  1.00  0.00     0.031 A 
BRANCH  46  60
ATOM     60  C   UNL A   1      40.082  34.560  36.914  1.00  0.00    -0.014 A 
ATOM     61  C   UNL A   1      40.831  35.752  36.949  1.00  0.00     0.010 A 
ATOM     62  C   UNL A   1      39.070  34.363  37.870  1.00  0.00     0.010 A 
ATOM     63  C   UNL A   1      40.591  36.712  37.935  1.00  0.00     0.020 A 
ATOM     64  C   UNL A   1      38.809  35.333  38.843  1.00  0.00     0.020 A 
ATOM     65  C   UNL A   1      39.580  36.497  38.875  1.00  0.00     0.054 A 
BRANCH  65  66
ATOM     66  S   UNL A   1      39.265  37.778  40.122  1.00  0.00     0.124 S 
ATOM     67  O   UNL A   1      38.094  38.456  39.570  1.00  0.00    -0.237 OA
ATOM     68  O   UNL A   1      39.026  36.994  41.331  1.00  0.00    -0.237 OA
ATOM     69  O   UNL A   1      40.495  38.568  40.127  1.00  0.00    -0.744 OA
ENDBRANCH  65  66
ENDBRANCH  46  60
BRANCH  47  70
ATOM     70  C   UNL A   1      41.290  27.761  29.573  1.00  0.00    -0.014 A 
ATOM     71  C   UNL A   1      42.381  27.827  28.691  1.00  0.00     0.010 A 
ATOM     72  C   UNL A   1      40.355  26.719  29.421  1.00  0.00     0.010 A 
ATOM     73  C   UNL A   1      42.517  26.890  27.661  1.00  0.00     0.020 A 
ATOM     74  C   UNL A   1      40.503  25.762  28.417  1.00  0.00     0.020 A 
ATOM     75  C   UNL A   1      41.575  25.864  27.531  1.00  0.00     0.054 A 
BRANCH  75  76
ATOM     76  S   UNL A   1      41.780  24.641  26.206  1.00  0.00     0.124 S 
ATOM     77  O   UNL A   1      40.483  23.971  26.209  1.00  0.00    -0.237 OA
ATOM     78  O   UNL A   1      42.059  25.479  25.042  1.00  0.00    -0.237 OA
ATOM     79  O   UNL A   1      42.906  23.828  26.663  1.00  0.00    -0.744 OA
ENDBRANCH  75  76
ENDBRANCH  47  70
BRANCH  59  80
ATOM     80  C   UNL A   1      44.229  28.734  35.826  1.00  0.00    -0.014 A 
ATOM     81  C   UNL A   1      45.596  29.004  35.638  1.00  0.00     0.010 A 
ATOM     82  C   UNL A   1      43.843  27.733  36.736  1.00  0.00     0.010 A 
ATOM     83  C   UNL A   1      46.561  28.242  36.299  1.00  0.00     0.020 A 
ATOM     84  C   UNL A   1      44.805  26.994  37.427  1.00  0.00     0.020 A 
ATOM     85  C   UNL A   1      46.159  27.236  37.183  1.00  0.00     0.054 A 
BRANCH  85  86
ATOM     86  S   UNL A   1      47.430  26.259  38.026  1.00  0.00     0.124 S 
ATOM     87  O   UNL A   1      47.169  24.917  37.514  1.00  0.00    -0.237 OA
ATOM     88  O   UNL A   1      48.670  26.879  37.563  1.00  0.00    -0.237 OA
ATOM     89  O   UNL A   1      47.135  26.454  39.443  1.00  0.00    -0.744 OA
ENDBRANCH  85  86
ENDBRANCH  59  80
ENDBRANCH  33  34
ENDBRANCH  26  28
ENDBRANCH  25  26
ENDBRANCH  24  25
ENDBRANCH   1  24
TORSDOF 17
ENDMDL
