MODEL 1
REMARK VINA RESULT:     -12.7      0.000      0.000
REMARK SMILES O=C(OCCOC(=O)c1ccc(-c2c3nc(c(-c4ccc(S(=O)(=O)[O-])cc4)c4ccc([nH]4)c(-c4ccc(S(=O)(=O)[O-])cc4)c4nc(c(-c5ccc(S(=O)(=O)[O-])cc5)c5ccc2[nH]5)C=C4)C=C3)cc1)C1=Cc2cc(Cl)c(Cl)cc2O[C@@H]1C(F)(F)F
REMARK SMILES IDX 5 1 4 2 3 3 2 4 1 5 69 6 70 7 80 8 71 9 79 10 72 11 78 12
REMARK SMILES IDX 73 13 77 14 74 15 75 16 76 17 81 18 82 19 83 20 84 21 6 22
REMARK SMILES IDX 7 23 8 24 9 25 10 26 68 27 11 28 67 29 12 30 13 31 14 32
REMARK SMILES IDX 61 33 15 34 66 35 60 36 62 37 16 38 65 39 59 40 58 41 17 43
REMARK SMILES IDX 47 44 28 45 46 46 29 47 32 48 45 49 63 50 30 51 31 52 44 54
REMARK SMILES IDX 64 55 33 56 18 57 19 58 27 59 20 60 26 61 21 62 22 63 23 64
REMARK SMILES IDX 24 65 25 66 48 67 49 68 57 69 50 70 56 71 51 72 52 73 53 74
REMARK SMILES IDX 54 75 55 76 34 77 35 78 43 79 36 80 42 81 37 82 38 83 39 84
REMARK SMILES IDX 40 85 41 86
REMARK H PARENT 62 42 32 53
REMARK Flexibility Score: inf
ROOT
ATOM      1  C   UNL A   1      34.850  29.143  27.507  1.00  0.00     0.275 C 
ENDROOT
BRANCH   1   2
ATOM      2  C   UNL A   1      33.270  30.455  26.814  1.00  0.00     0.275 C 
BRANCH   2   3
ATOM      3  O   UNL A   1      32.249  30.142  25.674  1.00  0.00    -0.459 OA
BRANCH   3   4
ATOM      4  C   UNL A   1      31.749  28.903  25.728  1.00  0.00     0.338 C 
ATOM      5  O   UNL A   1      31.422  28.224  26.667  1.00  0.00    -0.246 OA
BRANCH   4   6
ATOM      6  C   UNL A   1      32.001  28.607  24.345  1.00  0.00     0.087 C 
ATOM      7  C   UNL A   1      33.146  27.660  24.234  1.00  0.00     0.027 C 
ATOM      8  C   UNL A   1      30.176  28.198  23.841  1.00  0.00     0.316 C 
ATOM      9  C   UNL A   1      32.954  25.926  23.728  1.00  0.00     0.019 A 
ATOM     10  O   UNL A   1      29.959  26.357  23.339  1.00  0.00    -0.475 OA
ATOM     11  C   UNL A   1      34.028  25.087  23.811  1.00  0.00     0.034 A 
ATOM     12  C   UNL A   1      31.398  25.244  23.357  1.00  0.00     0.129 A 
ATOM     13  C   UNL A   1      33.739  23.725  23.579  1.00  0.00     0.060 A 
ATOM     14  C   UNL A   1      31.200  23.913  23.126  1.00  0.00     0.069 A 
ATOM     15  Cl  UNL A   1      35.124  22.672  23.743  1.00  0.00    -0.083 Cl
ATOM     16  C   UNL A   1      32.408  23.172  23.256  1.00  0.00     0.063 A 
ATOM     17  Cl  UNL A   1      32.256  21.446  23.041  1.00  0.00    -0.083 Cl
BRANCH   8  18
ATOM     18  C   UNL A   1      29.745  29.506  23.109  1.00  0.00     0.430 C 
ATOM     19  F   UNL A   1      30.516  29.759  22.043  1.00  0.00    -0.167 F 
ATOM     20  F   UNL A   1      28.495  29.297  22.600  1.00  0.00    -0.167 F 
ATOM     21  F   UNL A   1      29.603  30.602  23.876  1.00  0.00    -0.167 F 
ENDBRANCH   8  18
ENDBRANCH   4   6
ENDBRANCH   3   4
ENDBRANCH   2   3
ENDBRANCH   1   2
BRANCH   1  22
ATOM     22  O   UNL A   1      36.215  29.591  28.379  1.00  0.00    -0.458 OA
BRANCH  22  23
ATOM     23  C   UNL A   1      36.922  29.328  29.519  1.00  0.00     0.338 C 
ATOM     24  O   UNL A   1      36.589  29.404  30.684  1.00  0.00    -0.246 OA
BRANCH  23  25
ATOM     25  C   UNL A   1      38.153  28.653  29.024  1.00  0.00     0.060 A 
ATOM     26  C   UNL A   1      38.708  29.042  27.795  1.00  0.00     0.016 A 
ATOM     27  C   UNL A   1      38.921  27.946  29.948  1.00  0.00     0.016 A 
ATOM     28  C   UNL A   1      40.096  28.950  27.606  1.00  0.00     0.010 A 
ATOM     29  C   UNL A   1      40.288  27.808  29.732  1.00  0.00     0.010 A 
ATOM     30  C   UNL A   1      40.899  28.378  28.602  1.00  0.00    -0.014 A 
BRANCH  30  31
ATOM     31  C   UNL A   1      42.351  28.140  28.423  1.00  0.00     0.031 A 
ATOM     32  C   UNL A   1      43.240  29.322  28.650  1.00  0.00     0.074 A 
ATOM     33  C   UNL A   1      42.839  27.001  27.893  1.00  0.00     0.049 A 
ATOM     34  N   UNL A   1      44.482  29.507  28.303  1.00  0.00    -0.248 NA
ATOM     35  C   UNL A   1      42.603  30.476  29.306  1.00  0.00     0.031 C 
ATOM     36  C   UNL A   1      42.075  25.782  27.625  1.00  0.00     0.029 A 
ATOM     37  N   UNL A   1      44.104  26.703  27.438  1.00  0.00    -0.354 N 
ATOM     38  C   UNL A   1      44.763  30.818  28.658  1.00  0.00     0.074 A 
ATOM     39  C   UNL A   1      43.557  31.384  29.218  1.00  0.00     0.031 C 
ATOM     40  C   UNL A   1      42.878  24.881  27.026  1.00  0.00     0.029 A 
ATOM     41  C   UNL A   1      44.205  25.468  26.833  1.00  0.00     0.049 A 
ATOM     42  H   UNL A   1      44.869  27.315  27.537  1.00  0.00     0.167 HD
ATOM     43  C   UNL A   1      45.921  31.503  28.521  1.00  0.00     0.031 A 
ATOM     44  C   UNL A   1      45.240  24.899  26.177  1.00  0.00     0.031 A 
ATOM     45  C   UNL A   1      47.098  30.954  27.920  1.00  0.00     0.049 A 
ATOM     46  C   UNL A   1      46.530  25.676  26.029  1.00  0.00     0.074 A 
ATOM     47  C   UNL A   1      48.329  31.551  27.734  1.00  0.00     0.029 A 
ATOM     48  N   UNL A   1      47.180  29.673  27.392  1.00  0.00    -0.354 N 
ATOM     49  N   UNL A   1      46.805  26.900  26.422  1.00  0.00    -0.248 NA
ATOM     50  C   UNL A   1      47.649  25.001  25.355  1.00  0.00     0.031 C 
ATOM     51  C   UNL A   1      49.148  30.641  27.058  1.00  0.00     0.029 A 
ATOM     52  C   UNL A   1      48.443  29.459  26.876  1.00  0.00     0.049 A 
ATOM     53  H   UNL A   1      46.448  29.016  27.386  1.00  0.00     0.167 HD
ATOM     54  C   UNL A   1      48.136  27.123  26.078  1.00  0.00     0.074 A 
ATOM     55  C   UNL A   1      48.611  25.912  25.442  1.00  0.00     0.031 C 
ATOM     56  C   UNL A   1      48.897  28.228  26.274  1.00  0.00     0.031 A 
BRANCH  43  57
ATOM     57  C   UNL A   1      45.895  32.930  28.986  1.00  0.00    -0.014 A 
ATOM     58  C   UNL A   1      46.150  33.253  30.333  1.00  0.00     0.010 A 
ATOM     59  C   UNL A   1      45.478  33.940  28.102  1.00  0.00     0.010 A 
ATOM     60  C   UNL A   1      45.888  34.537  30.811  1.00  0.00     0.020 A 
ATOM     61  C   UNL A   1      45.252  35.237  28.568  1.00  0.00     0.020 A 
ATOM     62  C   UNL A   1      45.421  35.516  29.928  1.00  0.00     0.054 A 
BRANCH  62  63
ATOM     63  S   UNL A   1      45.013  37.154  30.583  1.00  0.00     0.124 S 
ATOM     64  O   UNL A   1      44.685  36.846  31.973  1.00  0.00    -0.237 OA
ATOM     65  O   UNL A   1      46.253  37.901  30.383  1.00  0.00    -0.237 OA
ATOM     66  O   UNL A   1      43.888  37.586  29.757  1.00  0.00    -0.744 OA
ENDBRANCH  62  63
ENDBRANCH  43  57
BRANCH  44  67
ATOM     67  C   UNL A   1      45.119  23.523  25.606  1.00  0.00    -0.014 A 
ATOM     68  C   UNL A   1      45.653  22.417  26.293  1.00  0.00     0.010 A 
ATOM     69  C   UNL A   1      44.480  23.303  24.371  1.00  0.00     0.010 A 
ATOM     70  C   UNL A   1      45.561  21.127  25.757  1.00  0.00     0.020 A 
ATOM     71  C   UNL A   1      44.366  22.011  23.841  1.00  0.00     0.020 A 
ATOM     72  C   UNL A   1      44.912  20.930  24.535  1.00  0.00     0.054 A 
BRANCH  72  73
ATOM     73  S   UNL A   1      44.744  19.237  23.894  1.00  0.00     0.124 S 
ATOM     74  O   UNL A   1      44.528  19.469  22.469  1.00  0.00    -0.237 OA
ATOM     75  O   UNL A   1      46.027  18.637  24.248  1.00  0.00    -0.237 OA
ATOM     76  O   UNL A   1      43.594  18.707  24.622  1.00  0.00    -0.744 OA
ENDBRANCH  72  73
ENDBRANCH  44  67
BRANCH  56  77
ATOM     77  C   UNL A   1      50.346  28.182  25.869  1.00  0.00    -0.014 A 
ATOM     78  C   UNL A   1      51.347  27.774  26.767  1.00  0.00     0.010 A 
ATOM     79  C   UNL A   1      50.680  28.399  24.517  1.00  0.00     0.010 A 
ATOM     80  C   UNL A   1      52.656  27.578  26.318  1.00  0.00     0.020 A 
ATOM     81  C   UNL A   1      51.981  28.181  24.062  1.00  0.00     0.020 A 
ATOM     82  C   UNL A   1      52.962  27.771  24.965  1.00  0.00     0.054 A 
BRANCH  82  83
ATOM     83  S   UNL A   1      54.640  27.397  24.385  1.00  0.00     0.124 S 
ATOM     84  O   UNL A   1      55.306  26.994  25.620  1.00  0.00    -0.237 OA
ATOM     85  O   UNL A   1      54.414  26.328  23.415  1.00  0.00    -0.237 OA
ATOM     86  O   UNL A   1      55.099  28.661  23.814  1.00  0.00    -0.744 OA
ENDBRANCH  82  83
ENDBRANCH  56  77
ENDBRANCH  30  31
ENDBRANCH  23  25
ENDBRANCH  22  23
ENDBRANCH   1  22
TORSDOF 15
ENDMDL
MODEL 2
REMARK VINA RESULT:     -12.7      3.358      9.154
REMARK SMILES O=C(OCCOC(=O)c1ccc(-c2c3nc(c(-c4ccc(S(=O)(=O)[O-])cc4)c4ccc([nH]4)c(-c4ccc(S(=O)(=O)[O-])cc4)c4nc(c(-c5ccc(S(=O)(=O)[O-])cc5)c5ccc2[nH]5)C=C4)C=C3)cc1)C1=Cc2cc(Cl)c(Cl)cc2O[C@@H]1C(F)(F)F
REMARK SMILES IDX 5 1 4 2 3 3 2 4 1 5 69 6 70 7 80 8 71 9 79 10 72 11 78 12
REMARK SMILES IDX 73 13 77 14 74 15 75 16 76 17 81 18 82 19 83 20 84 21 6 22
REMARK SMILES IDX 7 23 8 24 9 25 10 26 68 27 11 28 67 29 12 30 13 31 14 32
REMARK SMILES IDX 61 33 15 34 66 35 60 36 62 37 16 38 65 39 59 40 58 41 17 43
REMARK SMILES IDX 47 44 28 45 46 46 29 47 32 48 45 49 63 50 30 51 31 52 44 54
REMARK SMILES IDX 64 55 33 56 18 57 19 58 27 59 20 60 26 61 21 62 22 63 23 64
REMARK SMILES IDX 24 65 25 66 48 67 49 68 57 69 50 70 56 71 51 72 52 73 53 74
REMARK SMILES IDX 54 75 55 76 34 77 35 78 43 79 36 80 42 81 37 82 38 83 39 84
REMARK SMILES IDX 40 85 41 86
REMARK H PARENT 62 42 32 53
REMARK Flexibility Score: inf
ROOT
ATOM      1  C   UNL A   1      37.454  32.287  32.905  1.00  0.00     0.275 C 
ENDROOT
BRANCH   1   2
ATOM      2  C   UNL A   1      36.313  34.089  32.517  1.00  0.00     0.275 C 
BRANCH   2   3
ATOM      3  O   UNL A   1      35.587  34.447  31.181  1.00  0.00    -0.459 OA
BRANCH   3   4
ATOM      4  C   UNL A   1      34.664  33.551  30.816  1.00  0.00     0.338 C 
ATOM      5  O   UNL A   1      34.037  32.756  31.466  1.00  0.00    -0.246 OA
BRANCH   4   6
ATOM      6  C   UNL A   1      34.898  33.699  29.406  1.00  0.00     0.087 C 
ATOM      7  C   UNL A   1      35.336  32.397  28.830  1.00  0.00     0.027 C 
ATOM      8  C   UNL A   1      33.237  34.597  28.971  1.00  0.00     0.316 C 
ATOM      9  C   UNL A   1      34.294  31.399  27.727  1.00  0.00     0.019 A 
ATOM     10  O   UNL A   1      32.115  33.531  27.832  1.00  0.00    -0.475 OA
ATOM     11  C   UNL A   1      34.707  30.144  27.378  1.00  0.00     0.034 A 
ATOM     12  C   UNL A   1      32.688  31.894  27.283  1.00  0.00     0.129 A 
ATOM     13  C   UNL A   1      33.752  29.376  26.678  1.00  0.00     0.060 A 
ATOM     14  C   UNL A   1      31.825  31.098  26.586  1.00  0.00     0.069 A 
ATOM     15  Cl  UNL A   1      34.293  27.760  26.290  1.00  0.00    -0.083 Cl
ATOM     16  C   UNL A   1      32.395  29.825  26.305  1.00  0.00     0.063 A 
ATOM     17  Cl  UNL A   1      31.351  28.703  25.468  1.00  0.00    -0.083 Cl
BRANCH   8  18
ATOM     18  C   UNL A   1      33.701  36.079  28.836  1.00  0.00     0.430 C 
ATOM     19  F   UNL A   1      34.676  36.217  27.927  1.00  0.00    -0.167 F 
ATOM     20  F   UNL A   1      32.649  36.794  28.338  1.00  0.00    -0.167 F 
ATOM     21  F   UNL A   1      34.011  36.716  29.980  1.00  0.00    -0.167 F 
ENDBRANCH   8  18
ENDBRANCH   4   6
ENDBRANCH   3   4
ENDBRANCH   2   3
ENDBRANCH   1   2
BRANCH   1  22
ATOM     22  O   UNL A   1      37.680  30.998  31.851  1.00  0.00    -0.458 OA
BRANCH  22  23
ATOM     23  C   UNL A   1      37.024  30.005  31.180  1.00  0.00     0.338 C 
ATOM     24  O   UNL A   1      35.834  29.790  31.061  1.00  0.00    -0.246 OA
BRANCH  23  25
ATOM     25  C   UNL A   1      38.094  29.357  30.372  1.00  0.00     0.060 A 
ATOM     26  C   UNL A   1      38.224  29.679  29.012  1.00  0.00     0.016 A 
ATOM     27  C   UNL A   1      39.152  28.761  31.056  1.00  0.00     0.016 A 
ATOM     28  C   UNL A   1      39.494  29.644  28.414  1.00  0.00     0.010 A 
ATOM     29  C   UNL A   1      40.397  28.676  30.442  1.00  0.00     0.010 A 
ATOM     30  C   UNL A   1      40.597  29.189  29.149  1.00  0.00    -0.014 A 
BRANCH  30  31
ATOM     31  C   UNL A   1      41.942  29.012  28.549  1.00  0.00     0.031 A 
ATOM     32  C   UNL A   1      42.253  27.642  28.036  1.00  0.00     0.074 A 
ATOM     33  C   UNL A   1      42.905  29.952  28.637  1.00  0.00     0.049 A 
ATOM     34  N   UNL A   1      43.403  27.110  27.730  1.00  0.00    -0.248 NA
ATOM     35  C   UNL A   1      41.100  26.734  27.915  1.00  0.00     0.031 C 
ATOM     36  C   UNL A   1      42.726  31.321  29.120  1.00  0.00     0.029 A 
ATOM     37  N   UNL A   1      44.251  29.873  28.361  1.00  0.00    -0.354 N 
ATOM     38  C   UNL A   1      43.117  25.787  27.425  1.00  0.00     0.074 A 
ATOM     39  C   UNL A   1      41.696  25.596  27.610  1.00  0.00     0.031 C 
ATOM     40  C   UNL A   1      43.921  31.943  29.135  1.00  0.00     0.029 A 
ATOM     41  C   UNL A   1      44.958  31.007  28.698  1.00  0.00     0.049 A 
ATOM     42  H   UNL A   1      44.671  29.079  27.959  1.00  0.00     0.167 HD
ATOM     43  C   UNL A   1      43.961  24.806  27.036  1.00  0.00     0.031 A 
ATOM     44  C   UNL A   1      46.289  31.244  28.682  1.00  0.00     0.031 A 
ATOM     45  C   UNL A   1      45.375  24.986  26.902  1.00  0.00     0.049 A 
ATOM     46  C   UNL A   1      47.224  30.138  28.245  1.00  0.00     0.074 A 
ATOM     47  C   UNL A   1      46.328  24.068  26.509  1.00  0.00     0.029 A 
ATOM     48  N   UNL A   1      46.040  26.174  27.177  1.00  0.00    -0.354 N 
ATOM     49  N   UNL A   1      46.936  28.903  27.900  1.00  0.00    -0.248 NA
ATOM     50  C   UNL A   1      48.659  30.453  28.190  1.00  0.00     0.031 C 
ATOM     51  C   UNL A   1      47.578  24.691  26.581  1.00  0.00     0.029 A 
ATOM     52  C   UNL A   1      47.394  26.012  26.964  1.00  0.00     0.049 A 
ATOM     53  H   UNL A   1      45.609  27.006  27.479  1.00  0.00     0.167 HD
ATOM     54  C   UNL A   1      48.147  28.309  27.552  1.00  0.00     0.074 A 
ATOM     55  C   UNL A   1      49.171  29.317  27.730  1.00  0.00     0.031 C 
ATOM     56  C   UNL A   1      48.389  27.047  27.121  1.00  0.00     0.031 A 
BRANCH  43  57
ATOM     57  C   UNL A   1      43.338  23.461  26.803  1.00  0.00    -0.014 A 
ATOM     58  C   UNL A   1      42.935  22.658  27.888  1.00  0.00     0.010 A 
ATOM     59  C   UNL A   1      43.280  22.939  25.500  1.00  0.00     0.010 A 
ATOM     60  C   UNL A   1      42.586  21.322  27.683  1.00  0.00     0.020 A 
ATOM     61  C   UNL A   1      42.894  21.614  25.287  1.00  0.00     0.020 A 
ATOM     62  C   UNL A   1      42.588  20.804  26.384  1.00  0.00     0.054 A 
BRANCH  62  63
ATOM     63  S   UNL A   1      42.207  19.049  26.149  1.00  0.00     0.124 S 
ATOM     64  O   UNL A   1      42.463  18.507  27.481  1.00  0.00    -0.237 OA
ATOM     65  O   UNL A   1      40.804  19.074  25.742  1.00  0.00    -0.237 OA
ATOM     66  O   UNL A   1      43.146  18.628  25.112  1.00  0.00    -0.744 OA
ENDBRANCH  62  63
ENDBRANCH  43  57
BRANCH  44  67
ATOM     67  C   UNL A   1      46.833  32.577  29.085  1.00  0.00    -0.014 A 
ATOM     68  C   UNL A   1      46.949  33.614  28.141  1.00  0.00     0.010 A 
ATOM     69  C   UNL A   1      47.249  32.821  30.407  1.00  0.00     0.010 A 
ATOM     70  C   UNL A   1      47.475  34.860  28.505  1.00  0.00     0.020 A 
ATOM     71  C   UNL A   1      47.755  34.073  30.782  1.00  0.00     0.020 A 
ATOM     72  C   UNL A   1      47.870  35.084  29.826  1.00  0.00     0.054 A 
BRANCH  72  73
ATOM     73  S   UNL A   1      48.484  36.731  30.290  1.00  0.00     0.124 S 
ATOM     74  O   UNL A   1      49.670  36.405  31.077  1.00  0.00    -0.237 OA
ATOM     75  O   UNL A   1      48.739  37.350  28.992  1.00  0.00    -0.237 OA
ATOM     76  O   UNL A   1      47.375  37.312  31.042  1.00  0.00    -0.744 OA
ENDBRANCH  72  73
ENDBRANCH  44  67
BRANCH  56  77
ATOM     77  C   UNL A   1      49.798  26.678  26.737  1.00  0.00    -0.014 A 
ATOM     78  C   UNL A   1      50.687  26.112  27.665  1.00  0.00     0.010 A 
ATOM     79  C   UNL A   1      50.174  26.758  25.382  1.00  0.00     0.010 A 
ATOM     80  C   UNL A   1      51.928  25.624  27.242  1.00  0.00     0.020 A 
ATOM     81  C   UNL A   1      51.402  26.250  24.953  1.00  0.00     0.020 A 
ATOM     82  C   UNL A   1      52.272  25.686  25.886  1.00  0.00     0.054 A 
BRANCH  82  83
ATOM     83  S   UNL A   1      53.835  24.942  25.345  1.00  0.00     0.124 S 
ATOM     84  O   UNL A   1      54.674  25.102  26.529  1.00  0.00    -0.237 OA
ATOM     85  O   UNL A   1      53.446  23.569  25.030  1.00  0.00    -0.237 OA
ATOM     86  O   UNL A   1      54.224  25.752  24.192  1.00  0.00    -0.744 OA
ENDBRANCH  82  83
ENDBRANCH  56  77
ENDBRANCH  30  31
ENDBRANCH  23  25
ENDBRANCH  22  23
ENDBRANCH   1  22
TORSDOF 15
ENDMDL
MODEL 3
REMARK VINA RESULT:     -12.5      5.096      7.521
REMARK SMILES O=C(OCCOC(=O)c1ccc(-c2c3nc(c(-c4ccc(S(=O)(=O)[O-])cc4)c4ccc([nH]4)c(-c4ccc(S(=O)(=O)[O-])cc4)c4nc(c(-c5ccc(S(=O)(=O)[O-])cc5)c5ccc2[nH]5)C=C4)C=C3)cc1)C1=Cc2cc(Cl)c(Cl)cc2O[C@@H]1C(F)(F)F
REMARK SMILES IDX 5 1 4 2 3 3 2 4 1 5 69 6 70 7 80 8 71 9 79 10 72 11 78 12
REMARK SMILES IDX 73 13 77 14 74 15 75 16 76 17 81 18 82 19 83 20 84 21 6 22
REMARK SMILES IDX 7 23 8 24 9 25 10 26 68 27 11 28 67 29 12 30 13 31 14 32
REMARK SMILES IDX 61 33 15 34 66 35 60 36 62 37 16 38 65 39 59 40 58 41 17 43
REMARK SMILES IDX 47 44 28 45 46 46 29 47 32 48 45 49 63 50 30 51 31 52 44 54
REMARK SMILES IDX 64 55 33 56 18 57 19 58 27 59 20 60 26 61 21 62 22 63 23 64
REMARK SMILES IDX 24 65 25 66 48 67 49 68 57 69 50 70 56 71 51 72 52 73 53 74
REMARK SMILES IDX 54 75 55 76 34 77 35 78 43 79 36 80 42 81 37 82 38 83 39 84
REMARK SMILES IDX 40 85 41 86
REMARK H PARENT 62 42 32 53
REMARK Flexibility Score: inf
ROOT
ATOM      1  C   UNL A   1      34.364  33.252  30.634  1.00  0.00     0.275 C 
ENDROOT
BRANCH   1   2
ATOM      2  C   UNL A   1      34.887  33.122  32.733  1.00  0.00     0.275 C 
BRANCH   2   3
ATOM      3  O   UNL A   1      35.869  32.089  33.374  1.00  0.00    -0.459 OA
BRANCH   3   4
ATOM      4  C   UNL A   1      37.146  32.275  33.024  1.00  0.00     0.338 C 
ATOM      5  O   UNL A   1      37.631  32.711  32.013  1.00  0.00    -0.246 OA
BRANCH   4   6
ATOM      6  C   UNL A   1      37.687  31.543  34.135  1.00  0.00     0.087 C 
ATOM      7  C   UNL A   1      38.383  30.322  33.641  1.00  0.00     0.027 C 
ATOM      8  C   UNL A   1      38.559  33.032  35.015  1.00  0.00     0.316 C 
ATOM      9  C   UNL A   1      40.188  30.124  33.679  1.00  0.00     0.019 A 
ATOM     10  O   UNL A   1      40.471  32.846  35.027  1.00  0.00    -0.475 OA
ATOM     11  C   UNL A   1      40.752  29.047  33.057  1.00  0.00     0.034 A 
ATOM     12  C   UNL A   1      41.236  31.373  34.283  1.00  0.00     0.129 A 
ATOM     13  C   UNL A   1      42.161  29.076  32.976  1.00  0.00     0.060 A 
ATOM     14  C   UNL A   1      42.597  31.321  34.183  1.00  0.00     0.069 A 
ATOM     15  Cl  UNL A   1      42.848  27.710  32.130  1.00  0.00    -0.083 Cl
ATOM     16  C   UNL A   1      43.030  30.147  33.506  1.00  0.00     0.063 A 
ATOM     17  Cl  UNL A   1      44.754  30.010  33.268  1.00  0.00    -0.083 Cl
BRANCH   8  18
ATOM     18  C   UNL A   1      37.564  33.347  36.173  1.00  0.00     0.430 C 
ATOM     19  F   UNL A   1      37.420  32.306  37.005  1.00  0.00    -0.167 F 
ATOM     20  F   UNL A   1      38.122  34.334  36.935  1.00  0.00    -0.167 F 
ATOM     21  F   UNL A   1      36.369  33.851  35.815  1.00  0.00    -0.167 F 
ENDBRANCH   8  18
ENDBRANCH   4   6
ENDBRANCH   3   4
ENDBRANCH   2   3
ENDBRANCH   1   2
BRANCH   1  22
ATOM     22  O   UNL A   1      34.935  32.268  29.396  1.00  0.00    -0.458 OA
BRANCH  22  23
ATOM     23  C   UNL A   1      34.593  31.227  28.579  1.00  0.00     0.338 C 
ATOM     24  O   UNL A   1      33.688  31.124  27.776  1.00  0.00    -0.246 OA
BRANCH  23  25
ATOM     25  C   UNL A   1      35.754  30.299  28.683  1.00  0.00     0.060 A 
ATOM     26  C   UNL A   1      36.578  30.096  27.566  1.00  0.00     0.016 A 
ATOM     27  C   UNL A   1      36.207  29.970  29.960  1.00  0.00     0.016 A 
ATOM     28  C   UNL A   1      37.938  29.809  27.757  1.00  0.00     0.010 A 
ATOM     29  C   UNL A   1      37.544  29.631  30.140  1.00  0.00     0.010 A 
ATOM     30  C   UNL A   1      38.437  29.628  29.055  1.00  0.00    -0.014 A 
BRANCH  30  31
ATOM     31  C   UNL A   1      39.833  29.206  29.326  1.00  0.00     0.031 A 
ATOM     32  C   UNL A   1      40.774  30.292  29.739  1.00  0.00     0.074 A 
ATOM     33  C   UNL A   1      40.288  27.973  29.028  1.00  0.00     0.049 A 
ATOM     34  N   UNL A   1      42.077  30.298  29.765  1.00  0.00    -0.248 NA
ATOM     35  C   UNL A   1      40.144  31.569  30.113  1.00  0.00     0.031 C 
ATOM     36  C   UNL A   1      39.471  26.832  28.615  1.00  0.00     0.029 A 
ATOM     37  N   UNL A   1      41.576  27.488  28.984  1.00  0.00    -0.354 N 
ATOM     38  C   UNL A   1      42.425  31.594  30.113  1.00  0.00     0.074 A 
ATOM     39  C   UNL A   1      41.200  32.348  30.259  1.00  0.00     0.031 C 
ATOM     40  C   UNL A   1      40.278  25.791  28.330  1.00  0.00     0.029 A 
ATOM     41  C   UNL A   1      41.673  26.199  28.505  1.00  0.00     0.049 A 
ATOM     42  H   UNL A   1      42.358  28.014  29.270  1.00  0.00     0.167 HD
ATOM     43  C   UNL A   1      43.657  32.124  30.286  1.00  0.00     0.031 A 
ATOM     44  C   UNL A   1      42.763  25.454  28.216  1.00  0.00     0.031 A 
ATOM     45  C   UNL A   1      44.869  31.388  30.091  1.00  0.00     0.049 A 
ATOM     46  C   UNL A   1      44.136  26.058  28.413  1.00  0.00     0.074 A 
ATOM     47  C   UNL A   1      46.172  31.817  30.243  1.00  0.00     0.029 A 
ATOM     48  N   UNL A   1      44.919  30.062  29.682  1.00  0.00    -0.354 N 
ATOM     49  N   UNL A   1      44.455  27.272  28.801  1.00  0.00    -0.248 NA
ATOM     50  C   UNL A   1      45.295  25.197  28.138  1.00  0.00     0.031 C 
ATOM     51  C   UNL A   1      47.015  30.758  29.890  1.00  0.00     0.029 A 
ATOM     52  C   UNL A   1      46.234  29.655  29.574  1.00  0.00     0.049 A 
ATOM     53  H   UNL A   1      44.135  29.497  29.497  1.00  0.00     0.167 HD
ATOM     54  C   UNL A   1      45.846  27.306  28.853  1.00  0.00     0.074 A 
ATOM     55  C   UNL A   1      46.309  25.994  28.454  1.00  0.00     0.031 C 
ATOM     56  C   UNL A   1      46.665  28.328  29.203  1.00  0.00     0.031 A 
BRANCH  43  57
ATOM     57  C   UNL A   1      43.698  33.582  30.642  1.00  0.00    -0.014 A 
ATOM     58  C   UNL A   1      43.802  34.565  29.638  1.00  0.00     0.010 A 
ATOM     59  C   UNL A   1      43.770  33.964  31.991  1.00  0.00     0.010 A 
ATOM     60  C   UNL A   1      44.084  35.889  29.977  1.00  0.00     0.020 A 
ATOM     61  C   UNL A   1      44.014  35.296  32.336  1.00  0.00     0.020 A 
ATOM     62  C   UNL A   1      44.208  36.241  31.324  1.00  0.00     0.054 A 
BRANCH  62  63
ATOM     63  S   UNL A   1      44.651  37.948  31.738  1.00  0.00     0.124 S 
ATOM     64  O   UNL A   1      46.051  37.806  32.131  1.00  0.00    -0.237 OA
ATOM     65  O   UNL A   1      44.422  38.656  30.481  1.00  0.00    -0.237 OA
ATOM     66  O   UNL A   1      43.730  38.290  32.820  1.00  0.00    -0.744 OA
ENDBRANCH  62  63
ENDBRANCH  43  57
BRANCH  44  67
ATOM     67  C   UNL A   1      42.619  24.054  27.713  1.00  0.00    -0.014 A 
ATOM     68  C   UNL A   1      42.305  23.007  28.599  1.00  0.00     0.010 A 
ATOM     69  C   UNL A   1      42.804  23.750  26.351  1.00  0.00     0.010 A 
ATOM     70  C   UNL A   1      42.187  21.689  28.139  1.00  0.00     0.020 A 
ATOM     71  C   UNL A   1      42.666  22.437  25.882  1.00  0.00     0.020 A 
ATOM     72  C   UNL A   1      42.363  21.412  26.781  1.00  0.00     0.054 A 
BRANCH  72  73
ATOM     73  S   UNL A   1      42.136  19.705  26.198  1.00  0.00     0.124 S 
ATOM     74  O   UNL A   1      42.612  18.926  27.338  1.00  0.00    -0.237 OA
ATOM     75  O   UNL A   1      40.699  19.645  25.949  1.00  0.00    -0.237 OA
ATOM     76  O   UNL A   1      42.973  19.637  25.002  1.00  0.00    -0.744 OA
ENDBRANCH  72  73
ENDBRANCH  44  67
BRANCH  56  77
ATOM     77  C   UNL A   1      48.149  28.075  29.247  1.00  0.00    -0.014 A 
ATOM     78  C   UNL A   1      48.774  27.571  30.400  1.00  0.00     0.010 A 
ATOM     79  C   UNL A   1      48.893  28.198  28.057  1.00  0.00     0.010 A 
ATOM     80  C   UNL A   1      50.117  27.186  30.359  1.00  0.00     0.020 A 
ATOM     81  C   UNL A   1      50.228  27.792  28.008  1.00  0.00     0.020 A 
ATOM     82  C   UNL A   1      50.832  27.289  29.160  1.00  0.00     0.054 A 
BRANCH  82  83
ATOM     83  S   UNL A   1      52.538  26.674  29.103  1.00  0.00     0.124 S 
ATOM     84  O   UNL A   1      52.613  25.870  30.319  1.00  0.00    -0.237 OA
ATOM     85  O   UNL A   1      52.569  25.924  27.850  1.00  0.00    -0.237 OA
ATOM     86  O   UNL A   1      53.346  27.893  29.111  1.00  0.00    -0.744 OA
ENDBRANCH  82  83
ENDBRANCH  56  77
ENDBRANCH  30  31
ENDBRANCH  23  25
ENDBRANCH  22  23
ENDBRANCH   1  22
TORSDOF 15
ENDMDL
