MODEL 1
REMARK VINA RESULT:     -10.2      0.000      0.000
REMARK SMILES C[C@@H](C(=O)OCCOC(=O)c1ccc(-c2c3nc(c(-c4ccc(S(=O)(=O)[O-])cc4)c4ccc([nH]4)c(-c4ccc(S(=O)(=O)[O-])cc4)c4nc(c(-c5ccc(S(=O)(=O)[O-])cc5)c5ccc2[nH]5)C=C4)C=C3)cc1)N(C)C(=O)NC[C@H]1C[N@@H+]2CCC[C@@H]2CO1
REMARK SMILES IDX 6 1 5 2 3 3 4 4 2 5 1 6 71 7 72 8 73 9 74 10 75 11 76 13
REMARK SMILES IDX 77 14 78 15 85 16 79 17 84 18 80 19 83 20 81 22 82 23 7 24
REMARK SMILES IDX 8 25 9 26 10 27 11 28 12 29 70 30 13 31 69 32 14 33 15 34
REMARK SMILES IDX 16 35 63 36 17 37 68 38 62 39 64 40 18 41 67 42 61 43 60 44
REMARK SMILES IDX 19 46 49 47 30 48 48 49 31 50 34 51 47 52 65 53 32 54 33 55
REMARK SMILES IDX 46 57 66 58 35 59 20 60 21 61 29 62 22 63 28 64 23 65 24 66
REMARK SMILES IDX 25 67 26 68 27 69 50 70 51 71 59 72 52 73 58 74 53 75 54 76
REMARK SMILES IDX 55 77 56 78 57 79 36 80 37 81 45 82 38 83 44 84 39 85 40 86
REMARK SMILES IDX 41 87 42 88 43 89
REMARK H PARENT 75 12 79 21 64 45 34 56
REMARK Flexibility Score: inf
ROOT
ATOM      1  C   UNL A   1      35.971  23.674  23.733  1.00  0.00     0.274 C 
ENDROOT
BRANCH   1   2
ATOM      2  O   UNL A   1      34.620  23.524  24.213  1.00  0.00    -0.461 OA
BRANCH   2   3
ATOM      3  C   UNL A   1      33.629  24.043  23.427  1.00  0.00     0.328 C 
ATOM      4  O   UNL A   1      33.834  24.565  22.337  1.00  0.00    -0.250 OA
BRANCH   3   5
ATOM      5  C   UNL A   1      32.277  24.087  24.175  1.00  0.00     0.193 C 
ATOM      6  C   UNL A   1      31.201  24.912  23.460  1.00  0.00     0.044 C 
BRANCH   5   7
ATOM      7  N   UNL A   1      32.429  24.391  25.626  1.00  0.00    -0.314 N 
ATOM      8  C   UNL A   1      33.129  25.629  25.929  1.00  0.00     0.149 C 
BRANCH   7   9
ATOM      9  C   UNL A   1      31.818  23.589  26.552  1.00  0.00     0.317 C 
ATOM     10  O   UNL A   1      30.838  23.972  27.198  1.00  0.00    -0.249 OA
ATOM     11  N   UNL A   1      32.227  22.334  26.835  1.00  0.00    -0.335 N 
ATOM     12  H   UNL A   1      31.550  21.824  27.335  1.00  0.00     0.165 HD
BRANCH  11  13
ATOM     13  C   UNL A   1      33.438  21.553  26.578  1.00  0.00     0.155 C 
BRANCH  13  14
ATOM     14  C   UNL A   1      33.417  20.718  25.279  1.00  0.00     0.192 C 
ATOM     15  C   UNL A   1      34.366  19.491  25.374  1.00  0.00     0.296 C 
ATOM     16  O   UNL A   1      32.072  20.371  24.939  1.00  0.00    -0.364 OA
ATOM     17  N   UNL A   1      33.841  18.194  24.944  1.00  0.00    -0.328 N 
ATOM     18  C   UNL A   1      32.038  19.570  23.763  1.00  0.00     0.225 C 
ATOM     19  C   UNL A   1      34.867  17.291  24.402  1.00  0.00     0.262 C 
ATOM     20  C   UNL A   1      32.694  18.218  24.022  1.00  0.00     0.210 C 
ATOM     21  H   UNL A   1      33.491  17.829  25.830  1.00  0.00     0.348 HD
ATOM     22  C   UNL A   1      34.179  16.531  23.278  1.00  0.00     0.068 C 
ATOM     23  C   UNL A   1      33.178  17.537  22.750  1.00  0.00     0.073 C 
ENDBRANCH  13  14
ENDBRANCH  11  13
ENDBRANCH   7   9
ENDBRANCH   5   7
ENDBRANCH   3   5
ENDBRANCH   2   3
ENDBRANCH   1   2
BRANCH   1  24
ATOM     24  C   UNL A   1      36.909  22.761  24.514  1.00  0.00     0.275 C 
BRANCH  24  25
ATOM     25  O   UNL A   1      37.377  23.464  25.673  1.00  0.00    -0.458 OA
BRANCH  25  26
ATOM     26  C   UNL A   1      38.595  23.096  26.137  1.00  0.00     0.338 C 
ATOM     27  O   UNL A   1      39.110  21.995  26.071  1.00  0.00    -0.246 OA
BRANCH  26  28
ATOM     28  C   UNL A   1      39.215  24.260  26.795  1.00  0.00     0.060 A 
ATOM     29  C   UNL A   1      38.981  24.478  28.147  1.00  0.00     0.016 A 
ATOM     30  C   UNL A   1      39.963  25.180  26.056  1.00  0.00     0.016 A 
ATOM     31  C   UNL A   1      39.454  25.641  28.748  1.00  0.00     0.010 A 
ATOM     32  C   UNL A   1      40.494  26.319  26.685  1.00  0.00     0.010 A 
ATOM     33  C   UNL A   1      40.230  26.564  28.040  1.00  0.00    -0.014 A 
BRANCH  33  34
ATOM     34  C   UNL A   1      40.672  27.800  28.737  1.00  0.00     0.031 A 
ATOM     35  C   UNL A   1      42.122  27.997  29.059  1.00  0.00     0.074 A 
ATOM     36  C   UNL A   1      39.813  28.817  28.948  1.00  0.00     0.049 A 
ATOM     37  N   UNL A   1      42.694  28.994  29.682  1.00  0.00    -0.248 NA
ATOM     38  C   UNL A   1      43.047  26.946  28.610  1.00  0.00     0.031 C 
ATOM     39  C   UNL A   1      38.403  28.804  28.579  1.00  0.00     0.029 A 
ATOM     40  N   UNL A   1      40.006  30.075  29.468  1.00  0.00    -0.354 N 
ATOM     41  C   UNL A   1      44.042  28.669  29.748  1.00  0.00     0.074 A 
ATOM     42  C   UNL A   1      44.205  27.400  29.069  1.00  0.00     0.031 C 
ATOM     43  C   UNL A   1      37.881  30.023  28.786  1.00  0.00     0.029 A 
ATOM     44  C   UNL A   1      38.885  30.872  29.420  1.00  0.00     0.049 A 
ATOM     45  H   UNL A   1      40.866  30.377  29.840  1.00  0.00     0.167 HD
ATOM     46  C   UNL A   1      45.045  29.350  30.352  1.00  0.00     0.031 A 
ATOM     47  C   UNL A   1      38.674  32.127  29.871  1.00  0.00     0.031 A 
ATOM     48  C   UNL A   1      44.880  30.601  31.045  1.00  0.00     0.049 A 
ATOM     49  C   UNL A   1      39.779  32.830  30.613  1.00  0.00     0.074 A 
ATOM     50  C   UNL A   1      45.814  31.308  31.781  1.00  0.00     0.029 A 
ATOM     51  N   UNL A   1      43.704  31.335  31.083  1.00  0.00    -0.354 N 
ATOM     52  N   UNL A   1      41.023  32.449  30.785  1.00  0.00    -0.248 NA
ATOM     53  C   UNL A   1      39.442  34.106  31.259  1.00  0.00     0.031 C 
ATOM     54  C   UNL A   1      45.190  32.450  32.301  1.00  0.00     0.029 A 
ATOM     55  C   UNL A   1      43.883  32.479  31.845  1.00  0.00     0.049 A 
ATOM     56  H   UNL A   1      42.866  31.080  30.635  1.00  0.00     0.167 HD
ATOM     57  C   UNL A   1      41.611  33.430  31.578  1.00  0.00     0.074 A 
ATOM     58  C   UNL A   1      40.601  34.443  31.810  1.00  0.00     0.031 C 
ATOM     59  C   UNL A   1      42.869  33.474  32.084  1.00  0.00     0.031 A 
BRANCH  46  60
ATOM     60  C   UNL A   1      46.387  28.678  30.387  1.00  0.00    -0.014 A 
ATOM     61  C   UNL A   1      46.736  27.774  31.404  1.00  0.00     0.010 A 
ATOM     62  C   UNL A   1      47.322  28.983  29.383  1.00  0.00     0.010 A 
ATOM     63  C   UNL A   1      48.016  27.212  31.434  1.00  0.00     0.020 A 
ATOM     64  C   UNL A   1      48.594  28.410  29.398  1.00  0.00     0.020 A 
ATOM     65  C   UNL A   1      48.939  27.542  30.435  1.00  0.00     0.054 A 
BRANCH  65  66
ATOM     66  S   UNL A   1      50.597  26.808  30.495  1.00  0.00     0.124 S 
ATOM     67  O   UNL A   1      50.861  26.549  29.082  1.00  0.00    -0.237 OA
ATOM     68  O   UNL A   1      51.397  27.869  31.100  1.00  0.00    -0.237 OA
ATOM     69  O   UNL A   1      50.418  25.617  31.323  1.00  0.00    -0.744 OA
ENDBRANCH  65  66
ENDBRANCH  46  60
BRANCH  47  70
ATOM     70  C   UNL A   1      37.338  32.771  29.706  1.00  0.00    -0.014 A 
ATOM     71  C   UNL A   1      36.376  32.711  30.729  1.00  0.00     0.010 A 
ATOM     72  C   UNL A   1      37.024  33.461  28.519  1.00  0.00     0.010 A 
ATOM     73  C   UNL A   1      35.134  33.338  30.574  1.00  0.00     0.020 A 
ATOM     74  C   UNL A   1      35.801  34.119  28.375  1.00  0.00     0.020 A 
ATOM     75  C   UNL A   1      34.860  34.048  29.403  1.00  0.00     0.054 A 
BRANCH  75  76
ATOM     76  S   UNL A   1      33.288  34.943  29.257  1.00  0.00     0.124 S 
ATOM     77  O   UNL A   1      32.586  34.160  28.246  1.00  0.00    -0.237 OA
ATOM     78  O   UNL A   1      32.751  34.859  30.613  1.00  0.00    -0.237 OA
ATOM     79  O   UNL A   1      33.699  36.283  28.844  1.00  0.00    -0.744 OA
ENDBRANCH  75  76
ENDBRANCH  47  70
BRANCH  59  80
ATOM     80  C   UNL A   1      43.223  34.656  32.945  1.00  0.00    -0.014 A 
ATOM     81  C   UNL A   1      43.048  34.613  34.340  1.00  0.00     0.010 A 
ATOM     82  C   UNL A   1      43.776  35.810  32.359  1.00  0.00     0.010 A 
ATOM     83  C   UNL A   1      43.384  35.716  35.130  1.00  0.00     0.020 A 
ATOM     84  C   UNL A   1      44.133  36.907  33.149  1.00  0.00     0.020 A 
ATOM     85  C   UNL A   1      43.921  36.858  34.528  1.00  0.00     0.054 A 
BRANCH  85  86
ATOM     86  S   UNL A   1      44.374  38.268  35.577  1.00  0.00     0.124 S 
ATOM     87  O   UNL A   1      43.724  37.928  36.839  1.00  0.00    -0.237 OA
ATOM     88  O   UNL A   1      45.832  38.210  35.585  1.00  0.00    -0.237 OA
ATOM     89  O   UNL A   1      43.806  39.417  34.873  1.00  0.00    -0.744 OA
ENDBRANCH  85  86
ENDBRANCH  59  80
ENDBRANCH  33  34
ENDBRANCH  26  28
ENDBRANCH  25  26
ENDBRANCH  24  25
ENDBRANCH   1  24
TORSDOF 18
ENDMDL
MODEL 2
REMARK VINA RESULT:     -10.1      2.416      4.017
REMARK SMILES C[C@@H](C(=O)OCCOC(=O)c1ccc(-c2c3nc(c(-c4ccc(S(=O)(=O)[O-])cc4)c4ccc([nH]4)c(-c4ccc(S(=O)(=O)[O-])cc4)c4nc(c(-c5ccc(S(=O)(=O)[O-])cc5)c5ccc2[nH]5)C=C4)C=C3)cc1)N(C)C(=O)NC[C@H]1C[N@@H+]2CCC[C@@H]2CO1
REMARK SMILES IDX 6 1 5 2 3 3 4 4 2 5 1 6 71 7 72 8 73 9 74 10 75 11 76 13
REMARK SMILES IDX 77 14 78 15 85 16 79 17 84 18 80 19 83 20 81 22 82 23 7 24
REMARK SMILES IDX 8 25 9 26 10 27 11 28 12 29 70 30 13 31 69 32 14 33 15 34
REMARK SMILES IDX 16 35 63 36 17 37 68 38 62 39 64 40 18 41 67 42 61 43 60 44
REMARK SMILES IDX 19 46 49 47 30 48 48 49 31 50 34 51 47 52 65 53 32 54 33 55
REMARK SMILES IDX 46 57 66 58 35 59 20 60 21 61 29 62 22 63 28 64 23 65 24 66
REMARK SMILES IDX 25 67 26 68 27 69 50 70 51 71 59 72 52 73 58 74 53 75 54 76
REMARK SMILES IDX 55 77 56 78 57 79 36 80 37 81 45 82 38 83 44 84 39 85 40 86
REMARK SMILES IDX 41 87 42 88 43 89
REMARK H PARENT 75 12 79 21 64 45 34 56
REMARK Flexibility Score: inf
ROOT
ATOM      1  C   UNL A   1      36.401  22.117  24.888  1.00  0.00     0.274 C 
ENDROOT
BRANCH   1   2
ATOM      2  O   UNL A   1      35.716  22.747  25.989  1.00  0.00    -0.461 OA
BRANCH   2   3
ATOM      3  C   UNL A   1      34.587  23.456  25.685  1.00  0.00     0.328 C 
ATOM      4  O   UNL A   1      34.550  24.335  24.830  1.00  0.00    -0.250 OA
BRANCH   3   5
ATOM      5  C   UNL A   1      33.449  23.168  26.690  1.00  0.00     0.193 C 
ATOM      6  C   UNL A   1      33.897  22.365  27.917  1.00  0.00     0.044 C 
BRANCH   5   7
ATOM      7  N   UNL A   1      32.213  22.658  26.034  1.00  0.00    -0.314 N 
ATOM      8  C   UNL A   1      32.322  21.330  25.453  1.00  0.00     0.149 C 
BRANCH   7   9
ATOM      9  C   UNL A   1      31.055  23.383  26.118  1.00  0.00     0.317 C 
ATOM     10  O   UNL A   1      30.449  23.519  27.186  1.00  0.00    -0.249 OA
ATOM     11  N   UNL A   1      30.483  24.000  25.062  1.00  0.00    -0.335 N 
ATOM     12  H   UNL A   1      29.806  24.660  25.335  1.00  0.00     0.165 HD
BRANCH  11  13
ATOM     13  C   UNL A   1      30.629  23.919  23.608  1.00  0.00     0.155 C 
BRANCH  13  14
ATOM     14  C   UNL A   1      31.234  25.172  22.938  1.00  0.00     0.192 C 
ATOM     15  C   UNL A   1      31.708  26.210  23.993  1.00  0.00     0.296 C 
ATOM     16  O   UNL A   1      32.258  24.791  22.016  1.00  0.00    -0.364 OA
ATOM     17  N   UNL A   1      33.040  26.793  23.818  1.00  0.00    -0.328 N 
ATOM     18  C   UNL A   1      32.851  25.938  21.415  1.00  0.00     0.225 C 
ATOM     19  C   UNL A   1      33.160  28.162  24.342  1.00  0.00     0.262 C 
ATOM     20  C   UNL A   1      33.606  26.752  22.460  1.00  0.00     0.210 C 
ATOM     21  H   UNL A   1      33.600  26.155  24.383  1.00  0.00     0.348 HD
ATOM     22  C   UNL A   1      34.094  28.879  23.380  1.00  0.00     0.068 C 
ATOM     23  C   UNL A   1      33.799  28.207  22.055  1.00  0.00     0.073 C 
ENDBRANCH  13  14
ENDBRANCH  11  13
ENDBRANCH   7   9
ENDBRANCH   5   7
ENDBRANCH   3   5
ENDBRANCH   2   3
ENDBRANCH   1   2
BRANCH   1  24
ATOM     24  C   UNL A   1      37.588  21.311  25.400  1.00  0.00     0.275 C 
BRANCH  24  25
ATOM     25  O   UNL A   1      38.727  22.179  25.497  1.00  0.00    -0.458 OA
BRANCH  25  26
ATOM     26  C   UNL A   1      39.611  21.887  26.481  1.00  0.00     0.338 C 
ATOM     27  O   UNL A   1      39.940  20.784  26.876  1.00  0.00    -0.246 OA
BRANCH  26  28
ATOM     28  C   UNL A   1      40.108  23.152  27.051  1.00  0.00     0.060 A 
ATOM     29  C   UNL A   1      39.649  24.356  26.530  1.00  0.00     0.016 A 
ATOM     30  C   UNL A   1      41.088  23.147  28.046  1.00  0.00     0.016 A 
ATOM     31  C   UNL A   1      40.207  25.552  26.970  1.00  0.00     0.010 A 
ATOM     32  C   UNL A   1      41.598  24.362  28.535  1.00  0.00     0.010 A 
ATOM     33  C   UNL A   1      41.168  25.579  27.987  1.00  0.00    -0.014 A 
BRANCH  33  34
ATOM     34  C   UNL A   1      41.743  26.891  28.383  1.00  0.00     0.031 A 
ATOM     35  C   UNL A   1      43.181  27.194  28.088  1.00  0.00     0.074 A 
ATOM     36  C   UNL A   1      40.955  27.873  28.864  1.00  0.00     0.049 A 
ATOM     37  N   UNL A   1      43.866  28.270  28.376  1.00  0.00    -0.248 NA
ATOM     38  C   UNL A   1      43.938  26.163  27.364  1.00  0.00     0.031 C 
ATOM     39  C   UNL A   1      39.520  27.750  29.089  1.00  0.00     0.029 A 
ATOM     40  N   UNL A   1      41.231  29.178  29.195  1.00  0.00    -0.354 N 
ATOM     41  C   UNL A   1      45.153  28.027  27.916  1.00  0.00     0.074 A 
ATOM     42  C   UNL A   1      45.141  26.716  27.298  1.00  0.00     0.031 C 
ATOM     43  C   UNL A   1      39.021  28.952  29.422  1.00  0.00     0.029 A 
ATOM     44  C   UNL A   1      40.119  29.905  29.555  1.00  0.00     0.049 A 
ATOM     45  H   UNL A   1      42.140  29.557  29.176  1.00  0.00     0.167 HD
ATOM     46  C   UNL A   1      46.251  28.810  28.032  1.00  0.00     0.031 A 
ATOM     47  C   UNL A   1      39.998  31.179  29.985  1.00  0.00     0.031 A 
ATOM     48  C   UNL A   1      46.268  30.103  28.664  1.00  0.00     0.049 A 
ATOM     49  C   UNL A   1      41.243  32.001  30.184  1.00  0.00     0.074 A 
ATOM     50  C   UNL A   1      47.354  30.920  28.927  1.00  0.00     0.029 A 
ATOM     51  N   UNL A   1      45.146  30.771  29.128  1.00  0.00    -0.354 N 
ATOM     52  N   UNL A   1      42.481  31.706  29.867  1.00  0.00    -0.248 NA
ATOM     53  C   UNL A   1      41.082  33.306  30.841  1.00  0.00     0.031 C 
ATOM     54  C   UNL A   1      46.892  32.064  29.591  1.00  0.00     0.029 A 
ATOM     55  C   UNL A   1      45.513  31.983  29.693  1.00  0.00     0.049 A 
ATOM     56  H   UNL A   1      44.223  30.434  29.067  1.00  0.00     0.167 HD
ATOM     57  C   UNL A   1      43.249  32.781  30.304  1.00  0.00     0.074 A 
ATOM     58  C   UNL A   1      42.331  33.751  30.865  1.00  0.00     0.031 C 
ATOM     59  C   UNL A   1      44.596  32.936  30.263  1.00  0.00     0.031 A 
BRANCH  46  60
ATOM     60  C   UNL A   1      47.550  28.219  27.564  1.00  0.00    -0.014 A 
ATOM     61  C   UNL A   1      48.023  28.411  26.255  1.00  0.00     0.010 A 
ATOM     62  C   UNL A   1      48.299  27.438  28.462  1.00  0.00     0.010 A 
ATOM     63  C   UNL A   1      49.208  27.797  25.841  1.00  0.00     0.020 A 
ATOM     64  C   UNL A   1      49.492  26.839  28.058  1.00  0.00     0.020 A 
ATOM     65  C   UNL A   1      49.930  27.008  26.743  1.00  0.00     0.054 A 
BRANCH  65  66
ATOM     66  S   UNL A   1      51.463  26.215  26.185  1.00  0.00     0.124 S 
ATOM     67  O   UNL A   1      52.477  26.978  26.909  1.00  0.00    -0.237 OA
ATOM     68  O   UNL A   1      51.287  24.832  26.621  1.00  0.00    -0.237 OA
ATOM     69  O   UNL A   1      51.449  26.415  24.738  1.00  0.00    -0.744 OA
ENDBRANCH  65  66
ENDBRANCH  46  60
BRANCH  47  70
ATOM     70  C   UNL A   1      38.656  31.732  30.331  1.00  0.00    -0.014 A 
ATOM     71  C   UNL A   1      38.155  31.643  31.642  1.00  0.00     0.010 A 
ATOM     72  C   UNL A   1      37.872  32.364  29.347  1.00  0.00     0.010 A 
ATOM     73  C   UNL A   1      36.905  32.184  31.964  1.00  0.00     0.020 A 
ATOM     74  C   UNL A   1      36.641  32.939  29.672  1.00  0.00     0.020 A 
ATOM     75  C   UNL A   1      36.162  32.840  30.978  1.00  0.00     0.054 A 
BRANCH  75  76
ATOM     76  S   UNL A   1      34.592  33.629  31.432  1.00  0.00     0.124 S 
ATOM     77  O   UNL A   1      33.946  33.784  30.133  1.00  0.00    -0.237 OA
ATOM     78  O   UNL A   1      33.992  32.643  32.327  1.00  0.00    -0.237 OA
ATOM     79  O   UNL A   1      35.012  34.869  32.080  1.00  0.00    -0.744 OA
ENDBRANCH  75  76
ENDBRANCH  47  70
BRANCH  59  80
ATOM     80  C   UNL A   1      45.161  34.204  30.846  1.00  0.00    -0.014 A 
ATOM     81  C   UNL A   1      45.562  34.264  32.192  1.00  0.00     0.010 A 
ATOM     82  C   UNL A   1      45.330  35.336  30.029  1.00  0.00     0.010 A 
ATOM     83  C   UNL A   1      46.089  35.446  32.722  1.00  0.00     0.020 A 
ATOM     84  C   UNL A   1      45.876  36.513  30.549  1.00  0.00     0.020 A 
ATOM     85  C   UNL A   1      46.238  36.565  31.898  1.00  0.00     0.054 A 
BRANCH  85  86
ATOM     86  S   UNL A   1      46.947  38.080  32.600  1.00  0.00     0.124 S 
ATOM     87  O   UNL A   1      45.941  39.078  32.245  1.00  0.00    -0.237 OA
ATOM     88  O   UNL A   1      47.043  37.763  34.022  1.00  0.00    -0.237 OA
ATOM     89  O   UNL A   1      48.228  38.214  31.909  1.00  0.00    -0.744 OA
ENDBRANCH  85  86
ENDBRANCH  59  80
ENDBRANCH  33  34
ENDBRANCH  26  28
ENDBRANCH  25  26
ENDBRANCH  24  25
ENDBRANCH   1  24
TORSDOF 18
ENDMDL
MODEL 3
REMARK VINA RESULT:     -10.1      2.916      9.154
REMARK SMILES C[C@@H](C(=O)OCCOC(=O)c1ccc(-c2c3nc(c(-c4ccc(S(=O)(=O)[O-])cc4)c4ccc([nH]4)c(-c4ccc(S(=O)(=O)[O-])cc4)c4nc(c(-c5ccc(S(=O)(=O)[O-])cc5)c5ccc2[nH]5)C=C4)C=C3)cc1)N(C)C(=O)NC[C@H]1C[N@@H+]2CCC[C@@H]2CO1
REMARK SMILES IDX 6 1 5 2 3 3 4 4 2 5 1 6 71 7 72 8 73 9 74 10 75 11 76 13
REMARK SMILES IDX 77 14 78 15 85 16 79 17 84 18 80 19 83 20 81 22 82 23 7 24
REMARK SMILES IDX 8 25 9 26 10 27 11 28 12 29 70 30 13 31 69 32 14 33 15 34
REMARK SMILES IDX 16 35 63 36 17 37 68 38 62 39 64 40 18 41 67 42 61 43 60 44
REMARK SMILES IDX 19 46 49 47 30 48 48 49 31 50 34 51 47 52 65 53 32 54 33 55
REMARK SMILES IDX 46 57 66 58 35 59 20 60 21 61 29 62 22 63 28 64 23 65 24 66
REMARK SMILES IDX 25 67 26 68 27 69 50 70 51 71 59 72 52 73 58 74 53 75 54 76
REMARK SMILES IDX 55 77 56 78 57 79 36 80 37 81 45 82 38 83 44 84 39 85 40 86
REMARK SMILES IDX 41 87 42 88 43 89
REMARK H PARENT 75 12 79 21 64 45 34 56
REMARK Flexibility Score: inf
ROOT
ATOM      1  C   UNL A   1      31.804  29.215  25.856  1.00  0.00     0.274 C 
ENDROOT
BRANCH   1   2
ATOM      2  O   UNL A   1      31.099  29.638  24.671  1.00  0.00    -0.461 OA
BRANCH   2   3
ATOM      3  C   UNL A   1      31.201  28.828  23.574  1.00  0.00     0.328 C 
ATOM      4  O   UNL A   1      30.440  28.889  22.615  1.00  0.00    -0.250 OA
BRANCH   3   5
ATOM      5  C   UNL A   1      32.237  27.703  23.796  1.00  0.00     0.193 C 
ATOM      6  C   UNL A   1      33.551  27.914  23.035  1.00  0.00     0.044 C 
BRANCH   5   7
ATOM      7  N   UNL A   1      31.651  26.341  23.655  1.00  0.00    -0.314 N 
ATOM      8  C   UNL A   1      30.503  26.069  24.504  1.00  0.00     0.149 C 
BRANCH   7   9
ATOM      9  C   UNL A   1      32.126  25.499  22.686  1.00  0.00     0.317 C 
ATOM     10  O   UNL A   1      31.894  25.690  21.488  1.00  0.00    -0.249 OA
ATOM     11  N   UNL A   1      32.873  24.405  22.949  1.00  0.00    -0.335 N 
ATOM     12  H   UNL A   1      33.322  24.056  22.146  1.00  0.00     0.165 HD
BRANCH  11  13
ATOM     13  C   UNL A   1      33.172  23.615  24.144  1.00  0.00     0.155 C 
BRANCH  13  14
ATOM     14  C   UNL A   1      34.564  22.945  24.158  1.00  0.00     0.192 C 
ATOM     15  C   UNL A   1      35.623  23.845  24.854  1.00  0.00     0.296 C 
ATOM     16  O   UNL A   1      34.474  21.634  24.720  1.00  0.00    -0.364 OA
ATOM     17  N   UNL A   1      36.499  23.217  25.845  1.00  0.00    -0.328 N 
ATOM     18  C   UNL A   1      35.755  21.016  24.773  1.00  0.00     0.225 C 
ATOM     19  C   UNL A   1      37.828  23.837  25.937  1.00  0.00     0.262 C 
ATOM     20  C   UNL A   1      36.660  21.757  25.752  1.00  0.00     0.210 C 
ATOM     21  H   UNL A   1      35.973  23.394  26.701  1.00  0.00     0.348 HD
ATOM     22  C   UNL A   1      38.789  22.689  26.207  1.00  0.00     0.068 C 
ATOM     23  C   UNL A   1      38.141  21.526  25.484  1.00  0.00     0.073 C 
ENDBRANCH  13  14
ENDBRANCH  11  13
ENDBRANCH   7   9
ENDBRANCH   5   7
ENDBRANCH   3   5
ENDBRANCH   2   3
ENDBRANCH   1   2
BRANCH   1  24
ATOM     24  C   UNL A   1      32.548  30.393  26.473  1.00  0.00     0.275 C 
BRANCH  24  25
ATOM     25  O   UNL A   1      33.807  29.928  26.980  1.00  0.00    -0.458 OA
BRANCH  25  26
ATOM     26  C   UNL A   1      34.425  30.744  27.867  1.00  0.00     0.338 C 
ATOM     27  O   UNL A   1      33.995  31.778  28.344  1.00  0.00    -0.246 OA
BRANCH  26  28
ATOM     28  C   UNL A   1      35.762  30.195  28.153  1.00  0.00     0.060 A 
ATOM     29  C   UNL A   1      36.037  29.711  29.426  1.00  0.00     0.016 A 
ATOM     30  C   UNL A   1      36.768  30.232  27.185  1.00  0.00     0.016 A 
ATOM     31  C   UNL A   1      37.332  29.311  29.744  1.00  0.00     0.010 A 
ATOM     32  C   UNL A   1      38.057  29.763  27.493  1.00  0.00     0.010 A 
ATOM     33  C   UNL A   1      38.352  29.309  28.786  1.00  0.00    -0.014 A 
BRANCH  33  34
ATOM     34  C   UNL A   1      39.717  28.900  29.207  1.00  0.00     0.031 A 
ATOM     35  C   UNL A   1      40.461  29.718  30.219  1.00  0.00     0.074 A 
ATOM     36  C   UNL A   1      40.238  27.723  28.810  1.00  0.00     0.049 A 
ATOM     37  N   UNL A   1      41.667  29.535  30.693  1.00  0.00    -0.248 NA
ATOM     38  C   UNL A   1      39.754  30.877  30.781  1.00  0.00     0.031 C 
ATOM     39  C   UNL A   1      39.572  26.778  27.920  1.00  0.00     0.029 A 
ATOM     40  N   UNL A   1      41.412  27.091  29.142  1.00  0.00    -0.354 N 
ATOM     41  C   UNL A   1      41.886  30.587  31.571  1.00  0.00     0.074 A 
ATOM     42  C   UNL A   1      40.674  31.381  31.590  1.00  0.00     0.031 C 
ATOM     43  C   UNL A   1      40.294  25.648  27.857  1.00  0.00     0.029 A 
ATOM     44  C   UNL A   1      41.537  25.832  28.601  1.00  0.00     0.049 A 
ATOM     45  H   UNL A   1      42.100  27.502  29.715  1.00  0.00     0.167 HD
ATOM     46  C   UNL A   1      43.008  30.882  32.268  1.00  0.00     0.031 A 
ATOM     47  C   UNL A   1      42.550  24.942  28.659  1.00  0.00     0.031 A 
ATOM     48  C   UNL A   1      44.219  30.105  32.233  1.00  0.00     0.049 A 
ATOM     49  C   UNL A   1      43.819  25.329  29.370  1.00  0.00     0.074 A 
ATOM     50  C   UNL A   1      45.442  30.387  32.817  1.00  0.00     0.029 A 
ATOM     51  N   UNL A   1      44.360  28.890  31.581  1.00  0.00    -0.354 N 
ATOM     52  N   UNL A   1      44.062  26.397  30.092  1.00  0.00    -0.248 NA
ATOM     53  C   UNL A   1      44.963  24.416  29.237  1.00  0.00     0.031 C 
ATOM     54  C   UNL A   1      46.335  29.361  32.482  1.00  0.00     0.029 A 
ATOM     55  C   UNL A   1      45.654  28.416  31.733  1.00  0.00     0.049 A 
ATOM     56  H   UNL A   1      43.646  28.431  31.082  1.00  0.00     0.167 HD
ATOM     57  C   UNL A   1      45.394  26.293  30.482  1.00  0.00     0.074 A 
ATOM     58  C   UNL A   1      45.888  25.037  29.957  1.00  0.00     0.031 C 
ATOM     59  C   UNL A   1      46.143  27.173  31.194  1.00  0.00     0.031 A 
BRANCH  46  60
ATOM     60  C   UNL A   1      43.004  32.175  33.032  1.00  0.00    -0.014 A 
ATOM     61  C   UNL A   1      43.458  33.375  32.459  1.00  0.00     0.010 A 
ATOM     62  C   UNL A   1      42.550  32.173  34.362  1.00  0.00     0.010 A 
ATOM     63  C   UNL A   1      43.491  34.547  33.221  1.00  0.00     0.020 A 
ATOM     64  C   UNL A   1      42.564  33.344  35.120  1.00  0.00     0.020 A 
ATOM     65  C   UNL A   1      43.052  34.520  34.550  1.00  0.00     0.054 A 
BRANCH  65  66
ATOM     66  S   UNL A   1      43.110  36.050  35.524  1.00  0.00     0.124 S 
ATOM     67  O   UNL A   1      42.708  35.579  36.846  1.00  0.00    -0.237 OA
ATOM     68  O   UNL A   1      44.506  36.459  35.399  1.00  0.00    -0.237 OA
ATOM     69  O   UNL A   1      42.147  36.922  34.855  1.00  0.00    -0.744 OA
ENDBRANCH  65  66
ENDBRANCH  46  60
BRANCH  47  70
ATOM     70  C   UNL A   1      42.439  23.629  27.960  1.00  0.00    -0.014 A 
ATOM     71  C   UNL A   1      42.740  23.512  26.591  1.00  0.00     0.010 A 
ATOM     72  C   UNL A   1      42.039  22.478  28.666  1.00  0.00     0.010 A 
ATOM     73  C   UNL A   1      42.655  22.272  25.948  1.00  0.00     0.020 A 
ATOM     74  C   UNL A   1      41.989  21.232  28.038  1.00  0.00     0.020 A 
ATOM     75  C   UNL A   1      42.292  21.138  26.679  1.00  0.00     0.054 A 
BRANCH  75  76
ATOM     76  S   UNL A   1      42.287  19.519  25.859  1.00  0.00     0.124 S 
ATOM     77  O   UNL A   1      42.691  18.629  26.942  1.00  0.00    -0.237 OA
ATOM     78  O   UNL A   1      40.900  19.394  25.417  1.00  0.00    -0.237 OA
ATOM     79  O   UNL A   1      43.260  19.684  24.782  1.00  0.00    -0.744 OA
ENDBRANCH  75  76
ENDBRANCH  47  70
BRANCH  59  80
ATOM     80  C   UNL A   1      47.582  26.808  31.442  1.00  0.00    -0.014 A 
ATOM     81  C   UNL A   1      47.959  26.105  32.599  1.00  0.00     0.010 A 
ATOM     82  C   UNL A   1      48.563  27.137  30.489  1.00  0.00     0.010 A 
ATOM     83  C   UNL A   1      49.299  25.768  32.818  1.00  0.00     0.020 A 
ATOM     84  C   UNL A   1      49.899  26.783  30.693  1.00  0.00     0.020 A 
ATOM     85  C   UNL A   1      50.261  26.114  31.865  1.00  0.00     0.054 A 
BRANCH  85  86
ATOM     86  S   UNL A   1      51.989  25.644  32.157  1.00  0.00     0.124 S 
ATOM     87  O   UNL A   1      52.665  26.245  31.010  1.00  0.00    -0.237 OA
ATOM     88  O   UNL A   1      52.278  26.259  33.449  1.00  0.00    -0.237 OA
ATOM     89  O   UNL A   1      51.953  24.183  32.163  1.00  0.00    -0.744 OA
ENDBRANCH  85  86
ENDBRANCH  59  80
ENDBRANCH  33  34
ENDBRANCH  26  28
ENDBRANCH  25  26
ENDBRANCH  24  25
ENDBRANCH   1  24
TORSDOF 18
ENDMDL
