MODEL 1
REMARK VINA RESULT:      -9.4      0.000      0.000
REMARK SMILES CC(C)[C@H]([NH2+]Cc1ccc(O)cn1)C(=O)OCCOC(=O)c1ccc(-c2c3nc(c(-c4ccc(S(=O)(=O)[O-])cc4)c4ccc([nH]4)c(-c4ccc(S(=O)(=O)[O-])cc4)c4nc(c(-c5ccc(S(=O)(=O)[O-])cc5)c5ccc2[nH]5)C=C4)C=C3)cc1
REMARK SMILES IDX 17 1 16 2 14 3 15 4 4 5 2 6 1 7 3 8 5 9 6 12 7 13 8 14 13 15
REMARK SMILES IDX 9 16 12 17 10 18 11 19 18 21 19 22 20 23 21 24 22 25 23 26
REMARK SMILES IDX 81 27 24 28 80 29 25 30 26 31 27 32 74 33 28 34 79 35 73 36
REMARK SMILES IDX 75 37 29 38 78 39 72 40 71 41 30 43 60 44 41 45 59 46 42 47
REMARK SMILES IDX 45 48 58 49 76 50 43 51 44 52 57 54 77 55 46 56 31 57 32 58
REMARK SMILES IDX 40 59 33 60 39 61 34 62 35 63 36 64 37 65 38 66 61 67 62 68
REMARK SMILES IDX 70 69 63 70 69 71 64 72 65 73 66 74 67 75 68 76 47 77 48 78
REMARK SMILES IDX 56 79 49 80 55 81 50 82 51 83 52 84 53 85 54 86
REMARK H PARENT 5 10 5 11 11 20 75 42 45 53
REMARK Flexibility Score: inf
ROOT
ATOM      1  C   UNL A   1      33.651  34.313  28.171  1.00  0.00     0.274 C 
ENDROOT
BRANCH   1   2
ATOM      2  O   UNL A   1      33.062  34.403  29.482  1.00  0.00    -0.458 OA
BRANCH   2   3
ATOM      3  C   UNL A   1      33.216  35.590  30.137  1.00  0.00     0.365 C 
ATOM      4  O   UNL A   1      33.115  36.691  29.606  1.00  0.00    -0.245 OA
BRANCH   3   5
ATOM      5  C   UNL A   1      33.651  35.420  31.611  1.00  0.00     0.296 C 
BRANCH   5   6
ATOM      6  C   UNL A   1      32.923  36.474  32.501  1.00  0.00     0.053 C 
ATOM      7  C   UNL A   1      31.508  36.050  32.911  1.00  0.00     0.014 C 
ATOM      8  C   UNL A   1      33.701  36.914  33.743  1.00  0.00     0.014 C 
ENDBRANCH   5   6
BRANCH   5   9
ATOM      9  N   UNL A   1      35.133  35.384  31.762  1.00  0.00    -0.329 N 
ATOM     10  H   UNL A   1      35.373  35.490  32.747  1.00  0.00     0.347 HD
ATOM     11  H   UNL A   1      35.539  36.146  31.219  1.00  0.00     0.347 HD
BRANCH   9  12
ATOM     12  C   UNL A   1      35.670  34.097  31.262  1.00  0.00     0.318 C 
BRANCH  12  13
ATOM     13  C   UNL A   1      36.298  33.241  32.343  1.00  0.00     0.095 A 
ATOM     14  C   UNL A   1      36.568  31.892  32.115  1.00  0.00     0.033 A 
ATOM     15  N   UNL A   1      36.549  33.840  33.537  1.00  0.00    -0.251 NA
ATOM     16  C   UNL A   1      37.128  31.130  33.137  1.00  0.00     0.050 A 
ATOM     17  C   UNL A   1      37.067  33.069  34.522  1.00  0.00     0.157 A 
ATOM     18  C   UNL A   1      37.378  31.730  34.363  1.00  0.00     0.133 A 
BRANCH  18  19
ATOM     19  O   UNL A   1      37.920  31.037  35.402  1.00  0.00    -0.506 OA
ATOM     20  H   UNL A   1      38.808  30.745  35.357  1.00  0.00     0.293 HD
ENDBRANCH  18  19
ENDBRANCH  12  13
ENDBRANCH   9  12
ENDBRANCH   5   9
ENDBRANCH   3   5
ENDBRANCH   2   3
ENDBRANCH   1   2
BRANCH   1  21
ATOM     21  C   UNL A   1      33.601  32.887  27.624  1.00  0.00     0.275 C 
BRANCH  21  22
ATOM     22  O   UNL A   1      34.594  32.072  28.264  1.00  0.00    -0.458 OA
BRANCH  22  23
ATOM     23  C   UNL A   1      34.479  30.745  28.036  1.00  0.00     0.338 C 
ATOM     24  O   UNL A   1      33.493  30.138  27.659  1.00  0.00    -0.246 OA
BRANCH  23  25
ATOM     25  C   UNL A   1      35.782  30.104  28.247  1.00  0.00     0.060 A 
ATOM     26  C   UNL A   1      36.077  29.569  29.504  1.00  0.00     0.016 A 
ATOM     27  C   UNL A   1      36.749  30.144  27.245  1.00  0.00     0.016 A 
ATOM     28  C   UNL A   1      37.360  29.109  29.782  1.00  0.00     0.010 A 
ATOM     29  C   UNL A   1      38.030  29.659  27.517  1.00  0.00     0.010 A 
ATOM     30  C   UNL A   1      38.350  29.168  28.795  1.00  0.00    -0.014 A 
BRANCH  30  31
ATOM     31  C   UNL A   1      39.747  28.808  29.129  1.00  0.00     0.031 A 
ATOM     32  C   UNL A   1      40.619  29.815  29.827  1.00  0.00     0.074 A 
ATOM     33  C   UNL A   1      40.224  27.586  28.830  1.00  0.00     0.049 A 
ATOM     34  N   UNL A   1      41.896  29.753  30.103  1.00  0.00    -0.248 NA
ATOM     35  C   UNL A   1      39.967  31.061  30.264  1.00  0.00     0.031 C 
ATOM     36  C   UNL A   1      39.455  26.505  28.212  1.00  0.00     0.029 A 
ATOM     37  N   UNL A   1      41.474  27.052  29.007  1.00  0.00    -0.354 N 
ATOM     38  C   UNL A   1      42.207  30.960  30.718  1.00  0.00     0.074 A 
ATOM     39  C   UNL A   1      40.990  31.740  30.763  1.00  0.00     0.031 C 
ATOM     40  C   UNL A   1      40.252  25.432  28.065  1.00  0.00     0.029 A 
ATOM     41  C   UNL A   1      41.595  25.768  28.531  1.00  0.00     0.049 A 
ATOM     42  H   UNL A   1      42.214  27.540  29.436  1.00  0.00     0.167 HD
ATOM     43  C   UNL A   1      43.403  31.381  31.196  1.00  0.00     0.031 A 
ATOM     44  C   UNL A   1      42.673  24.966  28.451  1.00  0.00     0.031 A 
ATOM     45  C   UNL A   1      44.608  30.595  31.154  1.00  0.00     0.049 A 
ATOM     46  C   UNL A   1      44.000  25.471  28.949  1.00  0.00     0.074 A 
ATOM     47  C   UNL A   1      45.874  30.934  31.599  1.00  0.00     0.029 A 
ATOM     48  N   UNL A   1      44.693  29.308  30.646  1.00  0.00    -0.354 N 
ATOM     49  N   UNL A   1      44.290  26.632  29.489  1.00  0.00    -0.248 NA
ATOM     50  C   UNL A   1      45.144  24.559  28.827  1.00  0.00     0.031 C 
ATOM     51  C   UNL A   1      46.732  29.860  31.330  1.00  0.00     0.029 A 
ATOM     52  C   UNL A   1      45.990  28.838  30.760  1.00  0.00     0.049 A 
ATOM     53  H   UNL A   1      43.941  28.802  30.262  1.00  0.00     0.167 HD
ATOM     54  C   UNL A   1      45.646  26.580  29.790  1.00  0.00     0.074 A 
ATOM     55  C   UNL A   1      46.115  25.271  29.384  1.00  0.00     0.031 C 
ATOM     56  C   UNL A   1      46.433  27.531  30.351  1.00  0.00     0.031 A 
BRANCH  43  57
ATOM     57  C   UNL A   1      43.467  32.773  31.763  1.00  0.00    -0.014 A 
ATOM     58  C   UNL A   1      43.301  33.011  33.138  1.00  0.00     0.010 A 
ATOM     59  C   UNL A   1      43.710  33.859  30.903  1.00  0.00     0.010 A 
ATOM     60  C   UNL A   1      43.338  34.316  33.638  1.00  0.00     0.020 A 
ATOM     61  C   UNL A   1      43.771  35.163  31.402  1.00  0.00     0.020 A 
ATOM     62  C   UNL A   1      43.564  35.385  32.766  1.00  0.00     0.054 A 
BRANCH  62  63
ATOM     63  S   UNL A   1      43.617  37.069  33.437  1.00  0.00     0.124 S 
ATOM     64  O   UNL A   1      44.858  37.046  34.208  1.00  0.00    -0.237 OA
ATOM     65  O   UNL A   1      43.642  37.898  32.234  1.00  0.00    -0.237 OA
ATOM     66  O   UNL A   1      42.393  37.165  34.230  1.00  0.00    -0.744 OA
ENDBRANCH  62  63
ENDBRANCH  43  57
BRANCH  44  67
ATOM     67  C   UNL A   1      42.547  23.611  27.851  1.00  0.00    -0.014 A 
ATOM     68  C   UNL A   1      42.192  22.507  28.644  1.00  0.00     0.010 A 
ATOM     69  C   UNL A   1      42.776  23.422  26.475  1.00  0.00     0.010 A 
ATOM     70  C   UNL A   1      42.079  21.235  28.075  1.00  0.00     0.020 A 
ATOM     71  C   UNL A   1      42.639  22.156  25.899  1.00  0.00     0.020 A 
ATOM     72  C   UNL A   1      42.304  21.068  26.706  1.00  0.00     0.054 A 
BRANCH  72  73
ATOM     73  S   UNL A   1      42.099  19.419  25.975  1.00  0.00     0.124 S 
ATOM     74  O   UNL A   1      42.939  19.509  24.785  1.00  0.00    -0.237 OA
ATOM     75  O   UNL A   1      42.589  18.539  27.032  1.00  0.00    -0.237 OA
ATOM     76  O   UNL A   1      40.662  19.336  25.724  1.00  0.00    -0.744 OA
ENDBRANCH  72  73
ENDBRANCH  44  67
BRANCH  56  77
ATOM     77  C   UNL A   1      47.873  27.170  30.595  1.00  0.00    -0.014 A 
ATOM     78  C   UNL A   1      48.865  27.444  29.637  1.00  0.00     0.010 A 
ATOM     79  C   UNL A   1      48.241  26.580  31.818  1.00  0.00     0.010 A 
ATOM     80  C   UNL A   1      50.197  27.099  29.883  1.00  0.00     0.020 A 
ATOM     81  C   UNL A   1      49.574  26.255  32.076  1.00  0.00     0.020 A 
ATOM     82  C   UNL A   1      50.541  26.501  31.100  1.00  0.00     0.054 A 
BRANCH  82  83
ATOM     83  S   UNL A   1      52.279  26.087  31.413  1.00  0.00     0.124 S 
ATOM     84  O   UNL A   1      52.847  26.127  30.067  1.00  0.00    -0.237 OA
ATOM     85  O   UNL A   1      52.712  27.156  32.309  1.00  0.00    -0.237 OA
ATOM     86  O   UNL A   1      52.213  24.760  32.022  1.00  0.00    -0.744 OA
ENDBRANCH  82  83
ENDBRANCH  56  77
ENDBRANCH  30  31
ENDBRANCH  23  25
ENDBRANCH  22  23
ENDBRANCH  21  22
ENDBRANCH   1  21
TORSDOF 19
ENDMDL
MODEL 2
REMARK VINA RESULT:      -9.4      4.176      6.599
REMARK SMILES CC(C)[C@H]([NH2+]Cc1ccc(O)cn1)C(=O)OCCOC(=O)c1ccc(-c2c3nc(c(-c4ccc(S(=O)(=O)[O-])cc4)c4ccc([nH]4)c(-c4ccc(S(=O)(=O)[O-])cc4)c4nc(c(-c5ccc(S(=O)(=O)[O-])cc5)c5ccc2[nH]5)C=C4)C=C3)cc1
REMARK SMILES IDX 17 1 16 2 14 3 15 4 4 5 2 6 1 7 3 8 5 9 6 12 7 13 8 14 13 15
REMARK SMILES IDX 9 16 12 17 10 18 11 19 18 21 19 22 20 23 21 24 22 25 23 26
REMARK SMILES IDX 81 27 24 28 80 29 25 30 26 31 27 32 74 33 28 34 79 35 73 36
REMARK SMILES IDX 75 37 29 38 78 39 72 40 71 41 30 43 60 44 41 45 59 46 42 47
REMARK SMILES IDX 45 48 58 49 76 50 43 51 44 52 57 54 77 55 46 56 31 57 32 58
REMARK SMILES IDX 40 59 33 60 39 61 34 62 35 63 36 64 37 65 38 66 61 67 62 68
REMARK SMILES IDX 70 69 63 70 69 71 64 72 65 73 66 74 67 75 68 76 47 77 48 78
REMARK SMILES IDX 56 79 49 80 55 81 50 82 51 83 52 84 53 85 54 86
REMARK H PARENT 5 10 5 11 11 20 75 42 45 53
REMARK Flexibility Score: inf
ROOT
ATOM      1  C   UNL A   1      31.969  29.073  27.109  1.00  0.00     0.274 C 
ENDROOT
BRANCH   1   2
ATOM      2  O   UNL A   1      32.701  28.290  26.148  1.00  0.00    -0.458 OA
BRANCH   2   3
ATOM      3  C   UNL A   1      31.979  27.385  25.425  1.00  0.00     0.365 C 
ATOM      4  O   UNL A   1      31.482  26.366  25.892  1.00  0.00    -0.245 OA
BRANCH   3   5
ATOM      5  C   UNL A   1      31.939  27.707  23.913  1.00  0.00     0.296 C 
BRANCH   5   6
ATOM      6  C   UNL A   1      33.346  27.466  23.285  1.00  0.00     0.053 C 
ATOM      7  C   UNL A   1      33.341  26.419  22.164  1.00  0.00     0.014 C 
ATOM      8  C   UNL A   1      34.058  28.729  22.796  1.00  0.00     0.014 C 
ENDBRANCH   5   6
BRANCH   5   9
ATOM      9  N   UNL A   1      31.348  29.046  23.637  1.00  0.00    -0.329 N 
ATOM     10  H   UNL A   1      31.867  29.494  22.881  1.00  0.00     0.347 HD
ATOM     11  H   UNL A   1      31.404  29.613  24.483  1.00  0.00     0.347 HD
BRANCH   9  12
ATOM     12  C   UNL A   1      29.927  28.910  23.241  1.00  0.00     0.318 C 
BRANCH  12  13
ATOM     13  C   UNL A   1      29.316  30.195  22.720  1.00  0.00     0.095 A 
ATOM     14  C   UNL A   1      29.062  31.262  23.582  1.00  0.00     0.033 A 
ATOM     15  N   UNL A   1      29.004  30.239  21.399  1.00  0.00    -0.251 NA
ATOM     16  C   UNL A   1      28.482  32.421  23.073  1.00  0.00     0.050 A 
ATOM     17  C   UNL A   1      28.416  31.367  20.936  1.00  0.00     0.157 A 
ATOM     18  C   UNL A   1      28.151  32.472  21.727  1.00  0.00     0.133 A 
BRANCH  18  19
ATOM     19  O   UNL A   1      27.578  33.575  21.171  1.00  0.00    -0.506 OA
ATOM     20  H   UNL A   1      27.088  34.168  21.706  1.00  0.00     0.293 HD
ENDBRANCH  18  19
ENDBRANCH  12  13
ENDBRANCH   9  12
ENDBRANCH   5   9
ENDBRANCH   3   5
ENDBRANCH   2   3
ENDBRANCH   1   2
BRANCH   1  21
ATOM     21  C   UNL A   1      32.337  30.553  27.034  1.00  0.00     0.275 C 
BRANCH  21  22
ATOM     22  O   UNL A   1      33.753  30.707  26.847  1.00  0.00    -0.458 OA
BRANCH  22  23
ATOM     23  C   UNL A   1      34.351  31.569  27.697  1.00  0.00     0.338 C 
ATOM     24  O   UNL A   1      33.911  32.623  28.122  1.00  0.00    -0.246 OA
BRANCH  23  25
ATOM     25  C   UNL A   1      35.643  31.012  28.119  1.00  0.00     0.060 A 
ATOM     26  C   UNL A   1      35.694  29.694  28.576  1.00  0.00     0.016 A 
ATOM     27  C   UNL A   1      36.768  31.832  28.178  1.00  0.00     0.016 A 
ATOM     28  C   UNL A   1      36.865  29.196  29.139  1.00  0.00     0.010 A 
ATOM     29  C   UNL A   1      37.950  31.324  28.719  1.00  0.00     0.010 A 
ATOM     30  C   UNL A   1      37.996  30.015  29.230  1.00  0.00    -0.014 A 
BRANCH  30  31
ATOM     31  C   UNL A   1      39.198  29.534  29.951  1.00  0.00     0.031 A 
ATOM     32  C   UNL A   1      39.594  30.195  31.242  1.00  0.00     0.074 A 
ATOM     33  C   UNL A   1      39.915  28.505  29.464  1.00  0.00     0.049 A 
ATOM     34  N   UNL A   1      40.667  30.014  31.968  1.00  0.00    -0.248 NA
ATOM     35  C   UNL A   1      38.661  31.198  31.783  1.00  0.00     0.031 C 
ATOM     36  C   UNL A   1      39.593  27.744  28.256  1.00  0.00     0.029 A 
ATOM     37  N   UNL A   1      41.065  27.924  29.932  1.00  0.00    -0.354 N 
ATOM     38  C   UNL A   1      40.554  30.900  33.033  1.00  0.00     0.074 A 
ATOM     39  C   UNL A   1      39.315  31.626  32.853  1.00  0.00     0.031 C 
ATOM     40  C   UNL A   1      40.525  26.792  28.080  1.00  0.00     0.029 A 
ATOM     41  C   UNL A   1      41.532  26.909  29.131  1.00  0.00     0.049 A 
ATOM     42  H   UNL A   1      41.514  28.205  30.762  1.00  0.00     0.167 HD
ATOM     43  C   UNL A   1      41.410  31.094  34.065  1.00  0.00     0.031 A 
ATOM     44  C   UNL A   1      42.659  26.178  29.219  1.00  0.00     0.031 A 
ATOM     45  C   UNL A   1      42.636  30.362  34.241  1.00  0.00     0.049 A 
ATOM     46  C   UNL A   1      43.616  26.440  30.349  1.00  0.00     0.074 A 
ATOM     47  C   UNL A   1      43.580  30.491  35.245  1.00  0.00     0.029 A 
ATOM     48  N   UNL A   1      43.083  29.356  33.398  1.00  0.00    -0.354 N 
ATOM     49  N   UNL A   1      43.518  27.312  31.326  1.00  0.00    -0.248 NA
ATOM     50  C   UNL A   1      44.835  25.622  30.389  1.00  0.00     0.031 C 
ATOM     51  C   UNL A   1      44.615  29.582  34.989  1.00  0.00     0.029 A 
ATOM     52  C   UNL A   1      44.291  28.858  33.853  1.00  0.00     0.049 A 
ATOM     53  H   UNL A   1      42.609  29.042  32.594  1.00  0.00     0.167 HD
ATOM     54  C   UNL A   1      44.652  27.130  32.109  1.00  0.00     0.074 A 
ATOM     55  C   UNL A   1      45.415  26.059  31.499  1.00  0.00     0.031 C 
ATOM     56  C   UNL A   1      45.031  27.790  33.231  1.00  0.00     0.031 A 
BRANCH  43  57
ATOM     57  C   UNL A   1      41.064  32.173  35.054  1.00  0.00    -0.014 A 
ATOM     58  C   UNL A   1      40.097  31.966  36.054  1.00  0.00     0.010 A 
ATOM     59  C   UNL A   1      41.728  33.411  34.988  1.00  0.00     0.010 A 
ATOM     60  C   UNL A   1      39.772  32.993  36.945  1.00  0.00     0.020 A 
ATOM     61  C   UNL A   1      41.422  34.432  35.891  1.00  0.00     0.020 A 
ATOM     62  C   UNL A   1      40.431  34.223  36.853  1.00  0.00     0.054 A 
BRANCH  62  63
ATOM     63  S   UNL A   1      40.001  35.538  38.026  1.00  0.00     0.124 S 
ATOM     64  O   UNL A   1      39.823  36.685  37.140  1.00  0.00    -0.237 OA
ATOM     65  O   UNL A   1      38.780  35.032  38.649  1.00  0.00    -0.237 OA
ATOM     66  O   UNL A   1      41.163  35.607  38.910  1.00  0.00    -0.744 OA
ENDBRANCH  62  63
ENDBRANCH  43  57
BRANCH  44  67
ATOM     67  C   UNL A   1      42.956  25.147  28.189  1.00  0.00    -0.014 A 
ATOM     68  C   UNL A   1      43.698  25.474  27.042  1.00  0.00     0.010 A 
ATOM     69  C   UNL A   1      42.503  23.825  28.359  1.00  0.00     0.010 A 
ATOM     70  C   UNL A   1      43.972  24.501  26.076  1.00  0.00     0.020 A 
ATOM     71  C   UNL A   1      42.796  22.845  27.407  1.00  0.00     0.020 A 
ATOM     72  C   UNL A   1      43.519  23.193  26.265  1.00  0.00     0.054 A 
BRANCH  72  73
ATOM     73  S   UNL A   1      43.931  21.930  25.027  1.00  0.00     0.124 S 
ATOM     74  O   UNL A   1      45.349  21.704  25.286  1.00  0.00    -0.237 OA
ATOM     75  O   UNL A   1      43.038  20.831  25.383  1.00  0.00    -0.237 OA
ATOM     76  O   UNL A   1      43.621  22.585  23.758  1.00  0.00    -0.744 OA
ENDBRANCH  72  73
ENDBRANCH  44  67
BRANCH  56  77
ATOM     77  C   UNL A   1      46.306  27.343  33.891  1.00  0.00    -0.014 A 
ATOM     78  C   UNL A   1      47.540  27.932  33.566  1.00  0.00     0.010 A 
ATOM     79  C   UNL A   1      46.259  26.342  34.878  1.00  0.00     0.010 A 
ATOM     80  C   UNL A   1      48.714  27.500  34.190  1.00  0.00     0.020 A 
ATOM     81  C   UNL A   1      47.427  25.923  35.519  1.00  0.00     0.020 A 
ATOM     82  C   UNL A   1      48.650  26.493  35.160  1.00  0.00     0.054 A 
BRANCH  82  83
ATOM     83  S   UNL A   1      50.179  25.966  35.980  1.00  0.00     0.124 S 
ATOM     84  O   UNL A   1      51.201  26.466  35.064  1.00  0.00    -0.237 OA
ATOM     85  O   UNL A   1      50.106  26.645  37.271  1.00  0.00    -0.237 OA
ATOM     86  O   UNL A   1      50.053  24.511  36.039  1.00  0.00    -0.744 OA
ENDBRANCH  82  83
ENDBRANCH  56  77
ENDBRANCH  30  31
ENDBRANCH  23  25
ENDBRANCH  22  23
ENDBRANCH  21  22
ENDBRANCH   1  21
TORSDOF 19
ENDMDL
MODEL 3
REMARK VINA RESULT:      -9.2      5.101     11.164
REMARK SMILES CC(C)[C@H]([NH2+]Cc1ccc(O)cn1)C(=O)OCCOC(=O)c1ccc(-c2c3nc(c(-c4ccc(S(=O)(=O)[O-])cc4)c4ccc([nH]4)c(-c4ccc(S(=O)(=O)[O-])cc4)c4nc(c(-c5ccc(S(=O)(=O)[O-])cc5)c5ccc2[nH]5)C=C4)C=C3)cc1
REMARK SMILES IDX 17 1 16 2 14 3 15 4 4 5 2 6 1 7 3 8 5 9 6 12 7 13 8 14 13 15
REMARK SMILES IDX 9 16 12 17 10 18 11 19 18 21 19 22 20 23 21 24 22 25 23 26
REMARK SMILES IDX 81 27 24 28 80 29 25 30 26 31 27 32 74 33 28 34 79 35 73 36
REMARK SMILES IDX 75 37 29 38 78 39 72 40 71 41 30 43 60 44 41 45 59 46 42 47
REMARK SMILES IDX 45 48 58 49 76 50 43 51 44 52 57 54 77 55 46 56 31 57 32 58
REMARK SMILES IDX 40 59 33 60 39 61 34 62 35 63 36 64 37 65 38 66 61 67 62 68
REMARK SMILES IDX 70 69 63 70 69 71 64 72 65 73 66 74 67 75 68 76 47 77 48 78
REMARK SMILES IDX 56 79 49 80 55 81 50 82 51 83 52 84 53 85 54 86
REMARK H PARENT 5 10 5 11 11 20 75 42 45 53
REMARK Flexibility Score: inf
ROOT
ATOM      1  C   UNL A   1      32.142  31.155  26.508  1.00  0.00     0.274 C 
ENDROOT
BRANCH   1   2
ATOM      2  O   UNL A   1      32.688  30.092  25.705  1.00  0.00    -0.458 OA
BRANCH   2   3
ATOM      3  C   UNL A   1      31.941  28.953  25.615  1.00  0.00     0.365 C 
ATOM      4  O   UNL A   1      31.429  28.385  26.574  1.00  0.00    -0.245 OA
BRANCH   3   5
ATOM      5  C   UNL A   1      31.892  28.369  24.184  1.00  0.00     0.296 C 
BRANCH   5   6
ATOM      6  C   UNL A   1      33.292  27.801  23.798  1.00  0.00     0.053 C 
ATOM      7  C   UNL A   1      33.745  26.639  24.690  1.00  0.00     0.014 C 
ATOM      8  C   UNL A   1      33.441  27.400  22.329  1.00  0.00     0.014 C 
ENDBRANCH   5   6
BRANCH   5   9
ATOM      9  N   UNL A   1      31.308  29.326  23.204  1.00  0.00    -0.329 N 
ATOM     10  H   UNL A   1      31.533  29.017  22.258  1.00  0.00     0.347 HD
ATOM     11  H   UNL A   1      31.701  30.253  23.371  1.00  0.00     0.347 HD
BRANCH   9  12
ATOM     12  C   UNL A   1      29.836  29.392  23.361  1.00  0.00     0.318 C 
BRANCH  12  13
ATOM     13  C   UNL A   1      29.196  30.540  22.607  1.00  0.00     0.095 A 
ATOM     14  C   UNL A   1      29.057  31.792  23.204  1.00  0.00     0.033 A 
ATOM     15  N   UNL A   1      28.741  30.278  21.354  1.00  0.00    -0.251 NA
ATOM     16  C   UNL A   1      28.446  32.820  22.489  1.00  0.00     0.050 A 
ATOM     17  C   UNL A   1      28.127  31.286  20.693  1.00  0.00     0.157 A 
ATOM     18  C   UNL A   1      27.970  32.559  21.213  1.00  0.00     0.133 A 
BRANCH  18  19
ATOM     19  O   UNL A   1      27.360  33.521  20.466  1.00  0.00    -0.506 OA
ATOM     20  H   UNL A   1      27.794  34.335  20.306  1.00  0.00     0.293 HD
ENDBRANCH  18  19
ENDBRANCH  12  13
ENDBRANCH   9  12
ENDBRANCH   5   9
ENDBRANCH   3   5
ENDBRANCH   2   3
ENDBRANCH   1   2
BRANCH   1  21
ATOM     21  C   UNL A   1      33.127  31.620  27.579  1.00  0.00     0.275 C 
BRANCH  21  22
ATOM     22  O   UNL A   1      33.591  32.947  27.289  1.00  0.00    -0.458 OA
BRANCH  22  23
ATOM     23  C   UNL A   1      33.483  33.826  28.310  1.00  0.00     0.338 C 
ATOM     24  O   UNL A   1      32.596  34.637  28.503  1.00  0.00    -0.246 OA
BRANCH  23  25
ATOM     25  C   UNL A   1      34.599  33.622  29.242  1.00  0.00     0.060 A 
ATOM     26  C   UNL A   1      35.867  34.093  28.893  1.00  0.00     0.016 A 
ATOM     27  C   UNL A   1      34.413  32.861  30.394  1.00  0.00     0.016 A 
ATOM     28  C   UNL A   1      36.971  33.767  29.674  1.00  0.00     0.010 A 
ATOM     29  C   UNL A   1      35.518  32.555  31.191  1.00  0.00     0.010 A 
ATOM     30  C   UNL A   1      36.806  32.980  30.819  1.00  0.00    -0.014 A 
BRANCH  30  31
ATOM     31  C   UNL A   1      37.994  32.519  31.574  1.00  0.00     0.031 A 
ATOM     32  C   UNL A   1      38.829  31.399  31.018  1.00  0.00     0.074 A 
ATOM     33  C   UNL A   1      38.332  33.108  32.735  1.00  0.00     0.049 A 
ATOM     34  N   UNL A   1      39.832  30.765  31.566  1.00  0.00    -0.248 NA
ATOM     35  C   UNL A   1      38.484  30.928  29.666  1.00  0.00     0.031 C 
ATOM     36  C   UNL A   1      37.637  34.244  33.343  1.00  0.00     0.029 A 
ATOM     37  N   UNL A   1      39.350  32.829  33.611  1.00  0.00    -0.354 N 
ATOM     38  C   UNL A   1      40.218  29.800  30.643  1.00  0.00     0.074 A 
ATOM     39  C   UNL A   1      39.334  29.925  29.504  1.00  0.00     0.031 C 
ATOM     40  C   UNL A   1      38.252  34.567  34.494  1.00  0.00     0.029 A 
ATOM     41  C   UNL A   1      39.349  33.632  34.726  1.00  0.00     0.049 A 
ATOM     42  H   UNL A   1      40.018  32.122  33.455  1.00  0.00     0.167 HD
ATOM     43  C   UNL A   1      41.216  28.890  30.739  1.00  0.00     0.031 A 
ATOM     44  C   UNL A   1      40.127  33.598  35.824  1.00  0.00     0.031 A 
ATOM     45  C   UNL A   1      42.096  28.777  31.872  1.00  0.00     0.049 A 
ATOM     46  C   UNL A   1      41.202  32.550  35.928  1.00  0.00     0.074 A 
ATOM     47  C   UNL A   1      43.131  27.880  32.074  1.00  0.00     0.029 A 
ATOM     48  N   UNL A   1      42.052  29.597  32.990  1.00  0.00    -0.354 N 
ATOM     49  N   UNL A   1      41.528  31.616  35.066  1.00  0.00    -0.248 NA
ATOM     50  C   UNL A   1      42.012  32.551  37.153  1.00  0.00     0.031 C 
ATOM     51  C   UNL A   1      43.691  28.139  33.332  1.00  0.00     0.029 A 
ATOM     52  C   UNL A   1      43.035  29.224  33.889  1.00  0.00     0.049 A 
ATOM     53  H   UNL A   1      41.415  30.335  33.123  1.00  0.00     0.167 HD
ATOM     54  C   UNL A   1      42.596  30.932  35.635  1.00  0.00     0.074 A 
ATOM     55  C   UNL A   1      42.868  31.568  36.909  1.00  0.00     0.031 C 
ATOM     56  C   UNL A   1      43.289  29.873  35.150  1.00  0.00     0.031 A 
BRANCH  43  57
ATOM     57  C   UNL A   1      41.373  27.916  29.603  1.00  0.00    -0.014 A 
ATOM     58  C   UNL A   1      42.439  28.021  28.692  1.00  0.00     0.010 A 
ATOM     59  C   UNL A   1      40.443  26.871  29.453  1.00  0.00     0.010 A 
ATOM     60  C   UNL A   1      42.549  27.121  27.627  1.00  0.00     0.020 A 
ATOM     61  C   UNL A   1      40.563  25.956  28.405  1.00  0.00     0.020 A 
ATOM     62  C   UNL A   1      41.605  26.099  27.486  1.00  0.00     0.054 A 
BRANCH  62  63
ATOM     63  S   UNL A   1      41.772  24.937  26.103  1.00  0.00     0.124 S 
ATOM     64  O   UNL A   1      41.571  25.810  24.950  1.00  0.00    -0.237 OA
ATOM     65  O   UNL A   1      43.130  24.424  26.273  1.00  0.00    -0.237 OA
ATOM     66  O   UNL A   1      40.709  23.962  26.339  1.00  0.00    -0.744 OA
ENDBRANCH  62  63
ENDBRANCH  43  57
BRANCH  44  67
ATOM     67  C   UNL A   1      39.899  34.571  36.926  1.00  0.00    -0.014 A 
ATOM     68  C   UNL A   1      38.980  34.290  37.950  1.00  0.00     0.010 A 
ATOM     69  C   UNL A   1      40.612  35.784  36.958  1.00  0.00     0.010 A 
ATOM     70  C   UNL A   1      38.767  35.209  38.981  1.00  0.00     0.020 A 
ATOM     71  C   UNL A   1      40.420  36.694  38.001  1.00  0.00     0.020 A 
ATOM     72  C   UNL A   1      39.489  36.406  38.999  1.00  0.00     0.054 A 
BRANCH  72  73
ATOM     73  S   UNL A   1      39.240  37.563  40.376  1.00  0.00     0.124 S 
ATOM     74  O   UNL A   1      38.905  36.662  41.473  1.00  0.00    -0.237 OA
ATOM     75  O   UNL A   1      40.537  38.227  40.473  1.00  0.00    -0.237 OA
ATOM     76  O   UNL A   1      38.149  38.416  39.909  1.00  0.00    -0.744 OA
ENDBRANCH  72  73
ENDBRANCH  44  67
BRANCH  56  77
ATOM     77  C   UNL A   1      44.434  29.364  35.982  1.00  0.00    -0.014 A 
ATOM     78  C   UNL A   1      45.721  29.918  35.866  1.00  0.00     0.010 A 
ATOM     79  C   UNL A   1      44.207  28.340  36.919  1.00  0.00     0.010 A 
ATOM     80  C   UNL A   1      46.772  29.429  36.647  1.00  0.00     0.020 A 
ATOM     81  C   UNL A   1      45.249  27.865  37.717  1.00  0.00     0.020 A 
ATOM     82  C   UNL A   1      46.530  28.400  37.564  1.00  0.00     0.054 A 
BRANCH  82  83
ATOM     83  S   UNL A   1      47.899  27.799  38.590  1.00  0.00     0.124 S 
ATOM     84  O   UNL A   1      48.568  29.043  38.962  1.00  0.00    -0.237 OA
ATOM     85  O   UNL A   1      47.211  27.106  39.678  1.00  0.00    -0.237 OA
ATOM     86  O   UNL A   1      48.652  26.932  37.686  1.00  0.00    -0.744 OA
ENDBRANCH  82  83
ENDBRANCH  56  77
ENDBRANCH  30  31
ENDBRANCH  23  25
ENDBRANCH  22  23
ENDBRANCH  21  22
ENDBRANCH   1  21
TORSDOF 19
ENDMDL
