MODEL 1
REMARK VINA RESULT:     -11.4      0.000      0.000
REMARK SMILES CS(=O)(=O)c1ccc(-n2nc(C(F)(F)F)cc2-c2ccc(CC(=O)OCCOC(=O)c3ccc(-c4c5nc(c(-c6ccc(S(=O)(=O)[O-])cc6)c6ccc([nH]6)c(-c6ccc(S(=O)(=O)[O-])cc6)c6nc(c(-c7ccc(S(=O)(=O)[O-])cc7)c7ccc4[nH]7)C=C6)C=C5)cc3)cc2)cc1
REMARK SMILES IDX 26 1 25 2 23 3 24 4 22 5 21 6 18 7 19 8 92 9 20 10 91 11
REMARK SMILES IDX 17 12 9 13 10 14 11 15 16 16 8 17 5 18 6 19 94 20 7 21 93 22
REMARK SMILES IDX 2 23 1 24 3 25 4 26 12 27 13 28 14 29 15 30 27 31 28 32
REMARK SMILES IDX 29 33 30 34 31 35 32 36 90 37 33 38 89 39 34 40 35 41 36 42
REMARK SMILES IDX 83 43 37 44 88 45 82 46 84 47 38 48 87 49 81 50 80 51 39 53
REMARK SMILES IDX 69 54 50 55 68 56 51 57 54 58 67 59 85 60 52 61 53 62 66 64
REMARK SMILES IDX 86 65 55 66 40 67 41 68 49 69 42 70 48 71 43 72 44 73 45 74
REMARK SMILES IDX 46 75 47 76 70 77 71 78 79 79 72 80 78 81 73 82 74 83 75 84
REMARK SMILES IDX 76 85 77 86 56 87 57 88 65 89 58 90 64 91 59 92 60 93 61 94
REMARK SMILES IDX 62 95 63 96
REMARK H PARENT 84 52 54 63
REMARK Flexibility Score: inf
ROOT
ATOM      1  C   UNL A   1      35.677  32.678  28.623  1.00  0.00     0.274 C 
ENDROOT
BRANCH   1   2
ATOM      2  O   UNL A   1      34.893  32.505  27.423  1.00  0.00    -0.462 OA
BRANCH   2   3
ATOM      3  C   UNL A   1      33.839  31.648  27.522  1.00  0.00     0.310 C 
ATOM      4  O   UNL A   1      32.667  31.984  27.364  1.00  0.00    -0.252 OA
BRANCH   3   5
ATOM      5  C   UNL A   1      34.206  30.248  27.970  1.00  0.00     0.158 C 
BRANCH   5   6
ATOM      6  C   UNL A   1      33.856  29.086  27.071  1.00  0.00    -0.037 A 
ATOM      7  C   UNL A   1      33.147  26.911  25.413  1.00  0.00     0.000 A 
ATOM      8  C   UNL A   1      32.360  27.241  26.515  1.00  0.00     0.010 A 
ATOM      9  C   UNL A   1      34.317  27.642  25.171  1.00  0.00     0.010 A 
ATOM     10  C   UNL A   1      32.733  28.298  27.345  1.00  0.00     0.005 A 
ATOM     11  C   UNL A   1      34.656  28.736  25.980  1.00  0.00     0.005 A 
BRANCH   7  12
ATOM     12  C   UNL A   1      32.752  25.810  24.540  1.00  0.00     0.075 A 
ATOM     13  N   UNL A   1      31.602  25.765  23.753  1.00  0.00    -0.233 N 
ATOM     14  N   UNL A   1      31.404  24.525  23.232  1.00  0.00    -0.163 NA
ATOM     15  C   UNL A   1      32.480  23.805  23.593  1.00  0.00     0.167 A 
ATOM     16  C   UNL A   1      33.334  24.564  24.427  1.00  0.00     0.064 A 
BRANCH  13  17
ATOM     17  C   UNL A   1      30.730  26.826  23.377  1.00  0.00     0.065 A 
ATOM     18  C   UNL A   1      29.041  28.946  22.684  1.00  0.00     0.067 A 
ATOM     19  C   UNL A   1      28.535  27.868  23.412  1.00  0.00     0.022 A 
ATOM     20  C   UNL A   1      30.387  28.972  22.303  1.00  0.00     0.022 A 
ATOM     21  C   UNL A   1      29.379  26.806  23.749  1.00  0.00     0.030 A 
ATOM     22  C   UNL A   1      31.237  27.924  22.669  1.00  0.00     0.030 A 
BRANCH  18  23
ATOM     23  S   UNL A   1      28.023  30.328  22.232  1.00  0.00     0.175 S 
ATOM     24  C   UNL A   1      28.918  31.798  22.646  1.00  0.00     0.163 C 
ATOM     25  O   UNL A   1      26.855  30.292  23.089  1.00  0.00    -0.224 OA
ATOM     26  O   UNL A   1      27.910  30.302  20.784  1.00  0.00    -0.224 OA
ENDBRANCH  18  23
ENDBRANCH  13  17
BRANCH  15  27
ATOM     27  C   UNL A   1      32.714  22.391  23.133  1.00  0.00     0.435 C 
ATOM     28  F   UNL A   1      33.374  21.622  24.034  1.00  0.00    -0.164 F 
ATOM     29  F   UNL A   1      31.544  21.755  22.843  1.00  0.00    -0.164 F 
ATOM     30  F   UNL A   1      33.447  22.356  21.983  1.00  0.00    -0.164 F 
ENDBRANCH  15  27
ENDBRANCH   7  12
ENDBRANCH   5   6
ENDBRANCH   3   5
ENDBRANCH   2   3
ENDBRANCH   1   2
BRANCH   1  31
ATOM     31  C   UNL A   1      34.955  33.449  29.730  1.00  0.00     0.275 C 
BRANCH  31  32
ATOM     32  O   UNL A   1      34.352  32.595  30.702  1.00  0.00    -0.458 OA
BRANCH  32  33
ATOM     33  C   UNL A   1      34.710  32.916  31.964  1.00  0.00     0.338 C 
ATOM     34  O   UNL A   1      34.216  33.790  32.658  1.00  0.00    -0.246 OA
BRANCH  33  35
ATOM     35  C   UNL A   1      35.930  32.225  32.366  1.00  0.00     0.060 A 
ATOM     36  C   UNL A   1      37.065  33.008  32.605  1.00  0.00     0.016 A 
ATOM     37  C   UNL A   1      36.015  30.854  32.120  1.00  0.00     0.016 A 
ATOM     38  C   UNL A   1      38.312  32.459  32.413  1.00  0.00     0.010 A 
ATOM     39  C   UNL A   1      37.261  30.305  31.924  1.00  0.00     0.010 A 
ATOM     40  C   UNL A   1      38.386  31.133  31.995  1.00  0.00    -0.014 A 
BRANCH  40  41
ATOM     41  C   UNL A   1      39.687  30.601  31.651  1.00  0.00     0.031 A 
ATOM     42  C   UNL A   1      40.610  30.438  32.795  1.00  0.00     0.074 A 
ATOM     43  C   UNL A   1      39.931  30.130  30.415  1.00  0.00     0.049 A 
ATOM     44  N   UNL A   1      41.797  30.923  32.942  1.00  0.00    -0.248 NA
ATOM     45  C   UNL A   1      40.091  29.737  33.982  1.00  0.00     0.031 C 
ATOM     46  C   UNL A   1      38.977  29.999  29.310  1.00  0.00     0.029 A 
ATOM     47  N   UNL A   1      41.043  29.501  29.948  1.00  0.00    -0.354 N 
ATOM     48  C   UNL A   1      42.249  30.437  34.164  1.00  0.00     0.074 A 
ATOM     49  C   UNL A   1      41.107  29.868  34.830  1.00  0.00     0.031 C 
ATOM     50  C   UNL A   1      39.461  29.103  28.424  1.00  0.00     0.029 A 
ATOM     51  C   UNL A   1      40.787  28.686  28.853  1.00  0.00     0.049 A 
ATOM     52  H   UNL A   1      41.937  29.612  30.345  1.00  0.00     0.167 HD
ATOM     53  C   UNL A   1      43.572  30.320  34.459  1.00  0.00     0.031 A 
ATOM     54  C   UNL A   1      41.558  27.660  28.413  1.00  0.00     0.031 A 
ATOM     55  C   UNL A   1      44.405  31.052  33.546  1.00  0.00     0.049 A 
ATOM     56  C   UNL A   1      42.912  27.830  29.001  1.00  0.00     0.074 A 
ATOM     57  C   UNL A   1      44.524  32.382  33.200  1.00  0.00     0.029 A 
ATOM     58  N   UNL A   1      45.035  30.336  32.554  1.00  0.00    -0.354 N 
ATOM     59  N   UNL A   1      43.721  28.797  28.676  1.00  0.00    -0.248 NA
ATOM     60  C   UNL A   1      43.215  27.178  30.269  1.00  0.00     0.031 C 
ATOM     61  C   UNL A   1      44.820  32.378  31.808  1.00  0.00     0.029 A 
ATOM     62  C   UNL A   1      44.904  31.048  31.389  1.00  0.00     0.049 A 
ATOM     63  H   UNL A   1      45.496  29.473  32.661  1.00  0.00     0.167 HD
ATOM     64  C   UNL A   1      44.343  29.163  29.862  1.00  0.00     0.074 A 
ATOM     65  C   UNL A   1      44.091  28.053  30.776  1.00  0.00     0.031 C 
ATOM     66  C   UNL A   1      44.749  30.450  30.078  1.00  0.00     0.031 A 
BRANCH  53  67
ATOM     67  C   UNL A   1      44.112  29.239  35.354  1.00  0.00    -0.014 A 
ATOM     68  C   UNL A   1      44.937  29.589  36.439  1.00  0.00     0.010 A 
ATOM     69  C   UNL A   1      44.052  27.873  35.003  1.00  0.00     0.010 A 
ATOM     70  C   UNL A   1      45.705  28.622  37.103  1.00  0.00     0.020 A 
ATOM     71  C   UNL A   1      44.772  26.896  35.689  1.00  0.00     0.020 A 
ATOM     72  C   UNL A   1      45.626  27.285  36.711  1.00  0.00     0.054 A 
BRANCH  72  73
ATOM     73  S   UNL A   1      46.712  26.063  37.484  1.00  0.00     0.124 S 
ATOM     74  O   UNL A   1      47.006  26.696  38.766  1.00  0.00    -0.237 OA
ATOM     75  O   UNL A   1      45.860  24.879  37.540  1.00  0.00    -0.237 OA
ATOM     76  O   UNL A   1      47.838  25.972  36.557  1.00  0.00    -0.744 OA
ENDBRANCH  72  73
ENDBRANCH  53  67
BRANCH  54  77
ATOM     77  C   UNL A   1      41.100  26.408  27.760  1.00  0.00    -0.014 A 
ATOM     78  C   UNL A   1      41.904  25.745  26.815  1.00  0.00     0.010 A 
ATOM     79  C   UNL A   1      39.960  25.726  28.236  1.00  0.00     0.010 A 
ATOM     80  C   UNL A   1      41.604  24.435  26.403  1.00  0.00     0.020 A 
ATOM     81  C   UNL A   1      39.643  24.430  27.817  1.00  0.00     0.020 A 
ATOM     82  C   UNL A   1      40.483  23.780  26.920  1.00  0.00     0.054 A 
BRANCH  82  83
ATOM     83  S   UNL A   1      40.197  22.031  26.519  1.00  0.00     0.124 S 
ATOM     84  O   UNL A   1      38.847  22.053  25.964  1.00  0.00    -0.237 OA
ATOM     85  O   UNL A   1      41.267  21.745  25.569  1.00  0.00    -0.237 OA
ATOM     86  O   UNL A   1      40.326  21.356  27.810  1.00  0.00    -0.744 OA
ENDBRANCH  82  83
ENDBRANCH  54  77
BRANCH  66  87
ATOM     87  C   UNL A   1      44.756  31.402  28.902  1.00  0.00    -0.014 A 
ATOM     88  C   UNL A   1      45.663  31.290  27.829  1.00  0.00     0.010 A 
ATOM     89  C   UNL A   1      43.717  32.343  28.800  1.00  0.00     0.010 A 
ATOM     90  C   UNL A   1      45.556  32.120  26.704  1.00  0.00     0.020 A 
ATOM     91  C   UNL A   1      43.589  33.158  27.671  1.00  0.00     0.020 A 
ATOM     92  C   UNL A   1      44.517  33.049  26.634  1.00  0.00     0.054 A 
BRANCH  92  93
ATOM     93  S   UNL A   1      44.348  34.077  25.148  1.00  0.00     0.124 S 
ATOM     94  O   UNL A   1      44.307  33.083  24.079  1.00  0.00    -0.237 OA
ATOM     95  O   UNL A   1      43.099  34.796  25.390  1.00  0.00    -0.237 OA
ATOM     96  O   UNL A   1      45.547  34.915  25.167  1.00  0.00    -0.744 OA
ENDBRANCH  92  93
ENDBRANCH  66  87
ENDBRANCH  40  41
ENDBRANCH  33  35
ENDBRANCH  32  33
ENDBRANCH  31  32
ENDBRANCH   1  31
TORSDOF 19
ENDMDL
MODEL 2
REMARK VINA RESULT:     -11.4      3.362      9.851
REMARK SMILES CS(=O)(=O)c1ccc(-n2nc(C(F)(F)F)cc2-c2ccc(CC(=O)OCCOC(=O)c3ccc(-c4c5nc(c(-c6ccc(S(=O)(=O)[O-])cc6)c6ccc([nH]6)c(-c6ccc(S(=O)(=O)[O-])cc6)c6nc(c(-c7ccc(S(=O)(=O)[O-])cc7)c7ccc4[nH]7)C=C6)C=C5)cc3)cc2)cc1
REMARK SMILES IDX 26 1 25 2 23 3 24 4 22 5 21 6 18 7 19 8 92 9 20 10 91 11
REMARK SMILES IDX 17 12 9 13 10 14 11 15 16 16 8 17 5 18 6 19 94 20 7 21 93 22
REMARK SMILES IDX 2 23 1 24 3 25 4 26 12 27 13 28 14 29 15 30 27 31 28 32
REMARK SMILES IDX 29 33 30 34 31 35 32 36 90 37 33 38 89 39 34 40 35 41 36 42
REMARK SMILES IDX 83 43 37 44 88 45 82 46 84 47 38 48 87 49 81 50 80 51 39 53
REMARK SMILES IDX 69 54 50 55 68 56 51 57 54 58 67 59 85 60 52 61 53 62 66 64
REMARK SMILES IDX 86 65 55 66 40 67 41 68 49 69 42 70 48 71 43 72 44 73 45 74
REMARK SMILES IDX 46 75 47 76 70 77 71 78 79 79 72 80 78 81 73 82 74 83 75 84
REMARK SMILES IDX 76 85 77 86 56 87 57 88 65 89 58 90 64 91 59 92 60 93 61 94
REMARK SMILES IDX 62 95 63 96
REMARK H PARENT 84 52 54 63
REMARK Flexibility Score: inf
ROOT
ATOM      1  C   UNL A   1      42.239  18.917  26.213  1.00  0.00     0.274 C 
ENDROOT
BRANCH   1   2
ATOM      2  O   UNL A   1      40.954  19.510  25.927  1.00  0.00    -0.462 OA
BRANCH   2   3
ATOM      3  C   UNL A   1      40.619  20.591  26.686  1.00  0.00     0.310 C 
ATOM      4  O   UNL A   1      40.463  20.548  27.905  1.00  0.00    -0.252 OA
BRANCH   3   5
ATOM      5  C   UNL A   1      40.324  21.848  25.894  1.00  0.00     0.158 C 
BRANCH   5   6
ATOM      6  C   UNL A   1      38.909  22.374  25.871  1.00  0.00    -0.037 A 
ATOM      7  C   UNL A   1      36.282  23.413  25.833  1.00  0.00     0.000 A 
ATOM      8  C   UNL A   1      37.337  24.185  26.318  1.00  0.00     0.010 A 
ATOM      9  C   UNL A   1      36.538  22.103  25.411  1.00  0.00     0.010 A 
ATOM     10  C   UNL A   1      38.626  23.654  26.360  1.00  0.00     0.005 A 
ATOM     11  C   UNL A   1      37.845  21.596  25.408  1.00  0.00     0.005 A 
BRANCH   7  12
ATOM     12  C   UNL A   1      34.935  23.973  25.782  1.00  0.00     0.075 A 
ATOM     13  N   UNL A   1      33.795  23.315  25.320  1.00  0.00    -0.233 N 
ATOM     14  N   UNL A   1      32.745  24.170  25.192  1.00  0.00    -0.163 NA
ATOM     15  C   UNL A   1      33.178  25.348  25.673  1.00  0.00     0.167 A 
ATOM     16  C   UNL A   1      34.543  25.272  26.033  1.00  0.00     0.064 A 
BRANCH  13  17
ATOM     17  C   UNL A   1      33.595  21.926  25.081  1.00  0.00     0.065 A 
ATOM     18  C   UNL A   1      33.263  19.186  24.623  1.00  0.00     0.067 A 
ATOM     19  C   UNL A   1      33.297  20.068  23.543  1.00  0.00     0.022 A 
ATOM     20  C   UNL A   1      33.398  19.664  25.932  1.00  0.00     0.022 A 
ATOM     21  C   UNL A   1      33.454  21.438  23.775  1.00  0.00     0.030 A 
ATOM     22  C   UNL A   1      33.586  21.031  26.159  1.00  0.00     0.030 A 
BRANCH  18  23
ATOM     23  S   UNL A   1      33.074  17.435  24.395  1.00  0.00     0.175 S 
ATOM     24  C   UNL A   1      34.565  16.667  24.960  1.00  0.00     0.163 C 
ATOM     25  O   UNL A   1      32.995  17.201  22.967  1.00  0.00    -0.224 OA
ATOM     26  O   UNL A   1      32.018  17.013  25.298  1.00  0.00    -0.224 OA
ENDBRANCH  18  23
ENDBRANCH  13  17
BRANCH  15  27
ATOM     27  C   UNL A   1      32.288  26.554  25.813  1.00  0.00     0.435 C 
ATOM     28  F   UNL A   1      31.517  26.798  24.725  1.00  0.00    -0.164 F 
ATOM     29  F   UNL A   1      31.451  26.442  26.883  1.00  0.00    -0.164 F 
ATOM     30  F   UNL A   1      33.017  27.687  26.033  1.00  0.00    -0.164 F 
ENDBRANCH  15  27
ENDBRANCH   7  12
ENDBRANCH   5   6
ENDBRANCH   3   5
ENDBRANCH   2   3
ENDBRANCH   1   2
BRANCH   1  31
ATOM     31  C   UNL A   1      43.386  19.490  25.379  1.00  0.00     0.275 C 
BRANCH  31  32
ATOM     32  O   UNL A   1      43.756  20.811  25.774  1.00  0.00    -0.458 OA
BRANCH  32  33
ATOM     33  C   UNL A   1      44.193  21.557  24.736  1.00  0.00     0.338 C 
ATOM     34  O   UNL A   1      44.506  21.148  23.630  1.00  0.00    -0.246 OA
BRANCH  33  35
ATOM     35  C   UNL A   1      44.459  22.933  25.142  1.00  0.00     0.060 A 
ATOM     36  C   UNL A   1      45.410  23.135  26.148  1.00  0.00     0.016 A 
ATOM     37  C   UNL A   1      43.516  23.905  24.808  1.00  0.00     0.016 A 
ATOM     38  C   UNL A   1      45.305  24.242  26.958  1.00  0.00     0.010 A 
ATOM     39  C   UNL A   1      43.407  25.011  25.619  1.00  0.00     0.010 A 
ATOM     40  C   UNL A   1      44.252  25.123  26.729  1.00  0.00    -0.014 A 
BRANCH  40  41
ATOM     41  C   UNL A   1      44.054  26.204  27.671  1.00  0.00     0.031 A 
ATOM     42  C   UNL A   1      45.095  27.254  27.633  1.00  0.00     0.074 A 
ATOM     43  C   UNL A   1      42.909  26.306  28.369  1.00  0.00     0.049 A 
ATOM     44  N   UNL A   1      45.830  27.688  28.601  1.00  0.00    -0.248 NA
ATOM     45  C   UNL A   1      45.443  27.808  26.313  1.00  0.00     0.031 C 
ATOM     46  C   UNL A   1      41.717  25.461  28.249  1.00  0.00     0.029 A 
ATOM     47  N   UNL A   1      42.507  27.301  29.204  1.00  0.00    -0.354 N 
ATOM     48  C   UNL A   1      46.608  28.702  28.053  1.00  0.00     0.074 A 
ATOM     49  C   UNL A   1      46.456  28.612  26.623  1.00  0.00     0.031 C 
ATOM     50  C   UNL A   1      40.660  26.127  28.762  1.00  0.00     0.029 A 
ATOM     51  C   UNL A   1      41.126  27.384  29.327  1.00  0.00     0.049 A 
ATOM     52  H   UNL A   1      43.130  27.901  29.674  1.00  0.00     0.167 HD
ATOM     53  C   UNL A   1      47.144  29.700  28.806  1.00  0.00     0.031 A 
ATOM     54  C   UNL A   1      40.416  28.461  29.746  1.00  0.00     0.031 A 
ATOM     55  C   UNL A   1      47.114  29.404  30.210  1.00  0.00     0.049 A 
ATOM     56  C   UNL A   1      41.351  29.364  30.465  1.00  0.00     0.074 A 
ATOM     57  C   UNL A   1      47.657  28.414  31.003  1.00  0.00     0.029 A 
ATOM     58  N   UNL A   1      46.123  29.998  30.959  1.00  0.00    -0.354 N 
ATOM     59  N   UNL A   1      41.898  29.069  31.610  1.00  0.00    -0.248 NA
ATOM     60  C   UNL A   1      42.025  30.419  29.719  1.00  0.00     0.031 C 
ATOM     61  C   UNL A   1      46.679  28.162  32.006  1.00  0.00     0.029 A 
ATOM     62  C   UNL A   1      45.612  29.038  31.796  1.00  0.00     0.049 A 
ATOM     63  H   UNL A   1      45.835  30.938  30.905  1.00  0.00     0.167 HD
ATOM     64  C   UNL A   1      43.192  29.566  31.532  1.00  0.00     0.074 A 
ATOM     65  C   UNL A   1      43.170  30.494  30.405  1.00  0.00     0.031 C 
ATOM     66  C   UNL A   1      44.221  28.960  32.197  1.00  0.00     0.031 A 
BRANCH  53  67
ATOM     67  C   UNL A   1      47.352  31.093  28.279  1.00  0.00    -0.014 A 
ATOM     68  C   UNL A   1      46.234  31.865  27.910  1.00  0.00     0.010 A 
ATOM     69  C   UNL A   1      48.622  31.566  27.885  1.00  0.00     0.010 A 
ATOM     70  C   UNL A   1      46.383  33.025  27.137  1.00  0.00     0.020 A 
ATOM     71  C   UNL A   1      48.785  32.745  27.160  1.00  0.00     0.020 A 
ATOM     72  C   UNL A   1      47.658  33.447  26.756  1.00  0.00     0.054 A 
BRANCH  72  73
ATOM     73  S   UNL A   1      47.836  34.869  25.654  1.00  0.00     0.124 S 
ATOM     74  O   UNL A   1      46.614  34.783  24.859  1.00  0.00    -0.237 OA
ATOM     75  O   UNL A   1      47.905  35.985  26.593  1.00  0.00    -0.237 OA
ATOM     76  O   UNL A   1      49.075  34.589  24.933  1.00  0.00    -0.744 OA
ENDBRANCH  72  73
ENDBRANCH  53  67
BRANCH  54  77
ATOM     77  C   UNL A   1      39.060  28.872  29.303  1.00  0.00    -0.014 A 
ATOM     78  C   UNL A   1      37.994  28.964  30.216  1.00  0.00     0.010 A 
ATOM     79  C   UNL A   1      38.857  29.403  28.011  1.00  0.00     0.010 A 
ATOM     80  C   UNL A   1      36.794  29.605  29.864  1.00  0.00     0.020 A 
ATOM     81  C   UNL A   1      37.659  30.027  27.647  1.00  0.00     0.020 A 
ATOM     82  C   UNL A   1      36.641  30.148  28.585  1.00  0.00     0.054 A 
BRANCH  82  83
ATOM     83  S   UNL A   1      35.162  31.126  28.191  1.00  0.00     0.124 S 
ATOM     84  O   UNL A   1      34.693  31.530  29.513  1.00  0.00    -0.237 OA
ATOM     85  O   UNL A   1      35.701  32.195  27.357  1.00  0.00    -0.237 OA
ATOM     86  O   UNL A   1      34.297  30.177  27.490  1.00  0.00    -0.744 OA
ENDBRANCH  82  83
ENDBRANCH  54  77
BRANCH  66  87
ATOM     87  C   UNL A   1      43.881  27.911  33.233  1.00  0.00    -0.014 A 
ATOM     88  C   UNL A   1      43.863  26.530  32.950  1.00  0.00     0.010 A 
ATOM     89  C   UNL A   1      43.729  28.319  34.569  1.00  0.00     0.010 A 
ATOM     90  C   UNL A   1      43.662  25.589  33.968  1.00  0.00     0.020 A 
ATOM     91  C   UNL A   1      43.551  27.384  35.594  1.00  0.00     0.020 A 
ATOM     92  C   UNL A   1      43.507  26.024  35.285  1.00  0.00     0.054 A 
BRANCH  92  93
ATOM     93  S   UNL A   1      43.308  24.795  36.606  1.00  0.00     0.124 S 
ATOM     94  O   UNL A   1      43.601  25.572  37.807  1.00  0.00    -0.237 OA
ATOM     95  O   UNL A   1      41.918  24.372  36.450  1.00  0.00    -0.237 OA
ATOM     96  O   UNL A   1      44.298  23.769  36.277  1.00  0.00    -0.744 OA
ENDBRANCH  92  93
ENDBRANCH  66  87
ENDBRANCH  40  41
ENDBRANCH  33  35
ENDBRANCH  32  33
ENDBRANCH  31  32
ENDBRANCH   1  31
TORSDOF 19
ENDMDL
MODEL 3
REMARK VINA RESULT:     -11.3      2.688      3.600
REMARK SMILES CS(=O)(=O)c1ccc(-n2nc(C(F)(F)F)cc2-c2ccc(CC(=O)OCCOC(=O)c3ccc(-c4c5nc(c(-c6ccc(S(=O)(=O)[O-])cc6)c6ccc([nH]6)c(-c6ccc(S(=O)(=O)[O-])cc6)c6nc(c(-c7ccc(S(=O)(=O)[O-])cc7)c7ccc4[nH]7)C=C6)C=C5)cc3)cc2)cc1
REMARK SMILES IDX 26 1 25 2 23 3 24 4 22 5 21 6 18 7 19 8 92 9 20 10 91 11
REMARK SMILES IDX 17 12 9 13 10 14 11 15 16 16 8 17 5 18 6 19 94 20 7 21 93 22
REMARK SMILES IDX 2 23 1 24 3 25 4 26 12 27 13 28 14 29 15 30 27 31 28 32
REMARK SMILES IDX 29 33 30 34 31 35 32 36 90 37 33 38 89 39 34 40 35 41 36 42
REMARK SMILES IDX 83 43 37 44 88 45 82 46 84 47 38 48 87 49 81 50 80 51 39 53
REMARK SMILES IDX 69 54 50 55 68 56 51 57 54 58 67 59 85 60 52 61 53 62 66 64
REMARK SMILES IDX 86 65 55 66 40 67 41 68 49 69 42 70 48 71 43 72 44 73 45 74
REMARK SMILES IDX 46 75 47 76 70 77 71 78 79 79 72 80 78 81 73 82 74 83 75 84
REMARK SMILES IDX 76 85 77 86 56 87 57 88 65 89 58 90 64 91 59 92 60 93 61 94
REMARK SMILES IDX 62 95 63 96
REMARK H PARENT 84 52 54 63
REMARK Flexibility Score: inf
ROOT
ATOM      1  C   UNL A   1      35.545  33.674  28.419  1.00  0.00     0.274 C 
ENDROOT
BRANCH   1   2
ATOM      2  O   UNL A   1      35.358  32.460  27.660  1.00  0.00    -0.462 OA
BRANCH   2   3
ATOM      3  C   UNL A   1      36.148  31.410  28.019  1.00  0.00     0.310 C 
ATOM      4  O   UNL A   1      37.340  31.517  28.301  1.00  0.00    -0.252 OA
BRANCH   3   5
ATOM      5  C   UNL A   1      35.475  30.056  27.926  1.00  0.00     0.158 C 
BRANCH   5   6
ATOM      6  C   UNL A   1      34.258  29.911  27.044  1.00  0.00    -0.037 A 
ATOM      7  C   UNL A   1      32.009  29.595  25.365  1.00  0.00     0.000 A 
ATOM      8  C   UNL A   1      33.239  29.051  25.001  1.00  0.00     0.010 A 
ATOM      9  C   UNL A   1      31.918  30.339  26.548  1.00  0.00     0.010 A 
ATOM     10  C   UNL A   1      34.352  29.236  25.822  1.00  0.00     0.005 A 
ATOM     11  C   UNL A   1      33.028  30.475  27.392  1.00  0.00     0.005 A 
BRANCH   7  12
ATOM     12  C   UNL A   1      30.843  29.394  24.509  1.00  0.00     0.075 A 
ATOM     13  N   UNL A   1      30.403  28.171  24.004  1.00  0.00    -0.233 N 
ATOM     14  N   UNL A   1      29.432  28.341  23.066  1.00  0.00    -0.163 NA
ATOM     15  C   UNL A   1      29.174  29.660  23.048  1.00  0.00     0.167 A 
ATOM     16  C   UNL A   1      30.046  30.353  23.918  1.00  0.00     0.064 A 
BRANCH  13  17
ATOM     17  C   UNL A   1      30.759  26.853  24.407  1.00  0.00     0.065 A 
ATOM     18  C   UNL A   1      31.413  24.240  25.164  1.00  0.00     0.067 A 
ATOM     19  C   UNL A   1      30.758  25.078  26.066  1.00  0.00     0.022 A 
ATOM     20  C   UNL A   1      31.741  24.699  23.882  1.00  0.00     0.022 A 
ATOM     21  C   UNL A   1      30.440  26.386  25.689  1.00  0.00     0.030 A 
ATOM     22  C   UNL A   1      31.395  25.998  23.496  1.00  0.00     0.030 A 
BRANCH  18  23
ATOM     23  S   UNL A   1      31.837  22.567  25.579  1.00  0.00     0.175 S 
ATOM     24  C   UNL A   1      32.912  22.629  26.983  1.00  0.00     0.163 C 
ATOM     25  O   UNL A   1      32.616  22.042  24.475  1.00  0.00    -0.224 OA
ATOM     26  O   UNL A   1      30.610  21.927  26.019  1.00  0.00    -0.224 OA
ENDBRANCH  18  23
ENDBRANCH  13  17
BRANCH  15  27
ATOM     27  C   UNL A   1      28.080  30.271  22.214  1.00  0.00     0.435 C 
ATOM     28  F   UNL A   1      27.018  29.452  22.014  1.00  0.00    -0.164 F 
ATOM     29  F   UNL A   1      27.602  31.419  22.772  1.00  0.00    -0.164 F 
ATOM     30  F   UNL A   1      28.535  30.624  20.977  1.00  0.00    -0.164 F 
ENDBRANCH  15  27
ENDBRANCH   7  12
ENDBRANCH   5   6
ENDBRANCH   3   5
ENDBRANCH   2   3
ENDBRANCH   1   2
BRANCH   1  31
ATOM     31  C   UNL A   1      34.778  33.704  29.742  1.00  0.00     0.275 C 
BRANCH  31  32
ATOM     32  O   UNL A   1      34.694  32.423  30.366  1.00  0.00    -0.458 OA
BRANCH  32  33
ATOM     33  C   UNL A   1      34.864  32.489  31.705  1.00  0.00     0.338 C 
ATOM     34  O   UNL A   1      34.210  33.160  32.487  1.00  0.00    -0.246 OA
BRANCH  33  35
ATOM     35  C   UNL A   1      36.085  31.810  32.124  1.00  0.00     0.060 A 
ATOM     36  C   UNL A   1      37.205  32.605  32.393  1.00  0.00     0.016 A 
ATOM     37  C   UNL A   1      36.193  30.443  31.865  1.00  0.00     0.016 A 
ATOM     38  C   UNL A   1      38.462  32.075  32.219  1.00  0.00     0.010 A 
ATOM     39  C   UNL A   1      37.450  29.912  31.687  1.00  0.00     0.010 A 
ATOM     40  C   UNL A   1      38.562  30.755  31.789  1.00  0.00    -0.014 A 
BRANCH  40  41
ATOM     41  C   UNL A   1      39.877  30.244  31.465  1.00  0.00     0.031 A 
ATOM     42  C   UNL A   1      40.798  30.134  32.616  1.00  0.00     0.074 A 
ATOM     43  C   UNL A   1      40.137  29.744  30.244  1.00  0.00     0.049 A 
ATOM     44  N   UNL A   1      41.973  30.651  32.754  1.00  0.00    -0.248 NA
ATOM     45  C   UNL A   1      40.290  29.455  33.821  1.00  0.00     0.031 C 
ATOM     46  C   UNL A   1      39.191  29.560  29.139  1.00  0.00     0.029 A 
ATOM     47  N   UNL A   1      41.265  29.129  29.799  1.00  0.00    -0.354 N 
ATOM     48  C   UNL A   1      42.431  30.209  33.991  1.00  0.00     0.074 A 
ATOM     49  C   UNL A   1      41.299  29.632  34.669  1.00  0.00     0.031 C 
ATOM     50  C   UNL A   1      39.700  28.651  28.280  1.00  0.00     0.029 A 
ATOM     51  C   UNL A   1      41.033  28.278  28.726  1.00  0.00     0.049 A 
ATOM     52  H   UNL A   1      42.155  29.271  30.196  1.00  0.00     0.167 HD
ATOM     53  C   UNL A   1      43.755  30.131  34.294  1.00  0.00     0.031 A 
ATOM     54  C   UNL A   1      41.829  27.258  28.317  1.00  0.00     0.031 A 
ATOM     55  C   UNL A   1      44.574  30.856  33.365  1.00  0.00     0.049 A 
ATOM     56  C   UNL A   1      43.177  27.475  28.906  1.00  0.00     0.074 A 
ATOM     57  C   UNL A   1      44.665  32.179  32.982  1.00  0.00     0.029 A 
ATOM     58  N   UNL A   1      45.225  30.128  32.395  1.00  0.00    -0.354 N 
ATOM     59  N   UNL A   1      43.965  28.452  28.557  1.00  0.00    -0.248 NA
ATOM     60  C   UNL A   1      43.489  26.866  30.193  1.00  0.00     0.031 C 
ATOM     61  C   UNL A   1      44.966  32.143  31.591  1.00  0.00     0.029 A 
ATOM     62  C   UNL A   1      45.083  30.805  31.210  1.00  0.00     0.049 A 
ATOM     63  H   UNL A   1      45.706  29.279  32.528  1.00  0.00     0.167 HD
ATOM     64  C   UNL A   1      44.573  28.864  29.734  1.00  0.00     0.074 A 
ATOM     65  C   UNL A   1      44.342  27.775  30.678  1.00  0.00     0.031 C 
ATOM     66  C   UNL A   1      44.947  30.166  29.916  1.00  0.00     0.031 A 
BRANCH  53  67
ATOM     67  C   UNL A   1      44.316  29.088  35.221  1.00  0.00    -0.014 A 
ATOM     68  C   UNL A   1      44.607  27.805  34.720  1.00  0.00     0.010 A 
ATOM     69  C   UNL A   1      44.313  29.248  36.623  1.00  0.00     0.010 A 
ATOM     70  C   UNL A   1      44.831  26.727  35.586  1.00  0.00     0.020 A 
ATOM     71  C   UNL A   1      44.584  28.193  37.493  1.00  0.00     0.020 A 
ATOM     72  C   UNL A   1      44.803  26.928  36.968  1.00  0.00     0.054 A 
BRANCH  72  73
ATOM     73  S   UNL A   1      44.965  25.512  38.080  1.00  0.00     0.124 S 
ATOM     74  O   UNL A   1      44.454  26.059  39.334  1.00  0.00    -0.237 OA
ATOM     75  O   UNL A   1      44.122  24.510  37.434  1.00  0.00    -0.237 OA
ATOM     76  O   UNL A   1      46.396  25.223  38.059  1.00  0.00    -0.744 OA
ENDBRANCH  72  73
ENDBRANCH  53  67
BRANCH  54  77
ATOM     77  C   UNL A   1      41.404  25.977  27.698  1.00  0.00    -0.014 A 
ATOM     78  C   UNL A   1      42.175  25.363  26.695  1.00  0.00     0.010 A 
ATOM     79  C   UNL A   1      40.346  25.227  28.256  1.00  0.00     0.010 A 
ATOM     80  C   UNL A   1      41.928  24.036  26.304  1.00  0.00     0.020 A 
ATOM     81  C   UNL A   1      40.081  23.912  27.859  1.00  0.00     0.020 A 
ATOM     82  C   UNL A   1      40.891  23.313  26.902  1.00  0.00     0.054 A 
BRANCH  82  83
ATOM     83  S   UNL A   1      40.686  21.549  26.521  1.00  0.00     0.124 S 
ATOM     84  O   UNL A   1      40.714  20.937  27.845  1.00  0.00    -0.237 OA
ATOM     85  O   UNL A   1      39.395  21.521  25.838  1.00  0.00    -0.237 OA
ATOM     86  O   UNL A   1      41.836  21.244  25.670  1.00  0.00    -0.744 OA
ENDBRANCH  82  83
ENDBRANCH  54  77
BRANCH  66  87
ATOM     87  C   UNL A   1      44.938  31.085  28.714  1.00  0.00    -0.014 A 
ATOM     88  C   UNL A   1      43.757  31.646  28.186  1.00  0.00     0.010 A 
ATOM     89  C   UNL A   1      46.171  31.521  28.199  1.00  0.00     0.010 A 
ATOM     90  C   UNL A   1      43.808  32.587  27.148  1.00  0.00     0.020 A 
ATOM     91  C   UNL A   1      46.230  32.476  27.180  1.00  0.00     0.020 A 
ATOM     92  C   UNL A   1      45.047  32.996  26.652  1.00  0.00     0.054 A 
BRANCH  92  93
ATOM     93  S   UNL A   1      45.106  34.259  25.351  1.00  0.00     0.124 S 
ATOM     94  O   UNL A   1      44.417  35.386  25.973  1.00  0.00    -0.237 OA
ATOM     95  O   UNL A   1      46.540  34.437  25.135  1.00  0.00    -0.237 OA
ATOM     96  O   UNL A   1      44.393  33.640  24.233  1.00  0.00    -0.744 OA
ENDBRANCH  92  93
ENDBRANCH  66  87
ENDBRANCH  40  41
ENDBRANCH  33  35
ENDBRANCH  32  33
ENDBRANCH  31  32
ENDBRANCH   1  31
TORSDOF 19
ENDMDL
