MODEL 1
REMARK VINA RESULT:     -11.8      0.000      0.000
REMARK SMILES O=C(CC1(CC(=O)OCCOC(=O)c2ccc(-c3c4nc(c(-c5ccc(S(=O)(=O)[O-])cc5)c5ccc([nH]5)c(-c5ccc(S(=O)(=O)[O-])cc5)c5nc(c(-c6ccc(S(=O)(=O)[O-])cc6)c6ccc3[nH]6)C=C5)C=C4)cc2)CCCCC1)Nc1ccc2ccccc2n1
REMARK SMILES IDX 9 1 8 2 6 3 7 4 5 5 4 6 74 7 78 8 75 9 77 10 76 11 3 12 2 13
REMARK SMILES IDX 1 14 79 15 80 17 81 18 89 19 82 20 88 21 83 22 87 23 84 24
REMARK SMILES IDX 86 25 85 26 10 27 11 28 12 29 13 30 14 31 15 32 73 33 16 34
REMARK SMILES IDX 72 35 17 36 18 37 19 38 66 39 20 40 71 41 65 42 67 43 21 44
REMARK SMILES IDX 70 45 64 46 63 47 22 49 52 50 33 51 51 52 34 53 37 54 50 55
REMARK SMILES IDX 68 56 35 57 36 58 49 60 69 61 38 62 23 63 24 64 32 65 25 66
REMARK SMILES IDX 31 67 26 68 27 69 28 70 29 71 30 72 53 73 54 74 62 75 55 76
REMARK SMILES IDX 61 77 56 78 57 79 58 80 59 81 60 82 39 83 40 84 48 85 41 86
REMARK SMILES IDX 47 87 42 88 43 89 44 90 45 91 46 92
REMARK H PARENT 79 16 67 48 37 59
REMARK Flexibility Score: inf
ROOT
ATOM      1  C   UNL A   1      36.987  22.826  25.933  1.00  0.00     0.274 C 
ENDROOT
BRANCH   1   2
ATOM      2  O   UNL A   1      36.304  23.876  25.217  1.00  0.00    -0.462 OA
BRANCH   2   3
ATOM      3  C   UNL A   1      35.182  23.490  24.566  1.00  0.00     0.306 C 
ATOM      4  O   UNL A   1      34.486  24.238  23.887  1.00  0.00    -0.252 OA
BRANCH   3   5
ATOM      5  C   UNL A   1      34.770  22.051  24.809  1.00  0.00     0.130 C 
BRANCH   5   6
ATOM      6  C   UNL A   1      33.410  21.666  25.467  1.00  0.00    -0.010 C 
ATOM      7  C   UNL A   1      33.509  20.162  25.882  1.00  0.00     0.008 C 
ATOM      8  C   UNL A   1      32.201  21.791  24.508  1.00  0.00     0.008 C 
ATOM      9  C   UNL A   1      33.590  19.197  24.700  1.00  0.00     0.001 C 
ATOM     10  C   UNL A   1      32.296  20.869  23.299  1.00  0.00     0.001 C 
ATOM     11  C   UNL A   1      32.443  19.412  23.719  1.00  0.00     0.000 C 
BRANCH   6  12
ATOM     12  C   UNL A   1      33.156  22.585  26.688  1.00  0.00     0.108 C 
BRANCH  12  13
ATOM     13  C   UNL A   1      31.932  23.470  26.587  1.00  0.00     0.226 C 
ATOM     14  O   UNL A   1      31.038  23.352  27.420  1.00  0.00    -0.275 OA
ATOM     15  N   UNL A   1      32.019  24.399  25.562  1.00  0.00    -0.311 N 
ATOM     16  H   UNL A   1      32.570  24.223  24.765  1.00  0.00     0.171 HD
BRANCH  15  17
ATOM     17  C   UNL A   1      31.302  25.596  25.691  1.00  0.00     0.133 A 
ATOM     18  C   UNL A   1      30.606  25.977  24.554  1.00  0.00     0.048 A 
ATOM     19  N   UNL A   1      31.604  26.438  26.691  1.00  0.00    -0.231 NA
ATOM     20  C   UNL A   1      30.518  27.337  24.297  1.00  0.00     0.014 A 
ATOM     21  C   UNL A   1      31.519  27.751  26.448  1.00  0.00     0.073 A 
ATOM     22  C   UNL A   1      31.059  28.248  25.212  1.00  0.00     0.000 A 
ATOM     23  C   UNL A   1      31.984  28.651  27.395  1.00  0.00     0.029 A 
ATOM     24  C   UNL A   1      31.203  29.609  24.908  1.00  0.00     0.010 A 
ATOM     25  C   UNL A   1      32.112  30.010  27.102  1.00  0.00     0.002 A 
ATOM     26  C   UNL A   1      31.753  30.481  25.843  1.00  0.00     0.001 A 
ENDBRANCH  15  17
ENDBRANCH  12  13
ENDBRANCH   6  12
ENDBRANCH   5   6
ENDBRANCH   3   5
ENDBRANCH   2   3
ENDBRANCH   1   2
BRANCH   1  27
ATOM     27  C   UNL A   1      38.507  22.971  25.870  1.00  0.00     0.275 C 
BRANCH  27  28
ATOM     28  O   UNL A   1      38.993  23.814  26.926  1.00  0.00    -0.458 OA
BRANCH  28  29
ATOM     29  C   UNL A   1      39.869  24.768  26.546  1.00  0.00     0.338 C 
ATOM     30  O   UNL A   1      40.425  24.876  25.459  1.00  0.00    -0.246 OA
BRANCH  29  31
ATOM     31  C   UNL A   1      40.044  25.733  27.636  1.00  0.00     0.060 A 
ATOM     32  C   UNL A   1      39.245  25.624  28.775  1.00  0.00     0.016 A 
ATOM     33  C   UNL A   1      40.919  26.807  27.481  1.00  0.00     0.016 A 
ATOM     34  C   UNL A   1      39.280  26.618  29.748  1.00  0.00     0.010 A 
ATOM     35  C   UNL A   1      40.991  27.778  28.484  1.00  0.00     0.010 A 
ATOM     36  C   UNL A   1      40.157  27.701  29.613  1.00  0.00    -0.014 A 
BRANCH  36  37
ATOM     37  C   UNL A   1      40.186  28.770  30.640  1.00  0.00     0.031 A 
ATOM     38  C   UNL A   1      41.168  28.698  31.774  1.00  0.00     0.074 A 
ATOM     39  C   UNL A   1      39.322  29.799  30.559  1.00  0.00     0.049 A 
ATOM     40  N   UNL A   1      41.245  29.440  32.847  1.00  0.00    -0.248 NA
ATOM     41  C   UNL A   1      42.189  27.641  31.696  1.00  0.00     0.031 C 
ATOM     42  C   UNL A   1      38.354  30.009  29.480  1.00  0.00     0.029 A 
ATOM     43  N   UNL A   1      39.116  30.860  31.404  1.00  0.00    -0.354 N 
ATOM     44  C   UNL A   1      42.295  28.919  33.594  1.00  0.00     0.074 A 
ATOM     45  C   UNL A   1      42.819  27.790  32.852  1.00  0.00     0.031 C 
ATOM     46  C   UNL A   1      37.661  31.132  29.726  1.00  0.00     0.029 A 
ATOM     47  C   UNL A   1      38.093  31.687  31.006  1.00  0.00     0.049 A 
ATOM     48  H   UNL A   1      39.649  31.013  32.217  1.00  0.00     0.167 HD
ATOM     49  C   UNL A   1      42.774  29.341  34.788  1.00  0.00     0.031 A 
ATOM     50  C   UNL A   1      37.537  32.750  31.617  1.00  0.00     0.031 A 
ATOM     51  C   UNL A   1      42.263  30.479  35.506  1.00  0.00     0.049 A 
ATOM     52  C   UNL A   1      38.061  33.180  32.958  1.00  0.00     0.074 A 
ATOM     53  C   UNL A   1      42.689  30.997  36.717  1.00  0.00     0.029 A 
ATOM     54  N   UNL A   1      41.216  31.281  35.075  1.00  0.00    -0.354 N 
ATOM     55  N   UNL A   1      39.033  32.658  33.668  1.00  0.00    -0.248 NA
ATOM     56  C   UNL A   1      37.410  34.339  33.583  1.00  0.00     0.031 C 
ATOM     57  C   UNL A   1      41.875  32.090  37.037  1.00  0.00     0.029 A 
ATOM     58  C   UNL A   1      40.971  32.280  36.003  1.00  0.00     0.049 A 
ATOM     59  H   UNL A   1      40.719  31.159  34.234  1.00  0.00     0.167 HD
ATOM     60  C   UNL A   1      39.119  33.432  34.819  1.00  0.00     0.074 A 
ATOM     61  C   UNL A   1      38.110  34.467  34.703  1.00  0.00     0.031 C 
ATOM     62  C   UNL A   1      39.957  33.297  35.876  1.00  0.00     0.031 A 
BRANCH  49  63
ATOM     63  C   UNL A   1      43.878  28.533  35.413  1.00  0.00    -0.014 A 
ATOM     64  C   UNL A   1      43.603  27.452  36.269  1.00  0.00     0.010 A 
ATOM     65  C   UNL A   1      45.217  28.860  35.129  1.00  0.00     0.010 A 
ATOM     66  C   UNL A   1      44.649  26.744  36.867  1.00  0.00     0.020 A 
ATOM     67  C   UNL A   1      46.264  28.140  35.709  1.00  0.00     0.020 A 
ATOM     68  C   UNL A   1      45.973  27.100  36.594  1.00  0.00     0.054 A 
BRANCH  68  69
ATOM     69  S   UNL A   1      47.311  26.182  37.402  1.00  0.00     0.124 S 
ATOM     70  O   UNL A   1      48.440  27.094  37.236  1.00  0.00    -0.237 OA
ATOM     71  O   UNL A   1      46.822  26.035  38.771  1.00  0.00    -0.237 OA
ATOM     72  O   UNL A   1      47.393  24.941  36.637  1.00  0.00    -0.744 OA
ENDBRANCH  68  69
ENDBRANCH  49  63
BRANCH  50  73
ATOM     73  C   UNL A   1      36.400  33.454  30.971  1.00  0.00    -0.014 A 
ATOM     74  C   UNL A   1      35.224  33.723  31.689  1.00  0.00     0.010 A 
ATOM     75  C   UNL A   1      36.510  33.905  29.641  1.00  0.00     0.010 A 
ATOM     76  C   UNL A   1      34.176  34.431  31.092  1.00  0.00     0.020 A 
ATOM     77  C   UNL A   1      35.476  34.633  29.049  1.00  0.00     0.020 A 
ATOM     78  C   UNL A   1      34.312  34.887  29.777  1.00  0.00     0.054 A 
BRANCH  78  79
ATOM     79  S   UNL A   1      32.977  35.876  29.047  1.00  0.00     0.124 S 
ATOM     80  O   UNL A   1      32.353  34.919  28.138  1.00  0.00    -0.237 OA
ATOM     81  O   UNL A   1      32.182  36.250  30.215  1.00  0.00    -0.237 OA
ATOM     82  O   UNL A   1      33.683  36.982  28.405  1.00  0.00    -0.744 OA
ENDBRANCH  78  79
ENDBRANCH  50  73
BRANCH  62  83
ATOM     83  C   UNL A   1      39.833  34.307  36.983  1.00  0.00    -0.014 A 
ATOM     84  C   UNL A   1      40.420  35.579  36.874  1.00  0.00     0.010 A 
ATOM     85  C   UNL A   1      39.078  33.993  38.127  1.00  0.00     0.010 A 
ATOM     86  C   UNL A   1      40.277  36.513  37.904  1.00  0.00     0.020 A 
ATOM     87  C   UNL A   1      38.914  34.931  39.150  1.00  0.00     0.020 A 
ATOM     88  C   UNL A   1      39.526  36.181  39.037  1.00  0.00     0.054 A 
BRANCH  88  89
ATOM     89  S   UNL A   1      39.317  37.422  40.343  1.00  0.00     0.124 S 
ATOM     90  O   UNL A   1      38.563  38.466  39.654  1.00  0.00    -0.237 OA
ATOM     91  O   UNL A   1      38.581  36.689  41.371  1.00  0.00    -0.237 OA
ATOM     92  O   UNL A   1      40.688  37.778  40.704  1.00  0.00    -0.744 OA
ENDBRANCH  88  89
ENDBRANCH  62  83
ENDBRANCH  36  37
ENDBRANCH  29  31
ENDBRANCH  28  29
ENDBRANCH  27  28
ENDBRANCH   1  27
TORSDOF 18
ENDMDL
MODEL 2
REMARK VINA RESULT:     -11.7      7.047     12.354
REMARK SMILES O=C(CC1(CC(=O)OCCOC(=O)c2ccc(-c3c4nc(c(-c5ccc(S(=O)(=O)[O-])cc5)c5ccc([nH]5)c(-c5ccc(S(=O)(=O)[O-])cc5)c5nc(c(-c6ccc(S(=O)(=O)[O-])cc6)c6ccc3[nH]6)C=C5)C=C4)cc2)CCCCC1)Nc1ccc2ccccc2n1
REMARK SMILES IDX 9 1 8 2 6 3 7 4 5 5 4 6 74 7 78 8 75 9 77 10 76 11 3 12 2 13
REMARK SMILES IDX 1 14 79 15 80 17 81 18 89 19 82 20 88 21 83 22 87 23 84 24
REMARK SMILES IDX 86 25 85 26 10 27 11 28 12 29 13 30 14 31 15 32 73 33 16 34
REMARK SMILES IDX 72 35 17 36 18 37 19 38 66 39 20 40 71 41 65 42 67 43 21 44
REMARK SMILES IDX 70 45 64 46 63 47 22 49 52 50 33 51 51 52 34 53 37 54 50 55
REMARK SMILES IDX 68 56 35 57 36 58 49 60 69 61 38 62 23 63 24 64 32 65 25 66
REMARK SMILES IDX 31 67 26 68 27 69 28 70 29 71 30 72 53 73 54 74 62 75 55 76
REMARK SMILES IDX 61 77 56 78 57 79 58 80 59 81 60 82 39 83 40 84 48 85 41 86
REMARK SMILES IDX 47 87 42 88 43 89 44 90 45 91 46 92
REMARK H PARENT 79 16 67 48 37 59
REMARK Flexibility Score: inf
ROOT
ATOM      1  C   UNL A   1      33.838  30.149  26.903  1.00  0.00     0.274 C 
ENDROOT
BRANCH   1   2
ATOM      2  O   UNL A   1      33.336  29.710  25.624  1.00  0.00    -0.462 OA
BRANCH   2   3
ATOM      3  C   UNL A   1      31.997  29.828  25.462  1.00  0.00     0.306 C 
ATOM      4  O   UNL A   1      31.354  30.833  25.744  1.00  0.00    -0.252 OA
BRANCH   3   5
ATOM      5  C   UNL A   1      31.302  28.568  24.983  1.00  0.00     0.130 C 
BRANCH   5   6
ATOM      6  C   UNL A   1      31.135  28.222  23.472  1.00  0.00    -0.010 C 
ATOM      7  C   UNL A   1      30.371  29.415  22.810  1.00  0.00     0.008 C 
ATOM      8  C   UNL A   1      30.292  26.949  23.217  1.00  0.00     0.008 C 
ATOM      9  C   UNL A   1      28.924  29.561  23.278  1.00  0.00     0.001 C 
ATOM     10  C   UNL A   1      28.861  27.065  23.725  1.00  0.00     0.001 C 
ATOM     11  C   UNL A   1      28.145  28.261  23.109  1.00  0.00     0.000 C 
BRANCH   6  12
ATOM     12  C   UNL A   1      32.534  28.011  22.840  1.00  0.00     0.108 C 
BRANCH  12  13
ATOM     13  C   UNL A   1      33.202  26.695  23.176  1.00  0.00     0.226 C 
ATOM     14  O   UNL A   1      33.571  26.488  24.328  1.00  0.00    -0.275 OA
ATOM     15  N   UNL A   1      33.241  25.819  22.102  1.00  0.00    -0.311 N 
ATOM     16  H   UNL A   1      33.242  26.154  21.176  1.00  0.00     0.171 HD
BRANCH  15  17
ATOM     17  C   UNL A   1      33.277  24.444  22.370  1.00  0.00     0.133 A 
ATOM     18  C   UNL A   1      32.061  23.898  22.754  1.00  0.00     0.048 A 
ATOM     19  N   UNL A   1      34.459  23.850  22.595  1.00  0.00    -0.231 NA
ATOM     20  C   UNL A   1      32.099  22.877  23.691  1.00  0.00     0.014 A 
ATOM     21  C   UNL A   1      34.499  22.862  23.497  1.00  0.00     0.073 A 
ATOM     22  C   UNL A   1      33.335  22.402  24.144  1.00  0.00     0.000 A 
ATOM     23  C   UNL A   1      35.725  22.341  23.883  1.00  0.00     0.029 A 
ATOM     24  C   UNL A   1      33.440  21.538  25.244  1.00  0.00     0.010 A 
ATOM     25  C   UNL A   1      35.832  21.466  24.965  1.00  0.00     0.002 A 
ATOM     26  C   UNL A   1      34.690  21.094  25.668  1.00  0.00     0.001 A 
ENDBRANCH  15  17
ENDBRANCH  12  13
ENDBRANCH   6  12
ENDBRANCH   5   6
ENDBRANCH   3   5
ENDBRANCH   2   3
ENDBRANCH   1   2
BRANCH   1  27
ATOM     27  C   UNL A   1      34.749  29.113  27.559  1.00  0.00     0.275 C 
BRANCH  27  28
ATOM     28  O   UNL A   1      36.118  29.544  27.550  1.00  0.00    -0.458 OA
BRANCH  28  29
ATOM     29  C   UNL A   1      36.777  29.396  28.720  1.00  0.00     0.338 C 
ATOM     30  O   UNL A   1      36.313  29.486  29.851  1.00  0.00    -0.246 OA
BRANCH  29  31
ATOM     31  C   UNL A   1      38.177  29.052  28.452  1.00  0.00     0.060 A 
ATOM     32  C   UNL A   1      38.962  28.543  29.487  1.00  0.00     0.016 A 
ATOM     33  C   UNL A   1      38.738  29.339  27.209  1.00  0.00     0.016 A 
ATOM     34  C   UNL A   1      40.329  28.361  29.301  1.00  0.00     0.010 A 
ATOM     35  C   UNL A   1      40.102  29.108  27.007  1.00  0.00     0.010 A 
ATOM     36  C   UNL A   1      40.910  28.637  28.058  1.00  0.00    -0.014 A 
BRANCH  36  37
ATOM     37  C   UNL A   1      42.368  28.461  27.860  1.00  0.00     0.031 A 
ATOM     38  C   UNL A   1      43.308  29.600  28.138  1.00  0.00     0.074 A 
ATOM     39  C   UNL A   1      42.847  27.283  27.418  1.00  0.00     0.049 A 
ATOM     40  N   UNL A   1      44.585  29.697  27.878  1.00  0.00    -0.248 NA
ATOM     41  C   UNL A   1      42.729  30.790  28.781  1.00  0.00     0.031 C 
ATOM     42  C   UNL A   1      42.043  26.086  27.159  1.00  0.00     0.029 A 
ATOM     43  N   UNL A   1      44.126  26.901  27.104  1.00  0.00    -0.354 N 
ATOM     44  C   UNL A   1      44.958  30.972  28.287  1.00  0.00     0.074 A 
ATOM     45  C   UNL A   1      43.767  31.614  28.805  1.00  0.00     0.031 C 
ATOM     46  C   UNL A   1      42.849  25.102  26.731  1.00  0.00     0.029 A 
ATOM     47  C   UNL A   1      44.212  25.615  26.629  1.00  0.00     0.049 A 
ATOM     48  H   UNL A   1      44.907  27.491  27.209  1.00  0.00     0.167 HD
ATOM     49  C   UNL A   1      46.181  31.553  28.232  1.00  0.00     0.031 A 
ATOM     50  C   UNL A   1      45.261  24.933  26.130  1.00  0.00     0.031 A 
ATOM     51  C   UNL A   1      47.364  30.899  27.739  1.00  0.00     0.049 A 
ATOM     52  C   UNL A   1      46.600  25.609  26.046  1.00  0.00     0.074 A 
ATOM     53  C   UNL A   1      48.653  31.398  27.656  1.00  0.00     0.029 A 
ATOM     54  N   UNL A   1      47.406  29.601  27.253  1.00  0.00    -0.354 N 
ATOM     55  N   UNL A   1      46.932  26.826  26.405  1.00  0.00    -0.248 NA
ATOM     56  C   UNL A   1      47.705  24.821  25.483  1.00  0.00     0.031 C 
ATOM     57  C   UNL A   1      49.466  30.413  27.083  1.00  0.00     0.029 A 
ATOM     58  C   UNL A   1      48.693  29.286  26.852  1.00  0.00     0.049 A 
ATOM     59  H   UNL A   1      46.634  28.993  27.199  1.00  0.00     0.167 HD
ATOM     60  C   UNL A   1      48.287  26.948  26.125  1.00  0.00     0.074 A 
ATOM     61  C   UNL A   1      48.717  25.675  25.579  1.00  0.00     0.031 C 
ATOM     62  C   UNL A   1      49.102  28.017  26.303  1.00  0.00     0.031 A 
BRANCH  49  63
ATOM     63  C   UNL A   1      46.283  32.987  28.675  1.00  0.00    -0.014 A 
ATOM     64  C   UNL A   1      46.080  34.049  27.776  1.00  0.00     0.010 A 
ATOM     65  C   UNL A   1      46.581  33.274  30.020  1.00  0.00     0.010 A 
ATOM     66  C   UNL A   1      46.220  35.372  28.205  1.00  0.00     0.020 A 
ATOM     67  C   UNL A   1      46.700  34.596  30.457  1.00  0.00     0.020 A 
ATOM     68  C   UNL A   1      46.542  35.637  29.539  1.00  0.00     0.054 A 
BRANCH  68  69
ATOM     69  S   UNL A   1      46.744  37.360  30.066  1.00  0.00     0.124 S 
ATOM     70  O   UNL A   1      45.360  37.826  30.093  1.00  0.00    -0.237 OA
ATOM     71  O   UNL A   1      47.385  37.227  31.371  1.00  0.00    -0.237 OA
ATOM     72  O   UNL A   1      47.579  37.947  29.021  1.00  0.00    -0.744 OA
ENDBRANCH  68  69
ENDBRANCH  49  63
BRANCH  50  73
ATOM     73  C   UNL A   1      45.066  23.542  25.644  1.00  0.00    -0.014 A 
ATOM     74  C   UNL A   1      44.814  23.288  24.286  1.00  0.00     0.010 A 
ATOM     75  C   UNL A   1      45.183  22.459  26.536  1.00  0.00     0.010 A 
ATOM     76  C   UNL A   1      44.682  21.974  23.825  1.00  0.00     0.020 A 
ATOM     77  C   UNL A   1      45.077  21.144  26.075  1.00  0.00     0.020 A 
ATOM     78  C   UNL A   1      44.821  20.910  24.723  1.00  0.00     0.054 A 
BRANCH  78  79
ATOM     79  S   UNL A   1      44.730  19.211  24.092  1.00  0.00     0.124 S 
ATOM     80  O   UNL A   1      44.528  19.428  22.663  1.00  0.00    -0.237 OA
ATOM     81  O   UNL A   1      46.029  18.661  24.471  1.00  0.00    -0.237 OA
ATOM     82  O   UNL A   1      43.590  18.642  24.807  1.00  0.00    -0.744 OA
ENDBRANCH  78  79
ENDBRANCH  50  73
BRANCH  62  83
ATOM     83  C   UNL A   1      50.547  27.849  25.922  1.00  0.00    -0.014 A 
ATOM     84  C   UNL A   1      51.488  27.361  26.844  1.00  0.00     0.010 A 
ATOM     85  C   UNL A   1      50.956  28.139  24.608  1.00  0.00     0.010 A 
ATOM     86  C   UNL A   1      52.823  27.192  26.467  1.00  0.00     0.020 A 
ATOM     87  C   UNL A   1      52.286  27.951  24.221  1.00  0.00     0.020 A 
ATOM     88  C   UNL A   1      53.214  27.490  25.157  1.00  0.00     0.054 A 
BRANCH  88  89
ATOM     89  S   UNL A   1      54.942  27.224  24.677  1.00  0.00     0.124 S 
ATOM     90  O   UNL A   1      54.802  26.379  23.493  1.00  0.00    -0.237 OA
ATOM     91  O   UNL A   1      55.421  28.581  24.425  1.00  0.00    -0.237 OA
ATOM     92  O   UNL A   1      55.528  26.570  25.845  1.00  0.00    -0.744 OA
ENDBRANCH  88  89
ENDBRANCH  62  83
ENDBRANCH  36  37
ENDBRANCH  29  31
ENDBRANCH  28  29
ENDBRANCH  27  28
ENDBRANCH   1  27
TORSDOF 18
ENDMDL
MODEL 3
REMARK VINA RESULT:     -11.4      2.914      3.686
REMARK SMILES O=C(CC1(CC(=O)OCCOC(=O)c2ccc(-c3c4nc(c(-c5ccc(S(=O)(=O)[O-])cc5)c5ccc([nH]5)c(-c5ccc(S(=O)(=O)[O-])cc5)c5nc(c(-c6ccc(S(=O)(=O)[O-])cc6)c6ccc3[nH]6)C=C5)C=C4)cc2)CCCCC1)Nc1ccc2ccccc2n1
REMARK SMILES IDX 9 1 8 2 6 3 7 4 5 5 4 6 74 7 78 8 75 9 77 10 76 11 3 12 2 13
REMARK SMILES IDX 1 14 79 15 80 17 81 18 89 19 82 20 88 21 83 22 87 23 84 24
REMARK SMILES IDX 86 25 85 26 10 27 11 28 12 29 13 30 14 31 15 32 73 33 16 34
REMARK SMILES IDX 72 35 17 36 18 37 19 38 66 39 20 40 71 41 65 42 67 43 21 44
REMARK SMILES IDX 70 45 64 46 63 47 22 49 52 50 33 51 51 52 34 53 37 54 50 55
REMARK SMILES IDX 68 56 35 57 36 58 49 60 69 61 38 62 23 63 24 64 32 65 25 66
REMARK SMILES IDX 31 67 26 68 27 69 28 70 29 71 30 72 53 73 54 74 62 75 55 76
REMARK SMILES IDX 61 77 56 78 57 79 58 80 59 81 60 82 39 83 40 84 48 85 41 86
REMARK SMILES IDX 47 87 42 88 43 89 44 90 45 91 46 92
REMARK H PARENT 79 16 67 48 37 59
REMARK Flexibility Score: inf
ROOT
ATOM      1  C   UNL A   1      36.210  23.725  23.995  1.00  0.00     0.274 C 
ENDROOT
BRANCH   1   2
ATOM      2  O   UNL A   1      35.315  23.199  22.993  1.00  0.00    -0.462 OA
BRANCH   2   3
ATOM      3  C   UNL A   1      34.017  23.554  23.141  1.00  0.00     0.306 C 
ATOM      4  O   UNL A   1      33.269  23.839  22.211  1.00  0.00    -0.252 OA
BRANCH   3   5
ATOM      5  C   UNL A   1      33.552  23.675  24.579  1.00  0.00     0.130 C 
BRANCH   5   6
ATOM      6  C   UNL A   1      32.327  22.886  25.135  1.00  0.00    -0.010 C 
ATOM      7  C   UNL A   1      32.709  22.397  26.570  1.00  0.00     0.008 C 
ATOM      8  C   UNL A   1      31.974  21.626  24.308  1.00  0.00     0.008 C 
ATOM      9  C   UNL A   1      33.818  21.346  26.592  1.00  0.00     0.001 C 
ATOM     10  C   UNL A   1      33.093  20.593  24.281  1.00  0.00     0.001 C 
ATOM     11  C   UNL A   1      33.489  20.163  25.688  1.00  0.00     0.000 C 
BRANCH   6  12
ATOM     12  C   UNL A   1      31.088  23.816  25.154  1.00  0.00     0.108 C 
BRANCH  12  13
ATOM     13  C   UNL A   1      31.369  25.260  25.509  1.00  0.00     0.226 C 
ATOM     14  O   UNL A   1      31.535  25.565  26.686  1.00  0.00    -0.275 OA
ATOM     15  N   UNL A   1      31.487  26.077  24.395  1.00  0.00    -0.311 N 
ATOM     16  H   UNL A   1      31.027  25.854  23.553  1.00  0.00     0.171 HD
BRANCH  15  17
ATOM     17  C   UNL A   1      32.278  27.229  24.501  1.00  0.00     0.133 A 
ATOM     18  C   UNL A   1      33.639  26.987  24.607  1.00  0.00     0.048 A 
ATOM     19  N   UNL A   1      31.703  28.391  24.848  1.00  0.00    -0.231 NA
ATOM     20  C   UNL A   1      34.370  27.851  25.409  1.00  0.00     0.014 A 
ATOM     21  C   UNL A   1      32.406  29.228  25.621  1.00  0.00     0.073 A 
ATOM     22  C   UNL A   1      33.732  28.946  26.004  1.00  0.00     0.000 A 
ATOM     23  C   UNL A   1      31.788  30.355  26.142  1.00  0.00     0.029 A 
ATOM     24  C   UNL A   1      34.355  29.718  26.994  1.00  0.00     0.010 A 
ATOM     25  C   UNL A   1      32.412  31.138  27.116  1.00  0.00     0.002 A 
ATOM     26  C   UNL A   1      33.683  30.796  27.567  1.00  0.00     0.001 A 
ENDBRANCH  15  17
ENDBRANCH  12  13
ENDBRANCH   6  12
ENDBRANCH   5   6
ENDBRANCH   3   5
ENDBRANCH   2   3
ENDBRANCH   1   2
BRANCH   1  27
ATOM     27  C   UNL A   1      37.269  22.710  24.421  1.00  0.00     0.275 C 
BRANCH  27  28
ATOM     28  O   UNL A   1      37.564  22.825  25.822  1.00  0.00    -0.458 OA
BRANCH  28  29
ATOM     29  C   UNL A   1      38.878  22.872  26.132  1.00  0.00     0.338 C 
ATOM     30  O   UNL A   1      39.725  22.015  25.910  1.00  0.00    -0.246 OA
BRANCH  29  31
ATOM     31  C   UNL A   1      39.186  24.162  26.758  1.00  0.00     0.060 A 
ATOM     32  C   UNL A   1      39.979  25.080  26.068  1.00  0.00     0.016 A 
ATOM     33  C   UNL A   1      38.783  24.413  28.069  1.00  0.00     0.016 A 
ATOM     34  C   UNL A   1      40.416  26.238  26.703  1.00  0.00     0.010 A 
ATOM     35  C   UNL A   1      39.181  25.602  28.688  1.00  0.00     0.010 A 
ATOM     36  C   UNL A   1      40.017  26.512  28.017  1.00  0.00    -0.014 A 
BRANCH  36  37
ATOM     37  C   UNL A   1      40.495  27.736  28.703  1.00  0.00     0.031 A 
ATOM     38  C   UNL A   1      41.879  27.781  29.283  1.00  0.00     0.074 A 
ATOM     39  C   UNL A   1      39.680  28.802  28.814  1.00  0.00     0.049 A 
ATOM     40  N   UNL A   1      42.422  28.689  30.052  1.00  0.00    -0.248 NA
ATOM     41  C   UNL A   1      42.764  26.648  28.968  1.00  0.00     0.031 C 
ATOM     42  C   UNL A   1      38.332  28.900  28.251  1.00  0.00     0.029 A 
ATOM     43  N   UNL A   1      39.866  30.005  29.447  1.00  0.00    -0.354 N 
ATOM     44  C   UNL A   1      43.697  28.221  30.347  1.00  0.00     0.074 A 
ATOM     45  C   UNL A   1      43.842  26.943  29.681  1.00  0.00     0.031 C 
ATOM     46  C   UNL A   1      37.815  30.100  28.557  1.00  0.00     0.029 A 
ATOM     47  C   UNL A   1      38.769  30.830  29.387  1.00  0.00     0.049 A 
ATOM     48  H   UNL A   1      40.705  30.253  29.898  1.00  0.00     0.167 HD
ATOM     49  C   UNL A   1      44.655  28.803  31.107  1.00  0.00     0.031 A 
ATOM     50  C   UNL A   1      38.539  32.024  29.966  1.00  0.00     0.031 A 
ATOM     51  C   UNL A   1      44.512  30.085  31.746  1.00  0.00     0.049 A 
ATOM     52  C   UNL A   1      39.602  32.635  30.833  1.00  0.00     0.074 A 
ATOM     53  C   UNL A   1      45.430  30.767  32.525  1.00  0.00     0.029 A 
ATOM     54  N   UNL A   1      43.379  30.882  31.673  1.00  0.00    -0.354 N 
ATOM     55  N   UNL A   1      40.791  32.166  31.131  1.00  0.00    -0.248 NA
ATOM     56  C   UNL A   1      39.291  33.933  31.447  1.00  0.00     0.031 C 
ATOM     57  C   UNL A   1      44.838  31.961  32.955  1.00  0.00     0.029 A 
ATOM     58  C   UNL A   1      43.568  32.042  32.406  1.00  0.00     0.049 A 
ATOM     59  H   UNL A   1      42.561  30.657  31.175  1.00  0.00     0.167 HD
ATOM     60  C   UNL A   1      41.377  33.118  31.957  1.00  0.00     0.074 A 
ATOM     61  C   UNL A   1      40.417  34.195  32.100  1.00  0.00     0.031 C 
ATOM     62  C   UNL A   1      42.598  33.100  32.545  1.00  0.00     0.031 A 
BRANCH  49  63
ATOM     63  C   UNL A   1      45.926  28.029  31.326  1.00  0.00    -0.014 A 
ATOM     64  C   UNL A   1      46.014  27.024  32.306  1.00  0.00     0.010 A 
ATOM     65  C   UNL A   1      47.051  28.309  30.528  1.00  0.00     0.010 A 
ATOM     66  C   UNL A   1      47.220  26.348  32.515  1.00  0.00     0.020 A 
ATOM     67  C   UNL A   1      48.251  27.620  30.720  1.00  0.00     0.020 A 
ATOM     68  C   UNL A   1      48.334  26.659  31.730  1.00  0.00     0.054 A 
BRANCH  68  69
ATOM     69  S   UNL A   1      49.893  25.785  32.038  1.00  0.00     0.124 S 
ATOM     70  O   UNL A   1      49.925  24.836  30.928  1.00  0.00    -0.237 OA
ATOM     71  O   UNL A   1      50.883  26.857  31.973  1.00  0.00    -0.237 OA
ATOM     72  O   UNL A   1      49.705  25.194  33.359  1.00  0.00    -0.744 OA
ENDBRANCH  68  69
ENDBRANCH  49  63
BRANCH  50  73
ATOM     73  C   UNL A   1      37.229  32.696  29.762  1.00  0.00    -0.014 A 
ATOM     74  C   UNL A   1      36.236  32.642  30.753  1.00  0.00     0.010 A 
ATOM     75  C   UNL A   1      36.989  33.437  28.589  1.00  0.00     0.010 A 
ATOM     76  C   UNL A   1      35.024  33.318  30.578  1.00  0.00     0.020 A 
ATOM     77  C   UNL A   1      35.791  34.134  28.421  1.00  0.00     0.020 A 
ATOM     78  C   UNL A   1      34.812  34.065  29.415  1.00  0.00     0.054 A 
BRANCH  78  79
ATOM     79  S   UNL A   1      33.269  35.003  29.243  1.00  0.00     0.124 S 
ATOM     80  O   UNL A   1      32.529  34.197  28.277  1.00  0.00    -0.237 OA
ATOM     81  O   UNL A   1      32.740  35.002  30.605  1.00  0.00    -0.237 OA
ATOM     82  O   UNL A   1      33.714  36.308  28.759  1.00  0.00    -0.744 OA
ENDBRANCH  78  79
ENDBRANCH  50  73
BRANCH  62  83
ATOM     83  C   UNL A   1      42.975  34.292  33.380  1.00  0.00    -0.014 A 
ATOM     84  C   UNL A   1      43.013  34.213  34.783  1.00  0.00     0.010 A 
ATOM     85  C   UNL A   1      43.341  35.495  32.748  1.00  0.00     0.010 A 
ATOM     86  C   UNL A   1      43.385  35.325  35.542  1.00  0.00     0.020 A 
ATOM     87  C   UNL A   1      43.735  36.602  33.504  1.00  0.00     0.020 A 
ATOM     88  C   UNL A   1      43.742  36.514  34.897  1.00  0.00     0.054 A 
BRANCH  88  89
ATOM     89  S   UNL A   1      44.262  37.933  35.900  1.00  0.00     0.124 S 
ATOM     90  O   UNL A   1      43.387  37.820  37.064  1.00  0.00    -0.237 OA
ATOM     91  O   UNL A   1      45.675  37.653  36.148  1.00  0.00    -0.237 OA
ATOM     92  O   UNL A   1      44.005  39.081  35.034  1.00  0.00    -0.744 OA
ENDBRANCH  88  89
ENDBRANCH  62  83
ENDBRANCH  36  37
ENDBRANCH  29  31
ENDBRANCH  28  29
ENDBRANCH  27  28
ENDBRANCH   1  27
TORSDOF 18
ENDMDL
