MODEL 1
REMARK VINA RESULT:     -12.3      0.000      0.000
REMARK SMILES Cc1c(/C=C/C(=O)OCCOC(=O)c2ccc(-c3c4nc(c(-c5ccc(S(=O)(=O)[O-])cc5)c5ccc([nH]5)c(-c5ccc(S(=O)(=O)[O-])cc5)c5nc(c(-c6ccc(S(=O)(=O)[O-])cc6)c6ccc3[nH]6)C=C5)C=C4)cc2)cccc1C(=O)N1C[C@@H](C)[C@@H](C)C1
REMARK SMILES IDX 9 1 8 2 6 3 7 4 5 5 4 6 3 7 1 8 2 9 77 10 74 11 76 12 75 13
REMARK SMILES IDX 78 14 79 15 80 16 81 17 86 18 82 19 84 20 83 21 85 22 10 23
REMARK SMILES IDX 11 24 12 25 13 26 14 27 15 28 73 29 16 30 72 31 17 32 18 33
REMARK SMILES IDX 19 34 66 35 20 36 71 37 65 38 67 39 21 40 70 41 64 42 63 43
REMARK SMILES IDX 22 45 52 46 33 47 51 48 34 49 37 50 50 51 68 52 35 53 36 54
REMARK SMILES IDX 49 56 69 57 38 58 23 59 24 60 32 61 25 62 31 63 26 64 27 65
REMARK SMILES IDX 28 66 29 67 30 68 53 69 54 70 62 71 55 72 61 73 56 74 57 75
REMARK SMILES IDX 58 76 59 77 60 78 39 79 40 80 48 81 41 82 47 83 42 84 43 85
REMARK SMILES IDX 44 86 45 87 46 88
REMARK H PARENT 67 44 37 55
REMARK Flexibility Score: inf
ROOT
ATOM      1  C   UNL A   1      41.984  23.805  26.620  1.00  0.00     0.275 C 
ENDROOT
BRANCH   1   2
ATOM      2  O   UNL A   1      40.582  24.028  26.816  1.00  0.00    -0.459 OA
BRANCH   2   3
ATOM      3  C   UNL A   1      39.720  22.874  26.634  1.00  0.00     0.330 C 
ATOM      4  O   UNL A   1      40.354  21.896  27.102  1.00  0.00    -0.247 OA
BRANCH   3   5
ATOM      5  C   UNL A   1      37.804  22.964  25.692  1.00  0.00     0.094 C 
ATOM      6  C   UNL A   1      36.643  23.712  25.520  1.00  0.00     0.016 C 
BRANCH   6   7
ATOM      7  C   UNL A   1      35.391  23.265  24.857  1.00  0.00    -0.022 A 
ATOM      8  C   UNL A   1      34.961  21.801  26.840  1.00  0.00     0.046 C 
ATOM      9  C   UNL A   1      34.580  22.270  25.459  1.00  0.00    -0.031 A 
ATOM     10  C   UNL A   1      33.509  21.719  24.712  1.00  0.00     0.043 A 
ATOM     11  C   UNL A   1      35.160  23.657  23.529  1.00  0.00     0.008 A 
ATOM     12  C   UNL A   1      33.333  22.098  23.367  1.00  0.00     0.014 A 
ATOM     13  C   UNL A   1      34.150  23.062  22.781  1.00  0.00     0.001 A 
BRANCH  10  14
ATOM     14  C   UNL A   1      32.716  20.533  25.152  1.00  0.00     0.254 C 
ATOM     15  O   UNL A   1      31.553  20.722  25.513  1.00  0.00    -0.269 OA
BRANCH  14  16
ATOM     16  N   UNL A   1      33.232  19.258  25.037  1.00  0.00    -0.338 N 
ATOM     17  C   UNL A   1      32.452  18.146  25.526  1.00  0.00     0.123 C 
ATOM     18  C   UNL A   1      34.521  18.838  24.505  1.00  0.00     0.123 C 
ATOM     19  C   UNL A   1      33.388  16.947  25.522  1.00  0.00     0.010 C 
ATOM     20  C   UNL A   1      34.466  17.299  24.471  1.00  0.00     0.010 C 
ATOM     21  C   UNL A   1      32.618  15.651  25.306  1.00  0.00     0.010 C 
ATOM     22  C   UNL A   1      34.208  16.758  23.064  1.00  0.00     0.010 C 
ENDBRANCH  14  16
ENDBRANCH  10  14
ENDBRANCH   6   7
ENDBRANCH   3   5
ENDBRANCH   2   3
ENDBRANCH   1   2
BRANCH   1  23
ATOM     23  C   UNL A   1      42.520  24.918  25.713  1.00  0.00     0.275 C 
BRANCH  23  24
ATOM     24  O   UNL A   1      42.515  26.249  26.288  1.00  0.00    -0.458 OA
BRANCH  24  25
ATOM     25  C   UNL A   1      42.577  27.329  25.471  1.00  0.00     0.338 C 
ATOM     26  O   UNL A   1      42.933  27.344  24.306  1.00  0.00    -0.246 OA
BRANCH  25  27
ATOM     27  C   UNL A   1      42.159  28.535  26.184  1.00  0.00     0.060 A 
ATOM     28  C   UNL A   1      43.386  29.447  27.173  1.00  0.00     0.016 A 
ATOM     29  C   UNL A   1      40.384  28.629  26.577  1.00  0.00     0.016 A 
ATOM     30  C   UNL A   1      42.872  30.319  28.695  1.00  0.00     0.010 A 
ATOM     31  C   UNL A   1      39.872  29.476  28.100  1.00  0.00     0.010 A 
ATOM     32  C   UNL A   1      41.119  30.236  29.189  1.00  0.00    -0.014 A 
BRANCH  32  33
ATOM     33  C   UNL A   1      40.616  30.455  30.512  1.00  0.00     0.031 A 
ATOM     34  C   UNL A   1      39.887  31.711  30.710  1.00  0.00     0.074 A 
ATOM     35  C   UNL A   1      40.576  29.388  31.341  1.00  0.00     0.049 A 
ATOM     36  N   UNL A   1      39.585  32.188  31.858  1.00  0.00    -0.248 NA
ATOM     37  C   UNL A   1      39.469  32.587  29.610  1.00  0.00     0.031 C 
ATOM     38  C   UNL A   1      39.741  29.197  32.520  1.00  0.00     0.029 A 
ATOM     39  N   UNL A   1      41.408  28.269  31.373  1.00  0.00    -0.354 N 
ATOM     40  C   UNL A   1      38.601  33.127  31.641  1.00  0.00     0.074 A 
ATOM     41  C   UNL A   1      38.679  33.456  30.244  1.00  0.00     0.031 C 
ATOM     42  C   UNL A   1      40.312  28.263  33.305  1.00  0.00     0.029 A 
ATOM     43  C   UNL A   1      41.605  27.945  32.718  1.00  0.00     0.049 A 
ATOM     44  H   UNL A   1      41.786  27.797  30.595  1.00  0.00     0.167 HD
ATOM     45  C   UNL A   1      37.709  33.347  32.643  1.00  0.00     0.031 A 
ATOM     46  C   UNL A   1      42.813  28.125  33.335  1.00  0.00     0.031 A 
ATOM     47  C   UNL A   1      38.097  32.594  33.842  1.00  0.00     0.049 A 
ATOM     48  C   UNL A   1      42.758  29.239  34.379  1.00  0.00     0.074 A 
ATOM     49  C   UNL A   1      37.640  31.430  34.436  1.00  0.00     0.029 A 
ATOM     50  N   UNL A   1      39.367  32.808  34.359  1.00  0.00    -0.354 N 
ATOM     51  N   UNL A   1      41.735  30.039  34.543  1.00  0.00    -0.248 NA
ATOM     52  C   UNL A   1      43.841  29.570  35.300  1.00  0.00     0.031 C 
ATOM     53  C   UNL A   1      38.672  30.940  35.296  1.00  0.00     0.029 A 
ATOM     54  C   UNL A   1      39.740  31.819  35.245  1.00  0.00     0.049 A 
ATOM     55  H   UNL A   1      39.934  33.576  34.121  1.00  0.00     0.167 HD
ATOM     56  C   UNL A   1      41.980  30.960  35.527  1.00  0.00     0.074 A 
ATOM     57  C   UNL A   1      43.336  30.639  35.949  1.00  0.00     0.031 C 
ATOM     58  C   UNL A   1      41.054  31.908  35.886  1.00  0.00     0.031 A 
BRANCH  45  59
ATOM     59  C   UNL A   1      36.366  34.008  32.455  1.00  0.00    -0.014 A 
ATOM     60  C   UNL A   1      36.018  35.077  33.304  1.00  0.00     0.010 A 
ATOM     61  C   UNL A   1      35.393  33.627  31.508  1.00  0.00     0.010 A 
ATOM     62  C   UNL A   1      34.769  35.705  33.242  1.00  0.00     0.020 A 
ATOM     63  C   UNL A   1      34.128  34.233  31.445  1.00  0.00     0.020 A 
ATOM     64  C   UNL A   1      33.826  35.275  32.313  1.00  0.00     0.054 A 
BRANCH  64  65
ATOM     65  S   UNL A   1      32.229  36.122  32.234  1.00  0.00     0.124 S 
ATOM     66  O   UNL A   1      31.290  35.054  32.568  1.00  0.00    -0.237 OA
ATOM     67  O   UNL A   1      32.382  37.166  33.243  1.00  0.00    -0.237 OA
ATOM     68  O   UNL A   1      32.156  36.598  30.854  1.00  0.00    -0.744 OA
ENDBRANCH  64  65
ENDBRANCH  45  59
BRANCH  46  69
ATOM     69  C   UNL A   1      43.979  27.721  32.482  1.00  0.00    -0.014 A 
ATOM     70  C   UNL A   1      44.270  26.336  32.430  1.00  0.00     0.010 A 
ATOM     71  C   UNL A   1      44.485  28.538  31.457  1.00  0.00     0.010 A 
ATOM     72  C   UNL A   1      44.860  25.758  31.300  1.00  0.00     0.020 A 
ATOM     73  C   UNL A   1      45.113  27.960  30.332  1.00  0.00     0.020 A 
ATOM     74  C   UNL A   1      45.232  26.569  30.231  1.00  0.00     0.054 A 
BRANCH  74  75
ATOM     75  S   UNL A   1      45.708  25.763  28.668  1.00  0.00     0.124 S 
ATOM     76  O   UNL A   1      47.119  25.462  28.889  1.00  0.00    -0.237 OA
ATOM     77  O   UNL A   1      44.824  24.601  28.619  1.00  0.00    -0.237 OA
ATOM     78  O   UNL A   1      45.446  26.786  27.658  1.00  0.00    -0.744 OA
ENDBRANCH  74  75
ENDBRANCH  46  69
BRANCH  58  79
ATOM     79  C   UNL A   1      41.271  33.058  36.857  1.00  0.00    -0.014 A 
ATOM     80  C   UNL A   1      42.435  33.253  37.608  1.00  0.00     0.010 A 
ATOM     81  C   UNL A   1      40.222  33.989  37.090  1.00  0.00     0.010 A 
ATOM     82  C   UNL A   1      42.581  34.366  38.454  1.00  0.00     0.020 A 
ATOM     83  C   UNL A   1      40.345  35.092  37.934  1.00  0.00     0.020 A 
ATOM     84  C   UNL A   1      41.539  35.285  38.599  1.00  0.00     0.054 A 
BRANCH  84  85
ATOM     85  S   UNL A   1      41.748  36.698  39.703  1.00  0.00     0.124 S 
ATOM     86  O   UNL A   1      42.800  37.460  39.036  1.00  0.00    -0.237 OA
ATOM     87  O   UNL A   1      40.418  37.304  39.676  1.00  0.00    -0.237 OA
ATOM     88  O   UNL A   1      42.130  36.097  40.978  1.00  0.00    -0.744 OA
ENDBRANCH  84  85
ENDBRANCH  58  79
ENDBRANCH  32  33
ENDBRANCH  25  27
ENDBRANCH  24  25
ENDBRANCH  23  24
ENDBRANCH   1  23
TORSDOF 17
ENDMDL
MODEL 2
REMARK VINA RESULT:     -11.9      3.142      4.520
REMARK SMILES Cc1c(/C=C/C(=O)OCCOC(=O)c2ccc(-c3c4nc(c(-c5ccc(S(=O)(=O)[O-])cc5)c5ccc([nH]5)c(-c5ccc(S(=O)(=O)[O-])cc5)c5nc(c(-c6ccc(S(=O)(=O)[O-])cc6)c6ccc3[nH]6)C=C5)C=C4)cc2)cccc1C(=O)N1C[C@@H](C)[C@@H](C)C1
REMARK SMILES IDX 9 1 8 2 6 3 7 4 5 5 4 6 3 7 1 8 2 9 77 10 74 11 76 12 75 13
REMARK SMILES IDX 78 14 79 15 80 16 81 17 86 18 82 19 84 20 83 21 85 22 10 23
REMARK SMILES IDX 11 24 12 25 13 26 14 27 15 28 73 29 16 30 72 31 17 32 18 33
REMARK SMILES IDX 19 34 66 35 20 36 71 37 65 38 67 39 21 40 70 41 64 42 63 43
REMARK SMILES IDX 22 45 52 46 33 47 51 48 34 49 37 50 50 51 68 52 35 53 36 54
REMARK SMILES IDX 49 56 69 57 38 58 23 59 24 60 32 61 25 62 31 63 26 64 27 65
REMARK SMILES IDX 28 66 29 67 30 68 53 69 54 70 62 71 55 72 61 73 56 74 57 75
REMARK SMILES IDX 58 76 59 77 60 78 39 79 40 80 48 81 41 82 47 83 42 84 43 85
REMARK SMILES IDX 44 86 45 87 46 88
REMARK H PARENT 67 44 37 55
REMARK Flexibility Score: inf
ROOT
ATOM      1  C   UNL A   1      40.669  22.104  27.467  1.00  0.00     0.275 C 
ENDROOT
BRANCH   1   2
ATOM      2  O   UNL A   1      41.144  21.262  26.408  1.00  0.00    -0.459 OA
BRANCH   2   3
ATOM      3  C   UNL A   1      40.197  20.293  25.889  1.00  0.00     0.330 C 
ATOM      4  O   UNL A   1      40.839  19.221  25.761  1.00  0.00    -0.247 OA
BRANCH   3   5
ATOM      5  C   UNL A   1      38.161  20.754  25.429  1.00  0.00     0.094 C 
ATOM      6  C   UNL A   1      37.308  21.522  24.641  1.00  0.00     0.016 C 
BRANCH   6   7
ATOM      7  C   UNL A   1      35.837  21.651  24.796  1.00  0.00    -0.022 A 
ATOM      8  C   UNL A   1      35.858  23.259  22.881  1.00  0.00     0.046 C 
ATOM      9  C   UNL A   1      35.109  22.555  23.983  1.00  0.00    -0.031 A 
ATOM     10  C   UNL A   1      33.748  22.807  24.291  1.00  0.00     0.043 A 
ATOM     11  C   UNL A   1      35.227  21.056  25.912  1.00  0.00     0.008 A 
ATOM     12  C   UNL A   1      33.179  22.231  25.444  1.00  0.00     0.014 A 
ATOM     13  C   UNL A   1      33.912  21.360  26.247  1.00  0.00     0.001 A 
BRANCH  10  14
ATOM     14  C   UNL A   1      32.937  23.879  23.644  1.00  0.00     0.254 C 
ATOM     15  O   UNL A   1      32.130  23.545  22.775  1.00  0.00    -0.269 OA
BRANCH  14  16
ATOM     16  N   UNL A   1      33.003  25.182  24.096  1.00  0.00    -0.338 N 
ATOM     17  C   UNL A   1      33.520  26.199  23.211  1.00  0.00     0.123 C 
ATOM     18  C   UNL A   1      32.649  25.716  25.404  1.00  0.00     0.123 C 
ATOM     19  C   UNL A   1      33.731  27.434  24.073  1.00  0.00     0.010 C 
ATOM     20  C   UNL A   1      32.764  27.245  25.265  1.00  0.00     0.010 C 
ATOM     21  C   UNL A   1      33.569  28.708  23.255  1.00  0.00     0.010 C 
ATOM     22  C   UNL A   1      31.400  27.918  25.113  1.00  0.00     0.010 C 
ENDBRANCH  14  16
ENDBRANCH  10  14
ENDBRANCH   6   7
ENDBRANCH   3   5
ENDBRANCH   2   3
ENDBRANCH   1   2
BRANCH   1  23
ATOM     23  C   UNL A   1      41.575  23.338  27.534  1.00  0.00     0.275 C 
BRANCH  23  24
ATOM     24  O   UNL A   1      41.443  24.270  26.431  1.00  0.00    -0.458 OA
BRANCH  24  25
ATOM     25  C   UNL A   1      41.024  25.537  26.674  1.00  0.00     0.338 C 
ATOM     26  O   UNL A   1      40.766  26.392  25.845  1.00  0.00    -0.246 OA
BRANCH  25  27
ATOM     27  C   UNL A   1      40.927  25.778  28.112  1.00  0.00     0.060 A 
ATOM     28  C   UNL A   1      39.283  25.809  28.895  1.00  0.00     0.016 A 
ATOM     29  C   UNL A   1      42.329  26.679  28.845  1.00  0.00     0.016 A 
ATOM     30  C   UNL A   1      38.968  26.902  30.324  1.00  0.00     0.010 A 
ATOM     31  C   UNL A   1      42.015  27.783  30.253  1.00  0.00     0.010 A 
ATOM     32  C   UNL A   1      40.330  27.953  30.925  1.00  0.00    -0.014 A 
BRANCH  32  33
ATOM     33  C   UNL A   1      40.180  29.149  31.700  1.00  0.00     0.031 A 
ATOM     34  C   UNL A   1      39.588  30.288  30.993  1.00  0.00     0.074 A 
ATOM     35  C   UNL A   1      40.289  29.032  33.042  1.00  0.00     0.049 A 
ATOM     36  N   UNL A   1      39.602  31.489  31.435  1.00  0.00    -0.248 NA
ATOM     37  C   UNL A   1      38.958  30.184  29.673  1.00  0.00     0.031 C 
ATOM     38  C   UNL A   1      39.761  29.923  34.069  1.00  0.00     0.029 A 
ATOM     39  N   UNL A   1      41.044  28.125  33.787  1.00  0.00    -0.354 N 
ATOM     40  C   UNL A   1      38.646  32.177  30.723  1.00  0.00     0.074 A 
ATOM     41  C   UNL A   1      38.395  31.387  29.548  1.00  0.00     0.031 C 
ATOM     42  C   UNL A   1      40.459  29.731  35.205  1.00  0.00     0.029 A 
ATOM     43  C   UNL A   1      41.549  28.821  34.888  1.00  0.00     0.049 A 
ATOM     44  H   UNL A   1      41.194  27.175  33.575  1.00  0.00     0.167 HD
ATOM     45  C   UNL A   1      38.040  33.228  31.335  1.00  0.00     0.031 A 
ATOM     46  C   UNL A   1      42.879  29.118  35.008  1.00  0.00     0.031 A 
ATOM     47  C   UNL A   1      38.671  33.492  32.633  1.00  0.00     0.049 A 
ATOM     48  C   UNL A   1      43.140  30.619  34.878  1.00  0.00     0.074 A 
ATOM     49  C   UNL A   1      38.315  33.233  33.946  1.00  0.00     0.029 A 
ATOM     50  N   UNL A   1      40.039  33.727  32.654  1.00  0.00    -0.354 N 
ATOM     51  N   UNL A   1      42.232  31.492  34.524  1.00  0.00    -0.248 NA
ATOM     52  C   UNL A   1      44.432  31.260  35.101  1.00  0.00     0.031 C 
ATOM     53  C   UNL A   1      39.500  33.293  34.744  1.00  0.00     0.029 A 
ATOM     54  C   UNL A   1      40.566  33.615  33.924  1.00  0.00     0.049 A 
ATOM     55  H   UNL A   1      40.569  33.950  31.855  1.00  0.00     0.167 HD
ATOM     56  C   UNL A   1      42.759  32.754  34.459  1.00  0.00     0.074 A 
ATOM     57  C   UNL A   1      44.159  32.546  34.802  1.00  0.00     0.031 C 
ATOM     58  C   UNL A   1      42.000  33.845  34.112  1.00  0.00     0.031 A 
BRANCH  45  59
ATOM     59  C   UNL A   1      36.728  33.828  30.892  1.00  0.00    -0.014 A 
ATOM     60  C   UNL A   1      36.450  33.895  29.513  1.00  0.00     0.010 A 
ATOM     61  C   UNL A   1      35.747  34.368  31.749  1.00  0.00     0.010 A 
ATOM     62  C   UNL A   1      35.288  34.494  29.013  1.00  0.00     0.020 A 
ATOM     63  C   UNL A   1      34.584  34.989  31.264  1.00  0.00     0.020 A 
ATOM     64  C   UNL A   1      34.361  35.042  29.893  1.00  0.00     0.054 A 
BRANCH  64  65
ATOM     65  S   UNL A   1      32.853  35.784  29.223  1.00  0.00     0.124 S 
ATOM     66  O   UNL A   1      33.336  37.059  28.699  1.00  0.00    -0.237 OA
ATOM     67  O   UNL A   1      32.444  34.804  28.222  1.00  0.00    -0.237 OA
ATOM     68  O   UNL A   1      31.971  35.889  30.385  1.00  0.00    -0.744 OA
ENDBRANCH  64  65
ENDBRANCH  45  59
BRANCH  46  69
ATOM     69  C   UNL A   1      43.777  27.990  34.595  1.00  0.00    -0.014 A 
ATOM     70  C   UNL A   1      44.005  26.982  35.564  1.00  0.00     0.010 A 
ATOM     71  C   UNL A   1      44.028  27.676  33.249  1.00  0.00     0.010 A 
ATOM     72  C   UNL A   1      44.271  25.660  35.190  1.00  0.00     0.020 A 
ATOM     73  C   UNL A   1      44.332  26.350  32.872  1.00  0.00     0.020 A 
ATOM     74  C   UNL A   1      44.381  25.339  33.840  1.00  0.00     0.054 A 
BRANCH  74  75
ATOM     75  S   UNL A   1      44.420  23.577  33.377  1.00  0.00     0.124 S 
ATOM     76  O   UNL A   1      44.381  23.636  31.919  1.00  0.00    -0.237 OA
ATOM     77  O   UNL A   1      45.683  23.117  33.948  1.00  0.00    -0.237 OA
ATOM     78  O   UNL A   1      43.218  23.029  34.004  1.00  0.00    -0.744 OA
ENDBRANCH  74  75
ENDBRANCH  46  69
BRANCH  58  79
ATOM     79  C   UNL A   1      42.509  35.258  33.873  1.00  0.00    -0.014 A 
ATOM     80  C   UNL A   1      43.284  35.647  32.776  1.00  0.00     0.010 A 
ATOM     81  C   UNL A   1      42.250  36.271  34.836  1.00  0.00     0.010 A 
ATOM     82  C   UNL A   1      43.682  36.984  32.599  1.00  0.00     0.020 A 
ATOM     83  C   UNL A   1      42.645  37.598  34.683  1.00  0.00     0.020 A 
ATOM     84  C   UNL A   1      43.347  37.952  33.547  1.00  0.00     0.054 A 
BRANCH  84  85
ATOM     85  S   UNL A   1      43.882  39.659  33.303  1.00  0.00     0.124 S 
ATOM     86  O   UNL A   1      42.743  40.243  32.599  1.00  0.00    -0.237 OA
ATOM     87  O   UNL A   1      44.074  40.117  34.677  1.00  0.00    -0.237 OA
ATOM     88  O   UNL A   1      45.104  39.536  32.513  1.00  0.00    -0.744 OA
ENDBRANCH  84  85
ENDBRANCH  58  79
ENDBRANCH  32  33
ENDBRANCH  25  27
ENDBRANCH  24  25
ENDBRANCH  23  24
ENDBRANCH   1  23
TORSDOF 17
ENDMDL
MODEL 3
REMARK VINA RESULT:     -11.9      1.552      2.891
REMARK SMILES Cc1c(/C=C/C(=O)OCCOC(=O)c2ccc(-c3c4nc(c(-c5ccc(S(=O)(=O)[O-])cc5)c5ccc([nH]5)c(-c5ccc(S(=O)(=O)[O-])cc5)c5nc(c(-c6ccc(S(=O)(=O)[O-])cc6)c6ccc3[nH]6)C=C5)C=C4)cc2)cccc1C(=O)N1C[C@@H](C)[C@@H](C)C1
REMARK SMILES IDX 9 1 8 2 6 3 7 4 5 5 4 6 3 7 1 8 2 9 77 10 74 11 76 12 75 13
REMARK SMILES IDX 78 14 79 15 80 16 81 17 86 18 82 19 84 20 83 21 85 22 10 23
REMARK SMILES IDX 11 24 12 25 13 26 14 27 15 28 73 29 16 30 72 31 17 32 18 33
REMARK SMILES IDX 19 34 66 35 20 36 71 37 65 38 67 39 21 40 70 41 64 42 63 43
REMARK SMILES IDX 22 45 52 46 33 47 51 48 34 49 37 50 50 51 68 52 35 53 36 54
REMARK SMILES IDX 49 56 69 57 38 58 23 59 24 60 32 61 25 62 31 63 26 64 27 65
REMARK SMILES IDX 28 66 29 67 30 68 53 69 54 70 62 71 55 72 61 73 56 74 57 75
REMARK SMILES IDX 58 76 59 77 60 78 39 79 40 80 48 81 41 82 47 83 42 84 43 85
REMARK SMILES IDX 44 86 45 87 46 88
REMARK H PARENT 67 44 37 55
REMARK Flexibility Score: inf
ROOT
ATOM      1  C   UNL A   1      42.525  23.344  26.581  1.00  0.00     0.275 C 
ENDROOT
BRANCH   1   2
ATOM      2  O   UNL A   1      41.158  23.478  26.169  1.00  0.00    -0.459 OA
BRANCH   2   3
ATOM      3  C   UNL A   1      40.208  22.588  26.808  1.00  0.00     0.330 C 
ATOM      4  O   UNL A   1      40.746  22.227  27.884  1.00  0.00    -0.247 OA
BRANCH   3   5
ATOM      5  C   UNL A   1      38.329  22.043  25.946  1.00  0.00     0.094 C 
ATOM      6  C   UNL A   1      37.695  21.431  24.869  1.00  0.00     0.016 C 
BRANCH   6   7
ATOM      7  C   UNL A   1      36.238  21.435  24.581  1.00  0.00    -0.022 A 
ATOM      8  C   UNL A   1      36.648  23.286  22.949  1.00  0.00     0.046 C 
ATOM      9  C   UNL A   1      35.688  22.388  23.687  1.00  0.00    -0.031 A 
ATOM     10  C   UNL A   1      34.279  22.500  23.591  1.00  0.00     0.043 A 
ATOM     11  C   UNL A   1      35.395  20.652  25.386  1.00  0.00     0.008 A 
ATOM     12  C   UNL A   1      33.461  21.735  24.446  1.00  0.00     0.014 A 
ATOM     13  C   UNL A   1      34.015  20.816  25.335  1.00  0.00     0.001 A 
BRANCH  10  14
ATOM     14  C   UNL A   1      33.583  23.592  22.848  1.00  0.00     0.254 C 
ATOM     15  O   UNL A   1      33.470  23.474  21.627  1.00  0.00    -0.269 OA
BRANCH  14  16
ATOM     16  N   UNL A   1      32.980  24.632  23.526  1.00  0.00    -0.338 N 
ATOM     17  C   UNL A   1      31.602  24.946  23.233  1.00  0.00     0.123 C 
ATOM     18  C   UNL A   1      33.555  25.535  24.515  1.00  0.00     0.123 C 
ATOM     19  C   UNL A   1      31.327  26.282  23.906  1.00  0.00     0.010 C 
ATOM     20  C   UNL A   1      32.371  26.367  25.043  1.00  0.00     0.010 C 
ATOM     21  C   UNL A   1      29.863  26.401  24.311  1.00  0.00     0.010 C 
ATOM     22  C   UNL A   1      31.888  25.886  26.411  1.00  0.00     0.010 C 
ENDBRANCH  14  16
ENDBRANCH  10  14
ENDBRANCH   6   7
ENDBRANCH   3   5
ENDBRANCH   2   3
ENDBRANCH   1   2
BRANCH   1  23
ATOM     23  C   UNL A   1      43.167  24.736  26.558  1.00  0.00     0.275 C 
BRANCH  23  24
ATOM     24  O   UNL A   1      42.253  25.848  26.738  1.00  0.00    -0.458 OA
BRANCH  24  25
ATOM     25  C   UNL A   1      42.265  26.871  25.848  1.00  0.00     0.338 C 
ATOM     26  O   UNL A   1      42.470  26.795  24.650  1.00  0.00    -0.246 OA
BRANCH  25  27
ATOM     27  C   UNL A   1      42.005  28.140  26.525  1.00  0.00     0.060 A 
ATOM     28  C   UNL A   1      43.328  28.903  27.515  1.00  0.00     0.016 A 
ATOM     29  C   UNL A   1      40.252  28.484  26.882  1.00  0.00     0.016 A 
ATOM     30  C   UNL A   1      42.915  29.875  29.006  1.00  0.00     0.010 A 
ATOM     31  C   UNL A   1      39.837  29.432  28.375  1.00  0.00     0.010 A 
ATOM     32  C   UNL A   1      41.160  30.045  29.468  1.00  0.00    -0.014 A 
BRANCH  32  33
ATOM     33  C   UNL A   1      40.671  30.363  30.776  1.00  0.00     0.031 A 
ATOM     34  C   UNL A   1      39.948  31.634  30.887  1.00  0.00     0.074 A 
ATOM     35  C   UNL A   1      40.635  29.362  31.683  1.00  0.00     0.049 A 
ATOM     36  N   UNL A   1      39.659  32.197  31.999  1.00  0.00    -0.248 NA
ATOM     37  C   UNL A   1      39.521  32.426  29.728  1.00  0.00     0.031 C 
ATOM     38  C   UNL A   1      39.812  29.263  32.882  1.00  0.00     0.029 A 
ATOM     39  N   UNL A   1      41.464  28.245  31.791  1.00  0.00    -0.354 N 
ATOM     40  C   UNL A   1      38.676  33.120  31.723  1.00  0.00     0.074 A 
ATOM     41  C   UNL A   1      38.741  33.343  30.304  1.00  0.00     0.031 C 
ATOM     42  C   UNL A   1      40.388  28.387  33.729  1.00  0.00     0.029 A 
ATOM     43  C   UNL A   1      41.674  28.022  33.154  1.00  0.00     0.049 A 
ATOM     44  H   UNL A   1      41.833  27.715  31.047  1.00  0.00     0.167 HD
ATOM     45  C   UNL A   1      37.795  33.418  32.714  1.00  0.00     0.031 A 
ATOM     46  C   UNL A   1      42.889  28.242  33.744  1.00  0.00     0.031 A 
ATOM     47  C   UNL A   1      38.193  32.756  33.962  1.00  0.00     0.049 A 
ATOM     48  C   UNL A   1      42.848  29.432  34.703  1.00  0.00     0.074 A 
ATOM     49  C   UNL A   1      37.738  31.641  34.646  1.00  0.00     0.029 A 
ATOM     50  N   UNL A   1      39.469  33.002  34.449  1.00  0.00    -0.354 N 
ATOM     51  N   UNL A   1      41.829  30.245  34.816  1.00  0.00    -0.248 NA
ATOM     52  C   UNL A   1      43.942  29.826  35.585  1.00  0.00     0.031 C 
ATOM     53  C   UNL A   1      38.778  31.212  35.530  1.00  0.00     0.029 A 
ATOM     54  C   UNL A   1      39.847  32.081  35.403  1.00  0.00     0.049 A 
ATOM     55  H   UNL A   1      40.036  33.748  34.148  1.00  0.00     0.167 HD
ATOM     56  C   UNL A   1      42.088  31.236  35.726  1.00  0.00     0.074 A 
ATOM     57  C   UNL A   1      43.447  30.943  36.157  1.00  0.00     0.031 C 
ATOM     58  C   UNL A   1      41.168  32.212  36.022  1.00  0.00     0.031 A 
BRANCH  45  59
ATOM     59  C   UNL A   1      36.452  34.069  32.490  1.00  0.00    -0.014 A 
ATOM     60  C   UNL A   1      35.965  34.958  33.469  1.00  0.00     0.010 A 
ATOM     61  C   UNL A   1      35.608  33.842  31.384  1.00  0.00     0.010 A 
ATOM     62  C   UNL A   1      34.703  35.555  33.373  1.00  0.00     0.020 A 
ATOM     63  C   UNL A   1      34.331  34.417  31.282  1.00  0.00     0.020 A 
ATOM     64  C   UNL A   1      33.889  35.278  32.279  1.00  0.00     0.054 A 
BRANCH  64  65
ATOM     65  S   UNL A   1      32.273  36.085  32.165  1.00  0.00     0.124 S 
ATOM     66  O   UNL A   1      32.211  36.467  30.757  1.00  0.00    -0.237 OA
ATOM     67  O   UNL A   1      31.365  35.016  32.571  1.00  0.00    -0.237 OA
ATOM     68  O   UNL A   1      32.376  37.201  33.104  1.00  0.00    -0.744 OA
ENDBRANCH  64  65
ENDBRANCH  45  59
BRANCH  46  69
ATOM     69  C   UNL A   1      44.045  27.771  32.912  1.00  0.00    -0.014 A 
ATOM     70  C   UNL A   1      44.352  26.391  32.987  1.00  0.00     0.010 A 
ATOM     71  C   UNL A   1      44.522  28.491  31.804  1.00  0.00     0.010 A 
ATOM     72  C   UNL A   1      44.930  25.713  31.907  1.00  0.00     0.020 A 
ATOM     73  C   UNL A   1      45.138  27.815  30.728  1.00  0.00     0.020 A 
ATOM     74  C   UNL A   1      45.273  26.422  30.759  1.00  0.00     0.054 A 
BRANCH  74  75
ATOM     75  S   UNL A   1      45.731  25.475  29.271  1.00  0.00     0.124 S 
ATOM     76  O   UNL A   1      45.448  26.423  28.199  1.00  0.00    -0.237 OA
ATOM     77  O   UNL A   1      47.146  25.188  29.491  1.00  0.00    -0.237 OA
ATOM     78  O   UNL A   1      44.847  24.312  29.316  1.00  0.00    -0.744 OA
ENDBRANCH  74  75
ENDBRANCH  46  69
BRANCH  58  79
ATOM     79  C   UNL A   1      41.399  33.431  36.902  1.00  0.00    -0.014 A 
ATOM     80  C   UNL A   1      41.824  34.679  36.434  1.00  0.00     0.010 A 
ATOM     81  C   UNL A   1      41.240  33.321  38.311  1.00  0.00     0.010 A 
ATOM     82  C   UNL A   1      41.974  35.773  37.304  1.00  0.00     0.020 A 
ATOM     83  C   UNL A   1      41.395  34.392  39.189  1.00  0.00     0.020 A 
ATOM     84  C   UNL A   1      41.744  35.624  38.673  1.00  0.00     0.054 A 
BRANCH  84  85
ATOM     85  S   UNL A   1      41.958  37.042  39.770  1.00  0.00     0.124 S 
ATOM     86  O   UNL A   1      40.843  37.904  39.384  1.00  0.00    -0.237 OA
ATOM     87  O   UNL A   1      41.848  36.425  41.090  1.00  0.00    -0.237 OA
ATOM     88  O   UNL A   1      43.283  37.554  39.432  1.00  0.00    -0.744 OA
ENDBRANCH  84  85
ENDBRANCH  58  79
ENDBRANCH  32  33
ENDBRANCH  25  27
ENDBRANCH  24  25
ENDBRANCH  23  24
ENDBRANCH   1  23
TORSDOF 17
ENDMDL
