MODEL 1
REMARK VINA RESULT:     -13.3      0.000      0.000
REMARK SMILES C[C@]12C(=O)N(c3ccc(C(=O)OCCOC(=O)c4ccc(-c5c6nc(c(-c7ccc(S(=O)(=O)[O-])cc7)c7ccc([nH]7)c(-c7ccc(S(=O)(=O)[O-])cc7)c7nc(c(-c8ccc(S(=O)(=O)[O-])cc8)c8ccc5[nH]8)C=C7)C=C6)cc4)cc3)C(=O)[C@H]1[C@H]1c3ccccc3[C@@H]2c2ccccc21
REMARK SMILES IDX 14 1 13 2 12 3 10 4 11 5 9 6 6 7 7 8 79 9 8 10 78 11 5 12
REMARK SMILES IDX 1 13 2 14 3 15 82 16 90 17 4 18 80 19 83 20 89 21 91 22
REMARK SMILES IDX 81 23 84 24 96 25 88 26 92 27 85 28 95 29 87 30 93 31 86 32
REMARK SMILES IDX 94 33 15 34 16 35 17 36 18 37 19 38 77 39 20 40 76 41 21 42
REMARK SMILES IDX 22 43 23 44 70 45 24 46 75 47 69 48 71 49 25 50 74 51 68 52
REMARK SMILES IDX 67 53 26 55 56 56 37 57 55 58 38 59 41 60 54 61 72 62 39 63
REMARK SMILES IDX 40 64 53 66 73 67 42 68 27 69 28 70 36 71 29 72 35 73 30 74
REMARK SMILES IDX 31 75 32 76 33 77 34 78 57 79 58 80 66 81 59 82 65 83 60 84
REMARK SMILES IDX 61 85 62 86 63 87 64 88 43 89 44 90 52 91 45 92 51 93 46 94
REMARK SMILES IDX 47 95 48 96 49 97 50 98
REMARK H PARENT 71 54 41 65
REMARK Flexibility Score: inf
ROOT
ATOM      1  C   UNL A   1      39.649  20.248  25.943  1.00  0.00     0.275 C 
ENDROOT
BRANCH   1   2
ATOM      2  C   UNL A   1      39.349  21.708  26.293  1.00  0.00     0.275 C 
BRANCH   2   3
ATOM      3  O   UNL A   1      38.169  22.176  25.604  1.00  0.00    -0.458 OA
BRANCH   3   4
ATOM      4  C   UNL A   1      37.685  23.365  26.026  1.00  0.00     0.338 C 
ATOM      5  O   UNL A   1      38.275  24.196  26.701  1.00  0.00    -0.246 OA
BRANCH   4   6
ATOM      6  C   UNL A   1      36.368  23.641  25.416  1.00  0.00     0.060 A 
ATOM      7  C   UNL A   1      33.978  24.169  23.974  1.00  0.00     0.052 A 
ATOM      8  C   UNL A   1      34.918  23.223  23.536  1.00  0.00     0.028 A 
ATOM      9  C   UNL A   1      34.252  24.831  25.180  1.00  0.00     0.028 A 
ATOM     10  C   UNL A   1      36.101  22.993  24.220  1.00  0.00     0.018 A 
ATOM     11  C   UNL A   1      35.432  24.550  25.914  1.00  0.00     0.018 A 
BRANCH   7  12
ATOM     12  N   UNL A   1      32.936  24.546  23.068  1.00  0.00    -0.250 N 
ATOM     13  C   UNL A   1      31.209  26.275  20.834  1.00  0.00     0.024 C 
ATOM     14  C   UNL A   1      31.736  26.382  22.279  1.00  0.00     0.071 C 
ATOM     15  C   UNL A   1      33.058  25.680  22.294  1.00  0.00     0.241 C 
ATOM     16  C   UNL A   1      30.871  25.561  23.280  1.00  0.00     0.107 C 
ATOM     17  C   UNL A   1      31.887  27.849  22.805  1.00  0.00     0.066 C 
ATOM     18  O   UNL A   1      34.025  26.065  21.649  1.00  0.00    -0.273 OA
ATOM     19  C   UNL A   1      31.582  24.208  23.223  1.00  0.00     0.238 C 
ATOM     20  C   UNL A   1      29.965  26.561  24.111  1.00  0.00     0.063 C 
ATOM     21  C   UNL A   1      32.105  27.818  24.332  1.00  0.00    -0.036 A 
ATOM     22  C   UNL A   1      30.509  28.464  22.609  1.00  0.00    -0.036 A 
ATOM     23  O   UNL A   1      31.070  23.115  23.394  1.00  0.00    -0.274 OA
ATOM     24  C   UNL A   1      31.024  27.223  25.062  1.00  0.00    -0.036 A 
ATOM     25  C   UNL A   1      29.467  27.743  23.260  1.00  0.00    -0.036 A 
ATOM     26  C   UNL A   1      33.268  28.184  24.989  1.00  0.00     0.005 A 
ATOM     27  C   UNL A   1      30.269  29.655  21.937  1.00  0.00     0.005 A 
ATOM     28  C   UNL A   1      31.126  26.976  26.426  1.00  0.00     0.004 A 
ATOM     29  C   UNL A   1      28.176  28.254  23.241  1.00  0.00     0.004 A 
ATOM     30  C   UNL A   1      33.367  27.932  26.362  1.00  0.00     0.000 A 
ATOM     31  C   UNL A   1      28.971  30.152  21.919  1.00  0.00     0.000 A 
ATOM     32  C   UNL A   1      32.310  27.334  27.070  1.00  0.00     0.000 A 
ATOM     33  C   UNL A   1      27.935  29.459  22.566  1.00  0.00     0.000 A 
ENDBRANCH   7  12
ENDBRANCH   4   6
ENDBRANCH   3   4
ENDBRANCH   2   3
ENDBRANCH   1   2
BRANCH   1  34
ATOM     34  O   UNL A   1      40.733  19.739  26.741  1.00  0.00    -0.458 OA
BRANCH  34  35
ATOM     35  C   UNL A   1      41.949  19.744  26.149  1.00  0.00     0.338 C 
ATOM     36  O   UNL A   1      42.473  18.845  25.515  1.00  0.00    -0.246 OA
BRANCH  35  37
ATOM     37  C   UNL A   1      42.560  21.068  26.333  1.00  0.00     0.060 A 
ATOM     38  C   UNL A   1      42.856  21.881  25.240  1.00  0.00     0.016 A 
ATOM     39  C   UNL A   1      42.759  21.532  27.629  1.00  0.00     0.016 A 
ATOM     40  C   UNL A   1      43.379  23.161  25.464  1.00  0.00     0.010 A 
ATOM     41  C   UNL A   1      43.152  22.847  27.850  1.00  0.00     0.010 A 
ATOM     42  C   UNL A   1      43.514  23.665  26.772  1.00  0.00    -0.014 A 
BRANCH  42  43
ATOM     43  C   UNL A   1      44.101  25.005  27.051  1.00  0.00     0.031 A 
ATOM     44  C   UNL A   1      43.204  26.122  27.534  1.00  0.00     0.074 A 
ATOM     45  C   UNL A   1      45.412  25.238  26.844  1.00  0.00     0.049 A 
ATOM     46  N   UNL A   1      43.494  27.379  27.747  1.00  0.00    -0.248 NA
ATOM     47  C   UNL A   1      41.788  25.790  27.786  1.00  0.00     0.031 C 
ATOM     48  C   UNL A   1      46.382  24.249  26.370  1.00  0.00     0.029 A 
ATOM     49  N   UNL A   1      46.162  26.378  27.015  1.00  0.00    -0.354 N 
ATOM     50  C   UNL A   1      42.303  27.982  28.139  1.00  0.00     0.074 A 
ATOM     51  C   UNL A   1      41.271  26.976  28.070  1.00  0.00     0.031 C 
ATOM     52  C   UNL A   1      47.603  24.807  26.344  1.00  0.00     0.029 A 
ATOM     53  C   UNL A   1      47.500  26.210  26.739  1.00  0.00     0.049 A 
ATOM     54  H   UNL A   1      45.777  27.236  27.307  1.00  0.00     0.167 HD
ATOM     55  C   UNL A   1      42.093  29.251  28.560  1.00  0.00     0.031 A 
ATOM     56  C   UNL A   1      48.529  27.080  26.797  1.00  0.00     0.031 A 
ATOM     57  C   UNL A   1      43.132  30.236  28.674  1.00  0.00     0.049 A 
ATOM     58  C   UNL A   1      48.266  28.497  27.233  1.00  0.00     0.074 A 
ATOM     59  C   UNL A   1      43.026  31.539  29.124  1.00  0.00     0.029 A 
ATOM     60  N   UNL A   1      44.466  30.024  28.360  1.00  0.00    -0.354 N 
ATOM     61  N   UNL A   1      47.136  29.040  27.619  1.00  0.00    -0.248 NA
ATOM     62  C   UNL A   1      49.411  29.421  27.247  1.00  0.00     0.031 C 
ATOM     63  C   UNL A   1      44.284  32.134  29.029  1.00  0.00     0.029 A 
ATOM     64  C   UNL A   1      45.190  31.179  28.592  1.00  0.00     0.049 A 
ATOM     65  H   UNL A   1      44.842  29.178  28.025  1.00  0.00     0.167 HD
ATOM     66  C   UNL A   1      47.438  30.356  27.948  1.00  0.00     0.074 A 
ATOM     67  C   UNL A   1      48.858  30.530  27.725  1.00  0.00     0.031 C 
ATOM     68  C   UNL A   1      46.610  31.331  28.393  1.00  0.00     0.031 A 
BRANCH  55  69
ATOM     69  C   UNL A   1      40.701  29.651  28.982  1.00  0.00    -0.014 A 
ATOM     70  C   UNL A   1      40.362  29.692  30.347  1.00  0.00     0.010 A 
ATOM     71  C   UNL A   1      39.692  29.848  28.021  1.00  0.00     0.010 A 
ATOM     72  C   UNL A   1      39.035  29.879  30.743  1.00  0.00     0.020 A 
ATOM     73  C   UNL A   1      38.370  30.068  28.414  1.00  0.00     0.020 A 
ATOM     74  C   UNL A   1      38.044  30.053  29.772  1.00  0.00     0.054 A 
BRANCH  74  75
ATOM     75  S   UNL A   1      36.320  30.240  30.301  1.00  0.00     0.124 S 
ATOM     76  O   UNL A   1      36.272  29.402  31.496  1.00  0.00    -0.237 OA
ATOM     77  O   UNL A   1      36.211  31.679  30.533  1.00  0.00    -0.237 OA
ATOM     78  O   UNL A   1      35.555  29.743  29.159  1.00  0.00    -0.744 OA
ENDBRANCH  74  75
ENDBRANCH  55  69
BRANCH  56  79
ATOM     79  C   UNL A   1      49.910  26.608  26.488  1.00  0.00    -0.014 A 
ATOM     80  C   UNL A   1      50.402  26.621  25.170  1.00  0.00     0.010 A 
ATOM     81  C   UNL A   1      50.715  26.069  27.508  1.00  0.00     0.010 A 
ATOM     82  C   UNL A   1      51.645  26.055  24.868  1.00  0.00     0.020 A 
ATOM     83  C   UNL A   1      51.974  25.531  27.216  1.00  0.00     0.020 A 
ATOM     84  C   UNL A   1      52.416  25.500  25.892  1.00  0.00     0.054 A 
BRANCH  84  85
ATOM     85  S   UNL A   1      54.003  24.726  25.469  1.00  0.00     0.124 S 
ATOM     86  O   UNL A   1      54.474  25.584  24.385  1.00  0.00    -0.237 OA
ATOM     87  O   UNL A   1      54.749  24.824  26.721  1.00  0.00    -0.237 OA
ATOM     88  O   UNL A   1      53.628  23.369  25.075  1.00  0.00    -0.744 OA
ENDBRANCH  84  85
ENDBRANCH  56  79
BRANCH  68  89
ATOM     89  C   UNL A   1      47.182  32.689  28.704  1.00  0.00    -0.014 A 
ATOM     90  C   UNL A   1      47.294  33.642  27.674  1.00  0.00     0.010 A 
ATOM     91  C   UNL A   1      47.797  32.937  29.942  1.00  0.00     0.010 A 
ATOM     92  C   UNL A   1      48.072  34.788  27.853  1.00  0.00     0.020 A 
ATOM     93  C   UNL A   1      48.552  34.098  30.134  1.00  0.00     0.020 A 
ATOM     94  C   UNL A   1      48.715  34.996  29.076  1.00  0.00     0.054 A 
BRANCH  94  95
ATOM     95  S   UNL A   1      49.809  36.433  29.251  1.00  0.00     0.124 S 
ATOM     96  O   UNL A   1      50.209  36.345  30.652  1.00  0.00    -0.237 OA
ATOM     97  O   UNL A   1      50.860  36.155  28.276  1.00  0.00    -0.237 OA
ATOM     98  O   UNL A   1      48.945  37.564  28.919  1.00  0.00    -0.744 OA
ENDBRANCH  94  95
ENDBRANCH  68  89
ENDBRANCH  42  43
ENDBRANCH  35  37
ENDBRANCH  34  35
ENDBRANCH   1  34
TORSDOF 15
ENDMDL
MODEL 2
REMARK VINA RESULT:     -13.2      2.408      8.549
REMARK SMILES C[C@]12C(=O)N(c3ccc(C(=O)OCCOC(=O)c4ccc(-c5c6nc(c(-c7ccc(S(=O)(=O)[O-])cc7)c7ccc([nH]7)c(-c7ccc(S(=O)(=O)[O-])cc7)c7nc(c(-c8ccc(S(=O)(=O)[O-])cc8)c8ccc5[nH]8)C=C7)C=C6)cc4)cc3)C(=O)[C@H]1[C@H]1c3ccccc3[C@@H]2c2ccccc21
REMARK SMILES IDX 14 1 13 2 12 3 10 4 11 5 9 6 6 7 7 8 79 9 8 10 78 11 5 12
REMARK SMILES IDX 1 13 2 14 3 15 82 16 90 17 4 18 80 19 83 20 89 21 91 22
REMARK SMILES IDX 81 23 84 24 96 25 88 26 92 27 85 28 95 29 87 30 93 31 86 32
REMARK SMILES IDX 94 33 15 34 16 35 17 36 18 37 19 38 77 39 20 40 76 41 21 42
REMARK SMILES IDX 22 43 23 44 70 45 24 46 75 47 69 48 71 49 25 50 74 51 68 52
REMARK SMILES IDX 67 53 26 55 56 56 37 57 55 58 38 59 41 60 54 61 72 62 39 63
REMARK SMILES IDX 40 64 53 66 73 67 42 68 27 69 28 70 36 71 29 72 35 73 30 74
REMARK SMILES IDX 31 75 32 76 33 77 34 78 57 79 58 80 66 81 59 82 65 83 60 84
REMARK SMILES IDX 61 85 62 86 63 87 64 88 43 89 44 90 52 91 45 92 51 93 46 94
REMARK SMILES IDX 47 95 48 96 49 97 50 98
REMARK H PARENT 71 54 41 65
REMARK Flexibility Score: inf
ROOT
ATOM      1  C   UNL A   1      34.796  31.798  29.418  1.00  0.00     0.275 C 
ENDROOT
BRANCH   1   2
ATOM      2  C   UNL A   1      34.231  31.597  28.010  1.00  0.00     0.275 C 
BRANCH   2   3
ATOM      3  O   UNL A   1      33.749  30.247  27.832  1.00  0.00    -0.458 OA
BRANCH   3   4
ATOM      4  C   UNL A   1      34.511  29.460  27.039  1.00  0.00     0.338 C 
ATOM      5  O   UNL A   1      35.722  29.526  26.893  1.00  0.00    -0.246 OA
BRANCH   4   6
ATOM      6  C   UNL A   1      33.711  28.355  26.473  1.00  0.00     0.060 A 
ATOM      7  C   UNL A   1      32.099  26.158  25.671  1.00  0.00     0.052 A 
ATOM      8  C   UNL A   1      31.695  27.049  26.678  1.00  0.00     0.028 A 
ATOM      9  C   UNL A   1      33.329  26.413  25.047  1.00  0.00     0.028 A 
ATOM     10  C   UNL A   1      32.498  28.099  27.094  1.00  0.00     0.018 A 
ATOM     11  C   UNL A   1      34.124  27.524  25.429  1.00  0.00     0.018 A 
BRANCH   7  12
ATOM     12  N   UNL A   1      31.347  24.951  25.505  1.00  0.00    -0.250 N 
ATOM     13  C   UNL A   1      30.209  21.883  26.009  1.00  0.00     0.024 C 
ATOM     14  C   UNL A   1      31.509  22.630  25.648  1.00  0.00     0.071 C 
ATOM     15  C   UNL A   1      31.475  23.918  26.409  1.00  0.00     0.241 C 
ATOM     16  C   UNL A   1      31.529  23.082  24.158  1.00  0.00     0.107 C 
ATOM     17  C   UNL A   1      32.820  21.838  25.967  1.00  0.00     0.066 C 
ATOM     18  O   UNL A   1      31.491  23.971  27.632  1.00  0.00    -0.273 OA
ATOM     19  C   UNL A   1      30.881  24.463  24.274  1.00  0.00     0.238 C 
ATOM     20  C   UNL A   1      32.494  22.123  23.347  1.00  0.00     0.063 C 
ATOM     21  C   UNL A   1      34.012  22.534  25.278  1.00  0.00    -0.036 A 
ATOM     22  C   UNL A   1      32.650  20.515  25.234  1.00  0.00    -0.036 A 
ATOM     23  O   UNL A   1      30.214  25.023  23.420  1.00  0.00    -0.274 OA
ATOM     24  C   UNL A   1      33.902  22.599  23.850  1.00  0.00    -0.036 A 
ATOM     25  C   UNL A   1      32.417  20.666  23.837  1.00  0.00    -0.036 A 
ATOM     26  C   UNL A   1      35.053  23.181  25.925  1.00  0.00     0.005 A 
ATOM     27  C   UNL A   1      32.787  19.266  25.825  1.00  0.00     0.005 A 
ATOM     28  C   UNL A   1      34.810  23.327  23.090  1.00  0.00     0.004 A 
ATOM     29  C   UNL A   1      32.343  19.533  23.037  1.00  0.00     0.004 A 
ATOM     30  C   UNL A   1      35.963  23.914  25.156  1.00  0.00     0.000 A 
ATOM     31  C   UNL A   1      32.703  18.140  25.014  1.00  0.00     0.000 A 
ATOM     32  C   UNL A   1      35.841  23.988  23.757  1.00  0.00     0.000 A 
ATOM     33  C   UNL A   1      32.484  18.272  23.633  1.00  0.00     0.000 A 
ENDBRANCH   7  12
ENDBRANCH   4   6
ENDBRANCH   3   4
ENDBRANCH   2   3
ENDBRANCH   1   2
BRANCH   1  34
ATOM     34  O   UNL A   1      36.223  31.605  29.434  1.00  0.00    -0.458 OA
BRANCH  34  35
ATOM     35  C   UNL A   1      36.666  30.582  30.198  1.00  0.00     0.338 C 
ATOM     36  O   UNL A   1      36.087  30.033  31.118  1.00  0.00    -0.246 OA
BRANCH  35  37
ATOM     37  C   UNL A   1      37.986  30.160  29.706  1.00  0.00     0.060 A 
ATOM     38  C   UNL A   1      38.252  30.080  28.340  1.00  0.00     0.016 A 
ATOM     39  C   UNL A   1      38.995  29.924  30.634  1.00  0.00     0.016 A 
ATOM     40  C   UNL A   1      39.542  29.736  27.915  1.00  0.00     0.010 A 
ATOM     41  C   UNL A   1      40.302  29.714  30.209  1.00  0.00     0.010 A 
ATOM     42  C   UNL A   1      40.585  29.568  28.845  1.00  0.00    -0.014 A 
BRANCH  42  43
ATOM     43  C   UNL A   1      41.959  29.165  28.435  1.00  0.00     0.031 A 
ATOM     44  C   UNL A   1      42.231  27.727  28.059  1.00  0.00     0.074 A 
ATOM     45  C   UNL A   1      42.965  30.063  28.429  1.00  0.00     0.049 A 
ATOM     46  N   UNL A   1      43.367  27.152  27.763  1.00  0.00    -0.248 NA
ATOM     47  C   UNL A   1      41.078  26.805  28.040  1.00  0.00     0.031 C 
ATOM     48  C   UNL A   1      42.837  31.479  28.780  1.00  0.00     0.029 A 
ATOM     49  N   UNL A   1      44.295  29.923  28.107  1.00  0.00    -0.354 N 
ATOM     50  C   UNL A   1      43.068  25.812  27.540  1.00  0.00     0.074 A 
ATOM     51  C   UNL A   1      41.659  25.639  27.800  1.00  0.00     0.031 C 
ATOM     52  C   UNL A   1      44.021  32.086  28.599  1.00  0.00     0.029 A 
ATOM     53  C   UNL A   1      45.010  31.097  28.179  1.00  0.00     0.049 A 
ATOM     54  H   UNL A   1      44.698  29.063  27.850  1.00  0.00     0.167 HD
ATOM     55  C   UNL A   1      43.883  24.820  27.115  1.00  0.00     0.031 A 
ATOM     56  C   UNL A   1      46.312  31.352  27.934  1.00  0.00     0.031 A 
ATOM     57  C   UNL A   1      45.275  25.006  26.810  1.00  0.00     0.049 A 
ATOM     58  C   UNL A   1      47.210  30.226  27.498  1.00  0.00     0.074 A 
ATOM     59  C   UNL A   1      46.178  24.071  26.339  1.00  0.00     0.029 A 
ATOM     60  N   UNL A   1      45.958  26.208  26.920  1.00  0.00    -0.354 N 
ATOM     61  N   UNL A   1      46.901  28.971  27.273  1.00  0.00    -0.248 NA
ATOM     62  C   UNL A   1      48.630  30.543  27.277  1.00  0.00     0.031 C 
ATOM     63  C   UNL A   1      47.420  24.691  26.219  1.00  0.00     0.029 A 
ATOM     64  C   UNL A   1      47.276  26.032  26.542  1.00  0.00     0.049 A 
ATOM     65  H   UNL A   1      45.564  27.058  27.221  1.00  0.00     0.167 HD
ATOM     66  C   UNL A   1      48.078  28.357  26.857  1.00  0.00     0.074 A 
ATOM     67  C   UNL A   1      49.105  29.376  26.853  1.00  0.00     0.031 C 
ATOM     68  C   UNL A   1      48.284  27.063  26.514  1.00  0.00     0.031 A 
BRANCH  55  69
ATOM     69  C   UNL A   1      43.299  23.446  26.900  1.00  0.00    -0.014 A 
ATOM     70  C   UNL A   1      43.074  22.594  27.997  1.00  0.00     0.010 A 
ATOM     71  C   UNL A   1      43.106  22.948  25.598  1.00  0.00     0.010 A 
ATOM     72  C   UNL A   1      42.711  21.260  27.797  1.00  0.00     0.020 A 
ATOM     73  C   UNL A   1      42.710  21.624  25.395  1.00  0.00     0.020 A 
ATOM     74  C   UNL A   1      42.543  20.780  26.495  1.00  0.00     0.054 A 
BRANCH  74  75
ATOM     75  S   UNL A   1      42.124  19.033  26.252  1.00  0.00     0.124 S 
ATOM     76  O   UNL A   1      40.724  19.105  25.841  1.00  0.00    -0.237 OA
ATOM     77  O   UNL A   1      43.067  18.619  25.215  1.00  0.00    -0.237 OA
ATOM     78  O   UNL A   1      42.358  18.438  27.567  1.00  0.00    -0.744 OA
ENDBRANCH  74  75
ENDBRANCH  55  69
BRANCH  56  79
ATOM     79  C   UNL A   1      46.820  32.751  28.041  1.00  0.00    -0.014 A 
ATOM     80  C   UNL A   1      47.282  33.262  29.269  1.00  0.00     0.010 A 
ATOM     81  C   UNL A   1      46.769  33.607  26.926  1.00  0.00     0.010 A 
ATOM     82  C   UNL A   1      47.632  34.610  29.393  1.00  0.00     0.020 A 
ATOM     83  C   UNL A   1      47.149  34.949  27.038  1.00  0.00     0.020 A 
ATOM     84  C   UNL A   1      47.548  35.449  28.279  1.00  0.00     0.054 A 
BRANCH  84  85
ATOM     85  S   UNL A   1      47.958  37.206  28.475  1.00  0.00     0.124 S 
ATOM     86  O   UNL A   1      46.810  37.853  27.843  1.00  0.00    -0.237 OA
ATOM     87  O   UNL A   1      48.044  37.353  29.925  1.00  0.00    -0.237 OA
ATOM     88  O   UNL A   1      49.225  37.344  27.761  1.00  0.00    -0.744 OA
ENDBRANCH  84  85
ENDBRANCH  56  79
BRANCH  68  89
ATOM     89  C   UNL A   1      49.659  26.635  26.075  1.00  0.00    -0.014 A 
ATOM     90  C   UNL A   1      50.596  26.223  27.042  1.00  0.00     0.010 A 
ATOM     91  C   UNL A   1      50.083  26.848  24.752  1.00  0.00     0.010 A 
ATOM     92  C   UNL A   1      51.946  26.100  26.710  1.00  0.00     0.020 A 
ATOM     93  C   UNL A   1      51.430  26.696  24.410  1.00  0.00     0.020 A 
ATOM     94  C   UNL A   1      52.358  26.360  25.400  1.00  0.00     0.054 A 
BRANCH  94  95
ATOM     95  S   UNL A   1      54.130  26.301  25.016  1.00  0.00     0.124 S 
ATOM     96  O   UNL A   1      54.187  26.983  23.727  1.00  0.00    -0.237 OA
ATOM     97  O   UNL A   1      54.724  27.023  26.138  1.00  0.00    -0.237 OA
ATOM     98  O   UNL A   1      54.425  24.870  24.979  1.00  0.00    -0.744 OA
ENDBRANCH  94  95
ENDBRANCH  68  89
ENDBRANCH  42  43
ENDBRANCH  35  37
ENDBRANCH  34  35
ENDBRANCH   1  34
TORSDOF 15
ENDMDL
MODEL 3
REMARK VINA RESULT:     -13.2      5.983     11.498
REMARK SMILES C[C@]12C(=O)N(c3ccc(C(=O)OCCOC(=O)c4ccc(-c5c6nc(c(-c7ccc(S(=O)(=O)[O-])cc7)c7ccc([nH]7)c(-c7ccc(S(=O)(=O)[O-])cc7)c7nc(c(-c8ccc(S(=O)(=O)[O-])cc8)c8ccc5[nH]8)C=C7)C=C6)cc4)cc3)C(=O)[C@H]1[C@H]1c3ccccc3[C@@H]2c2ccccc21
REMARK SMILES IDX 14 1 13 2 12 3 10 4 11 5 9 6 6 7 7 8 79 9 8 10 78 11 5 12
REMARK SMILES IDX 1 13 2 14 3 15 82 16 90 17 4 18 80 19 83 20 89 21 91 22
REMARK SMILES IDX 81 23 84 24 96 25 88 26 92 27 85 28 95 29 87 30 93 31 86 32
REMARK SMILES IDX 94 33 15 34 16 35 17 36 18 37 19 38 77 39 20 40 76 41 21 42
REMARK SMILES IDX 22 43 23 44 70 45 24 46 75 47 69 48 71 49 25 50 74 51 68 52
REMARK SMILES IDX 67 53 26 55 56 56 37 57 55 58 38 59 41 60 54 61 72 62 39 63
REMARK SMILES IDX 40 64 53 66 73 67 42 68 27 69 28 70 36 71 29 72 35 73 30 74
REMARK SMILES IDX 31 75 32 76 33 77 34 78 57 79 58 80 66 81 59 82 65 83 60 84
REMARK SMILES IDX 61 85 62 86 63 87 64 88 43 89 44 90 52 91 45 92 51 93 46 94
REMARK SMILES IDX 47 95 48 96 49 97 50 98
REMARK H PARENT 71 54 41 65
REMARK Flexibility Score: inf
ROOT
ATOM      1  C   UNL A   1      32.851  32.883  27.711  1.00  0.00     0.275 C 
ENDROOT
BRANCH   1   2
ATOM      2  C   UNL A   1      33.934  31.802  27.773  1.00  0.00     0.275 C 
BRANCH   2   3
ATOM      3  O   UNL A   1      33.395  30.506  27.435  1.00  0.00    -0.458 OA
BRANCH   3   4
ATOM      4  C   UNL A   1      34.311  29.557  27.136  1.00  0.00     0.338 C 
ATOM      5  O   UNL A   1      35.500  29.576  27.418  1.00  0.00    -0.246 OA
BRANCH   4   6
ATOM      6  C   UNL A   1      33.661  28.365  26.554  1.00  0.00     0.060 A 
ATOM      7  C   UNL A   1      32.222  26.080  25.675  1.00  0.00     0.052 A 
ATOM      8  C   UNL A   1      31.575  27.212  26.195  1.00  0.00     0.028 A 
ATOM      9  C   UNL A   1      33.620  26.131  25.577  1.00  0.00     0.028 A 
ATOM     10  C   UNL A   1      32.280  28.311  26.658  1.00  0.00     0.018 A 
ATOM     11  C   UNL A   1      34.339  27.281  25.992  1.00  0.00     0.018 A 
BRANCH   7  12
ATOM     12  N   UNL A   1      31.445  24.892  25.489  1.00  0.00    -0.250 N 
ATOM     13  C   UNL A   1      30.229  21.848  25.956  1.00  0.00     0.024 C 
ATOM     14  C   UNL A   1      31.551  22.567  25.618  1.00  0.00     0.071 C 
ATOM     15  C   UNL A   1      31.535  23.850  26.388  1.00  0.00     0.241 C 
ATOM     16  C   UNL A   1      31.603  23.028  24.132  1.00  0.00     0.107 C 
ATOM     17  C   UNL A   1      32.838  21.742  25.951  1.00  0.00     0.066 C 
ATOM     18  O   UNL A   1      31.535  23.894  27.611  1.00  0.00    -0.273 OA
ATOM     19  C   UNL A   1      30.985  24.423  24.248  1.00  0.00     0.238 C 
ATOM     20  C   UNL A   1      32.557  22.052  23.328  1.00  0.00     0.063 C 
ATOM     21  C   UNL A   1      34.056  22.415  25.284  1.00  0.00    -0.036 A 
ATOM     22  C   UNL A   1      32.648  20.428  25.205  1.00  0.00    -0.036 A 
ATOM     23  O   UNL A   1      30.344  25.004  23.389  1.00  0.00    -0.274 OA
ATOM     24  C   UNL A   1      33.969  22.492  23.855  1.00  0.00    -0.036 A 
ATOM     25  C   UNL A   1      32.439  20.594  23.806  1.00  0.00    -0.036 A 
ATOM     26  C   UNL A   1      35.102  23.033  25.950  1.00  0.00     0.005 A 
ATOM     27  C   UNL A   1      32.747  19.172  25.789  1.00  0.00     0.005 A 
ATOM     28  C   UNL A   1      34.904  23.204  23.113  1.00  0.00     0.004 A 
ATOM     29  C   UNL A   1      32.350  19.469  22.997  1.00  0.00     0.004 A 
ATOM     30  C   UNL A   1      36.040  23.750  25.199  1.00  0.00     0.000 A 
ATOM     31  C   UNL A   1      32.649  18.054  24.970  1.00  0.00     0.000 A 
ATOM     32  C   UNL A   1      35.940  23.836  23.800  1.00  0.00     0.000 A 
ATOM     33  C   UNL A   1      32.454  18.201  23.587  1.00  0.00     0.000 A 
ENDBRANCH   7  12
ENDBRANCH   4   6
ENDBRANCH   3   4
ENDBRANCH   2   3
ENDBRANCH   1   2
BRANCH   1  34
ATOM     34  O   UNL A   1      33.427  34.197  27.823  1.00  0.00    -0.458 OA
BRANCH  34  35
ATOM     35  C   UNL A   1      33.377  34.754  29.054  1.00  0.00     0.338 C 
ATOM     36  O   UNL A   1      32.560  35.551  29.479  1.00  0.00    -0.246 OA
BRANCH  35  37
ATOM     37  C   UNL A   1      34.465  34.196  29.871  1.00  0.00     0.060 A 
ATOM     38  C   UNL A   1      34.194  33.413  30.991  1.00  0.00     0.016 A 
ATOM     39  C   UNL A   1      35.777  34.395  29.452  1.00  0.00     0.016 A 
ATOM     40  C   UNL A   1      35.260  32.849  31.704  1.00  0.00     0.010 A 
ATOM     41  C   UNL A   1      36.822  33.727  30.081  1.00  0.00     0.010 A 
ATOM     42  C   UNL A   1      36.584  32.985  31.245  1.00  0.00    -0.014 A 
BRANCH  42  43
ATOM     43  C   UNL A   1      37.746  32.432  31.995  1.00  0.00     0.031 A 
ATOM     44  C   UNL A   1      38.494  31.243  31.435  1.00  0.00     0.074 A 
ATOM     45  C   UNL A   1      38.112  32.958  33.181  1.00  0.00     0.049 A 
ATOM     46  N   UNL A   1      39.470  30.556  31.969  1.00  0.00    -0.248 NA
ATOM     47  C   UNL A   1      38.074  30.744  30.111  1.00  0.00     0.031 C 
ATOM     48  C   UNL A   1      37.467  34.098  33.835  1.00  0.00     0.029 A 
ATOM     49  N   UNL A   1      39.124  32.613  34.045  1.00  0.00    -0.354 N 
ATOM     50  C   UNL A   1      39.764  29.545  31.061  1.00  0.00     0.074 A 
ATOM     51  C   UNL A   1      38.823  29.660  29.973  1.00  0.00     0.031 C 
ATOM     52  C   UNL A   1      38.132  34.392  34.964  1.00  0.00     0.029 A 
ATOM     53  C   UNL A   1      39.214  33.428  35.151  1.00  0.00     0.049 A 
ATOM     54  H   UNL A   1      39.729  31.852  33.889  1.00  0.00     0.167 HD
ATOM     55  C   UNL A   1      40.756  28.626  31.106  1.00  0.00     0.031 A 
ATOM     56  C   UNL A   1      40.067  33.408  36.195  1.00  0.00     0.031 A 
ATOM     57  C   UNL A   1      41.720  28.545  32.167  1.00  0.00     0.049 A 
ATOM     58  C   UNL A   1      41.140  32.353  36.244  1.00  0.00     0.074 A 
ATOM     59  C   UNL A   1      42.785  27.671  32.286  1.00  0.00     0.029 A 
ATOM     60  N   UNL A   1      41.755  29.377  33.275  1.00  0.00    -0.354 N 
ATOM     61  N   UNL A   1      41.413  31.420  35.364  1.00  0.00    -0.248 NA
ATOM     62  C   UNL A   1      42.025  32.346  37.419  1.00  0.00     0.031 C 
ATOM     63  C   UNL A   1      43.430  27.937  33.494  1.00  0.00     0.029 A 
ATOM     64  C   UNL A   1      42.814  29.026  34.091  1.00  0.00     0.049 A 
ATOM     65  H   UNL A   1      41.122  30.110  33.453  1.00  0.00     0.167 HD
ATOM     66  C   UNL A   1      42.515  30.735  35.863  1.00  0.00     0.074 A 
ATOM     67  C   UNL A   1      42.867  31.363  37.118  1.00  0.00     0.031 C 
ATOM     68  C   UNL A   1      43.171  29.679  35.326  1.00  0.00     0.031 A 
BRANCH  55  69
ATOM     69  C   UNL A   1      40.896  27.657  29.959  1.00  0.00    -0.014 A 
ATOM     70  C   UNL A   1      41.958  27.793  29.045  1.00  0.00     0.010 A 
ATOM     71  C   UNL A   1      39.895  26.700  29.706  1.00  0.00     0.010 A 
ATOM     72  C   UNL A   1      41.994  27.022  27.880  1.00  0.00     0.020 A 
ATOM     73  C   UNL A   1      39.946  25.904  28.559  1.00  0.00     0.020 A 
ATOM     74  C   UNL A   1      40.980  26.090  27.639  1.00  0.00     0.054 A 
BRANCH  74  75
ATOM     75  S   UNL A   1      41.014  25.137  26.096  1.00  0.00     0.124 S 
ATOM     76  O   UNL A   1      42.058  24.153  26.364  1.00  0.00    -0.237 OA
ATOM     77  O   UNL A   1      39.653  24.610  26.017  1.00  0.00    -0.237 OA
ATOM     78  O   UNL A   1      41.343  26.138  25.083  1.00  0.00    -0.744 OA
ENDBRANCH  74  75
ENDBRANCH  55  69
BRANCH  56  79
ATOM     79  C   UNL A   1      39.968  34.461  37.247  1.00  0.00    -0.014 A 
ATOM     80  C   UNL A   1      39.157  34.278  38.382  1.00  0.00     0.010 A 
ATOM     81  C   UNL A   1      40.629  35.692  37.076  1.00  0.00     0.010 A 
ATOM     82  C   UNL A   1      38.965  35.320  39.296  1.00  0.00     0.020 A 
ATOM     83  C   UNL A   1      40.465  36.726  38.004  1.00  0.00     0.020 A 
ATOM     84  C   UNL A   1      39.609  36.542  39.092  1.00  0.00     0.054 A 
BRANCH  84  85
ATOM     85  S   UNL A   1      39.305  37.896  40.262  1.00  0.00     0.124 S 
ATOM     86  O   UNL A   1      38.182  38.588  39.634  1.00  0.00    -0.237 OA
ATOM     87  O   UNL A   1      38.994  37.184  41.499  1.00  0.00    -0.237 OA
ATOM     88  O   UNL A   1      40.567  38.632  40.270  1.00  0.00    -0.744 OA
ENDBRANCH  84  85
ENDBRANCH  56  79
BRANCH  68  89
ATOM     89  C   UNL A   1      44.363  29.115  36.054  1.00  0.00    -0.014 A 
ATOM     90  C   UNL A   1      45.643  29.644  35.797  1.00  0.00     0.010 A 
ATOM     91  C   UNL A   1      44.244  27.938  36.811  1.00  0.00     0.010 A 
ATOM     92  C   UNL A   1      46.786  28.967  36.225  1.00  0.00     0.020 A 
ATOM     93  C   UNL A   1      45.387  27.273  37.266  1.00  0.00     0.020 A 
ATOM     94  C   UNL A   1      46.651  27.773  36.937  1.00  0.00     0.054 A 
BRANCH  94  95
ATOM     95  S   UNL A   1      48.148  26.853  37.387  1.00  0.00     0.124 S 
ATOM     96  O   UNL A   1      48.978  27.015  36.198  1.00  0.00    -0.237 OA
ATOM     97  O   UNL A   1      48.610  27.557  38.580  1.00  0.00    -0.237 OA
ATOM     98  O   UNL A   1      47.658  25.496  37.626  1.00  0.00    -0.744 OA
ENDBRANCH  94  95
ENDBRANCH  68  89
ENDBRANCH  42  43
ENDBRANCH  35  37
ENDBRANCH  34  35
ENDBRANCH   1  34
TORSDOF 15
ENDMDL
