MODEL 1
REMARK VINA RESULT:     -11.3      0.000      0.000
REMARK SMILES O=C(OCCOC(=O)[C@H]1CC(=O)N(Cc2ccc3cc[nH]c3c2)C1)c1ccc(-c2c3nc(c(-c4ccc(S(=O)(=O)[O-])cc4)c4ccc([nH]4)c(-c4ccc(S(=O)(=O)[O-])cc4)c4nc(c(-c5ccc(S(=O)(=O)[O-])cc5)c5ccc2[nH]5)C=C4)C=C3)cc1
REMARK SMILES IDX 4 1 3 2 2 3 1 4 25 5 26 6 84 7 27 8 83 9 28 10 29 11 30 12
REMARK SMILES IDX 77 13 31 14 82 15 76 16 78 17 32 18 81 19 75 20 74 21 33 23
REMARK SMILES IDX 63 24 44 25 62 26 45 27 48 28 61 29 79 30 46 31 47 32 60 34
REMARK SMILES IDX 80 35 49 36 34 37 35 38 43 39 36 40 42 41 37 42 38 43 39 44
REMARK SMILES IDX 40 45 41 46 64 47 65 48 73 49 66 50 72 51 67 52 68 53 69 54
REMARK SMILES IDX 70 55 71 56 50 57 51 58 59 59 52 60 58 61 53 62 54 63 55 64
REMARK SMILES IDX 56 65 57 66 5 67 6 68 7 69 8 70 9 71 10 72 24 73 11 74 13 75
REMARK SMILES IDX 12 76 14 77 15 78 16 79 23 80 17 81 22 82 18 83 21 84 19 85
REMARK SMILES IDX 20 86
REMARK H PARENT 78 22 48 33 21 87
REMARK Flexibility Score: inf
ROOT
ATOM      1  C   UNL A   1      34.887  30.536  27.992  1.00  0.00     0.275 C 
ENDROOT
BRANCH   1   2
ATOM      2  O   UNL A   1      35.642  30.744  29.195  1.00  0.00    -0.458 OA
BRANCH   2   3
ATOM      3  C   UNL A   1      36.476  29.938  29.884  1.00  0.00     0.338 C 
ATOM      4  O   UNL A   1      36.040  29.454  30.931  1.00  0.00    -0.246 OA
BRANCH   3   5
ATOM      5  C   UNL A   1      37.888  29.569  29.498  1.00  0.00     0.060 A 
ATOM      6  C   UNL A   1      38.826  28.854  30.247  1.00  0.00     0.016 A 
ATOM      7  C   UNL A   1      38.276  29.954  28.196  1.00  0.00     0.016 A 
ATOM      8  C   UNL A   1      40.086  28.520  29.716  1.00  0.00     0.010 A 
ATOM      9  C   UNL A   1      39.524  29.622  27.657  1.00  0.00     0.010 A 
ATOM     10  C   UNL A   1      40.445  28.902  28.417  1.00  0.00    -0.014 A 
BRANCH  10  11
ATOM     11  C   UNL A   1      41.819  28.638  27.919  1.00  0.00     0.031 A 
ATOM     12  C   UNL A   1      42.899  29.600  28.274  1.00  0.00     0.074 A 
ATOM     13  C   UNL A   1      42.095  27.578  27.134  1.00  0.00     0.049 A 
ATOM     14  N   UNL A   1      44.187  29.471  28.120  1.00  0.00    -0.248 NA
ATOM     15  C   UNL A   1      42.469  30.909  28.793  1.00  0.00     0.031 C 
ATOM     16  C   UNL A   1      41.080  26.714  26.563  1.00  0.00     0.029 A 
ATOM     17  N   UNL A   1      43.280  26.998  26.728  1.00  0.00    -0.354 N 
ATOM     18  C   UNL A   1      44.712  30.725  28.397  1.00  0.00     0.074 A 
ATOM     19  C   UNL A   1      43.615  31.572  28.813  1.00  0.00     0.031 C 
ATOM     20  C   UNL A   1      41.661  25.616  26.051  1.00  0.00     0.029 A 
ATOM     21  C   UNL A   1      43.098  25.699  26.269  1.00  0.00     0.049 A 
ATOM     22  H   UNL A   1      44.152  27.454  26.758  1.00  0.00     0.167 HD
ATOM     23  C   UNL A   1      45.985  31.139  28.222  1.00  0.00     0.031 A 
ATOM     24  C   UNL A   1      43.982  24.674  26.218  1.00  0.00     0.031 A 
ATOM     25  C   UNL A   1      47.037  30.269  27.771  1.00  0.00     0.049 A 
ATOM     26  C   UNL A   1      45.430  25.033  26.438  1.00  0.00     0.074 A 
ATOM     27  C   UNL A   1      48.353  30.572  27.479  1.00  0.00     0.029 A 
ATOM     28  N   UNL A   1      46.877  28.908  27.548  1.00  0.00    -0.354 N 
ATOM     29  N   UNL A   1      45.934  26.163  26.876  1.00  0.00    -0.248 NA
ATOM     30  C   UNL A   1      46.428  24.001  26.125  1.00  0.00     0.031 C 
ATOM     31  C   UNL A   1      48.980  29.398  27.045  1.00  0.00     0.029 A 
ATOM     32  C   UNL A   1      48.067  28.356  27.117  1.00  0.00     0.049 A 
ATOM     33  H   UNL A   1      46.038  28.410  27.678  1.00  0.00     0.167 HD
ATOM     34  C   UNL A   1      47.309  26.014  26.770  1.00  0.00     0.074 A 
ATOM     35  C   UNL A   1      47.556  24.627  26.430  1.00  0.00     0.031 C 
ATOM     36  C   UNL A   1      48.275  26.963  26.823  1.00  0.00     0.031 A 
BRANCH  23  37
ATOM     37  C   UNL A   1      46.256  32.605  28.387  1.00  0.00    -0.014 A 
ATOM     38  C   UNL A   1      46.690  33.145  29.608  1.00  0.00     0.010 A 
ATOM     39  C   UNL A   1      46.046  33.461  27.289  1.00  0.00     0.010 A 
ATOM     40  C   UNL A   1      46.887  34.523  29.736  1.00  0.00     0.020 A 
ATOM     41  C   UNL A   1      46.268  34.834  27.405  1.00  0.00     0.020 A 
ATOM     42  C   UNL A   1      46.677  35.357  28.633  1.00  0.00     0.054 A 
BRANCH  42  43
ATOM     43  S   UNL A   1      46.987  37.134  28.815  1.00  0.00     0.124 S 
ATOM     44  O   UNL A   1      46.276  37.684  27.664  1.00  0.00    -0.237 OA
ATOM     45  O   UNL A   1      46.394  37.427  30.118  1.00  0.00    -0.237 OA
ATOM     46  O   UNL A   1      48.443  37.240  28.758  1.00  0.00    -0.744 OA
ENDBRANCH  42  43
ENDBRANCH  23  37
BRANCH  24  47
ATOM     47  C   UNL A   1      43.575  23.223  26.141  1.00  0.00    -0.014 A 
ATOM     48  C   UNL A   1      42.831  22.666  27.210  1.00  0.00     0.010 A 
ATOM     49  C   UNL A   1      43.893  22.376  25.068  1.00  0.00     0.010 A 
ATOM     50  C   UNL A   1      42.480  21.311  27.241  1.00  0.00     0.020 A 
ATOM     51  C   UNL A   1      43.499  21.025  25.067  1.00  0.00     0.020 A 
ATOM     52  C   UNL A   1      42.826  20.493  26.169  1.00  0.00     0.054 A 
BRANCH  52  53
ATOM     53  S   UNL A   1      42.371  18.735  26.225  1.00  0.00     0.124 S 
ATOM     54  O   UNL A   1      40.984  18.767  25.772  1.00  0.00    -0.237 OA
ATOM     55  O   UNL A   1      43.325  18.127  25.300  1.00  0.00    -0.237 OA
ATOM     56  O   UNL A   1      42.565  18.378  27.629  1.00  0.00    -0.744 OA
ENDBRANCH  52  53
ENDBRANCH  24  47
BRANCH  36  57
ATOM     57  C   UNL A   1      49.659  26.536  26.429  1.00  0.00    -0.014 A 
ATOM     58  C   UNL A   1      50.497  25.917  27.377  1.00  0.00     0.010 A 
ATOM     59  C   UNL A   1      50.100  26.679  25.105  1.00  0.00     0.010 A 
ATOM     60  C   UNL A   1      51.769  25.481  27.015  1.00  0.00     0.020 A 
ATOM     61  C   UNL A   1      51.363  26.216  24.732  1.00  0.00     0.020 A 
ATOM     62  C   UNL A   1      52.195  25.632  25.693  1.00  0.00     0.054 A 
BRANCH  62  63
ATOM     63  S   UNL A   1      53.832  25.007  25.237  1.00  0.00     0.124 S 
ATOM     64  O   UNL A   1      54.641  25.411  26.384  1.00  0.00    -0.237 OA
ATOM     65  O   UNL A   1      53.600  23.570  25.107  1.00  0.00    -0.237 OA
ATOM     66  O   UNL A   1      54.130  25.701  23.987  1.00  0.00    -0.744 OA
ENDBRANCH  62  63
ENDBRANCH  36  57
ENDBRANCH  10  11
ENDBRANCH   3   5
ENDBRANCH   2   3
ENDBRANCH   1   2
BRANCH   1  67
ATOM     67  C   UNL A   1      33.983  31.724  27.687  1.00  0.00     0.274 C 
BRANCH  67  68
ATOM     68  O   UNL A   1      34.057  32.740  28.694  1.00  0.00    -0.462 OA
BRANCH  68  69
ATOM     69  C   UNL A   1      33.349  33.888  28.516  1.00  0.00     0.311 C 
ATOM     70  O   UNL A   1      32.521  34.065  27.635  1.00  0.00    -0.252 OA
BRANCH  69  71
ATOM     71  C   UNL A   1      33.767  34.961  29.493  1.00  0.00     0.128 C 
ATOM     72  C   UNL A   1      32.663  35.839  30.050  1.00  0.00     0.117 C 
ATOM     73  C   UNL A   1      34.392  34.370  30.745  1.00  0.00     0.135 C 
ATOM     74  C   UNL A   1      33.293  36.328  31.342  1.00  0.00     0.223 C 
ATOM     75  N   UNL A   1      34.168  35.338  31.771  1.00  0.00    -0.337 N 
ATOM     76  O   UNL A   1      33.026  37.378  31.885  1.00  0.00    -0.275 OA
BRANCH  75  77
ATOM     77  C   UNL A   1      34.845  35.250  33.069  1.00  0.00     0.155 C 
BRANCH  77  78
ATOM     78  C   UNL A   1      36.062  34.323  33.074  1.00  0.00    -0.026 A 
ATOM     79  C   UNL A   1      37.357  34.756  32.769  1.00  0.00     0.006 A 
ATOM     80  C   UNL A   1      35.900  32.981  33.430  1.00  0.00     0.032 A 
ATOM     81  C   UNL A   1      38.452  33.870  32.732  1.00  0.00     0.010 A 
ATOM     82  C   UNL A   1      36.979  32.091  33.378  1.00  0.00     0.046 A 
ATOM     83  C   UNL A   1      38.258  32.508  33.035  1.00  0.00    -0.001 A 
ATOM     84  N   UNL A   1      37.032  30.737  33.627  1.00  0.00    -0.361 N 
ATOM     85  C   UNL A   1      39.101  31.365  33.109  1.00  0.00     0.028 A 
ATOM     86  C   UNL A   1      38.320  30.291  33.478  1.00  0.00     0.083 A 
ATOM     87  H   UNL A   1      36.262  30.174  33.875  1.00  0.00     0.166 HD
ENDBRANCH  77  78
ENDBRANCH  75  77
ENDBRANCH  69  71
ENDBRANCH  68  69
ENDBRANCH  67  68
ENDBRANCH   1  67
TORSDOF 16
ENDMDL
MODEL 2
REMARK VINA RESULT:     -11.2      5.700     14.301
REMARK SMILES O=C(OCCOC(=O)[C@H]1CC(=O)N(Cc2ccc3cc[nH]c3c2)C1)c1ccc(-c2c3nc(c(-c4ccc(S(=O)(=O)[O-])cc4)c4ccc([nH]4)c(-c4ccc(S(=O)(=O)[O-])cc4)c4nc(c(-c5ccc(S(=O)(=O)[O-])cc5)c5ccc2[nH]5)C=C4)C=C3)cc1
REMARK SMILES IDX 4 1 3 2 2 3 1 4 25 5 26 6 84 7 27 8 83 9 28 10 29 11 30 12
REMARK SMILES IDX 77 13 31 14 82 15 76 16 78 17 32 18 81 19 75 20 74 21 33 23
REMARK SMILES IDX 63 24 44 25 62 26 45 27 48 28 61 29 79 30 46 31 47 32 60 34
REMARK SMILES IDX 80 35 49 36 34 37 35 38 43 39 36 40 42 41 37 42 38 43 39 44
REMARK SMILES IDX 40 45 41 46 64 47 65 48 73 49 66 50 72 51 67 52 68 53 69 54
REMARK SMILES IDX 70 55 71 56 50 57 51 58 59 59 52 60 58 61 53 62 54 63 55 64
REMARK SMILES IDX 56 65 57 66 5 67 6 68 7 69 8 70 9 71 10 72 24 73 11 74 13 75
REMARK SMILES IDX 12 76 14 77 15 78 16 79 23 80 17 81 22 82 18 83 21 84 19 85
REMARK SMILES IDX 20 86
REMARK H PARENT 78 22 48 33 21 87
REMARK Flexibility Score: inf
ROOT
ATOM      1  C   UNL A   1      44.049  25.856  25.368  1.00  0.00     0.275 C 
ENDROOT
BRANCH   1   2
ATOM      2  O   UNL A   1      42.757  25.248  25.504  1.00  0.00    -0.458 OA
BRANCH   2   3
ATOM      3  C   UNL A   1      41.577  25.732  25.948  1.00  0.00     0.338 C 
ATOM      4  O   UNL A   1      40.573  25.416  25.307  1.00  0.00    -0.246 OA
BRANCH   3   5
ATOM      5  C   UNL A   1      41.369  26.619  27.151  1.00  0.00     0.060 A 
ATOM      6  C   UNL A   1      41.748  27.955  27.311  1.00  0.00     0.016 A 
ATOM      7  C   UNL A   1      40.655  26.030  28.217  1.00  0.00     0.016 A 
ATOM      8  C   UNL A   1      41.412  28.677  28.472  1.00  0.00     0.010 A 
ATOM      9  C   UNL A   1      40.311  26.742  29.373  1.00  0.00     0.010 A 
ATOM     10  C   UNL A   1      40.692  28.075  29.512  1.00  0.00    -0.014 A 
BRANCH  10  11
ATOM     11  C   UNL A   1      40.448  28.821  30.773  1.00  0.00     0.031 A 
ATOM     12  C   UNL A   1      41.513  28.821  31.814  1.00  0.00     0.074 A 
ATOM     13  C   UNL A   1      39.284  29.460  31.003  1.00  0.00     0.049 A 
ATOM     14  N   UNL A   1      41.600  29.552  32.891  1.00  0.00    -0.248 NA
ATOM     15  C   UNL A   1      42.574  27.810  31.669  1.00  0.00     0.031 C 
ATOM     16  C   UNL A   1      38.117  29.337  30.150  1.00  0.00     0.029 A 
ATOM     17  N   UNL A   1      38.892  30.374  31.959  1.00  0.00    -0.354 N 
ATOM     18  C   UNL A   1      42.647  29.003  33.617  1.00  0.00     0.074 A 
ATOM     19  C   UNL A   1      43.217  27.940  32.819  1.00  0.00     0.031 C 
ATOM     20  C   UNL A   1      37.215  30.274  30.487  1.00  0.00     0.029 A 
ATOM     21  C   UNL A   1      37.750  31.071  31.582  1.00  0.00     0.049 A 
ATOM     22  H   UNL A   1      39.366  30.515  32.811  1.00  0.00     0.167 HD
ATOM     23  C   UNL A   1      43.022  29.313  34.876  1.00  0.00     0.031 A 
ATOM     24  C   UNL A   1      37.320  32.294  31.974  1.00  0.00     0.031 A 
ATOM     25  C   UNL A   1      42.400  30.355  35.646  1.00  0.00     0.049 A 
ATOM     26  C   UNL A   1      38.017  32.891  33.170  1.00  0.00     0.074 A 
ATOM     27  C   UNL A   1      42.629  30.725  36.957  1.00  0.00     0.029 A 
ATOM     28  N   UNL A   1      41.416  31.201  35.154  1.00  0.00    -0.354 N 
ATOM     29  N   UNL A   1      39.116  32.487  33.762  1.00  0.00    -0.248 NA
ATOM     30  C   UNL A   1      37.401  34.081  33.776  1.00  0.00     0.031 C 
ATOM     31  C   UNL A   1      41.755  31.773  37.269  1.00  0.00     0.029 A 
ATOM     32  C   UNL A   1      41.020  32.089  36.135  1.00  0.00     0.049 A 
ATOM     33  H   UNL A   1      41.052  31.171  34.240  1.00  0.00     0.167 HD
ATOM     34  C   UNL A   1      39.249  33.299  34.879  1.00  0.00     0.074 A 
ATOM     35  C   UNL A   1      38.245  34.337  34.765  1.00  0.00     0.031 C 
ATOM     36  C   UNL A   1      40.041  33.129  35.966  1.00  0.00     0.031 A 
BRANCH  23  37
ATOM     37  C   UNL A   1      44.045  28.425  35.521  1.00  0.00    -0.014 A 
ATOM     38  C   UNL A   1      45.418  28.710  35.458  1.00  0.00     0.010 A 
ATOM     39  C   UNL A   1      43.611  27.264  36.190  1.00  0.00     0.010 A 
ATOM     40  C   UNL A   1      46.344  27.835  36.031  1.00  0.00     0.020 A 
ATOM     41  C   UNL A   1      44.531  26.401  36.787  1.00  0.00     0.020 A 
ATOM     42  C   UNL A   1      45.894  26.688  36.694  1.00  0.00     0.054 A 
BRANCH  42  43
ATOM     43  S   UNL A   1      47.116  25.596  37.470  1.00  0.00     0.124 S 
ATOM     44  O   UNL A   1      46.621  24.274  37.094  1.00  0.00    -0.237 OA
ATOM     45  O   UNL A   1      48.361  26.006  36.827  1.00  0.00    -0.237 OA
ATOM     46  O   UNL A   1      47.016  25.918  38.892  1.00  0.00    -0.744 OA
ENDBRANCH  42  43
ENDBRANCH  23  37
BRANCH  24  47
ATOM     47  C   UNL A   1      36.346  33.131  31.181  1.00  0.00    -0.014 A 
ATOM     48  C   UNL A   1      35.020  33.267  31.658  1.00  0.00     0.010 A 
ATOM     49  C   UNL A   1      36.672  33.791  29.985  1.00  0.00     0.010 A 
ATOM     50  C   UNL A   1      34.043  33.969  30.940  1.00  0.00     0.020 A 
ATOM     51  C   UNL A   1      35.710  34.541  29.285  1.00  0.00     0.020 A 
ATOM     52  C   UNL A   1      34.394  34.597  29.748  1.00  0.00     0.054 A 
BRANCH  52  53
ATOM     53  S   UNL A   1      33.116  35.497  28.823  1.00  0.00     0.124 S 
ATOM     54  O   UNL A   1      33.918  36.394  27.996  1.00  0.00    -0.237 OA
ATOM     55  O   UNL A   1      32.423  34.428  28.107  1.00  0.00    -0.237 OA
ATOM     56  O   UNL A   1      32.329  36.145  29.870  1.00  0.00    -0.744 OA
ENDBRANCH  52  53
ENDBRANCH  24  47
BRANCH  36  57
ATOM     57  C   UNL A   1      39.790  34.042  37.130  1.00  0.00    -0.014 A 
ATOM     58  C   UNL A   1      38.966  33.615  38.189  1.00  0.00     0.010 A 
ATOM     59  C   UNL A   1      40.428  35.289  37.209  1.00  0.00     0.010 A 
ATOM     60  C   UNL A   1      38.755  34.437  39.294  1.00  0.00     0.020 A 
ATOM     61  C   UNL A   1      40.242  36.103  38.329  1.00  0.00     0.020 A 
ATOM     62  C   UNL A   1      39.396  35.676  39.358  1.00  0.00     0.054 A 
BRANCH  62  63
ATOM     63  S   UNL A   1      39.147  36.702  40.829  1.00  0.00     0.124 S 
ATOM     64  O   UNL A   1      38.716  37.970  40.246  1.00  0.00    -0.237 OA
ATOM     65  O   UNL A   1      38.118  35.965  41.560  1.00  0.00    -0.237 OA
ATOM     66  O   UNL A   1      40.462  36.721  41.464  1.00  0.00    -0.744 OA
ENDBRANCH  62  63
ENDBRANCH  36  57
ENDBRANCH  10  11
ENDBRANCH   3   5
ENDBRANCH   2   3
ENDBRANCH   1   2
BRANCH   1  67
ATOM     67  C   UNL A   1      45.158  24.811  25.335  1.00  0.00     0.274 C 
BRANCH  67  68
ATOM     68  O   UNL A   1      44.792  23.650  24.580  1.00  0.00    -0.462 OA
BRANCH  68  69
ATOM     69  C   UNL A   1      45.251  22.436  24.988  1.00  0.00     0.311 C 
ATOM     70  O   UNL A   1      46.408  22.199  25.302  1.00  0.00    -0.252 OA
BRANCH  69  71
ATOM     71  C   UNL A   1      44.171  21.382  24.931  1.00  0.00     0.128 C 
ATOM     72  C   UNL A   1      44.609  19.948  25.160  1.00  0.00     0.117 C 
ATOM     73  C   UNL A   1      43.121  21.591  26.008  1.00  0.00     0.135 C 
ATOM     74  C   UNL A   1      43.310  19.309  25.617  1.00  0.00     0.223 C 
ATOM     75  N   UNL A   1      42.568  20.297  26.251  1.00  0.00    -0.337 N 
ATOM     76  O   UNL A   1      43.028  18.139  25.469  1.00  0.00    -0.275 OA
BRANCH  75  77
ATOM     77  C   UNL A   1      41.347  20.123  27.044  1.00  0.00     0.155 C 
BRANCH  77  78
ATOM     78  C   UNL A   1      40.065  20.511  26.307  1.00  0.00    -0.026 A 
ATOM     79  C   UNL A   1      39.261  19.589  25.627  1.00  0.00     0.006 A 
ATOM     80  C   UNL A   1      39.639  21.843  26.327  1.00  0.00     0.032 A 
ATOM     81  C   UNL A   1      38.112  19.983  24.913  1.00  0.00     0.010 A 
ATOM     82  C   UNL A   1      38.509  22.245  25.606  1.00  0.00     0.046 A 
ATOM     83  C   UNL A   1      37.732  21.339  24.895  1.00  0.00    -0.001 A 
ATOM     84  N   UNL A   1      37.952  23.494  25.441  1.00  0.00    -0.361 N 
ATOM     85  C   UNL A   1      36.665  22.076  24.312  1.00  0.00     0.028 A 
ATOM     86  C   UNL A   1      36.824  23.398  24.667  1.00  0.00     0.083 A 
ATOM     87  H   UNL A   1      38.309  24.330  25.822  1.00  0.00     0.166 HD
ENDBRANCH  77  78
ENDBRANCH  75  77
ENDBRANCH  69  71
ENDBRANCH  68  69
ENDBRANCH  67  68
ENDBRANCH   1  67
TORSDOF 16
ENDMDL
MODEL 3
REMARK VINA RESULT:     -11.2      6.643     13.686
REMARK SMILES O=C(OCCOC(=O)[C@H]1CC(=O)N(Cc2ccc3cc[nH]c3c2)C1)c1ccc(-c2c3nc(c(-c4ccc(S(=O)(=O)[O-])cc4)c4ccc([nH]4)c(-c4ccc(S(=O)(=O)[O-])cc4)c4nc(c(-c5ccc(S(=O)(=O)[O-])cc5)c5ccc2[nH]5)C=C4)C=C3)cc1
REMARK SMILES IDX 4 1 3 2 2 3 1 4 25 5 26 6 84 7 27 8 83 9 28 10 29 11 30 12
REMARK SMILES IDX 77 13 31 14 82 15 76 16 78 17 32 18 81 19 75 20 74 21 33 23
REMARK SMILES IDX 63 24 44 25 62 26 45 27 48 28 61 29 79 30 46 31 47 32 60 34
REMARK SMILES IDX 80 35 49 36 34 37 35 38 43 39 36 40 42 41 37 42 38 43 39 44
REMARK SMILES IDX 40 45 41 46 64 47 65 48 73 49 66 50 72 51 67 52 68 53 69 54
REMARK SMILES IDX 70 55 71 56 50 57 51 58 59 59 52 60 58 61 53 62 54 63 55 64
REMARK SMILES IDX 56 65 57 66 5 67 6 68 7 69 8 70 9 71 10 72 24 73 11 74 13 75
REMARK SMILES IDX 12 76 14 77 15 78 16 79 23 80 17 81 22 82 18 83 21 84 19 85
REMARK SMILES IDX 20 86
REMARK H PARENT 78 22 48 33 21 87
REMARK Flexibility Score: inf
ROOT
ATOM      1  C   UNL A   1      40.621  22.819  26.535  1.00  0.00     0.275 C 
ENDROOT
BRANCH   1   2
ATOM      2  O   UNL A   1      40.014  24.070  26.183  1.00  0.00    -0.458 OA
BRANCH   2   3
ATOM      3  C   UNL A   1      40.386  25.347  26.415  1.00  0.00     0.338 C 
ATOM      4  O   UNL A   1      40.948  25.937  25.490  1.00  0.00    -0.246 OA
BRANCH   3   5
ATOM      5  C   UNL A   1      40.180  26.121  27.694  1.00  0.00     0.060 A 
ATOM      6  C   UNL A   1      39.360  25.792  28.777  1.00  0.00     0.016 A 
ATOM      7  C   UNL A   1      40.959  27.293  27.821  1.00  0.00     0.016 A 
ATOM      8  C   UNL A   1      39.332  26.582  29.941  1.00  0.00     0.010 A 
ATOM      9  C   UNL A   1      40.942  28.082  28.977  1.00  0.00     0.010 A 
ATOM     10  C   UNL A   1      40.122  27.734  30.049  1.00  0.00    -0.014 A 
BRANCH  10  11
ATOM     11  C   UNL A   1      39.993  28.612  31.240  1.00  0.00     0.031 A 
ATOM     12  C   UNL A   1      41.135  28.688  32.193  1.00  0.00     0.074 A 
ATOM     13  C   UNL A   1      38.864  29.305  31.488  1.00  0.00     0.049 A 
ATOM     14  N   UNL A   1      41.321  29.523  33.176  1.00  0.00    -0.248 NA
ATOM     15  C   UNL A   1      42.159  27.637  32.076  1.00  0.00     0.031 C 
ATOM     16  C   UNL A   1      37.632  29.130  30.743  1.00  0.00     0.029 A 
ATOM     17  N   UNL A   1      38.567  30.325  32.369  1.00  0.00    -0.354 N 
ATOM     18  C   UNL A   1      42.409  29.022  33.875  1.00  0.00     0.074 A 
ATOM     19  C   UNL A   1      42.893  27.865  33.154  1.00  0.00     0.031 C 
ATOM     20  C   UNL A   1      36.780  30.123  31.046  1.00  0.00     0.029 A 
ATOM     21  C   UNL A   1      37.415  31.013  32.007  1.00  0.00     0.049 A 
ATOM     22  H   UNL A   1      39.109  30.539  33.163  1.00  0.00     0.167 HD
ATOM     23  C   UNL A   1      42.888  29.449  35.064  1.00  0.00     0.031 A 
ATOM     24  C   UNL A   1      37.044  32.282  32.299  1.00  0.00     0.031 A 
ATOM     25  C   UNL A   1      42.350  30.583  35.764  1.00  0.00     0.049 A 
ATOM     26  C   UNL A   1      37.843  32.978  33.371  1.00  0.00     0.074 A 
ATOM     27  C   UNL A   1      42.688  31.080  37.008  1.00  0.00     0.029 A 
ATOM     28  N   UNL A   1      41.349  31.402  35.261  1.00  0.00    -0.354 N 
ATOM     29  N   UNL A   1      38.976  32.605  33.918  1.00  0.00    -0.248 NA
ATOM     30  C   UNL A   1      37.302  34.242  33.893  1.00  0.00     0.031 C 
ATOM     31  C   UNL A   1      41.864  32.179  37.273  1.00  0.00     0.029 A 
ATOM     32  C   UNL A   1      41.050  32.398  36.170  1.00  0.00     0.049 A 
ATOM     33  H   UNL A   1      40.914  31.289  34.385  1.00  0.00     0.167 HD
ATOM     34  C   UNL A   1      39.213  33.524  34.930  1.00  0.00     0.074 A 
ATOM     35  C   UNL A   1      38.226  34.574  34.783  1.00  0.00     0.031 C 
ATOM     36  C   UNL A   1      40.084  33.444  35.966  1.00  0.00     0.031 A 
BRANCH  23  37
ATOM     37  C   UNL A   1      43.938  28.602  35.720  1.00  0.00    -0.014 A 
ATOM     38  C   UNL A   1      45.305  28.774  35.447  1.00  0.00     0.010 A 
ATOM     39  C   UNL A   1      43.535  27.595  36.618  1.00  0.00     0.010 A 
ATOM     40  C   UNL A   1      46.250  27.936  36.043  1.00  0.00     0.020 A 
ATOM     41  C   UNL A   1      44.479  26.773  37.236  1.00  0.00     0.020 A 
ATOM     42  C   UNL A   1      45.831  26.943  36.935  1.00  0.00     0.054 A 
BRANCH  42  43
ATOM     43  S   UNL A   1      47.085  25.902  37.730  1.00  0.00     0.124 S 
ATOM     44  O   UNL A   1      47.922  26.895  38.399  1.00  0.00    -0.237 OA
ATOM     45  O   UNL A   1      46.284  25.058  38.612  1.00  0.00    -0.237 OA
ATOM     46  O   UNL A   1      47.717  25.206  36.612  1.00  0.00    -0.744 OA
ENDBRANCH  42  43
ENDBRANCH  23  37
BRANCH  24  47
ATOM     47  C   UNL A   1      36.029  33.061  31.499  1.00  0.00    -0.014 A 
ATOM     48  C   UNL A   1      36.383  33.511  30.203  1.00  0.00     0.010 A 
ATOM     49  C   UNL A   1      34.741  33.377  31.961  1.00  0.00     0.010 A 
ATOM     50  C   UNL A   1      35.520  34.299  29.432  1.00  0.00     0.020 A 
ATOM     51  C   UNL A   1      33.849  34.124  31.170  1.00  0.00     0.020 A 
ATOM     52  C   UNL A   1      34.257  34.610  29.926  1.00  0.00     0.054 A 
BRANCH  52  53
ATOM     53  S   UNL A   1      33.150  35.639  28.918  1.00  0.00     0.124 S 
ATOM     54  O   UNL A   1      32.460  34.639  28.109  1.00  0.00    -0.237 OA
ATOM     55  O   UNL A   1      32.331  36.312  29.925  1.00  0.00    -0.237 OA
ATOM     56  O   UNL A   1      34.067  36.513  28.189  1.00  0.00    -0.744 OA
ENDBRANCH  52  53
ENDBRANCH  24  47
BRANCH  36  57
ATOM     57  C   UNL A   1      39.943  34.479  37.043  1.00  0.00    -0.014 A 
ATOM     58  C   UNL A   1      40.691  35.671  36.971  1.00  0.00     0.010 A 
ATOM     59  C   UNL A   1      39.017  34.305  38.083  1.00  0.00     0.010 A 
ATOM     60  C   UNL A   1      40.542  36.657  37.944  1.00  0.00     0.020 A 
ATOM     61  C   UNL A   1      38.843  35.305  39.043  1.00  0.00     0.020 A 
ATOM     62  C   UNL A   1      39.617  36.468  38.974  1.00  0.00     0.054 A 
BRANCH  62  63
ATOM     63  S   UNL A   1      39.403  37.789  40.194  1.00  0.00     0.124 S 
ATOM     64  O   UNL A   1      40.688  38.481  40.120  1.00  0.00    -0.237 OA
ATOM     65  O   UNL A   1      38.260  38.529  39.665  1.00  0.00    -0.237 OA
ATOM     66  O   UNL A   1      39.152  37.071  41.440  1.00  0.00    -0.744 OA
ENDBRANCH  62  63
ENDBRANCH  36  57
ENDBRANCH  10  11
ENDBRANCH   3   5
ENDBRANCH   2   3
ENDBRANCH   1   2
BRANCH   1  67
ATOM     67  C   UNL A   1      39.649  21.657  26.362  1.00  0.00     0.274 C 
BRANCH  67  68
ATOM     68  O   UNL A   1      38.551  21.987  25.503  1.00  0.00    -0.462 OA
BRANCH  68  69
ATOM     69  C   UNL A   1      37.729  20.989  25.083  1.00  0.00     0.311 C 
ATOM     70  O   UNL A   1      38.092  19.852  24.820  1.00  0.00    -0.252 OA
BRANCH  69  71
ATOM     71  C   UNL A   1      36.310  21.473  24.898  1.00  0.00     0.128 C 
ATOM     72  C   UNL A   1      35.224  20.414  24.911  1.00  0.00     0.117 C 
ATOM     73  C   UNL A   1      35.883  22.407  26.016  1.00  0.00     0.135 C 
ATOM     74  C   UNL A   1      34.009  21.237  25.299  1.00  0.00     0.223 C 
ATOM     75  N   UNL A   1      34.462  22.290  26.083  1.00  0.00    -0.337 N 
ATOM     76  O   UNL A   1      32.868  20.968  24.991  1.00  0.00    -0.275 OA
BRANCH  75  77
ATOM     77  C   UNL A   1      33.651  23.227  26.868  1.00  0.00     0.155 C 
BRANCH  77  78
ATOM     78  C   UNL A   1      33.006  24.338  26.040  1.00  0.00    -0.026 A 
ATOM     79  C   UNL A   1      33.731  25.396  25.478  1.00  0.00     0.006 A 
ATOM     80  C   UNL A   1      31.631  24.299  25.791  1.00  0.00     0.032 A 
ATOM     81  C   UNL A   1      33.103  26.434  24.761  1.00  0.00     0.010 A 
ATOM     82  C   UNL A   1      30.998  25.335  25.096  1.00  0.00     0.046 A 
ATOM     83  C   UNL A   1      31.708  26.408  24.573  1.00  0.00    -0.001 A 
ATOM     84  N   UNL A   1      29.668  25.526  24.793  1.00  0.00    -0.361 N 
ATOM     85  C   UNL A   1      30.766  27.248  23.916  1.00  0.00     0.028 A 
ATOM     86  C   UNL A   1      29.520  26.679  24.065  1.00  0.00     0.083 A 
ATOM     87  H   UNL A   1      28.933  24.925  25.058  1.00  0.00     0.166 HD
ENDBRANCH  77  78
ENDBRANCH  75  77
ENDBRANCH  69  71
ENDBRANCH  68  69
ENDBRANCH  67  68
ENDBRANCH   1  67
TORSDOF 16
ENDMDL
