MODEL 1
REMARK VINA RESULT:     -11.7      0.000      0.000
REMARK SMILES O=C(C[C@H]1C(=O)N[NH+]=C2c3ccc(F)cc3N=CN21)OCCOC(=O)c1ccc(-c2c3nc(c(-c4ccc(S(=O)(=O)[O-])cc4)c4ccc([nH]4)c(-c4ccc(S(=O)(=O)[O-])cc4)c4nc(c(-c5ccc(S(=O)(=O)[O-])cc5)c5ccc2[nH]5)C=C4)C=C3)cc1
REMARK SMILES IDX 22 1 21 2 20 3 2 4 1 5 3 6 4 7 5 8 19 9 6 10 7 11 9 12 18 13
REMARK SMILES IDX 8 14 10 16 17 17 11 19 16 20 12 21 15 22 13 23 14 24 23 25
REMARK SMILES IDX 24 26 25 27 26 28 27 29 85 30 28 31 84 32 29 33 30 34 31 35
REMARK SMILES IDX 78 36 32 37 83 38 77 39 79 40 33 41 82 42 76 43 75 44 34 46
REMARK SMILES IDX 64 47 45 48 63 49 46 50 49 51 62 52 80 53 47 54 48 55 61 57
REMARK SMILES IDX 81 58 50 59 35 60 36 61 44 62 37 63 43 64 38 65 39 66 40 67
REMARK SMILES IDX 41 68 42 69 65 70 66 71 74 72 67 73 73 74 68 75 69 76 70 77
REMARK SMILES IDX 71 78 72 79 51 80 52 81 60 82 53 83 59 84 54 85 55 86 56 87
REMARK SMILES IDX 57 88 58 89
REMARK H PARENT 7 15 8 18 79 45 49 56
REMARK Flexibility Score: inf
ROOT
ATOM      1  C   UNL A   1      39.875  20.788  25.954  1.00  0.00     0.275 C 
ENDROOT
BRANCH   1   2
ATOM      2  C   UNL A   1      40.824  19.834  26.679  1.00  0.00     0.274 C 
BRANCH   2   3
ATOM      3  O   UNL A   1      41.516  18.981  25.735  1.00  0.00    -0.462 OA
BRANCH   3   4
ATOM      4  C   UNL A   1      42.785  18.522  25.869  1.00  0.00     0.310 C 
ATOM      5  O   UNL A   1      43.051  17.706  26.741  1.00  0.00    -0.252 OA
BRANCH   4   6
ATOM      6  C   UNL A   1      43.808  19.022  24.885  1.00  0.00     0.183 C 
BRANCH   6   7
ATOM      7  C   UNL A   1      44.747  20.106  25.406  1.00  0.00     0.286 C 
ATOM      8  C   UNL A   1      46.166  19.766  25.046  1.00  0.00     0.300 C 
ATOM      9  N   UNL A   1      44.462  21.504  25.103  1.00  0.00    -0.202 N 
ATOM     10  O   UNL A   1      46.770  18.930  25.694  1.00  0.00    -0.267 OA
ATOM     11  N   UNL A   1      46.740  20.452  24.016  1.00  0.00    -0.193 N 
ATOM     12  C   UNL A   1      45.535  22.251  24.617  1.00  0.00     0.309 C 
ATOM     13  C   UNL A   1      43.381  22.114  25.689  1.00  0.00     0.317 C 
ATOM     14  N   UNL A   1      46.563  21.797  23.960  1.00  0.00    -0.169 N 
ATOM     15  H   UNL A   1      47.269  19.984  23.331  1.00  0.00     0.216 HD
ATOM     16  C   UNL A   1      45.596  23.651  25.097  1.00  0.00     0.092 A 
ATOM     17  N   UNL A   1      43.312  23.361  26.029  1.00  0.00    -0.216 NA
ATOM     18  H   UNL A   1      47.171  22.388  23.459  1.00  0.00     0.340 HD
ATOM     19  C   UNL A   1      46.831  24.319  25.092  1.00  0.00     0.022 A 
ATOM     20  C   UNL A   1      44.507  24.106  25.863  1.00  0.00     0.085 A 
ATOM     21  C   UNL A   1      46.986  25.458  25.870  1.00  0.00     0.040 A 
ATOM     22  C   UNL A   1      44.676  25.271  26.608  1.00  0.00     0.068 A 
ATOM     23  C   UNL A   1      45.908  25.925  26.613  1.00  0.00     0.125 A 
ATOM     24  F   UNL A   1      46.073  27.008  27.381  1.00  0.00    -0.207 F 
ENDBRANCH   6   7
ENDBRANCH   4   6
ENDBRANCH   3   4
ENDBRANCH   2   3
ENDBRANCH   1   2
BRANCH   1  25
ATOM     25  O   UNL A   1      39.665  21.969  26.750  1.00  0.00    -0.458 OA
BRANCH  25  26
ATOM     26  C   UNL A   1      38.893  22.949  26.198  1.00  0.00     0.338 C 
ATOM     27  O   UNL A   1      37.986  22.784  25.418  1.00  0.00    -0.246 OA
BRANCH  26  28
ATOM     28  C   UNL A   1      39.245  24.264  26.810  1.00  0.00     0.060 A 
ATOM     29  C   UNL A   1      40.080  25.193  26.168  1.00  0.00     0.016 A 
ATOM     30  C   UNL A   1      38.816  24.510  28.121  1.00  0.00     0.016 A 
ATOM     31  C   UNL A   1      40.563  26.310  26.864  1.00  0.00     0.010 A 
ATOM     32  C   UNL A   1      39.321  25.616  28.824  1.00  0.00     0.010 A 
ATOM     33  C   UNL A   1      40.232  26.504  28.214  1.00  0.00    -0.014 A 
BRANCH  33  34
ATOM     34  C   UNL A   1      40.706  27.707  28.947  1.00  0.00     0.031 A 
ATOM     35  C   UNL A   1      42.095  27.852  29.522  1.00  0.00     0.074 A 
ATOM     36  C   UNL A   1      39.816  28.705  29.083  1.00  0.00     0.049 A 
ATOM     37  N   UNL A   1      42.615  28.876  30.158  1.00  0.00    -0.248 NA
ATOM     38  C   UNL A   1      43.018  26.717  29.385  1.00  0.00     0.031 C 
ATOM     39  C   UNL A   1      38.451  28.674  28.554  1.00  0.00     0.029 A 
ATOM     40  N   UNL A   1      39.920  29.929  29.685  1.00  0.00    -0.354 N 
ATOM     41  C   UNL A   1      43.912  28.505  30.513  1.00  0.00     0.074 A 
ATOM     42  C   UNL A   1      44.095  27.150  30.035  1.00  0.00     0.031 C 
ATOM     43  C   UNL A   1      37.843  29.829  28.850  1.00  0.00     0.029 A 
ATOM     44  C   UNL A   1      38.777  30.682  29.577  1.00  0.00     0.049 A 
ATOM     45  H   UNL A   1      40.731  30.239  30.149  1.00  0.00     0.167 HD
ATOM     46  C   UNL A   1      44.856  29.239  31.158  1.00  0.00     0.031 A 
ATOM     47  C   UNL A   1      38.508  31.936  29.982  1.00  0.00     0.031 A 
ATOM     48  C   UNL A   1      44.671  30.615  31.564  1.00  0.00     0.049 A 
ATOM     49  C   UNL A   1      39.593  32.752  30.613  1.00  0.00     0.074 A 
ATOM     50  C   UNL A   1      45.600  31.472  32.135  1.00  0.00     0.029 A 
ATOM     51  N   UNL A   1      43.501  31.345  31.419  1.00  0.00    -0.354 N 
ATOM     52  N   UNL A   1      40.823  32.399  30.897  1.00  0.00    -0.248 NA
ATOM     53  C   UNL A   1      39.270  34.146  30.940  1.00  0.00     0.031 C 
ATOM     54  C   UNL A   1      44.983  32.701  32.372  1.00  0.00     0.029 A 
ATOM     55  C   UNL A   1      43.687  32.636  31.888  1.00  0.00     0.049 A 
ATOM     56  H   UNL A   1      42.662  30.998  31.039  1.00  0.00     0.167 HD
ATOM     57  C   UNL A   1      41.431  33.537  31.409  1.00  0.00     0.074 A 
ATOM     58  C   UNL A   1      40.439  34.592  31.385  1.00  0.00     0.031 C 
ATOM     59  C   UNL A   1      42.700  33.687  31.857  1.00  0.00     0.031 A 
BRANCH  46  60
ATOM     60  C   UNL A   1      46.217  28.635  31.438  1.00  0.00    -0.014 A 
ATOM     61  C   UNL A   1      47.136  28.450  30.381  1.00  0.00     0.010 A 
ATOM     62  C   UNL A   1      46.501  28.049  32.684  1.00  0.00     0.010 A 
ATOM     63  C   UNL A   1      48.275  27.654  30.551  1.00  0.00     0.020 A 
ATOM     64  C   UNL A   1      47.655  27.277  32.866  1.00  0.00     0.020 A 
ATOM     65  C   UNL A   1      48.518  27.056  31.789  1.00  0.00     0.054 A 
BRANCH  65  66
ATOM     66  S   UNL A   1      49.953  25.958  31.979  1.00  0.00     0.124 S 
ATOM     67  O   UNL A   1      50.230  25.570  30.600  1.00  0.00    -0.237 OA
ATOM     68  O   UNL A   1      50.947  26.829  32.601  1.00  0.00    -0.237 OA
ATOM     69  O   UNL A   1      49.450  24.888  32.839  1.00  0.00    -0.744 OA
ENDBRANCH  65  66
ENDBRANCH  46  60
BRANCH  47  70
ATOM     70  C   UNL A   1      37.172  32.500  29.670  1.00  0.00    -0.014 A 
ATOM     71  C   UNL A   1      36.937  33.130  28.435  1.00  0.00     0.010 A 
ATOM     72  C   UNL A   1      36.180  32.535  30.665  1.00  0.00     0.010 A 
ATOM     73  C   UNL A   1      35.748  33.827  28.215  1.00  0.00     0.020 A 
ATOM     74  C   UNL A   1      34.978  33.206  30.438  1.00  0.00     0.020 A 
ATOM     75  C   UNL A   1      34.781  33.871  29.225  1.00  0.00     0.054 A 
BRANCH  75  76
ATOM     76  S   UNL A   1      33.265  34.822  28.940  1.00  0.00     0.124 S 
ATOM     77  O   UNL A   1      33.796  36.090  28.448  1.00  0.00    -0.237 OA
ATOM     78  O   UNL A   1      32.559  34.009  27.954  1.00  0.00    -0.237 OA
ATOM     79  O   UNL A   1      32.643  34.875  30.261  1.00  0.00    -0.744 OA
ENDBRANCH  75  76
ENDBRANCH  47  70
BRANCH  59  80
ATOM     80  C   UNL A   1      43.121  35.044  32.356  1.00  0.00    -0.014 A 
ATOM     81  C   UNL A   1      42.789  35.442  33.665  1.00  0.00     0.010 A 
ATOM     82  C   UNL A   1      43.733  35.971  31.493  1.00  0.00     0.010 A 
ATOM     83  C   UNL A   1      43.030  36.749  34.092  1.00  0.00     0.020 A 
ATOM     84  C   UNL A   1      44.001  37.272  31.926  1.00  0.00     0.020 A 
ATOM     85  C   UNL A   1      43.625  37.660  33.216  1.00  0.00     0.054 A 
BRANCH  85  86
ATOM     86  S   UNL A   1      43.897  39.364  33.774  1.00  0.00     0.124 S 
ATOM     87  O   UNL A   1      42.635  40.009  33.422  1.00  0.00    -0.237 OA
ATOM     88  O   UNL A   1      44.142  39.200  35.205  1.00  0.00    -0.237 OA
ATOM     89  O   UNL A   1      45.057  39.798  32.999  1.00  0.00    -0.744 OA
ENDBRANCH  85  86
ENDBRANCH  59  80
ENDBRANCH  33  34
ENDBRANCH  26  28
ENDBRANCH  25  26
ENDBRANCH   1  25
TORSDOF 15
ENDMDL
MODEL 2
REMARK VINA RESULT:     -11.4      4.465     11.040
REMARK SMILES O=C(C[C@H]1C(=O)N[NH+]=C2c3ccc(F)cc3N=CN21)OCCOC(=O)c1ccc(-c2c3nc(c(-c4ccc(S(=O)(=O)[O-])cc4)c4ccc([nH]4)c(-c4ccc(S(=O)(=O)[O-])cc4)c4nc(c(-c5ccc(S(=O)(=O)[O-])cc5)c5ccc2[nH]5)C=C4)C=C3)cc1
REMARK SMILES IDX 22 1 21 2 20 3 2 4 1 5 3 6 4 7 5 8 19 9 6 10 7 11 9 12 18 13
REMARK SMILES IDX 8 14 10 16 17 17 11 19 16 20 12 21 15 22 13 23 14 24 23 25
REMARK SMILES IDX 24 26 25 27 26 28 27 29 85 30 28 31 84 32 29 33 30 34 31 35
REMARK SMILES IDX 78 36 32 37 83 38 77 39 79 40 33 41 82 42 76 43 75 44 34 46
REMARK SMILES IDX 64 47 45 48 63 49 46 50 49 51 62 52 80 53 47 54 48 55 61 57
REMARK SMILES IDX 81 58 50 59 35 60 36 61 44 62 37 63 43 64 38 65 39 66 40 67
REMARK SMILES IDX 41 68 42 69 65 70 66 71 74 72 67 73 73 74 68 75 69 76 70 77
REMARK SMILES IDX 71 78 72 79 51 80 52 81 60 82 53 83 59 84 54 85 55 86 56 87
REMARK SMILES IDX 57 88 58 89
REMARK H PARENT 7 15 8 18 79 45 49 56
REMARK Flexibility Score: inf
ROOT
ATOM      1  C   UNL A   1      33.333  28.540  26.210  1.00  0.00     0.275 C 
ENDROOT
BRANCH   1   2
ATOM      2  C   UNL A   1      31.810  28.642  26.131  1.00  0.00     0.274 C 
BRANCH   2   3
ATOM      3  O   UNL A   1      31.220  27.345  25.872  1.00  0.00    -0.462 OA
BRANCH   3   4
ATOM      4  C   UNL A   1      30.690  26.941  24.691  1.00  0.00     0.310 C 
ATOM      5  O   UNL A   1      30.368  27.770  23.850  1.00  0.00    -0.252 OA
BRANCH   4   6
ATOM      6  C   UNL A   1      30.569  25.459  24.459  1.00  0.00     0.183 C 
BRANCH   6   7
ATOM      7  C   UNL A   1      31.680  24.607  25.064  1.00  0.00     0.286 C 
ATOM      8  C   UNL A   1      31.107  23.688  26.106  1.00  0.00     0.300 C 
ATOM      9  N   UNL A   1      32.584  23.879  24.180  1.00  0.00    -0.202 N 
ATOM     10  O   UNL A   1      30.836  24.121  27.212  1.00  0.00    -0.267 OA
ATOM     11  N   UNL A   1      30.950  22.374  25.774  1.00  0.00    -0.193 N 
ATOM     12  C   UNL A   1      32.790  22.535  24.494  1.00  0.00     0.309 C 
ATOM     13  C   UNL A   1      33.489  24.576  23.420  1.00  0.00     0.317 C 
ATOM     14  N   UNL A   1      31.963  21.749  25.121  1.00  0.00    -0.169 N 
ATOM     15  H   UNL A   1      30.124  21.890  26.003  1.00  0.00     0.216 HD
ATOM     16  C   UNL A   1      34.171  22.044  24.281  1.00  0.00     0.092 A 
ATOM     17  N   UNL A   1      34.670  24.164  23.088  1.00  0.00    -0.216 NA
ATOM     18  H   UNL A   1      32.066  20.770  25.121  1.00  0.00     0.340 HD
ATOM     19  C   UNL A   1      34.611  20.919  24.996  1.00  0.00     0.022 A 
ATOM     20  C   UNL A   1      35.071  22.931  23.662  1.00  0.00     0.085 A 
ATOM     21  C   UNL A   1      35.973  20.676  25.103  1.00  0.00     0.040 A 
ATOM     22  C   UNL A   1      36.432  22.647  23.753  1.00  0.00     0.068 A 
ATOM     23  C   UNL A   1      36.868  21.538  24.477  1.00  0.00     0.125 A 
ATOM     24  F   UNL A   1      38.180  21.313  24.608  1.00  0.00    -0.207 F 
ENDBRANCH   6   7
ENDBRANCH   4   6
ENDBRANCH   3   4
ENDBRANCH   2   3
ENDBRANCH   1   2
BRANCH   1  25
ATOM     25  O   UNL A   1      33.772  28.804  27.555  1.00  0.00    -0.458 OA
BRANCH  25  26
ATOM     26  C   UNL A   1      34.279  30.048  27.799  1.00  0.00     0.338 C 
ATOM     27  O   UNL A   1      33.647  31.075  27.852  1.00  0.00    -0.246 OA
BRANCH  26  28
ATOM     28  C   UNL A   1      35.730  29.937  28.134  1.00  0.00     0.060 A 
ATOM     29  C   UNL A   1      36.738  30.085  27.168  1.00  0.00     0.016 A 
ATOM     30  C   UNL A   1      36.072  29.552  29.437  1.00  0.00     0.016 A 
ATOM     31  C   UNL A   1      38.066  29.756  27.474  1.00  0.00     0.010 A 
ATOM     32  C   UNL A   1      37.398  29.200  29.734  1.00  0.00     0.010 A 
ATOM     33  C   UNL A   1      38.400  29.259  28.743  1.00  0.00    -0.014 A 
BRANCH  33  34
ATOM     34  C   UNL A   1      39.812  28.947  29.088  1.00  0.00     0.031 A 
ATOM     35  C   UNL A   1      40.725  29.887  29.837  1.00  0.00     0.074 A 
ATOM     36  C   UNL A   1      40.265  27.744  28.693  1.00  0.00     0.049 A 
ATOM     37  N   UNL A   1      41.970  29.695  30.210  1.00  0.00    -0.248 NA
ATOM     38  C   UNL A   1      40.198  31.206  30.210  1.00  0.00     0.031 C 
ATOM     39  C   UNL A   1      39.461  26.753  27.974  1.00  0.00     0.029 A 
ATOM     40  N   UNL A   1      41.486  27.146  28.846  1.00  0.00    -0.354 N 
ATOM     41  C   UNL A   1      42.380  30.870  30.840  1.00  0.00     0.074 A 
ATOM     42  C   UNL A   1      41.253  31.779  30.784  1.00  0.00     0.031 C 
ATOM     43  C   UNL A   1      40.209  25.666  27.751  1.00  0.00     0.029 A 
ATOM     44  C   UNL A   1      41.536  25.879  28.319  1.00  0.00     0.049 A 
ATOM     45  H   UNL A   1      42.251  27.580  29.287  1.00  0.00     0.167 HD
ATOM     46  C   UNL A   1      43.576  31.146  31.423  1.00  0.00     0.031 A 
ATOM     47  C   UNL A   1      42.522  24.965  28.318  1.00  0.00     0.031 A 
ATOM     48  C   UNL A   1      44.662  30.195  31.526  1.00  0.00     0.049 A 
ATOM     49  C   UNL A   1      43.798  25.262  29.042  1.00  0.00     0.074 A 
ATOM     50  C   UNL A   1      45.874  30.348  32.182  1.00  0.00     0.029 A 
ATOM     51  N   UNL A   1      44.662  28.915  30.993  1.00  0.00    -0.354 N 
ATOM     52  N   UNL A   1      44.147  26.358  29.669  1.00  0.00    -0.248 NA
ATOM     53  C   UNL A   1      44.796  24.188  29.094  1.00  0.00     0.031 C 
ATOM     54  C   UNL A   1      46.621  29.181  32.011  1.00  0.00     0.029 A 
ATOM     55  C   UNL A   1      45.850  28.272  31.305  1.00  0.00     0.049 A 
ATOM     56  H   UNL A   1      43.928  28.521  30.469  1.00  0.00     0.167 HD
ATOM     57  C   UNL A   1      45.395  26.095  30.217  1.00  0.00     0.074 A 
ATOM     58  C   UNL A   1      45.734  24.734  29.859  1.00  0.00     0.031 C 
ATOM     59  C   UNL A   1      46.184  26.914  30.953  1.00  0.00     0.031 A 
BRANCH  46  60
ATOM     60  C   UNL A   1      43.807  32.499  32.064  1.00  0.00    -0.014 A 
ATOM     61  C   UNL A   1      43.464  32.704  33.418  1.00  0.00     0.010 A 
ATOM     62  C   UNL A   1      44.146  33.617  31.281  1.00  0.00     0.010 A 
ATOM     63  C   UNL A   1      43.405  33.995  33.957  1.00  0.00     0.020 A 
ATOM     64  C   UNL A   1      44.117  34.907  31.824  1.00  0.00     0.020 A 
ATOM     65  C   UNL A   1      43.715  35.092  33.150  1.00  0.00     0.054 A 
BRANCH  65  66
ATOM     66  S   UNL A   1      43.556  36.768  33.831  1.00  0.00     0.124 S 
ATOM     67  O   UNL A   1      44.650  36.815  34.796  1.00  0.00    -0.237 OA
ATOM     68  O   UNL A   1      43.719  37.614  32.652  1.00  0.00    -0.237 OA
ATOM     69  O   UNL A   1      42.214  36.773  34.410  1.00  0.00    -0.744 OA
ENDBRANCH  65  66
ENDBRANCH  46  60
BRANCH  47  70
ATOM     70  C   UNL A   1      42.249  23.643  27.701  1.00  0.00    -0.014 A 
ATOM     71  C   UNL A   1      41.669  22.610  28.458  1.00  0.00     0.010 A 
ATOM     72  C   UNL A   1      42.705  23.375  26.398  1.00  0.00     0.010 A 
ATOM     73  C   UNL A   1      41.590  21.317  27.940  1.00  0.00     0.020 A 
ATOM     74  C   UNL A   1      42.601  22.090  25.866  1.00  0.00     0.020 A 
ATOM     75  C   UNL A   1      42.069  21.063  26.651  1.00  0.00     0.054 A 
BRANCH  75  76
ATOM     76  S   UNL A   1      42.004  19.367  26.014  1.00  0.00     0.124 S 
ATOM     77  O   UNL A   1      42.857  19.459  24.833  1.00  0.00    -0.237 OA
ATOM     78  O   UNL A   1      42.545  18.588  27.124  1.00  0.00    -0.237 OA
ATOM     79  O   UNL A   1      40.583  19.160  25.745  1.00  0.00    -0.744 OA
ENDBRANCH  75  76
ENDBRANCH  47  70
BRANCH  59  80
ATOM     80  C   UNL A   1      47.501  26.377  31.446  1.00  0.00    -0.014 A 
ATOM     81  C   UNL A   1      48.622  26.386  30.594  1.00  0.00     0.010 A 
ATOM     82  C   UNL A   1      47.600  25.752  32.701  1.00  0.00     0.010 A 
ATOM     83  C   UNL A   1      49.807  25.752  30.974  1.00  0.00     0.020 A 
ATOM     84  C   UNL A   1      48.793  25.140  33.096  1.00  0.00     0.020 A 
ATOM     85  C   UNL A   1      49.881  25.122  32.219  1.00  0.00     0.054 A 
BRANCH  85  86
ATOM     86  S   UNL A   1      51.415  24.271  32.681  1.00  0.00     0.124 S 
ATOM     87  O   UNL A   1      51.477  24.511  34.120  1.00  0.00    -0.237 OA
ATOM     88  O   UNL A   1      51.150  22.891  32.284  1.00  0.00    -0.237 OA
ATOM     89  O   UNL A   1      52.437  24.952  31.890  1.00  0.00    -0.744 OA
ENDBRANCH  85  86
ENDBRANCH  59  80
ENDBRANCH  33  34
ENDBRANCH  26  28
ENDBRANCH  25  26
ENDBRANCH   1  25
TORSDOF 15
ENDMDL
MODEL 3
REMARK VINA RESULT:     -11.4      3.293     12.554
REMARK SMILES O=C(C[C@H]1C(=O)N[NH+]=C2c3ccc(F)cc3N=CN21)OCCOC(=O)c1ccc(-c2c3nc(c(-c4ccc(S(=O)(=O)[O-])cc4)c4ccc([nH]4)c(-c4ccc(S(=O)(=O)[O-])cc4)c4nc(c(-c5ccc(S(=O)(=O)[O-])cc5)c5ccc2[nH]5)C=C4)C=C3)cc1
REMARK SMILES IDX 22 1 21 2 20 3 2 4 1 5 3 6 4 7 5 8 19 9 6 10 7 11 9 12 18 13
REMARK SMILES IDX 8 14 10 16 17 17 11 19 16 20 12 21 15 22 13 23 14 24 23 25
REMARK SMILES IDX 24 26 25 27 26 28 27 29 85 30 28 31 84 32 29 33 30 34 31 35
REMARK SMILES IDX 78 36 32 37 83 38 77 39 79 40 33 41 82 42 76 43 75 44 34 46
REMARK SMILES IDX 64 47 45 48 63 49 46 50 49 51 62 52 80 53 47 54 48 55 61 57
REMARK SMILES IDX 81 58 50 59 35 60 36 61 44 62 37 63 43 64 38 65 39 66 40 67
REMARK SMILES IDX 41 68 42 69 65 70 66 71 74 72 67 73 73 74 68 75 69 76 70 77
REMARK SMILES IDX 71 78 72 79 51 80 52 81 60 82 53 83 59 84 54 85 55 86 56 87
REMARK SMILES IDX 57 88 58 89
REMARK H PARENT 7 15 8 18 79 45 49 56
REMARK Flexibility Score: inf
ROOT
ATOM      1  C   UNL A   1      33.387  32.349  28.155  1.00  0.00     0.275 C 
ENDROOT
BRANCH   1   2
ATOM      2  C   UNL A   1      33.826  33.813  28.161  1.00  0.00     0.274 C 
BRANCH   2   3
ATOM      3  O   UNL A   1      32.773  34.664  28.674  1.00  0.00    -0.462 OA
BRANCH   3   4
ATOM      4  C   UNL A   1      32.936  35.667  29.573  1.00  0.00     0.310 C 
ATOM      5  O   UNL A   1      33.142  36.808  29.183  1.00  0.00    -0.252 OA
BRANCH   4   6
ATOM      6  C   UNL A   1      32.805  35.316  31.030  1.00  0.00     0.183 C 
BRANCH   6   7
ATOM      7  C   UNL A   1      34.117  35.220  31.803  1.00  0.00     0.286 C 
ATOM      8  C   UNL A   1      34.198  36.334  32.809  1.00  0.00     0.300 C 
ATOM      9  N   UNL A   1      34.495  33.950  32.414  1.00  0.00    -0.202 N 
ATOM     10  O   UNL A   1      34.495  37.458  32.443  1.00  0.00    -0.267 OA
ATOM     11  N   UNL A   1      33.972  36.024  34.118  1.00  0.00    -0.193 N 
ATOM     12  C   UNL A   1      34.907  34.014  33.745  1.00  0.00     0.309 C 
ATOM     13  C   UNL A   1      34.853  32.897  31.611  1.00  0.00     0.317 C 
ATOM     14  N   UNL A   1      34.554  34.907  34.625  1.00  0.00    -0.169 N 
ATOM     15  H   UNL A   1      33.402  36.595  34.681  1.00  0.00     0.216 HD
ATOM     16  C   UNL A   1      36.020  33.105  34.104  1.00  0.00     0.092 A 
ATOM     17  N   UNL A   1      35.730  31.991  31.903  1.00  0.00    -0.216 NA
ATOM     18  H   UNL A   1      34.699  34.780  35.591  1.00  0.00     0.340 HD
ATOM     19  C   UNL A   1      36.823  33.417  35.212  1.00  0.00     0.022 A 
ATOM     20  C   UNL A   1      36.435  32.192  33.117  1.00  0.00     0.085 A 
ATOM     21  C   UNL A   1      38.067  32.813  35.336  1.00  0.00     0.040 A 
ATOM     22  C   UNL A   1      37.671  31.571  33.282  1.00  0.00     0.068 A 
ATOM     23  C   UNL A   1      38.475  31.894  34.376  1.00  0.00     0.125 A 
ATOM     24  F   UNL A   1      39.685  31.336  34.488  1.00  0.00    -0.207 F 
ENDBRANCH   6   7
ENDBRANCH   4   6
ENDBRANCH   3   4
ENDBRANCH   2   3
ENDBRANCH   1   2
BRANCH   1  25
ATOM     25  O   UNL A   1      34.234  31.587  27.275  1.00  0.00    -0.458 OA
BRANCH  25  26
ATOM     26  C   UNL A   1      34.436  30.278  27.603  1.00  0.00     0.338 C 
ATOM     27  O   UNL A   1      33.651  29.375  27.435  1.00  0.00    -0.246 OA
BRANCH  26  28
ATOM     28  C   UNL A   1      35.839  30.094  28.078  1.00  0.00     0.060 A 
ATOM     29  C   UNL A   1      36.947  30.251  27.231  1.00  0.00     0.016 A 
ATOM     30  C   UNL A   1      36.029  29.631  29.387  1.00  0.00     0.016 A 
ATOM     31  C   UNL A   1      38.224  29.855  27.654  1.00  0.00     0.010 A 
ATOM     32  C   UNL A   1      37.305  29.213  29.800  1.00  0.00     0.010 A 
ATOM     33  C   UNL A   1      38.406  29.283  28.922  1.00  0.00    -0.014 A 
BRANCH  33  34
ATOM     34  C   UNL A   1      39.763  28.899  29.393  1.00  0.00     0.031 A 
ATOM     35  C   UNL A   1      40.620  29.760  30.291  1.00  0.00     0.074 A 
ATOM     36  C   UNL A   1      40.218  27.706  28.974  1.00  0.00     0.049 A 
ATOM     37  N   UNL A   1      41.811  29.501  30.779  1.00  0.00    -0.248 NA
ATOM     38  C   UNL A   1      40.096  31.074  30.687  1.00  0.00     0.031 C 
ATOM     39  C   UNL A   1      39.466  26.789  28.115  1.00  0.00     0.029 A 
ATOM     40  N   UNL A   1      41.397  27.055  29.216  1.00  0.00    -0.354 N 
ATOM     41  C   UNL A   1      42.187  30.621  31.520  1.00  0.00     0.074 A 
ATOM     42  C   UNL A   1      41.101  31.572  31.403  1.00  0.00     0.031 C 
ATOM     43  C   UNL A   1      40.199  25.689  27.904  1.00  0.00     0.029 A 
ATOM     44  C   UNL A   1      41.464  25.820  28.620  1.00  0.00     0.049 A 
ATOM     45  H   UNL A   1      42.124  27.434  29.762  1.00  0.00     0.167 HD
ATOM     46  C   UNL A   1      43.322  30.818  32.241  1.00  0.00     0.031 A 
ATOM     47  C   UNL A   1      42.416  24.872  28.666  1.00  0.00     0.031 A 
ATOM     48  C   UNL A   1      44.361  29.823  32.398  1.00  0.00     0.049 A 
ATOM     49  C   UNL A   1      43.616  25.078  29.537  1.00  0.00     0.074 A 
ATOM     50  C   UNL A   1      45.500  29.893  33.185  1.00  0.00     0.029 A 
ATOM     51  N   UNL A   1      44.379  28.577  31.790  1.00  0.00    -0.354 N 
ATOM     52  N   UNL A   1      43.930  26.122  30.264  1.00  0.00    -0.248 NA
ATOM     53  C   UNL A   1      44.570  23.966  29.627  1.00  0.00     0.031 C 
ATOM     54  C   UNL A   1      46.225  28.711  33.022  1.00  0.00     0.029 A 
ATOM     55  C   UNL A   1      45.506  27.874  32.185  1.00  0.00     0.049 A 
ATOM     56  H   UNL A   1      43.693  28.242  31.169  1.00  0.00     0.167 HD
ATOM     57  C   UNL A   1      45.104  25.782  30.922  1.00  0.00     0.074 A 
ATOM     58  C   UNL A   1      45.437  24.433  30.518  1.00  0.00     0.031 C 
ATOM     59  C   UNL A   1      45.834  26.527  31.786  1.00  0.00     0.031 A 
BRANCH  46  60
ATOM     60  C   UNL A   1      43.525  32.122  32.985  1.00  0.00    -0.014 A 
ATOM     61  C   UNL A   1      42.794  32.379  34.166  1.00  0.00     0.010 A 
ATOM     62  C   UNL A   1      44.255  33.174  32.405  1.00  0.00     0.010 A 
ATOM     63  C   UNL A   1      42.750  33.665  34.717  1.00  0.00     0.020 A 
ATOM     64  C   UNL A   1      44.238  34.455  32.971  1.00  0.00     0.020 A 
ATOM     65  C   UNL A   1      43.458  34.701  34.104  1.00  0.00     0.054 A 
BRANCH  65  66
ATOM     66  S   UNL A   1      43.330  36.384  34.777  1.00  0.00     0.124 S 
ATOM     67  O   UNL A   1      42.997  37.166  33.591  1.00  0.00    -0.237 OA
ATOM     68  O   UNL A   1      42.265  36.257  35.768  1.00  0.00    -0.237 OA
ATOM     69  O   UNL A   1      44.660  36.629  35.332  1.00  0.00    -0.744 OA
ENDBRANCH  65  66
ENDBRANCH  46  60
BRANCH  47  70
ATOM     70  C   UNL A   1      42.171  23.599  27.943  1.00  0.00    -0.014 A 
ATOM     71  C   UNL A   1      41.439  22.564  28.553  1.00  0.00     0.010 A 
ATOM     72  C   UNL A   1      42.794  23.370  26.704  1.00  0.00     0.010 A 
ATOM     73  C   UNL A   1      41.373  21.304  27.957  1.00  0.00     0.020 A 
ATOM     74  C   UNL A   1      42.704  22.120  26.091  1.00  0.00     0.020 A 
ATOM     75  C   UNL A   1      42.017  21.088  26.735  1.00  0.00     0.054 A 
BRANCH  75  76
ATOM     76  S   UNL A   1      41.961  19.431  26.000  1.00  0.00     0.124 S 
ATOM     77  O   UNL A   1      40.536  19.276  25.723  1.00  0.00    -0.237 OA
ATOM     78  O   UNL A   1      42.820  19.574  24.827  1.00  0.00    -0.237 OA
ATOM     79  O   UNL A   1      42.491  18.573  27.057  1.00  0.00    -0.744 OA
ENDBRANCH  75  76
ENDBRANCH  47  70
BRANCH  59  80
ATOM     80  C   UNL A   1      47.074  25.914  32.380  1.00  0.00    -0.014 A 
ATOM     81  C   UNL A   1      47.003  25.265  33.628  1.00  0.00     0.010 A 
ATOM     82  C   UNL A   1      48.327  26.086  31.768  1.00  0.00     0.010 A 
ATOM     83  C   UNL A   1      48.166  24.830  34.268  1.00  0.00     0.020 A 
ATOM     84  C   UNL A   1      49.490  25.627  32.392  1.00  0.00     0.020 A 
ATOM     85  C   UNL A   1      49.404  25.024  33.651  1.00  0.00     0.054 A 
BRANCH  85  86
ATOM     86  S   UNL A   1      50.907  24.486  34.512  1.00  0.00     0.124 S 
ATOM     87  O   UNL A   1      51.088  25.543  35.503  1.00  0.00    -0.237 OA
ATOM     88  O   UNL A   1      50.524  23.182  35.046  1.00  0.00    -0.237 OA
ATOM     89  O   UNL A   1      51.913  24.445  33.453  1.00  0.00    -0.744 OA
ENDBRANCH  85  86
ENDBRANCH  59  80
ENDBRANCH  33  34
ENDBRANCH  26  28
ENDBRANCH  25  26
ENDBRANCH   1  25
TORSDOF 15
ENDMDL
