MODEL 1
REMARK VINA RESULT:     -10.6      0.000      0.000
REMARK SMILES Cc1cccc(C)c1Nc1ccccc1CC(=O)OCCOC(=O)c1ccc(-c2c3nc(c(-c4ccc(S(=O)(=O)[O-])cc4)c4ccc([nH]4)c(-c4ccc(S(=O)(=O)[O-])cc4)c4nc(c(-c5ccc(S(=O)(=O)[O-])cc5)c5ccc2[nH]5)C=C4)C=C3)cc1
REMARK SMILES IDX 20 1 19 2 17 3 18 4 16 5 15 6 10 7 11 8 12 9 14 10 13 11
REMARK SMILES IDX 9 12 8 14 1 15 2 16 3 17 4 18 6 19 5 20 7 21 21 22 22 23
REMARK SMILES IDX 23 24 24 25 25 26 26 27 84 28 27 29 83 30 28 31 29 32 30 33
REMARK SMILES IDX 77 34 31 35 82 36 76 37 78 38 32 39 81 40 75 41 74 42 33 44
REMARK SMILES IDX 63 45 44 46 62 47 45 48 48 49 61 50 79 51 46 52 47 53 60 55
REMARK SMILES IDX 80 56 49 57 34 58 35 59 43 60 36 61 42 62 37 63 38 64 39 65
REMARK SMILES IDX 40 66 41 67 64 68 65 69 73 70 66 71 72 72 67 73 68 74 69 75
REMARK SMILES IDX 70 76 71 77 50 78 51 79 59 80 52 81 58 82 53 83 54 84 55 85
REMARK SMILES IDX 56 86 57 87
REMARK H PARENT 9 13 78 43 48 54
REMARK Flexibility Score: inf
ROOT
ATOM      1  C   UNL A   1      31.701  28.361  27.610  1.00  0.00     0.274 C 
ENDROOT
BRANCH   1   2
ATOM      2  O   UNL A   1      31.386  27.566  26.452  1.00  0.00    -0.462 OA
BRANCH   2   3
ATOM      3  C   UNL A   1      32.149  26.452  26.295  1.00  0.00     0.310 C 
ATOM      4  O   UNL A   1      33.368  26.464  26.142  1.00  0.00    -0.252 OA
BRANCH   3   5
ATOM      5  C   UNL A   1      31.356  25.174  26.222  1.00  0.00     0.160 C 
BRANCH   5   6
ATOM      6  C   UNL A   1      31.880  24.028  25.380  1.00  0.00    -0.013 A 
ATOM      7  C   UNL A   1      31.448  23.846  24.047  1.00  0.00     0.042 A 
ATOM      8  C   UNL A   1      31.920  22.740  23.317  1.00  0.00     0.026 A 
ATOM      9  C   UNL A   1      32.863  21.867  23.858  1.00  0.00     0.002 A 
ATOM     10  C   UNL A   1      32.863  23.159  25.892  1.00  0.00     0.006 A 
ATOM     11  C   UNL A   1      33.350  22.091  25.138  1.00  0.00     0.000 A 
BRANCH   7  12
ATOM     12  N   UNL A   1      30.653  24.784  23.355  1.00  0.00    -0.355 N 
ATOM     13  H   UNL A   1      29.828  24.414  22.965  1.00  0.00     0.167 HD
BRANCH  12  14
ATOM     14  C   UNL A   1      30.846  26.167  23.129  1.00  0.00     0.044 A 
ATOM     15  C   UNL A   1      28.462  26.545  23.956  1.00  0.00     0.046 C 
ATOM     16  C   UNL A   1      29.781  27.053  23.434  1.00  0.00    -0.027 A 
ATOM     17  C   UNL A   1      29.970  28.441  23.333  1.00  0.00     0.005 A 
ATOM     18  C   UNL A   1      31.195  28.961  22.932  1.00  0.00     0.001 A 
ATOM     19  C   UNL A   1      32.077  26.705  22.682  1.00  0.00    -0.027 A 
ATOM     20  C   UNL A   1      32.239  28.100  22.610  1.00  0.00     0.005 A 
ATOM     21  C   UNL A   1      33.255  25.858  22.276  1.00  0.00     0.046 C 
ENDBRANCH  12  14
ENDBRANCH   7  12
ENDBRANCH   5   6
ENDBRANCH   3   5
ENDBRANCH   2   3
ENDBRANCH   1   2
BRANCH   1  22
ATOM     22  C   UNL A   1      32.247  29.729  27.205  1.00  0.00     0.275 C 
BRANCH  22  23
ATOM     23  O   UNL A   1      33.683  29.690  27.125  1.00  0.00    -0.458 OA
BRANCH  23  24
ATOM     24  C   UNL A   1      34.340  30.564  27.920  1.00  0.00     0.338 C 
ATOM     25  O   UNL A   1      33.928  31.627  28.350  1.00  0.00    -0.246 OA
BRANCH  24  26
ATOM     26  C   UNL A   1      35.693  30.058  28.208  1.00  0.00     0.060 A 
ATOM     27  C   UNL A   1      36.056  29.670  29.500  1.00  0.00     0.016 A 
ATOM     28  C   UNL A   1      36.641  30.082  27.184  1.00  0.00     0.016 A 
ATOM     29  C   UNL A   1      37.383  29.334  29.779  1.00  0.00     0.010 A 
ATOM     30  C   UNL A   1      37.955  29.697  27.455  1.00  0.00     0.010 A 
ATOM     31  C   UNL A   1      38.345  29.341  28.758  1.00  0.00    -0.014 A 
BRANCH  31  32
ATOM     32  C   UNL A   1      39.769  29.015  29.029  1.00  0.00     0.031 A 
ATOM     33  C   UNL A   1      40.690  30.077  29.570  1.00  0.00     0.074 A 
ATOM     34  C   UNL A   1      40.252  27.788  28.752  1.00  0.00     0.049 A 
ATOM     35  N   UNL A   1      41.994  30.062  29.681  1.00  0.00    -0.248 NA
ATOM     36  C   UNL A   1      40.059  31.320  30.041  1.00  0.00     0.031 C 
ATOM     37  C   UNL A   1      39.464  26.652  28.270  1.00  0.00     0.029 A 
ATOM     38  N   UNL A   1      41.533  27.298  28.823  1.00  0.00    -0.354 N 
ATOM     39  C   UNL A   1      42.343  31.301  30.206  1.00  0.00     0.074 A 
ATOM     40  C   UNL A   1      41.115  32.048  30.379  1.00  0.00     0.031 C 
ATOM     41  C   UNL A   1      40.277  25.598  28.094  1.00  0.00     0.029 A 
ATOM     42  C   UNL A   1      41.650  26.000  28.387  1.00  0.00     0.049 A 
ATOM     43  H   UNL A   1      42.294  27.827  29.155  1.00  0.00     0.167 HD
ATOM     44  C   UNL A   1      43.575  31.776  30.513  1.00  0.00     0.031 A 
ATOM     45  C   UNL A   1      42.741  25.232  28.203  1.00  0.00     0.031 A 
ATOM     46  C   UNL A   1      44.794  31.031  30.347  1.00  0.00     0.049 A 
ATOM     47  C   UNL A   1      44.103  25.804  28.483  1.00  0.00     0.074 A 
ATOM     48  C   UNL A   1      46.093  31.432  30.616  1.00  0.00     0.029 A 
ATOM     49  N   UNL A   1      44.869  29.728  29.879  1.00  0.00    -0.354 N 
ATOM     50  N   UNL A   1      44.421  26.995  28.931  1.00  0.00    -0.248 NA
ATOM     51  C   UNL A   1      45.255  24.930  28.222  1.00  0.00     0.031 C 
ATOM     52  C   UNL A   1      46.955  30.380  30.282  1.00  0.00     0.029 A 
ATOM     53  C   UNL A   1      46.188  29.312  29.847  1.00  0.00     0.049 A 
ATOM     54  H   UNL A   1      44.096  29.180  29.611  1.00  0.00     0.167 HD
ATOM     55  C   UNL A   1      45.808  27.005  29.025  1.00  0.00     0.074 A 
ATOM     56  C   UNL A   1      46.268  25.699  28.600  1.00  0.00     0.031 C 
ATOM     57  C   UNL A   1      46.629  28.006  29.426  1.00  0.00     0.031 A 
BRANCH  44  58
ATOM     58  C   UNL A   1      43.667  33.183  31.039  1.00  0.00    -0.014 A 
ATOM     59  C   UNL A   1      43.565  33.451  32.415  1.00  0.00     0.010 A 
ATOM     60  C   UNL A   1      43.903  34.246  30.148  1.00  0.00     0.010 A 
ATOM     61  C   UNL A   1      43.666  34.762  32.888  1.00  0.00     0.020 A 
ATOM     62  C   UNL A   1      44.025  35.556  30.620  1.00  0.00     0.020 A 
ATOM     63  C   UNL A   1      43.890  35.807  31.987  1.00  0.00     0.054 A 
BRANCH  63  64
ATOM     64  S   UNL A   1      44.042  37.498  32.628  1.00  0.00     0.124 S 
ATOM     65  O   UNL A   1      45.429  37.522  33.084  1.00  0.00    -0.237 OA
ATOM     66  O   UNL A   1      43.753  38.316  31.453  1.00  0.00    -0.237 OA
ATOM     67  O   UNL A   1      43.037  37.559  33.687  1.00  0.00    -0.744 OA
ENDBRANCH  63  64
ENDBRANCH  44  58
BRANCH  45  68
ATOM     68  C   UNL A   1      42.598  23.844  27.687  1.00  0.00    -0.014 A 
ATOM     69  C   UNL A   1      42.465  22.765  28.578  1.00  0.00     0.010 A 
ATOM     70  C   UNL A   1      42.604  23.594  26.302  1.00  0.00     0.010 A 
ATOM     71  C   UNL A   1      42.361  21.457  28.094  1.00  0.00     0.020 A 
ATOM     72  C   UNL A   1      42.476  22.290  25.815  1.00  0.00     0.020 A 
ATOM     73  C   UNL A   1      42.371  21.229  26.715  1.00  0.00     0.054 A 
BRANCH  73  74
ATOM     74  S   UNL A   1      42.198  19.530  26.104  1.00  0.00     0.124 S 
ATOM     75  O   UNL A   1      43.141  19.512  24.991  1.00  0.00    -0.237 OA
ATOM     76  O   UNL A   1      42.575  18.730  27.267  1.00  0.00    -0.237 OA
ATOM     77  O   UNL A   1      40.786  19.445  25.732  1.00  0.00    -0.744 OA
ENDBRANCH  73  74
ENDBRANCH  45  68
BRANCH  57  78
ATOM     78  C   UNL A   1      48.104  27.715  29.464  1.00  0.00    -0.014 A 
ATOM     79  C   UNL A   1      48.724  27.252  30.637  1.00  0.00     0.010 A 
ATOM     80  C   UNL A   1      48.870  27.871  28.295  1.00  0.00     0.010 A 
ATOM     81  C   UNL A   1      50.093  26.977  30.648  1.00  0.00     0.020 A 
ATOM     82  C   UNL A   1      50.236  27.577  28.298  1.00  0.00     0.020 A 
ATOM     83  C   UNL A   1      50.842  27.144  29.479  1.00  0.00     0.054 A 
BRANCH  83  84
ATOM     84  S   UNL A   1      52.612  26.744  29.504  1.00  0.00     0.124 S 
ATOM     85  O   UNL A   1      52.783  26.049  28.230  1.00  0.00    -0.237 OA
ATOM     86  O   UNL A   1      53.241  28.059  29.592  1.00  0.00    -0.237 OA
ATOM     87  O   UNL A   1      52.759  25.909  30.695  1.00  0.00    -0.744 OA
ENDBRANCH  83  84
ENDBRANCH  57  78
ENDBRANCH  31  32
ENDBRANCH  24  26
ENDBRANCH  23  24
ENDBRANCH  22  23
ENDBRANCH   1  22
TORSDOF 17
ENDMDL
MODEL 2
REMARK VINA RESULT:     -10.4      2.276      3.796
REMARK SMILES Cc1cccc(C)c1Nc1ccccc1CC(=O)OCCOC(=O)c1ccc(-c2c3nc(c(-c4ccc(S(=O)(=O)[O-])cc4)c4ccc([nH]4)c(-c4ccc(S(=O)(=O)[O-])cc4)c4nc(c(-c5ccc(S(=O)(=O)[O-])cc5)c5ccc2[nH]5)C=C4)C=C3)cc1
REMARK SMILES IDX 20 1 19 2 17 3 18 4 16 5 15 6 10 7 11 8 12 9 14 10 13 11
REMARK SMILES IDX 9 12 8 14 1 15 2 16 3 17 4 18 6 19 5 20 7 21 21 22 22 23
REMARK SMILES IDX 23 24 24 25 25 26 26 27 84 28 27 29 83 30 28 31 29 32 30 33
REMARK SMILES IDX 77 34 31 35 82 36 76 37 78 38 32 39 81 40 75 41 74 42 33 44
REMARK SMILES IDX 63 45 44 46 62 47 45 48 48 49 61 50 79 51 46 52 47 53 60 55
REMARK SMILES IDX 80 56 49 57 34 58 35 59 43 60 36 61 42 62 37 63 38 64 39 65
REMARK SMILES IDX 40 66 41 67 64 68 65 69 73 70 66 71 72 72 67 73 68 74 69 75
REMARK SMILES IDX 70 76 71 77 50 78 51 79 59 80 52 81 58 82 53 83 54 84 55 85
REMARK SMILES IDX 56 86 57 87
REMARK H PARENT 9 13 78 43 48 54
REMARK Flexibility Score: inf
ROOT
ATOM      1  C   UNL A   1      33.841  28.626  27.242  1.00  0.00     0.274 C 
ENDROOT
BRANCH   1   2
ATOM      2  O   UNL A   1      32.430  28.345  27.249  1.00  0.00    -0.462 OA
BRANCH   2   3
ATOM      3  C   UNL A   1      32.082  27.134  26.738  1.00  0.00     0.310 C 
ATOM      4  O   UNL A   1      30.960  26.642  26.826  1.00  0.00    -0.252 OA
BRANCH   3   5
ATOM      5  C   UNL A   1      33.231  26.377  26.125  1.00  0.00     0.160 C 
BRANCH   5   6
ATOM      6  C   UNL A   1      33.209  26.080  24.639  1.00  0.00    -0.013 A 
ATOM      7  C   UNL A   1      33.672  24.843  24.138  1.00  0.00     0.042 A 
ATOM      8  C   UNL A   1      33.682  24.626  22.747  1.00  0.00     0.026 A 
ATOM      9  C   UNL A   1      33.172  25.577  21.865  1.00  0.00     0.002 A 
ATOM     10  C   UNL A   1      32.661  27.009  23.734  1.00  0.00     0.006 A 
ATOM     11  C   UNL A   1      32.642  26.760  22.362  1.00  0.00     0.000 A 
BRANCH   7  12
ATOM     12  N   UNL A   1      34.019  23.753  24.962  1.00  0.00    -0.355 N 
ATOM     13  H   UNL A   1      34.571  23.988  25.743  1.00  0.00     0.167 HD
BRANCH  12  14
ATOM     14  C   UNL A   1      33.705  22.377  24.854  1.00  0.00     0.044 A 
ATOM     15  C   UNL A   1      36.189  21.929  24.480  1.00  0.00     0.046 C 
ATOM     16  C   UNL A   1      34.764  21.461  24.630  1.00  0.00    -0.027 A 
ATOM     17  C   UNL A   1      34.512  20.080  24.631  1.00  0.00     0.005 A 
ATOM     18  C   UNL A   1      33.226  19.596  24.846  1.00  0.00     0.001 A 
ATOM     19  C   UNL A   1      32.393  21.876  25.030  1.00  0.00    -0.027 A 
ATOM     20  C   UNL A   1      32.177  20.486  25.044  1.00  0.00     0.005 A 
ATOM     21  C   UNL A   1      31.185  22.757  25.217  1.00  0.00     0.046 C 
ENDBRANCH  12  14
ENDBRANCH   7  12
ENDBRANCH   5   6
ENDBRANCH   3   5
ENDBRANCH   2   3
ENDBRANCH   1   2
BRANCH   1  22
ATOM     22  C   UNL A   1      34.107  30.105  27.518  1.00  0.00     0.275 C 
BRANCH  22  23
ATOM     23  O   UNL A   1      35.518  30.381  27.439  1.00  0.00    -0.458 OA
BRANCH  23  24
ATOM     24  C   UNL A   1      36.143  30.584  28.620  1.00  0.00     0.338 C 
ATOM     25  O   UNL A   1      35.709  31.171  29.596  1.00  0.00    -0.246 OA
BRANCH  24  26
ATOM     26  C   UNL A   1      37.491  29.993  28.580  1.00  0.00     0.060 A 
ATOM     27  C   UNL A   1      38.218  29.779  29.754  1.00  0.00     0.016 A 
ATOM     28  C   UNL A   1      38.073  29.755  27.334  1.00  0.00     0.016 A 
ATOM     29  C   UNL A   1      39.548  29.355  29.681  1.00  0.00     0.010 A 
ATOM     30  C   UNL A   1      39.385  29.283  27.267  1.00  0.00     0.010 A 
ATOM     31  C   UNL A   1      40.143  29.099  28.437  1.00  0.00    -0.014 A 
BRANCH  31  32
ATOM     32  C   UNL A   1      41.562  28.674  28.327  1.00  0.00     0.031 A 
ATOM     33  C   UNL A   1      42.661  29.699  28.430  1.00  0.00     0.074 A 
ATOM     34  C   UNL A   1      41.871  27.384  28.091  1.00  0.00     0.049 A 
ATOM     35  N   UNL A   1      43.935  29.575  28.161  1.00  0.00    -0.248 NA
ATOM     36  C   UNL A   1      42.270  31.042  28.890  1.00  0.00     0.031 C 
ATOM     37  C   UNL A   1      40.912  26.280  28.017  1.00  0.00     0.029 A 
ATOM     38  N   UNL A   1      43.084  26.787  27.855  1.00  0.00    -0.354 N 
ATOM     39  C   UNL A   1      44.494  30.827  28.389  1.00  0.00     0.074 A 
ATOM     40  C   UNL A   1      43.418  31.700  28.807  1.00  0.00     0.031 C 
ATOM     41  C   UNL A   1      41.575  25.140  27.758  1.00  0.00     0.029 A 
ATOM     42  C   UNL A   1      42.993  25.443  27.585  1.00  0.00     0.049 A 
ATOM     43  H   UNL A   1      43.939  27.276  27.879  1.00  0.00     0.167 HD
ATOM     44  C   UNL A   1      45.786  31.216  28.260  1.00  0.00     0.031 A 
ATOM     45  C   UNL A   1      43.934  24.560  27.200  1.00  0.00     0.031 A 
ATOM     46  C   UNL A   1      46.857  30.346  27.852  1.00  0.00     0.049 A 
ATOM     47  C   UNL A   1      45.348  25.030  26.994  1.00  0.00     0.074 A 
ATOM     48  C   UNL A   1      48.197  30.651  27.677  1.00  0.00     0.029 A 
ATOM     49  N   UNL A   1      46.715  28.997  27.564  1.00  0.00    -0.354 N 
ATOM     50  N   UNL A   1      45.852  26.229  27.165  1.00  0.00    -0.248 NA
ATOM     51  C   UNL A   1      46.319  24.027  26.533  1.00  0.00     0.031 C 
ATOM     52  C   UNL A   1      48.859  29.492  27.255  1.00  0.00     0.029 A 
ATOM     53  C   UNL A   1      47.939  28.458  27.208  1.00  0.00     0.049 A 
ATOM     54  H   UNL A   1      45.868  28.497  27.607  1.00  0.00     0.167 HD
ATOM     55  C   UNL A   1      47.202  26.119  26.852  1.00  0.00     0.074 A 
ATOM     56  C   UNL A   1      47.440  24.735  26.493  1.00  0.00     0.031 C 
ATOM     57  C   UNL A   1      48.160  27.078  26.859  1.00  0.00     0.031 A 
BRANCH  44  58
ATOM     58  C   UNL A   1      46.110  32.658  28.541  1.00  0.00    -0.014 A 
ATOM     59  C   UNL A   1      46.016  33.633  27.532  1.00  0.00     0.010 A 
ATOM     60  C   UNL A   1      46.471  33.050  29.843  1.00  0.00     0.010 A 
ATOM     61  C   UNL A   1      46.308  34.970  27.813  1.00  0.00     0.020 A 
ATOM     62  C   UNL A   1      46.743  34.390  30.133  1.00  0.00     0.020 A 
ATOM     63  C   UNL A   1      46.675  35.340  29.111  1.00  0.00     0.054 A 
BRANCH  63  64
ATOM     64  S   UNL A   1      47.026  37.087  29.457  1.00  0.00     0.124 S 
ATOM     65  O   UNL A   1      48.416  37.204  29.027  1.00  0.00    -0.237 OA
ATOM     66  O   UNL A   1      46.049  37.783  28.622  1.00  0.00    -0.237 OA
ATOM     67  O   UNL A   1      46.806  37.206  30.896  1.00  0.00    -0.744 OA
ENDBRANCH  63  64
ENDBRANCH  44  58
BRANCH  45  68
ATOM     68  C   UNL A   1      43.566  23.143  26.940  1.00  0.00    -0.014 A 
ATOM     69  C   UNL A   1      43.765  22.577  25.669  1.00  0.00     0.010 A 
ATOM     70  C   UNL A   1      43.004  22.354  27.961  1.00  0.00     0.010 A 
ATOM     71  C   UNL A   1      43.390  21.254  25.417  1.00  0.00     0.020 A 
ATOM     72  C   UNL A   1      42.651  21.023  27.719  1.00  0.00     0.020 A 
ATOM     73  C   UNL A   1      42.833  20.487  26.443  1.00  0.00     0.054 A 
BRANCH  73  74
ATOM     74  S   UNL A   1      42.387  18.761  26.109  1.00  0.00     0.124 S 
ATOM     75  O   UNL A   1      42.677  18.121  27.388  1.00  0.00    -0.237 OA
ATOM     76  O   UNL A   1      40.972  18.857  25.756  1.00  0.00    -0.237 OA
ATOM     77  O   UNL A   1      43.271  18.389  25.006  1.00  0.00    -0.744 OA
ENDBRANCH  73  74
ENDBRANCH  45  68
BRANCH  57  78
ATOM     78  C   UNL A   1      49.560  26.656  26.509  1.00  0.00    -0.014 A 
ATOM     79  C   UNL A   1      50.419  26.110  27.478  1.00  0.00     0.010 A 
ATOM     80  C   UNL A   1      50.005  26.771  25.180  1.00  0.00     0.010 A 
ATOM     81  C   UNL A   1      51.713  25.714  27.129  1.00  0.00     0.020 A 
ATOM     82  C   UNL A   1      51.291  26.357  24.824  1.00  0.00     0.020 A 
ATOM     83  C   UNL A   1      52.142  25.843  25.804  1.00  0.00     0.054 A 
BRANCH  83  84
ATOM     84  S   UNL A   1      53.812  25.286  25.364  1.00  0.00     0.124 S 
ATOM     85  O   UNL A   1      54.283  26.379  24.518  1.00  0.00    -0.237 OA
ATOM     86  O   UNL A   1      54.468  25.170  26.664  1.00  0.00    -0.237 OA
ATOM     87  O   UNL A   1      53.582  24.018  24.675  1.00  0.00    -0.744 OA
ENDBRANCH  83  84
ENDBRANCH  57  78
ENDBRANCH  31  32
ENDBRANCH  24  26
ENDBRANCH  23  24
ENDBRANCH  22  23
ENDBRANCH   1  22
TORSDOF 17
ENDMDL
MODEL 3
REMARK VINA RESULT:     -10.3      1.534      3.144
REMARK SMILES Cc1cccc(C)c1Nc1ccccc1CC(=O)OCCOC(=O)c1ccc(-c2c3nc(c(-c4ccc(S(=O)(=O)[O-])cc4)c4ccc([nH]4)c(-c4ccc(S(=O)(=O)[O-])cc4)c4nc(c(-c5ccc(S(=O)(=O)[O-])cc5)c5ccc2[nH]5)C=C4)C=C3)cc1
REMARK SMILES IDX 20 1 19 2 17 3 18 4 16 5 15 6 10 7 11 8 12 9 14 10 13 11
REMARK SMILES IDX 9 12 8 14 1 15 2 16 3 17 4 18 6 19 5 20 7 21 21 22 22 23
REMARK SMILES IDX 23 24 24 25 25 26 26 27 84 28 27 29 83 30 28 31 29 32 30 33
REMARK SMILES IDX 77 34 31 35 82 36 76 37 78 38 32 39 81 40 75 41 74 42 33 44
REMARK SMILES IDX 63 45 44 46 62 47 45 48 48 49 61 50 79 51 46 52 47 53 60 55
REMARK SMILES IDX 80 56 49 57 34 58 35 59 43 60 36 61 42 62 37 63 38 64 39 65
REMARK SMILES IDX 40 66 41 67 64 68 65 69 73 70 66 71 72 72 67 73 68 74 69 75
REMARK SMILES IDX 70 76 71 77 50 78 51 79 59 80 52 81 58 82 53 83 54 84 55 85
REMARK SMILES IDX 56 86 57 87
REMARK H PARENT 9 13 78 43 48 54
REMARK Flexibility Score: inf
ROOT
ATOM      1  C   UNL A   1      32.519  28.567  25.637  1.00  0.00     0.274 C 
ENDROOT
BRANCH   1   2
ATOM      2  O   UNL A   1      33.771  27.900  25.394  1.00  0.00    -0.462 OA
BRANCH   2   3
ATOM      3  C   UNL A   1      33.716  26.887  24.488  1.00  0.00     0.310 C 
ATOM      4  O   UNL A   1      33.341  27.019  23.326  1.00  0.00    -0.252 OA
BRANCH   3   5
ATOM      5  C   UNL A   1      34.066  25.539  25.058  1.00  0.00     0.160 C 
BRANCH   5   6
ATOM      6  C   UNL A   1      32.975  24.701  25.695  1.00  0.00    -0.013 A 
ATOM      7  C   UNL A   1      33.285  23.514  26.395  1.00  0.00     0.042 A 
ATOM      8  C   UNL A   1      32.238  22.738  26.928  1.00  0.00     0.026 A 
ATOM      9  C   UNL A   1      30.913  23.160  26.844  1.00  0.00     0.002 A 
ATOM     10  C   UNL A   1      31.634  25.129  25.658  1.00  0.00     0.006 A 
ATOM     11  C   UNL A   1      30.614  24.367  26.227  1.00  0.00     0.000 A 
BRANCH   7  12
ATOM     12  N   UNL A   1      34.603  23.114  26.700  1.00  0.00    -0.355 N 
ATOM     13  H   UNL A   1      34.948  23.456  27.556  1.00  0.00     0.167 HD
BRANCH  12  14
ATOM     14  C   UNL A   1      35.511  22.303  25.978  1.00  0.00     0.044 A 
ATOM     15  C   UNL A   1      37.276  24.110  26.341  1.00  0.00     0.046 C 
ATOM     16  C   UNL A   1      36.838  22.771  25.804  1.00  0.00    -0.027 A 
ATOM     17  C   UNL A   1      37.800  21.948  25.196  1.00  0.00     0.005 A 
ATOM     18  C   UNL A   1      37.464  20.673  24.756  1.00  0.00     0.001 A 
ATOM     19  C   UNL A   1      35.168  21.019  25.490  1.00  0.00    -0.027 A 
ATOM     20  C   UNL A   1      36.160  20.213  24.902  1.00  0.00     0.005 A 
ATOM     21  C   UNL A   1      33.778  20.444  25.568  1.00  0.00     0.046 C 
ENDBRANCH  12  14
ENDBRANCH   7  12
ENDBRANCH   5   6
ENDBRANCH   3   5
ENDBRANCH   2   3
ENDBRANCH   1   2
BRANCH   1  22
ATOM     22  C   UNL A   1      32.732  29.869  26.406  1.00  0.00     0.275 C 
BRANCH  22  23
ATOM     23  O   UNL A   1      34.137  30.158  26.521  1.00  0.00    -0.458 OA
BRANCH  23  24
ATOM     24  C   UNL A   1      34.534  30.686  27.700  1.00  0.00     0.338 C 
ATOM     25  O   UNL A   1      33.953  31.523  28.369  1.00  0.00    -0.246 OA
BRANCH  24  26
ATOM     26  C   UNL A   1      35.831  30.111  28.094  1.00  0.00     0.060 A 
ATOM     27  C   UNL A   1      36.048  29.650  29.395  1.00  0.00     0.016 A 
ATOM     28  C   UNL A   1      36.877  30.140  27.171  1.00  0.00     0.016 A 
ATOM     29  C   UNL A   1      37.327  29.244  29.786  1.00  0.00     0.010 A 
ATOM     30  C   UNL A   1      38.142  29.687  27.550  1.00  0.00     0.010 A 
ATOM     31  C   UNL A   1      38.386  29.256  28.866  1.00  0.00    -0.014 A 
BRANCH  31  32
ATOM     32  C   UNL A   1      39.762  28.858  29.259  1.00  0.00     0.031 A 
ATOM     33  C   UNL A   1      40.657  29.848  29.957  1.00  0.00     0.074 A 
ATOM     34  C   UNL A   1      40.229  27.631  28.956  1.00  0.00     0.049 A 
ATOM     35  N   UNL A   1      41.941  29.774  30.199  1.00  0.00    -0.248 NA
ATOM     36  C   UNL A   1      40.024  31.086  30.438  1.00  0.00     0.031 C 
ATOM     37  C   UNL A   1      39.456  26.558  28.326  1.00  0.00     0.029 A 
ATOM     38  N   UNL A   1      41.477  27.087  29.126  1.00  0.00    -0.354 N 
ATOM     39  C   UNL A   1      42.276  30.965  30.833  1.00  0.00     0.074 A 
ATOM     40  C   UNL A   1      41.062  31.749  30.927  1.00  0.00     0.031 C 
ATOM     41  C   UNL A   1      40.247  25.484  28.168  1.00  0.00     0.029 A 
ATOM     42  C   UNL A   1      41.595  25.812  28.623  1.00  0.00     0.049 A 
ATOM     43  H   UNL A   1      42.218  27.563  29.566  1.00  0.00     0.167 HD
ATOM     44  C   UNL A   1      43.485  31.370  31.292  1.00  0.00     0.031 A 
ATOM     45  C   UNL A   1      42.672  25.013  28.503  1.00  0.00     0.031 A 
ATOM     46  C   UNL A   1      44.689  30.588  31.205  1.00  0.00     0.049 A 
ATOM     47  C   UNL A   1      44.017  25.513  28.956  1.00  0.00     0.074 A 
ATOM     48  C   UNL A   1      45.966  30.919  31.629  1.00  0.00     0.029 A 
ATOM     49  N   UNL A   1      44.767  29.313  30.666  1.00  0.00    -0.354 N 
ATOM     50  N   UNL A   1      44.327  26.661  29.508  1.00  0.00    -0.248 NA
ATOM     51  C   UNL A   1      45.160  24.609  28.759  1.00  0.00     0.031 C 
ATOM     52  C   UNL A   1      46.821  29.855  31.319  1.00  0.00     0.029 A 
ATOM     53  C   UNL A   1      46.068  28.846  30.741  1.00  0.00     0.049 A 
ATOM     54  H   UNL A   1      44.008  28.813  30.287  1.00  0.00     0.167 HD
ATOM     55  C   UNL A   1      45.697  26.610  29.742  1.00  0.00     0.074 A 
ATOM     56  C   UNL A   1      46.154  25.313  29.285  1.00  0.00     0.031 C 
ATOM     57  C   UNL A   1      46.505  27.551  30.287  1.00  0.00     0.031 A 
BRANCH  44  58
ATOM     58  C   UNL A   1      43.570  32.739  31.912  1.00  0.00    -0.014 A 
ATOM     59  C   UNL A   1      43.275  32.939  33.272  1.00  0.00     0.010 A 
ATOM     60  C   UNL A   1      43.994  33.831  31.134  1.00  0.00     0.010 A 
ATOM     61  C   UNL A   1      43.371  34.214  33.836  1.00  0.00     0.020 A 
ATOM     62  C   UNL A   1      44.112  35.104  31.699  1.00  0.00     0.020 A 
ATOM     63  C   UNL A   1      43.784  35.291  33.044  1.00  0.00     0.054 A 
BRANCH  63  64
ATOM     64  S   UNL A   1      43.925  36.932  33.804  1.00  0.00     0.124 S 
ATOM     65  O   UNL A   1      42.979  36.831  34.912  1.00  0.00    -0.237 OA
ATOM     66  O   UNL A   1      45.334  36.991  34.185  1.00  0.00    -0.237 OA
ATOM     67  O   UNL A   1      43.535  37.845  32.733  1.00  0.00    -0.744 OA
ENDBRANCH  63  64
ENDBRANCH  44  58
BRANCH  45  68
ATOM     68  C   UNL A   1      42.536  23.665  27.890  1.00  0.00    -0.014 A 
ATOM     69  C   UNL A   1      42.221  22.550  28.685  1.00  0.00     0.010 A 
ATOM     70  C   UNL A   1      42.732  23.488  26.507  1.00  0.00     0.010 A 
ATOM     71  C   UNL A   1      42.124  21.278  28.114  1.00  0.00     0.020 A 
ATOM     72  C   UNL A   1      42.611  22.222  25.929  1.00  0.00     0.020 A 
ATOM     73  C   UNL A   1      42.322  21.122  26.739  1.00  0.00     0.054 A 
BRANCH  73  74
ATOM     74  S   UNL A   1      42.155  19.471  26.007  1.00  0.00     0.124 S 
ATOM     75  O   UNL A   1      42.668  18.615  27.072  1.00  0.00    -0.237 OA
ATOM     76  O   UNL A   1      40.719  19.376  25.756  1.00  0.00    -0.237 OA
ATOM     77  O   UNL A   1      42.985  19.546  24.806  1.00  0.00    -0.744 OA
ENDBRANCH  73  74
ENDBRANCH  45  68
BRANCH  57  78
ATOM     78  C   UNL A   1      47.957  27.199  30.455  1.00  0.00    -0.014 A 
ATOM     79  C   UNL A   1      48.914  27.580  29.499  1.00  0.00     0.010 A 
ATOM     80  C   UNL A   1      48.373  26.512  31.610  1.00  0.00     0.010 A 
ATOM     81  C   UNL A   1      50.260  27.253  29.679  1.00  0.00     0.020 A 
ATOM     82  C   UNL A   1      49.722  26.201  31.803  1.00  0.00     0.020 A 
ATOM     83  C   UNL A   1      50.655  26.562  30.829  1.00  0.00     0.054 A 
BRANCH  83  84
ATOM     84  S   UNL A   1      52.414  26.181  31.064  1.00  0.00     0.124 S 
ATOM     85  O   UNL A   1      52.897  26.119  29.687  1.00  0.00    -0.237 OA
ATOM     86  O   UNL A   1      52.890  27.319  31.846  1.00  0.00    -0.237 OA
ATOM     87  O   UNL A   1      52.398  24.906  31.778  1.00  0.00    -0.744 OA
ENDBRANCH  83  84
ENDBRANCH  57  78
ENDBRANCH  31  32
ENDBRANCH  24  26
ENDBRANCH  23  24
ENDBRANCH  22  23
ENDBRANCH   1  22
TORSDOF 17
ENDMDL
