MODEL 1
REMARK VINA RESULT:     -12.5      0.000      0.000
REMARK SMILES Cc1ccc(C(=O)[C@@H](C)[C@H](C)C(=O)OCCOC(=O)c2ccc(-c3c4nc(c(-c5ccc(S(=O)(=O)[O-])cc5)c5ccc([nH]5)c(-c5ccc(S(=O)(=O)[O-])cc5)c5nc(c(-c6ccc(S(=O)(=O)[O-])cc6)c6ccc3[nH]6)C=C5)C=C4)cc2)cc1
REMARK SMILES IDX 15 1 14 2 12 3 13 4 10 5 11 6 8 7 9 8 6 9 7 10 5 11 1 12
REMARK SMILES IDX 2 13 3 14 81 15 4 16 80 17 16 18 17 19 18 20 19 21 20 22
REMARK SMILES IDX 21 23 79 24 22 25 78 26 23 27 24 28 25 29 72 30 26 31 77 32
REMARK SMILES IDX 71 33 73 34 27 35 76 36 70 37 69 38 28 40 58 41 39 42 57 43
REMARK SMILES IDX 40 44 43 45 56 46 74 47 41 48 42 49 55 51 75 52 44 53 29 54
REMARK SMILES IDX 30 55 38 56 31 57 37 58 32 59 33 60 34 61 35 62 36 63 59 64
REMARK SMILES IDX 60 65 68 66 61 67 67 68 62 69 63 70 64 71 65 72 66 73 45 74
REMARK SMILES IDX 46 75 54 76 47 77 53 78 48 79 49 80 50 81 51 82 52 83
REMARK H PARENT 73 39 43 50
REMARK Flexibility Score: inf
ROOT
ATOM      1  C   UNL A   1      38.485  21.059  25.416  1.00  0.00     0.274 C 
ENDROOT
BRANCH   1   2
ATOM      2  O   UNL A   1      37.986  22.375  25.283  1.00  0.00    -0.462 OA
BRANCH   2   3
ATOM      3  C   UNL A   1      36.746  22.768  25.802  1.00  0.00     0.309 C 
ATOM      4  O   UNL A   1      36.985  23.991  25.880  1.00  0.00    -0.252 OA
BRANCH   3   5
ATOM      5  C   UNL A   1      34.907  21.573  25.977  1.00  0.00     0.106 C 
ATOM      6  C   UNL A   1      33.549  21.744  27.110  1.00  0.00     0.021 C 
BRANCH   5   7
ATOM      7  C   UNL A   1      33.902  20.501  24.864  1.00  0.00     0.072 C 
ATOM      8  C   UNL A   1      34.080  18.969  24.674  1.00  0.00     0.017 C 
BRANCH   7   9
ATOM      9  C   UNL A   1      32.900  20.992  23.732  1.00  0.00     0.166 C 
ATOM     10  O   UNL A   1      32.297  20.154  23.047  1.00  0.00    -0.294 OA
BRANCH   9  11
ATOM     11  C   UNL A   1      32.530  22.402  23.453  1.00  0.00     0.018 A 
ATOM     12  C   UNL A   1      31.853  26.615  22.838  1.00  0.00     0.044 C 
ATOM     13  C   UNL A   1      32.040  25.144  23.042  1.00  0.00    -0.051 A 
ATOM     14  C   UNL A   1      31.308  24.428  23.997  1.00  0.00     0.004 A 
ATOM     15  C   UNL A   1      32.921  24.453  22.222  1.00  0.00     0.004 A 
ATOM     16  C   UNL A   1      31.563  23.066  24.214  1.00  0.00     0.012 A 
ATOM     17  C   UNL A   1      33.102  23.092  22.411  1.00  0.00     0.012 A 
ENDBRANCH   9  11
ENDBRANCH   7   9
ENDBRANCH   5   7
ENDBRANCH   3   5
ENDBRANCH   2   3
ENDBRANCH   1   2
BRANCH   1  18
ATOM     18  C   UNL A   1      39.741  21.313  26.241  1.00  0.00     0.275 C 
BRANCH  18  19
ATOM     19  O   UNL A   1      40.350  22.679  26.203  1.00  0.00    -0.458 OA
BRANCH  19  20
ATOM     20  C   UNL A   1      40.700  23.493  27.271  1.00  0.00     0.338 C 
ATOM     21  O   UNL A   1      41.619  23.227  28.031  1.00  0.00    -0.246 OA
BRANCH  20  22
ATOM     22  C   UNL A   1      40.175  24.892  27.169  1.00  0.00     0.060 A 
ATOM     23  C   UNL A   1      40.845  26.211  26.114  1.00  0.00     0.016 A 
ATOM     24  C   UNL A   1      39.285  25.349  28.669  1.00  0.00     0.016 A 
ATOM     25  C   UNL A   1      40.575  27.972  26.583  1.00  0.00     0.010 A 
ATOM     26  C   UNL A   1      39.154  27.030  29.162  1.00  0.00     0.010 A 
ATOM     27  C   UNL A   1      39.755  28.368  28.166  1.00  0.00    -0.014 A 
BRANCH  27  28
ATOM     28  C   UNL A   1      39.946  29.549  29.077  1.00  0.00     0.031 A 
ATOM     29  C   UNL A   1      38.851  30.532  29.229  1.00  0.00     0.074 A 
ATOM     30  C   UNL A   1      40.975  29.680  29.950  1.00  0.00     0.049 A 
ATOM     31  N   UNL A   1      38.972  31.793  28.968  1.00  0.00    -0.248 NA
ATOM     32  C   UNL A   1      37.490  30.149  29.612  1.00  0.00     0.031 C 
ATOM     33  C   UNL A   1      41.150  30.646  31.031  1.00  0.00     0.029 A 
ATOM     34  N   UNL A   1      42.187  29.012  29.965  1.00  0.00    -0.354 N 
ATOM     35  C   UNL A   1      37.786  32.368  29.381  1.00  0.00     0.074 A 
ATOM     36  C   UNL A   1      36.828  31.301  29.512  1.00  0.00     0.031 C 
ATOM     37  C   UNL A   1      42.464  30.716  31.330  1.00  0.00     0.029 A 
ATOM     38  C   UNL A   1      43.181  29.867  30.387  1.00  0.00     0.049 A 
ATOM     39  H   UNL A   1      42.319  28.070  29.712  1.00  0.00     0.167 HD
ATOM     40  C   UNL A   1      37.737  33.575  30.004  1.00  0.00     0.031 A 
ATOM     41  C   UNL A   1      44.216  30.199  29.560  1.00  0.00     0.031 A 
ATOM     42  C   UNL A   1      39.065  33.988  30.426  1.00  0.00     0.049 A 
ATOM     43  C   UNL A   1      44.149  31.671  29.207  1.00  0.00     0.074 A 
ATOM     44  C   UNL A   1      39.709  33.909  31.651  1.00  0.00     0.029 A 
ATOM     45  N   UNL A   1      40.053  34.209  29.485  1.00  0.00    -0.354 N 
ATOM     46  N   UNL A   1      43.141  32.441  29.511  1.00  0.00    -0.248 NA
ATOM     47  C   UNL A   1      45.169  32.388  28.449  1.00  0.00     0.031 C 
ATOM     48  C   UNL A   1      41.095  34.124  31.438  1.00  0.00     0.029 A 
ATOM     49  C   UNL A   1      41.288  34.350  30.089  1.00  0.00     0.049 A 
ATOM     50  H   UNL A   1      39.898  34.260  28.514  1.00  0.00     0.167 HD
ATOM     51  C   UNL A   1      43.348  33.709  29.045  1.00  0.00     0.074 A 
ATOM     52  C   UNL A   1      44.621  33.615  28.353  1.00  0.00     0.031 C 
ATOM     53  C   UNL A   1      42.441  34.706  29.276  1.00  0.00     0.031 A 
BRANCH  40  54
ATOM     54  C   UNL A   1      36.446  34.097  30.587  1.00  0.00    -0.014 A 
ATOM     55  C   UNL A   1      35.343  34.358  29.757  1.00  0.00     0.010 A 
ATOM     56  C   UNL A   1      36.279  34.344  31.969  1.00  0.00     0.010 A 
ATOM     57  C   UNL A   1      34.165  34.925  30.257  1.00  0.00     0.020 A 
ATOM     58  C   UNL A   1      35.114  34.940  32.478  1.00  0.00     0.020 A 
ATOM     59  C   UNL A   1      34.064  35.232  31.612  1.00  0.00     0.054 A 
BRANCH  59  60
ATOM     60  S   UNL A   1      32.541  36.012  32.212  1.00  0.00     0.124 S 
ATOM     61  O   UNL A   1      32.071  36.733  31.030  1.00  0.00    -0.237 OA
ATOM     62  O   UNL A   1      31.736  34.859  32.607  1.00  0.00    -0.237 OA
ATOM     63  O   UNL A   1      32.995  36.862  33.309  1.00  0.00    -0.744 OA
ENDBRANCH  59  60
ENDBRANCH  40  54
BRANCH  41  64
ATOM     64  C   UNL A   1      44.684  29.083  28.667  1.00  0.00    -0.014 A 
ATOM     65  C   UNL A   1      44.084  28.982  27.388  1.00  0.00     0.010 A 
ATOM     66  C   UNL A   1      45.889  28.389  28.879  1.00  0.00     0.010 A 
ATOM     67  C   UNL A   1      44.732  28.344  26.321  1.00  0.00     0.020 A 
ATOM     68  C   UNL A   1      46.533  27.725  27.811  1.00  0.00     0.020 A 
ATOM     69  C   UNL A   1      45.979  27.759  26.527  1.00  0.00     0.054 A 
BRANCH  69  70
ATOM     70  S   UNL A   1      46.903  27.169  25.071  1.00  0.00     0.124 S 
ATOM     71  O   UNL A   1      46.048  26.100  24.564  1.00  0.00    -0.237 OA
ATOM     72  O   UNL A   1      46.974  28.362  24.232  1.00  0.00    -0.237 OA
ATOM     73  O   UNL A   1      48.179  26.732  25.632  1.00  0.00    -0.744 OA
ENDBRANCH  69  70
ENDBRANCH  41  64
BRANCH  53  74
ATOM     74  C   UNL A   1      42.521  36.133  28.787  1.00  0.00    -0.014 A 
ATOM     75  C   UNL A   1      43.148  37.173  29.478  1.00  0.00     0.010 A 
ATOM     76  C   UNL A   1      41.853  36.486  27.584  1.00  0.00     0.010 A 
ATOM     77  C   UNL A   1      43.198  38.469  28.945  1.00  0.00     0.020 A 
ATOM     78  C   UNL A   1      41.880  37.772  27.050  1.00  0.00     0.020 A 
ATOM     79  C   UNL A   1      42.580  38.755  27.726  1.00  0.00     0.054 A 
BRANCH  79  80
ATOM     80  S   UNL A   1      42.675  40.428  27.056  1.00  0.00     0.124 S 
ATOM     81  O   UNL A   1      43.533  41.105  28.025  1.00  0.00    -0.237 OA
ATOM     82  O   UNL A   1      43.271  40.195  25.743  1.00  0.00    -0.237 OA
ATOM     83  O   UNL A   1      41.285  40.880  27.036  1.00  0.00    -0.744 OA
ENDBRANCH  79  80
ENDBRANCH  53  74
ENDBRANCH  27  28
ENDBRANCH  20  22
ENDBRANCH  19  20
ENDBRANCH  18  19
ENDBRANCH   1  18
TORSDOF 17
ENDMDL
MODEL 2
REMARK VINA RESULT:     -12.5      1.615      2.241
REMARK SMILES Cc1ccc(C(=O)[C@@H](C)[C@H](C)C(=O)OCCOC(=O)c2ccc(-c3c4nc(c(-c5ccc(S(=O)(=O)[O-])cc5)c5ccc([nH]5)c(-c5ccc(S(=O)(=O)[O-])cc5)c5nc(c(-c6ccc(S(=O)(=O)[O-])cc6)c6ccc3[nH]6)C=C5)C=C4)cc2)cc1
REMARK SMILES IDX 15 1 14 2 12 3 13 4 10 5 11 6 8 7 9 8 6 9 7 10 5 11 1 12
REMARK SMILES IDX 2 13 3 14 81 15 4 16 80 17 16 18 17 19 18 20 19 21 20 22
REMARK SMILES IDX 21 23 79 24 22 25 78 26 23 27 24 28 25 29 72 30 26 31 77 32
REMARK SMILES IDX 71 33 73 34 27 35 76 36 70 37 69 38 28 40 58 41 39 42 57 43
REMARK SMILES IDX 40 44 43 45 56 46 74 47 41 48 42 49 55 51 75 52 44 53 29 54
REMARK SMILES IDX 30 55 38 56 31 57 37 58 32 59 33 60 34 61 35 62 36 63 59 64
REMARK SMILES IDX 60 65 68 66 61 67 67 68 62 69 63 70 64 71 65 72 66 73 45 74
REMARK SMILES IDX 46 75 54 76 47 77 53 78 48 79 49 80 50 81 51 82 52 83
REMARK H PARENT 73 39 43 50
REMARK Flexibility Score: inf
ROOT
ATOM      1  C   UNL A   1      37.670  21.472  25.280  1.00  0.00     0.274 C 
ENDROOT
BRANCH   1   2
ATOM      2  O   UNL A   1      37.209  22.091  24.095  1.00  0.00    -0.462 OA
BRANCH   2   3
ATOM      3  C   UNL A   1      35.996  22.788  24.031  1.00  0.00     0.309 C 
ATOM      4  O   UNL A   1      36.093  23.170  22.846  1.00  0.00    -0.252 OA
BRANCH   3   5
ATOM      5  C   UNL A   1      34.344  22.775  25.485  1.00  0.00     0.106 C 
ATOM      6  C   UNL A   1      34.399  22.837  27.260  1.00  0.00     0.021 C 
BRANCH   5   7
ATOM      7  C   UNL A   1      32.558  23.228  25.478  1.00  0.00     0.072 C 
ATOM      8  C   UNL A   1      31.369  22.237  25.615  1.00  0.00     0.017 C 
BRANCH   7   9
ATOM      9  C   UNL A   1      31.942  24.632  25.060  1.00  0.00     0.166 C 
ATOM     10  O   UNL A   1      30.980  24.668  24.280  1.00  0.00    -0.294 OA
BRANCH   9  11
ATOM     11  C   UNL A   1      32.357  25.955  25.592  1.00  0.00     0.018 A 
ATOM     12  C   UNL A   1      33.834  29.567  27.425  1.00  0.00     0.044 C 
ATOM     13  C   UNL A   1      33.284  28.339  26.768  1.00  0.00    -0.051 A 
ATOM     14  C   UNL A   1      31.977  27.895  27.001  1.00  0.00     0.004 A 
ATOM     15  C   UNL A   1      34.070  27.649  25.855  1.00  0.00     0.004 A 
ATOM     16  C   UNL A   1      31.519  26.699  26.429  1.00  0.00     0.012 A 
ATOM     17  C   UNL A   1      33.566  26.509  25.249  1.00  0.00     0.012 A 
ENDBRANCH   9  11
ENDBRANCH   7   9
ENDBRANCH   5   7
ENDBRANCH   3   5
ENDBRANCH   2   3
ENDBRANCH   1   2
BRANCH   1  18
ATOM     18  C   UNL A   1      38.349  22.648  25.971  1.00  0.00     0.275 C 
BRANCH  18  19
ATOM     19  O   UNL A   1      39.633  22.399  26.698  1.00  0.00    -0.458 OA
BRANCH  19  20
ATOM     20  C   UNL A   1      40.459  23.324  27.320  1.00  0.00     0.338 C 
ATOM     21  O   UNL A   1      41.620  23.081  27.614  1.00  0.00    -0.246 OA
BRANCH  20  22
ATOM     22  C   UNL A   1      39.980  24.740  27.214  1.00  0.00     0.060 A 
ATOM     23  C   UNL A   1      40.702  26.037  26.168  1.00  0.00     0.016 A 
ATOM     24  C   UNL A   1      39.088  25.223  28.705  1.00  0.00     0.016 A 
ATOM     25  C   UNL A   1      40.483  27.805  26.635  1.00  0.00     0.010 A 
ATOM     26  C   UNL A   1      39.005  26.908  29.198  1.00  0.00     0.010 A 
ATOM     27  C   UNL A   1      39.659  28.226  28.209  1.00  0.00    -0.014 A 
BRANCH  27  28
ATOM     28  C   UNL A   1      39.877  29.400  29.124  1.00  0.00     0.031 A 
ATOM     29  C   UNL A   1      38.806  30.410  29.274  1.00  0.00     0.074 A 
ATOM     30  C   UNL A   1      40.907  29.503  30.000  1.00  0.00     0.049 A 
ATOM     31  N   UNL A   1      38.960  31.669  29.017  1.00  0.00    -0.248 NA
ATOM     32  C   UNL A   1      37.435  30.061  29.653  1.00  0.00     0.031 C 
ATOM     33  C   UNL A   1      41.103  30.462  31.084  1.00  0.00     0.029 A 
ATOM     34  N   UNL A   1      42.101  28.805  30.017  1.00  0.00    -0.354 N 
ATOM     35  C   UNL A   1      37.788  32.272  29.427  1.00  0.00     0.074 A 
ATOM     36  C   UNL A   1      36.803  31.229  29.553  1.00  0.00     0.031 C 
ATOM     37  C   UNL A   1      42.417  30.498  31.387  1.00  0.00     0.029 A 
ATOM     38  C   UNL A   1      43.115  29.633  30.444  1.00  0.00     0.049 A 
ATOM     39  H   UNL A   1      42.209  27.860  29.762  1.00  0.00     0.167 HD
ATOM     40  C   UNL A   1      37.767  33.479  30.053  1.00  0.00     0.031 A 
ATOM     41  C   UNL A   1      44.160  29.941  29.621  1.00  0.00     0.031 A 
ATOM     42  C   UNL A   1      39.105  33.858  30.480  1.00  0.00     0.049 A 
ATOM     43  C   UNL A   1      44.132  31.415  29.271  1.00  0.00     0.074 A 
ATOM     44  C   UNL A   1      39.743  33.759  31.706  1.00  0.00     0.029 A 
ATOM     45  N   UNL A   1      40.101  34.055  29.543  1.00  0.00    -0.354 N 
ATOM     46  N   UNL A   1      43.142  32.210  29.573  1.00  0.00    -0.248 NA
ATOM     47  C   UNL A   1      45.172  32.107  28.517  1.00  0.00     0.031 C 
ATOM     48  C   UNL A   1      41.134  33.940  31.498  1.00  0.00     0.029 A 
ATOM     49  C   UNL A   1      41.336  34.163  30.151  1.00  0.00     0.049 A 
ATOM     50  H   UNL A   1      39.950  34.112  28.571  1.00  0.00     0.167 HD
ATOM     51  C   UNL A   1      43.382  33.473  29.111  1.00  0.00     0.074 A 
ATOM     52  C   UNL A   1      44.655  33.348  28.422  1.00  0.00     0.031 C 
ATOM     53  C   UNL A   1      42.501  34.492  29.342  1.00  0.00     0.031 A 
BRANCH  40  54
ATOM     54  C   UNL A   1      36.488  34.032  30.634  1.00  0.00    -0.014 A 
ATOM     55  C   UNL A   1      35.377  34.274  29.809  1.00  0.00     0.010 A 
ATOM     56  C   UNL A   1      36.341  34.328  32.009  1.00  0.00     0.010 A 
ATOM     57  C   UNL A   1      34.210  34.867  30.304  1.00  0.00     0.020 A 
ATOM     58  C   UNL A   1      35.187  34.952  32.510  1.00  0.00     0.020 A 
ATOM     59  C   UNL A   1      34.129  35.222  31.648  1.00  0.00     0.054 A 
BRANCH  59  60
ATOM     60  S   UNL A   1      32.620  36.036  32.239  1.00  0.00     0.124 S 
ATOM     61  O   UNL A   1      31.788  34.902  32.639  1.00  0.00    -0.237 OA
ATOM     62  O   UNL A   1      33.122  36.864  33.331  1.00  0.00    -0.237 OA
ATOM     63  O   UNL A   1      32.139  36.768  31.070  1.00  0.00    -0.744 OA
ENDBRANCH  59  60
ENDBRANCH  40  54
BRANCH  41  64
ATOM     64  C   UNL A   1      44.602  28.815  28.727  1.00  0.00    -0.014 A 
ATOM     65  C   UNL A   1      45.727  28.060  29.143  1.00  0.00     0.010 A 
ATOM     66  C   UNL A   1      43.777  28.260  27.732  1.00  0.00     0.010 A 
ATOM     67  C   UNL A   1      45.935  26.747  28.699  1.00  0.00     0.020 A 
ATOM     68  C   UNL A   1      43.999  26.945  27.265  1.00  0.00     0.020 A 
ATOM     69  C   UNL A   1      45.041  26.178  27.797  1.00  0.00     0.054 A 
BRANCH  69  70
ATOM     70  S   UNL A   1      45.194  24.397  27.441  1.00  0.00     0.124 S 
ATOM     71  O   UNL A   1      44.654  23.783  28.651  1.00  0.00    -0.237 OA
ATOM     72  O   UNL A   1      44.374  24.239  26.243  1.00  0.00    -0.237 OA
ATOM     73  O   UNL A   1      46.629  24.213  27.237  1.00  0.00    -0.744 OA
ENDBRANCH  69  70
ENDBRANCH  41  64
BRANCH  53  74
ATOM     74  C   UNL A   1      42.618  35.918  28.855  1.00  0.00    -0.014 A 
ATOM     75  C   UNL A   1      43.309  36.929  29.529  1.00  0.00     0.010 A 
ATOM     76  C   UNL A   1      41.923  36.303  27.678  1.00  0.00     0.010 A 
ATOM     77  C   UNL A   1      43.390  38.225  29.000  1.00  0.00     0.020 A 
ATOM     78  C   UNL A   1      41.980  37.589  27.150  1.00  0.00     0.020 A 
ATOM     79  C   UNL A   1      42.741  38.541  27.804  1.00  0.00     0.054 A 
BRANCH  79  80
ATOM     80  S   UNL A   1      42.876  40.213  27.137  1.00  0.00     0.124 S 
ATOM     81  O   UNL A   1      43.552  39.986  25.862  1.00  0.00    -0.237 OA
ATOM     82  O   UNL A   1      41.475  40.615  27.044  1.00  0.00    -0.237 OA
ATOM     83  O   UNL A   1      43.663  40.930  28.138  1.00  0.00    -0.744 OA
ENDBRANCH  79  80
ENDBRANCH  53  74
ENDBRANCH  27  28
ENDBRANCH  20  22
ENDBRANCH  19  20
ENDBRANCH  18  19
ENDBRANCH   1  18
TORSDOF 17
ENDMDL
MODEL 3
REMARK VINA RESULT:     -11.8      1.085      2.323
REMARK SMILES Cc1ccc(C(=O)[C@@H](C)[C@H](C)C(=O)OCCOC(=O)c2ccc(-c3c4nc(c(-c5ccc(S(=O)(=O)[O-])cc5)c5ccc([nH]5)c(-c5ccc(S(=O)(=O)[O-])cc5)c5nc(c(-c6ccc(S(=O)(=O)[O-])cc6)c6ccc3[nH]6)C=C5)C=C4)cc2)cc1
REMARK SMILES IDX 15 1 14 2 12 3 13 4 10 5 11 6 8 7 9 8 6 9 7 10 5 11 1 12
REMARK SMILES IDX 2 13 3 14 81 15 4 16 80 17 16 18 17 19 18 20 19 21 20 22
REMARK SMILES IDX 21 23 79 24 22 25 78 26 23 27 24 28 25 29 72 30 26 31 77 32
REMARK SMILES IDX 71 33 73 34 27 35 76 36 70 37 69 38 28 40 58 41 39 42 57 43
REMARK SMILES IDX 40 44 43 45 56 46 74 47 41 48 42 49 55 51 75 52 44 53 29 54
REMARK SMILES IDX 30 55 38 56 31 57 37 58 32 59 33 60 34 61 35 62 36 63 59 64
REMARK SMILES IDX 60 65 68 66 61 67 67 68 62 69 63 70 64 71 65 72 66 73 45 74
REMARK SMILES IDX 46 75 54 76 47 77 53 78 48 79 49 80 50 81 51 82 52 83
REMARK H PARENT 73 39 43 50
REMARK Flexibility Score: inf
ROOT
ATOM      1  C   UNL A   1      38.053  21.393  25.805  1.00  0.00     0.274 C 
ENDROOT
BRANCH   1   2
ATOM      2  O   UNL A   1      37.921  22.664  25.200  1.00  0.00    -0.462 OA
BRANCH   2   3
ATOM      3  C   UNL A   1      36.825  23.503  25.438  1.00  0.00     0.309 C 
ATOM      4  O   UNL A   1      37.457  24.455  25.940  1.00  0.00    -0.252 OA
BRANCH   3   5
ATOM      5  C   UNL A   1      34.758  23.272  24.719  1.00  0.00     0.106 C 
ATOM      6  C   UNL A   1      34.161  22.932  23.080  1.00  0.00     0.021 C 
BRANCH   5   7
ATOM      7  C   UNL A   1      33.133  22.808  25.455  1.00  0.00     0.072 C 
ATOM      8  C   UNL A   1      32.441  23.521  26.650  1.00  0.00     0.017 C 
BRANCH   7   9
ATOM      9  C   UNL A   1      32.323  21.468  25.186  1.00  0.00     0.166 C 
ATOM     10  O   UNL A   1      31.103  21.440  25.399  1.00  0.00    -0.294 OA
BRANCH   9  11
ATOM     11  C   UNL A   1      32.878  20.220  24.603  1.00  0.00     0.018 A 
ATOM     12  C   UNL A   1      34.179  16.372  23.158  1.00  0.00     0.044 C 
ATOM     13  C   UNL A   1      33.769  17.728  23.641  1.00  0.00    -0.051 A 
ATOM     14  C   UNL A   1      34.554  18.465  24.537  1.00  0.00     0.004 A 
ATOM     15  C   UNL A   1      32.607  18.302  23.147  1.00  0.00     0.004 A 
ATOM     16  C   UNL A   1      34.104  19.699  25.029  1.00  0.00     0.012 A 
ATOM     17  C   UNL A   1      32.221  19.555  23.596  1.00  0.00     0.012 A 
ENDBRANCH   9  11
ENDBRANCH   7   9
ENDBRANCH   5   7
ENDBRANCH   3   5
ENDBRANCH   2   3
ENDBRANCH   1   2
BRANCH   1  18
ATOM     18  C   UNL A   1      39.547  21.374  26.105  1.00  0.00     0.275 C 
BRANCH  18  19
ATOM     19  O   UNL A   1      40.285  22.676  26.111  1.00  0.00    -0.458 OA
BRANCH  19  20
ATOM     20  C   UNL A   1      40.655  23.446  27.204  1.00  0.00     0.338 C 
ATOM     21  O   UNL A   1      41.583  23.147  27.941  1.00  0.00    -0.246 OA
BRANCH  20  22
ATOM     22  C   UNL A   1      40.137  24.852  27.163  1.00  0.00     0.060 A 
ATOM     23  C   UNL A   1      40.807  26.209  26.159  1.00  0.00     0.016 A 
ATOM     24  C   UNL A   1      39.259  25.252  28.687  1.00  0.00     0.016 A 
ATOM     25  C   UNL A   1      40.550  27.950  26.701  1.00  0.00     0.010 A 
ATOM     26  C   UNL A   1      39.141  26.912  29.249  1.00  0.00     0.010 A 
ATOM     27  C   UNL A   1      39.742  28.286  28.304  1.00  0.00    -0.014 A 
BRANCH  27  28
ATOM     28  C   UNL A   1      39.946  29.428  29.262  1.00  0.00     0.031 A 
ATOM     29  C   UNL A   1      38.880  30.441  29.417  1.00  0.00     0.074 A 
ATOM     30  C   UNL A   1      40.953  29.494  30.167  1.00  0.00     0.049 A 
ATOM     31  N   UNL A   1      39.049  31.707  29.205  1.00  0.00    -0.248 NA
ATOM     32  C   UNL A   1      37.496  30.092  29.748  1.00  0.00     0.031 C 
ATOM     33  C   UNL A   1      41.128  30.415  31.286  1.00  0.00     0.029 A 
ATOM     34  N   UNL A   1      42.141  28.784  30.192  1.00  0.00    -0.354 N 
ATOM     35  C   UNL A   1      37.872  32.306  29.604  1.00  0.00     0.074 A 
ATOM     36  C   UNL A   1      36.876  31.269  29.670  1.00  0.00     0.031 C 
ATOM     37  C   UNL A   1      42.434  30.430  31.624  1.00  0.00     0.029 A 
ATOM     38  C   UNL A   1      43.150  29.590  30.672  1.00  0.00     0.049 A 
ATOM     39  H   UNL A   1      42.248  27.848  29.910  1.00  0.00     0.167 HD
ATOM     40  C   UNL A   1      37.844  33.492  30.268  1.00  0.00     0.031 A 
ATOM     41  C   UNL A   1      44.219  29.915  29.887  1.00  0.00     0.031 A 
ATOM     42  C   UNL A   1      39.173  33.846  30.741  1.00  0.00     0.049 A 
ATOM     43  C   UNL A   1      44.211  31.400  29.585  1.00  0.00     0.074 A 
ATOM     44  C   UNL A   1      39.778  33.702  31.980  1.00  0.00     0.029 A 
ATOM     45  N   UNL A   1      40.195  34.065  29.837  1.00  0.00    -0.354 N 
ATOM     46  N   UNL A   1      43.220  32.193  29.886  1.00  0.00    -0.248 NA
ATOM     47  C   UNL A   1      45.276  32.107  28.881  1.00  0.00     0.031 C 
ATOM     48  C   UNL A   1      41.176  33.877  31.814  1.00  0.00     0.029 A 
ATOM     49  C   UNL A   1      41.415  34.142  30.480  1.00  0.00     0.049 A 
ATOM     50  H   UNL A   1      40.070  34.154  28.864  1.00  0.00     0.167 HD
ATOM     51  C   UNL A   1      43.482  33.468  29.472  1.00  0.00     0.074 A 
ATOM     52  C   UNL A   1      44.772  33.355  28.812  1.00  0.00     0.031 C 
ATOM     53  C   UNL A   1      42.603  34.487  29.713  1.00  0.00     0.031 A 
BRANCH  40  54
ATOM     54  C   UNL A   1      36.555  34.038  30.833  1.00  0.00    -0.014 A 
ATOM     55  C   UNL A   1      35.398  34.096  30.039  1.00  0.00     0.010 A 
ATOM     56  C   UNL A   1      36.444  34.506  32.163  1.00  0.00     0.010 A 
ATOM     57  C   UNL A   1      34.214  34.677  30.508  1.00  0.00     0.020 A 
ATOM     58  C   UNL A   1      35.271  35.118  32.634  1.00  0.00     0.020 A 
ATOM     59  C   UNL A   1      34.163  35.204  31.796  1.00  0.00     0.054 A 
BRANCH  59  60
ATOM     60  S   UNL A   1      32.627  35.994  32.349  1.00  0.00     0.124 S 
ATOM     61  O   UNL A   1      33.078  36.799  33.483  1.00  0.00    -0.237 OA
ATOM     62  O   UNL A   1      32.221  36.746  31.165  1.00  0.00    -0.237 OA
ATOM     63  O   UNL A   1      31.764  34.868  32.700  1.00  0.00    -0.744 OA
ENDBRANCH  59  60
ENDBRANCH  40  54
BRANCH  41  64
ATOM     64  C   UNL A   1      44.675  28.814  28.969  1.00  0.00    -0.014 A 
ATOM     65  C   UNL A   1      44.305  28.913  27.605  1.00  0.00     0.010 A 
ATOM     66  C   UNL A   1      45.713  27.924  29.299  1.00  0.00     0.010 A 
ATOM     67  C   UNL A   1      45.036  28.270  26.596  1.00  0.00     0.020 A 
ATOM     68  C   UNL A   1      46.436  27.256  28.286  1.00  0.00     0.020 A 
ATOM     69  C   UNL A   1      46.130  27.481  26.940  1.00  0.00     0.054 A 
BRANCH  69  70
ATOM     70  S   UNL A   1      47.205  26.872  25.600  1.00  0.00     0.124 S 
ATOM     71  O   UNL A   1      46.282  26.766  24.475  1.00  0.00    -0.237 OA
ATOM     72  O   UNL A   1      48.206  27.929  25.488  1.00  0.00    -0.237 OA
ATOM     73  O   UNL A   1      47.706  25.600  26.117  1.00  0.00    -0.744 OA
ENDBRANCH  69  70
ENDBRANCH  41  64
BRANCH  53  74
ATOM     74  C   UNL A   1      42.744  35.926  29.276  1.00  0.00    -0.014 A 
ATOM     75  C   UNL A   1      41.882  36.571  28.385  1.00  0.00     0.010 A 
ATOM     76  C   UNL A   1      43.865  36.675  29.725  1.00  0.00     0.010 A 
ATOM     77  C   UNL A   1      42.068  37.919  28.046  1.00  0.00     0.020 A 
ATOM     78  C   UNL A   1      44.071  38.009  29.384  1.00  0.00     0.020 A 
ATOM     79  C   UNL A   1      43.150  38.634  28.563  1.00  0.00     0.054 A 
BRANCH  79  80
ATOM     80  S   UNL A   1      43.356  40.372  28.124  1.00  0.00     0.124 S 
ATOM     81  O   UNL A   1      44.586  40.351  27.335  1.00  0.00    -0.237 OA
ATOM     82  O   UNL A   1      42.132  40.641  27.373  1.00  0.00    -0.237 OA
ATOM     83  O   UNL A   1      43.457  41.053  29.412  1.00  0.00    -0.744 OA
ENDBRANCH  79  80
ENDBRANCH  53  74
ENDBRANCH  27  28
ENDBRANCH  20  22
ENDBRANCH  19  20
ENDBRANCH  18  19
ENDBRANCH   1  18
TORSDOF 17
ENDMDL
