MODEL 1
REMARK VINA RESULT:     -11.2      0.000      0.000
REMARK SMILES COc1cccc(NC(=O)[C@@H]2[C@@H](C(=O)OCCOC(=O)c3ccc(-c4c5nc(c(-c6ccc(S(=O)(=O)[O-])cc6)c6ccc([nH]6)c(-c6ccc(S(=O)(=O)[O-])cc6)c6nc(c(-c7ccc(S(=O)(=O)[O-])cc7)c7ccc4[nH]7)C=C6)C=C5)cc3)[C@H]3C=C[C@@H]2C3)c1
REMARK SMILES IDX 16 1 15 2 13 3 14 4 12 5 11 6 84 7 81 8 83 9 85 10 82 11
REMARK SMILES IDX 9 12 8 13 10 15 7 16 3 17 4 18 86 19 5 20 6 21 2 22 1 23
REMARK SMILES IDX 17 24 18 25 19 26 20 27 21 28 22 29 80 30 23 31 79 32 24 33
REMARK SMILES IDX 25 34 26 35 73 36 27 37 78 38 72 39 74 40 28 41 77 42 71 43
REMARK SMILES IDX 70 44 29 46 59 47 40 48 58 49 41 50 44 51 57 52 75 53 42 54
REMARK SMILES IDX 43 55 56 57 76 58 45 59 30 60 31 61 39 62 32 63 38 64 33 65
REMARK SMILES IDX 34 66 35 67 36 68 37 69 60 70 61 71 69 72 62 73 68 74 63 75
REMARK SMILES IDX 64 76 65 77 66 78 67 79 46 80 47 81 55 82 48 83 54 84 49 85
REMARK SMILES IDX 50 86 51 87 52 88 53 89
REMARK H PARENT 8 14 74 45 44 56
REMARK Flexibility Score: inf
ROOT
ATOM      1  C   UNL A   1      33.867  31.535  27.298  1.00  0.00     0.274 C 
ENDROOT
BRANCH   1   2
ATOM      2  O   UNL A   1      33.284  30.238  27.012  1.00  0.00    -0.462 OA
BRANCH   2   3
ATOM      3  C   UNL A   1      34.161  29.252  26.687  1.00  0.00     0.310 C 
ATOM      4  O   UNL A   1      35.243  29.124  27.250  1.00  0.00    -0.252 OA
BRANCH   3   5
ATOM      5  C   UNL A   1      33.729  28.432  25.463  1.00  0.00     0.119 C 
ATOM      6  C   UNL A   1      32.359  28.733  24.739  1.00  0.00     0.100 C 
ATOM      7  C   UNL A   1      31.610  27.353  24.892  1.00  0.00     0.025 C 
ATOM      8  C   UNL A   1      33.543  26.946  25.922  1.00  0.00     0.027 C 
ATOM      9  C   UNL A   1      31.281  27.085  26.328  1.00  0.00    -0.027 C 
ATOM     10  C   UNL A   1      32.774  26.357  24.744  1.00  0.00     0.017 C 
ATOM     11  C   UNL A   1      32.437  26.836  26.955  1.00  0.00    -0.027 C 
BRANCH   6  12
ATOM     12  C   UNL A   1      32.445  28.948  23.214  1.00  0.00     0.228 C 
ATOM     13  N   UNL A   1      31.450  29.406  22.426  1.00  0.00    -0.326 N 
ATOM     14  H   UNL A   1      31.778  29.716  21.551  1.00  0.00     0.169 HD
ATOM     15  O   UNL A   1      33.505  28.757  22.600  1.00  0.00    -0.274 OA
BRANCH  13  16
ATOM     16  C   UNL A   1      30.072  29.547  22.553  1.00  0.00     0.044 A 
ATOM     17  C   UNL A   1      28.184  31.053  22.431  1.00  0.00     0.120 A 
ATOM     18  C   UNL A   1      27.326  30.024  22.794  1.00  0.00     0.046 A 
ATOM     19  C   UNL A   1      29.551  30.825  22.317  1.00  0.00     0.072 A 
ATOM     20  C   UNL A   1      27.834  28.737  22.927  1.00  0.00     0.006 A 
ATOM     21  C   UNL A   1      29.206  28.494  22.805  1.00  0.00     0.026 A 
BRANCH  17  22
ATOM     22  O   UNL A   1      27.700  32.313  22.212  1.00  0.00    -0.497 OA
ATOM     23  C   UNL A   1      27.834  32.654  20.831  1.00  0.00     0.278 C 
ENDBRANCH  17  22
ENDBRANCH  13  16
ENDBRANCH   6  12
ENDBRANCH   3   5
ENDBRANCH   2   3
ENDBRANCH   1   2
BRANCH   1  24
ATOM     24  C   UNL A   1      32.824  32.645  27.422  1.00  0.00     0.275 C 
BRANCH  24  25
ATOM     25  O   UNL A   1      33.467  33.882  27.737  1.00  0.00    -0.458 OA
BRANCH  25  26
ATOM     26  C   UNL A   1      33.377  34.314  29.018  1.00  0.00     0.338 C 
ATOM     27  O   UNL A   1      32.459  34.919  29.537  1.00  0.00    -0.246 OA
BRANCH  26  28
ATOM     28  C   UNL A   1      34.610  33.904  29.714  1.00  0.00     0.060 A 
ATOM     29  C   UNL A   1      34.511  33.131  30.869  1.00  0.00     0.016 A 
ATOM     30  C   UNL A   1      35.861  34.291  29.237  1.00  0.00     0.016 A 
ATOM     31  C   UNL A   1      35.658  32.749  31.549  1.00  0.00     0.010 A 
ATOM     32  C   UNL A   1      37.017  33.840  29.887  1.00  0.00     0.010 A 
ATOM     33  C   UNL A   1      36.926  33.062  31.054  1.00  0.00    -0.014 A 
BRANCH  33  34
ATOM     34  C   UNL A   1      38.133  32.573  31.774  1.00  0.00     0.031 A 
ATOM     35  C   UNL A   1      38.979  31.485  31.171  1.00  0.00     0.074 A 
ATOM     36  C   UNL A   1      38.496  33.125  32.952  1.00  0.00     0.049 A 
ATOM     37  N   UNL A   1      39.931  30.780  31.721  1.00  0.00    -0.248 NA
ATOM     38  C   UNL A   1      38.710  31.140  29.766  1.00  0.00     0.031 C 
ATOM     39  C   UNL A   1      37.825  34.252  33.609  1.00  0.00     0.029 A 
ATOM     40  N   UNL A   1      39.534  32.828  33.801  1.00  0.00    -0.354 N 
ATOM     41  C   UNL A   1      40.329  29.861  30.756  1.00  0.00     0.074 A 
ATOM     42  C   UNL A   1      39.521  30.107  29.581  1.00  0.00     0.031 C 
ATOM     43  C   UNL A   1      38.495  34.580  34.723  1.00  0.00     0.029 A 
ATOM     44  C   UNL A   1      39.566  33.614  34.929  1.00  0.00     0.049 A 
ATOM     45  H   UNL A   1      40.193  32.118  33.620  1.00  0.00     0.167 HD
ATOM     46  C   UNL A   1      41.273  28.894  30.853  1.00  0.00     0.031 A 
ATOM     47  C   UNL A   1      40.323  33.533  36.042  1.00  0.00     0.031 A 
ATOM     48  C   UNL A   1      42.091  28.688  32.020  1.00  0.00     0.049 A 
ATOM     49  C   UNL A   1      41.313  32.409  36.155  1.00  0.00     0.074 A 
ATOM     50  C   UNL A   1      43.062  27.725  32.232  1.00  0.00     0.029 A 
ATOM     51  N   UNL A   1      42.046  29.470  33.166  1.00  0.00    -0.354 N 
ATOM     52  N   UNL A   1      41.609  31.483  35.275  1.00  0.00    -0.248 NA
ATOM     53  C   UNL A   1      42.048  32.301  37.422  1.00  0.00     0.031 C 
ATOM     54  C   UNL A   1      43.568  27.893  33.525  1.00  0.00     0.029 A 
ATOM     55  C   UNL A   1      42.958  29.000  34.095  1.00  0.00     0.049 A 
ATOM     56  H   UNL A   1      41.453  30.244  33.298  1.00  0.00     0.167 HD
ATOM     57  C   UNL A   1      42.576  30.686  35.877  1.00  0.00     0.074 A 
ATOM     58  C   UNL A   1      42.829  31.256  37.186  1.00  0.00     0.031 C 
ATOM     59  C   UNL A   1      43.194  29.581  35.394  1.00  0.00     0.031 A 
BRANCH  46  60
ATOM     60  C   UNL A   1      41.417  27.941  29.695  1.00  0.00    -0.014 A 
ATOM     61  C   UNL A   1      40.450  26.961  29.411  1.00  0.00     0.010 A 
ATOM     62  C   UNL A   1      42.541  28.053  28.855  1.00  0.00     0.010 A 
ATOM     63  C   UNL A   1      40.624  26.087  28.333  1.00  0.00     0.020 A 
ATOM     64  C   UNL A   1      42.705  27.201  27.760  1.00  0.00     0.020 A 
ATOM     65  C   UNL A   1      41.753  26.211  27.516  1.00  0.00     0.054 A 
BRANCH  65  66
ATOM     66  S   UNL A   1      41.947  25.075  26.115  1.00  0.00     0.124 S 
ATOM     67  O   UNL A   1      41.060  23.978  26.492  1.00  0.00    -0.237 OA
ATOM     68  O   UNL A   1      41.501  25.882  24.983  1.00  0.00    -0.237 OA
ATOM     69  O   UNL A   1      43.373  24.752  26.125  1.00  0.00    -0.744 OA
ENDBRANCH  65  66
ENDBRANCH  46  60
BRANCH  47  70
ATOM     70  C   UNL A   1      40.107  34.491  37.163  1.00  0.00    -0.014 A 
ATOM     71  C   UNL A   1      40.741  35.744  37.176  1.00  0.00     0.010 A 
ATOM     72  C   UNL A   1      39.245  34.154  38.225  1.00  0.00     0.010 A 
ATOM     73  C   UNL A   1      40.522  36.640  38.229  1.00  0.00     0.020 A 
ATOM     74  C   UNL A   1      38.995  35.059  39.260  1.00  0.00     0.020 A 
ATOM     75  C   UNL A   1      39.646  36.293  39.261  1.00  0.00     0.054 A 
BRANCH  75  76
ATOM     76  S   UNL A   1      39.328  37.491  40.587  1.00  0.00     0.124 S 
ATOM     77  O   UNL A   1      38.260  38.302  40.013  1.00  0.00    -0.237 OA
ATOM     78  O   UNL A   1      38.942  36.632  41.704  1.00  0.00    -0.237 OA
ATOM     79  O   UNL A   1      40.613  38.169  40.749  1.00  0.00    -0.744 OA
ENDBRANCH  75  76
ENDBRANCH  47  70
BRANCH  59  80
ATOM     80  C   UNL A   1      44.233  28.938  36.270  1.00  0.00    -0.014 A 
ATOM     81  C   UNL A   1      43.932  27.805  37.047  1.00  0.00     0.010 A 
ATOM     82  C   UNL A   1      45.543  29.450  36.279  1.00  0.00     0.010 A 
ATOM     83  C   UNL A   1      44.918  27.215  37.843  1.00  0.00     0.020 A 
ATOM     84  C   UNL A   1      46.537  28.847  37.051  1.00  0.00     0.020 A 
ATOM     85  C   UNL A   1      46.215  27.741  37.840  1.00  0.00     0.054 A 
BRANCH  85  86
ATOM     86  S   UNL A   1      47.486  26.933  38.849  1.00  0.00     0.124 S 
ATOM     87  O   UNL A   1      48.688  27.674  38.473  1.00  0.00    -0.237 OA
ATOM     88  O   UNL A   1      47.008  27.163  40.210  1.00  0.00    -0.237 OA
ATOM     89  O   UNL A   1      47.447  25.541  38.407  1.00  0.00    -0.744 OA
ENDBRANCH  85  86
ENDBRANCH  59  80
ENDBRANCH  33  34
ENDBRANCH  26  28
ENDBRANCH  25  26
ENDBRANCH  24  25
ENDBRANCH   1  24
TORSDOF 17
ENDMDL
MODEL 2
REMARK VINA RESULT:     -11.1      6.587     11.315
REMARK SMILES COc1cccc(NC(=O)[C@@H]2[C@@H](C(=O)OCCOC(=O)c3ccc(-c4c5nc(c(-c6ccc(S(=O)(=O)[O-])cc6)c6ccc([nH]6)c(-c6ccc(S(=O)(=O)[O-])cc6)c6nc(c(-c7ccc(S(=O)(=O)[O-])cc7)c7ccc4[nH]7)C=C6)C=C5)cc3)[C@H]3C=C[C@@H]2C3)c1
REMARK SMILES IDX 16 1 15 2 13 3 14 4 12 5 11 6 84 7 81 8 83 9 85 10 82 11
REMARK SMILES IDX 9 12 8 13 10 15 7 16 3 17 4 18 86 19 5 20 6 21 2 22 1 23
REMARK SMILES IDX 17 24 18 25 19 26 20 27 21 28 22 29 80 30 23 31 79 32 24 33
REMARK SMILES IDX 25 34 26 35 73 36 27 37 78 38 72 39 74 40 28 41 77 42 71 43
REMARK SMILES IDX 70 44 29 46 59 47 40 48 58 49 41 50 44 51 57 52 75 53 42 54
REMARK SMILES IDX 43 55 56 57 76 58 45 59 30 60 31 61 39 62 32 63 38 64 33 65
REMARK SMILES IDX 34 66 35 67 36 68 37 69 60 70 61 71 69 72 62 73 68 74 63 75
REMARK SMILES IDX 64 76 65 77 66 78 67 79 46 80 47 81 55 82 48 83 54 84 49 85
REMARK SMILES IDX 50 86 51 87 52 88 53 89
REMARK H PARENT 8 14 74 45 44 56
REMARK Flexibility Score: inf
ROOT
ATOM      1  C   UNL A   1      34.022  29.037  26.414  1.00  0.00     0.274 C 
ENDROOT
BRANCH   1   2
ATOM      2  O   UNL A   1      32.608  28.724  26.487  1.00  0.00    -0.462 OA
BRANCH   2   3
ATOM      3  C   UNL A   1      31.810  29.375  25.600  1.00  0.00     0.310 C 
ATOM      4  O   UNL A   1      31.639  30.589  25.639  1.00  0.00    -0.252 OA
BRANCH   3   5
ATOM      5  C   UNL A   1      31.040  28.431  24.666  1.00  0.00     0.119 C 
ATOM      6  C   UNL A   1      31.368  26.887  24.639  1.00  0.00     0.100 C 
ATOM      7  C   UNL A   1      31.800  26.680  23.136  1.00  0.00     0.025 C 
ATOM      8  C   UNL A   1      31.346  28.860  23.191  1.00  0.00     0.027 C 
ATOM      9  C   UNL A   1      33.086  27.391  22.852  1.00  0.00    -0.027 C 
ATOM     10  C   UNL A   1      30.848  27.649  22.411  1.00  0.00     0.017 C 
ATOM     11  C   UNL A   1      32.823  28.703  22.880  1.00  0.00    -0.027 C 
BRANCH   6  12
ATOM     12  C   UNL A   1      30.157  25.946  24.816  1.00  0.00     0.228 C 
ATOM     13  N   UNL A   1      30.178  24.743  25.426  1.00  0.00    -0.326 N 
ATOM     14  H   UNL A   1      29.276  24.428  25.664  1.00  0.00     0.169 HD
ATOM     15  O   UNL A   1      29.025  26.284  24.440  1.00  0.00    -0.274 OA
BRANCH  13  16
ATOM     16  C   UNL A   1      31.168  23.840  25.801  1.00  0.00     0.044 A 
ATOM     17  C   UNL A   1      32.021  21.587  25.590  1.00  0.00     0.120 A 
ATOM     18  C   UNL A   1      33.054  21.885  26.468  1.00  0.00     0.046 A 
ATOM     19  C   UNL A   1      31.075  22.552  25.260  1.00  0.00     0.072 A 
ATOM     20  C   UNL A   1      33.200  23.191  26.921  1.00  0.00     0.006 A 
ATOM     21  C   UNL A   1      32.261  24.172  26.587  1.00  0.00     0.026 A 
BRANCH  17  22
ATOM     22  O   UNL A   1      31.899  20.332  25.063  1.00  0.00    -0.497 OA
ATOM     23  C   UNL A   1      33.059  20.012  24.292  1.00  0.00     0.278 C 
ENDBRANCH  17  22
ENDBRANCH  13  16
ENDBRANCH   6  12
ENDBRANCH   3   5
ENDBRANCH   2   3
ENDBRANCH   1   2
BRANCH   1  24
ATOM     24  C   UNL A   1      34.453  30.098  27.426  1.00  0.00     0.275 C 
BRANCH  24  25
ATOM     25  O   UNL A   1      35.352  29.524  28.378  1.00  0.00    -0.458 OA
BRANCH  25  26
ATOM     26  C   UNL A   1      36.139  30.379  29.074  1.00  0.00     0.338 C 
ATOM     27  O   UNL A   1      35.794  31.351  29.718  1.00  0.00    -0.246 OA
BRANCH  26  28
ATOM     28  C   UNL A   1      37.531  29.916  28.937  1.00  0.00     0.060 A 
ATOM     29  C   UNL A   1      38.078  29.782  27.662  1.00  0.00     0.016 A 
ATOM     30  C   UNL A   1      38.293  29.602  30.061  1.00  0.00     0.016 A 
ATOM     31  C   UNL A   1      39.380  29.331  27.510  1.00  0.00     0.010 A 
ATOM     32  C   UNL A   1      39.631  29.218  29.902  1.00  0.00     0.010 A 
ATOM     33  C   UNL A   1      40.190  29.079  28.620  1.00  0.00    -0.014 A 
BRANCH  33  34
ATOM     34  C   UNL A   1      41.605  28.665  28.415  1.00  0.00     0.031 A 
ATOM     35  C   UNL A   1      42.710  29.674  28.560  1.00  0.00     0.074 A 
ATOM     36  C   UNL A   1      41.906  27.379  28.134  1.00  0.00     0.049 A 
ATOM     37  N   UNL A   1      43.968  29.573  28.222  1.00  0.00    -0.248 NA
ATOM     38  C   UNL A   1      42.351  30.970  29.158  1.00  0.00     0.031 C 
ATOM     39  C   UNL A   1      40.944  26.274  28.057  1.00  0.00     0.029 A 
ATOM     40  N   UNL A   1      43.113  26.775  27.879  1.00  0.00    -0.354 N 
ATOM     41  C   UNL A   1      44.536  30.812  28.499  1.00  0.00     0.074 A 
ATOM     42  C   UNL A   1      43.486  31.645  29.045  1.00  0.00     0.031 C 
ATOM     43  C   UNL A   1      41.602  25.128  27.827  1.00  0.00     0.029 A 
ATOM     44  C   UNL A   1      43.011  25.429  27.615  1.00  0.00     0.049 A 
ATOM     45  H   UNL A   1      43.970  27.261  27.884  1.00  0.00     0.167 HD
ATOM     46  C   UNL A   1      45.813  31.216  28.299  1.00  0.00     0.031 A 
ATOM     47  C   UNL A   1      43.929  24.541  27.185  1.00  0.00     0.031 A 
ATOM     48  C   UNL A   1      46.852  30.361  27.787  1.00  0.00     0.049 A 
ATOM     49  C   UNL A   1      45.322  25.029  26.903  1.00  0.00     0.074 A 
ATOM     50  C   UNL A   1      48.176  30.673  27.527  1.00  0.00     0.029 A 
ATOM     51  N   UNL A   1      46.690  29.018  27.474  1.00  0.00    -0.354 N 
ATOM     52  N   UNL A   1      45.822  26.230  27.072  1.00  0.00    -0.248 NA
ATOM     53  C   UNL A   1      46.265  24.051  26.345  1.00  0.00     0.031 C 
ATOM     54  C   UNL A   1      48.799  29.533  27.008  1.00  0.00     0.029 A 
ATOM     55  C   UNL A   1      47.883  28.494  27.006  1.00  0.00     0.049 A 
ATOM     56  H   UNL A   1      45.850  28.514  27.570  1.00  0.00     0.167 HD
ATOM     57  C   UNL A   1      47.145  26.150  26.652  1.00  0.00     0.074 A 
ATOM     58  C   UNL A   1      47.370  24.777  26.244  1.00  0.00     0.031 C 
ATOM     59  C   UNL A   1      48.085  27.124  26.602  1.00  0.00     0.031 A 
BRANCH  46  60
ATOM     60  C   UNL A   1      46.138  32.663  28.565  1.00  0.00    -0.014 A 
ATOM     61  C   UNL A   1      45.981  33.655  27.581  1.00  0.00     0.010 A 
ATOM     62  C   UNL A   1      46.585  33.038  29.846  1.00  0.00     0.010 A 
ATOM     63  C   UNL A   1      46.303  34.987  27.863  1.00  0.00     0.020 A 
ATOM     64  C   UNL A   1      46.880  34.372  30.140  1.00  0.00     0.020 A 
ATOM     65  C   UNL A   1      46.754  35.336  29.140  1.00  0.00     0.054 A 
BRANCH  65  66
ATOM     66  S   UNL A   1      47.150  37.072  29.484  1.00  0.00     0.124 S 
ATOM     67  O   UNL A   1      45.958  37.515  30.204  1.00  0.00    -0.237 OA
ATOM     68  O   UNL A   1      48.366  36.972  30.286  1.00  0.00    -0.237 OA
ATOM     69  O   UNL A   1      47.327  37.658  28.157  1.00  0.00    -0.744 OA
ENDBRANCH  65  66
ENDBRANCH  46  60
BRANCH  47  70
ATOM     70  C   UNL A   1      43.533  23.130  26.912  1.00  0.00    -0.014 A 
ATOM     71  C   UNL A   1      43.662  22.579  25.627  1.00  0.00     0.010 A 
ATOM     72  C   UNL A   1      43.037  22.321  27.953  1.00  0.00     0.010 A 
ATOM     73  C   UNL A   1      43.297  21.249  25.385  1.00  0.00     0.020 A 
ATOM     74  C   UNL A   1      42.706  20.983  27.724  1.00  0.00     0.020 A 
ATOM     75  C   UNL A   1      42.827  20.458  26.438  1.00  0.00     0.054 A 
BRANCH  75  76
ATOM     76  S   UNL A   1      42.417  18.720  26.118  1.00  0.00     0.124 S 
ATOM     77  O   UNL A   1      42.649  18.108  27.423  1.00  0.00    -0.237 OA
ATOM     78  O   UNL A   1      41.022  18.797  25.693  1.00  0.00    -0.237 OA
ATOM     79  O   UNL A   1      43.359  18.334  25.069  1.00  0.00    -0.744 OA
ENDBRANCH  75  76
ENDBRANCH  47  70
BRANCH  59  80
ATOM     80  C   UNL A   1      49.456  26.731  26.125  1.00  0.00    -0.014 A 
ATOM     81  C   UNL A   1      49.891  27.036  24.824  1.00  0.00     0.010 A 
ATOM     82  C   UNL A   1      50.337  26.085  27.011  1.00  0.00     0.010 A 
ATOM     83  C   UNL A   1      51.175  26.673  24.407  1.00  0.00     0.020 A 
ATOM     84  C   UNL A   1      51.630  25.746  26.608  1.00  0.00     0.020 A 
ATOM     85  C   UNL A   1      52.036  26.030  25.302  1.00  0.00     0.054 A 
BRANCH  85  86
ATOM     86  S   UNL A   1      53.710  25.606  24.751  1.00  0.00     0.124 S 
ATOM     87  O   UNL A   1      54.538  26.353  25.693  1.00  0.00    -0.237 OA
ATOM     88  O   UNL A   1      53.739  24.154  24.904  1.00  0.00    -0.237 OA
ATOM     89  O   UNL A   1      53.751  26.082  23.370  1.00  0.00    -0.744 OA
ENDBRANCH  85  86
ENDBRANCH  59  80
ENDBRANCH  33  34
ENDBRANCH  26  28
ENDBRANCH  25  26
ENDBRANCH  24  25
ENDBRANCH   1  24
TORSDOF 17
ENDMDL
MODEL 3
REMARK VINA RESULT:     -11.0      4.509     10.266
REMARK SMILES COc1cccc(NC(=O)[C@@H]2[C@@H](C(=O)OCCOC(=O)c3ccc(-c4c5nc(c(-c6ccc(S(=O)(=O)[O-])cc6)c6ccc([nH]6)c(-c6ccc(S(=O)(=O)[O-])cc6)c6nc(c(-c7ccc(S(=O)(=O)[O-])cc7)c7ccc4[nH]7)C=C6)C=C5)cc3)[C@H]3C=C[C@@H]2C3)c1
REMARK SMILES IDX 16 1 15 2 13 3 14 4 12 5 11 6 84 7 81 8 83 9 85 10 82 11
REMARK SMILES IDX 9 12 8 13 10 15 7 16 3 17 4 18 86 19 5 20 6 21 2 22 1 23
REMARK SMILES IDX 17 24 18 25 19 26 20 27 21 28 22 29 80 30 23 31 79 32 24 33
REMARK SMILES IDX 25 34 26 35 73 36 27 37 78 38 72 39 74 40 28 41 77 42 71 43
REMARK SMILES IDX 70 44 29 46 59 47 40 48 58 49 41 50 44 51 57 52 75 53 42 54
REMARK SMILES IDX 43 55 56 57 76 58 45 59 30 60 31 61 39 62 32 63 38 64 33 65
REMARK SMILES IDX 34 66 35 67 36 68 37 69 60 70 61 71 69 72 62 73 68 74 63 75
REMARK SMILES IDX 64 76 65 77 66 78 67 79 46 80 47 81 55 82 48 83 54 84 49 85
REMARK SMILES IDX 50 86 51 87 52 88 53 89
REMARK H PARENT 8 14 74 45 44 56
REMARK Flexibility Score: inf
ROOT
ATOM      1  C   UNL A   1      32.986  29.047  24.672  1.00  0.00     0.274 C 
ENDROOT
BRANCH   1   2
ATOM      2  O   UNL A   1      32.734  27.634  24.877  1.00  0.00    -0.462 OA
BRANCH   2   3
ATOM      3  C   UNL A   1      31.453  27.224  24.680  1.00  0.00     0.310 C 
ATOM      4  O   UNL A   1      30.537  28.012  24.472  1.00  0.00    -0.252 OA
BRANCH   3   5
ATOM      5  C   UNL A   1      31.255  25.717  24.897  1.00  0.00     0.119 C 
ATOM      6  C   UNL A   1      32.494  24.774  25.154  1.00  0.00     0.100 C 
ATOM      7  C   UNL A   1      32.389  23.773  23.940  1.00  0.00     0.025 C 
ATOM      8  C   UNL A   1      30.651  25.118  23.581  1.00  0.00     0.027 C 
ATOM      9  C   UNL A   1      32.655  24.479  22.646  1.00  0.00    -0.027 C 
ATOM     10  C   UNL A   1      30.864  23.625  23.800  1.00  0.00     0.017 C 
ATOM     11  C   UNL A   1      31.613  25.288  22.421  1.00  0.00    -0.027 C 
BRANCH   6  12
ATOM     12  C   UNL A   1      32.395  23.869  26.399  1.00  0.00     0.228 C 
ATOM     13  N   UNL A   1      33.309  22.951  26.781  1.00  0.00    -0.326 N 
ATOM     14  H   UNL A   1      33.192  22.675  27.719  1.00  0.00     0.169 HD
ATOM     15  O   UNL A   1      31.450  23.977  27.194  1.00  0.00    -0.274 OA
BRANCH  13  16
ATOM     16  C   UNL A   1      34.376  22.303  26.168  1.00  0.00     0.044 A 
ATOM     17  C   UNL A   1      36.720  22.399  25.584  1.00  0.00     0.120 A 
ATOM     18  C   UNL A   1      36.626  21.165  24.957  1.00  0.00     0.046 A 
ATOM     19  C   UNL A   1      35.605  22.975  26.182  1.00  0.00     0.072 A 
ATOM     20  C   UNL A   1      35.432  20.458  25.036  1.00  0.00     0.006 A 
ATOM     21  C   UNL A   1      34.306  21.022  25.643  1.00  0.00     0.026 A 
BRANCH  17  22
ATOM     22  O   UNL A   1      37.905  23.082  25.595  1.00  0.00    -0.497 OA
ATOM     23  C   UNL A   1      38.904  22.317  26.273  1.00  0.00     0.278 C 
ENDBRANCH  17  22
ENDBRANCH  13  16
ENDBRANCH   6  12
ENDBRANCH   3   5
ENDBRANCH   2   3
ENDBRANCH   1   2
BRANCH   1  24
ATOM     24  C   UNL A   1      33.031  29.842  25.977  1.00  0.00     0.275 C 
BRANCH  24  25
ATOM     25  O   UNL A   1      34.213  29.507  26.708  1.00  0.00    -0.458 OA
BRANCH  25  26
ATOM     26  C   UNL A   1      34.602  30.370  27.677  1.00  0.00     0.338 C 
ATOM     27  O   UNL A   1      33.960  31.281  28.164  1.00  0.00    -0.246 OA
BRANCH  26  28
ATOM     28  C   UNL A   1      35.973  30.006  28.074  1.00  0.00     0.060 A 
ATOM     29  C   UNL A   1      36.202  29.533  29.365  1.00  0.00     0.016 A 
ATOM     30  C   UNL A   1      37.035  30.143  27.181  1.00  0.00     0.016 A 
ATOM     31  C   UNL A   1      37.488  29.201  29.765  1.00  0.00     0.010 A 
ATOM     32  C   UNL A   1      38.319  29.737  27.569  1.00  0.00     0.010 A 
ATOM     33  C   UNL A   1      38.558  29.260  28.869  1.00  0.00    -0.014 A 
BRANCH  33  34
ATOM     34  C   UNL A   1      39.910  28.827  29.316  1.00  0.00     0.031 A 
ATOM     35  C   UNL A   1      40.749  29.743  30.166  1.00  0.00     0.074 A 
ATOM     36  C   UNL A   1      40.376  27.602  28.994  1.00  0.00     0.049 A 
ATOM     37  N   UNL A   1      42.014  29.649  30.478  1.00  0.00    -0.248 NA
ATOM     38  C   UNL A   1      40.076  30.923  30.731  1.00  0.00     0.031 C 
ATOM     39  C   UNL A   1      39.635  26.573  28.257  1.00  0.00     0.029 A 
ATOM     40  N   UNL A   1      41.583  27.001  29.262  1.00  0.00    -0.354 N 
ATOM     41  C   UNL A   1      42.308  30.791  31.215  1.00  0.00     0.074 A 
ATOM     42  C   UNL A   1      41.085  31.557  31.314  1.00  0.00     0.031 C 
ATOM     43  C   UNL A   1      40.378  25.459  28.179  1.00  0.00     0.029 A 
ATOM     44  C   UNL A   1      41.692  25.731  28.746  1.00  0.00     0.049 A 
ATOM     45  H   UNL A   1      42.300  27.438  29.775  1.00  0.00     0.167 HD
ATOM     46  C   UNL A   1      43.496  31.166  31.747  1.00  0.00     0.031 A 
ATOM     47  C   UNL A   1      42.747  24.895  28.671  1.00  0.00     0.031 A 
ATOM     48  C   UNL A   1      44.695  30.372  31.668  1.00  0.00     0.049 A 
ATOM     49  C   UNL A   1      44.072  25.363  29.204  1.00  0.00     0.074 A 
ATOM     50  C   UNL A   1      45.957  30.668  32.153  1.00  0.00     0.029 A 
ATOM     51  N   UNL A   1      44.776  29.118  31.080  1.00  0.00    -0.354 N 
ATOM     52  N   UNL A   1      44.362  26.490  29.810  1.00  0.00    -0.248 NA
ATOM     53  C   UNL A   1      45.216  24.462  29.016  1.00  0.00     0.031 C 
ATOM     54  C   UNL A   1      46.813  29.614  31.814  1.00  0.00     0.029 A 
ATOM     55  C   UNL A   1      46.070  28.634  31.174  1.00  0.00     0.049 A 
ATOM     56  H   UNL A   1      44.025  28.643  30.658  1.00  0.00     0.167 HD
ATOM     57  C   UNL A   1      45.722  26.429  30.088  1.00  0.00     0.074 A 
ATOM     58  C   UNL A   1      46.189  25.144  29.604  1.00  0.00     0.031 C 
ATOM     59  C   UNL A   1      46.515  27.353  30.684  1.00  0.00     0.031 A 
BRANCH  46  60
ATOM     60  C   UNL A   1      43.574  32.525  32.393  1.00  0.00    -0.014 A 
ATOM     61  C   UNL A   1      43.381  32.706  33.773  1.00  0.00     0.010 A 
ATOM     62  C   UNL A   1      43.879  33.644  31.594  1.00  0.00     0.010 A 
ATOM     63  C   UNL A   1      43.451  33.985  34.336  1.00  0.00     0.020 A 
ATOM     64  C   UNL A   1      43.978  34.920  32.156  1.00  0.00     0.020 A 
ATOM     65  C   UNL A   1      43.746  35.084  33.522  1.00  0.00     0.054 A 
BRANCH  65  66
ATOM     66  S   UNL A   1      43.847  36.730  34.278  1.00  0.00     0.124 S 
ATOM     67  O   UNL A   1      44.573  36.449  35.514  1.00  0.00    -0.237 OA
ATOM     68  O   UNL A   1      44.585  37.498  33.279  1.00  0.00    -0.237 OA
ATOM     69  O   UNL A   1      42.450  37.119  34.453  1.00  0.00    -0.744 OA
ENDBRANCH  65  66
ENDBRANCH  46  60
BRANCH  47  70
ATOM     70  C   UNL A   1      42.609  23.576  27.991  1.00  0.00    -0.014 A 
ATOM     71  C   UNL A   1      43.077  23.386  26.680  1.00  0.00     0.010 A 
ATOM     72  C   UNL A   1      42.018  22.491  28.665  1.00  0.00     0.010 A 
ATOM     73  C   UNL A   1      42.952  22.140  26.055  1.00  0.00     0.020 A 
ATOM     74  C   UNL A   1      41.923  21.235  28.059  1.00  0.00     0.020 A 
ATOM     75  C   UNL A   1      42.381  21.071  26.752  1.00  0.00     0.054 A 
BRANCH  75  76
ATOM     76  S   UNL A   1      42.282  19.448  25.947  1.00  0.00     0.124 S 
ATOM     77  O   UNL A   1      43.118  19.643  24.767  1.00  0.00    -0.237 OA
ATOM     78  O   UNL A   1      42.825  18.555  26.968  1.00  0.00    -0.237 OA
ATOM     79  O   UNL A   1      40.854  19.284  25.683  1.00  0.00    -0.744 OA
ENDBRANCH  75  76
ENDBRANCH  47  70
BRANCH  59  80
ATOM     80  C   UNL A   1      47.961  26.992  30.881  1.00  0.00    -0.014 A 
ATOM     81  C   UNL A   1      48.909  27.193  29.862  1.00  0.00     0.010 A 
ATOM     82  C   UNL A   1      48.383  26.485  32.123  1.00  0.00     0.010 A 
ATOM     83  C   UNL A   1      50.250  26.863  30.073  1.00  0.00     0.020 A 
ATOM     84  C   UNL A   1      49.727  26.181  32.348  1.00  0.00     0.020 A 
ATOM     85  C   UNL A   1      50.651  26.359  31.316  1.00  0.00     0.054 A 
BRANCH  85  86
ATOM     86  S   UNL A   1      52.404  25.976  31.578  1.00  0.00     0.124 S 
ATOM     87  O   UNL A   1      52.761  26.910  32.643  1.00  0.00    -0.237 OA
ATOM     88  O   UNL A   1      52.369  24.568  31.963  1.00  0.00    -0.237 OA
ATOM     89  O   UNL A   1      53.016  26.247  30.280  1.00  0.00    -0.744 OA
ENDBRANCH  85  86
ENDBRANCH  59  80
ENDBRANCH  33  34
ENDBRANCH  26  28
ENDBRANCH  25  26
ENDBRANCH  24  25
ENDBRANCH   1  24
TORSDOF 17
ENDMDL
