MODEL 1
REMARK VINA RESULT:     -13.5      0.000      0.000
REMARK SMILES Cc1c(NC(=O)[C@@H]2CC=CC[C@@H]2C(=O)OCCOC(=O)c2ccc(-c3c4nc(c(-c5ccc(S(=O)(=O)[O-])cc5)c5ccc([nH]5)c(-c5ccc(S(=O)(=O)[O-])cc5)c5nc(c(-c6ccc(S(=O)(=O)[O-])cc6)c6ccc3[nH]6)C=C5)C=C4)cc2)cccc1C(=O)N1CCOCC1
REMARK SMILES IDX 16 1 15 2 13 3 14 4 12 5 7 6 8 7 9 8 11 9 10 10 5 11 4 12
REMARK SMILES IDX 6 14 3 15 1 16 2 17 84 18 81 19 83 20 82 21 85 22 86 23
REMARK SMILES IDX 87 24 88 25 92 26 89 27 91 28 90 29 17 30 18 31 19 32 20 33
REMARK SMILES IDX 21 34 22 35 80 36 23 37 79 38 24 39 25 40 26 41 73 42 27 43
REMARK SMILES IDX 78 44 72 45 74 46 28 47 77 48 71 49 70 50 29 52 59 53 40 54
REMARK SMILES IDX 58 55 41 56 44 57 57 58 75 59 42 60 43 61 56 63 76 64 45 65
REMARK SMILES IDX 30 66 31 67 39 68 32 69 38 70 33 71 34 72 35 73 36 74 37 75
REMARK SMILES IDX 60 76 61 77 69 78 62 79 68 80 63 81 64 82 65 83 66 84 67 85
REMARK SMILES IDX 46 86 47 87 55 88 48 89 54 90 49 91 50 92 51 93 52 94 53 95
REMARK H PARENT 4 13 74 51 44 62
REMARK Flexibility Score: inf
ROOT
ATOM      1  C   UNL A   1      33.953  28.141  26.587  1.00  0.00     0.274 C 
ENDROOT
BRANCH   1   2
ATOM      2  O   UNL A   1      34.027  27.929  25.173  1.00  0.00    -0.462 OA
BRANCH   2   3
ATOM      3  C   UNL A   1      32.858  27.659  24.540  1.00  0.00     0.310 C 
ATOM      4  O   UNL A   1      32.353  28.376  23.701  1.00  0.00    -0.252 OA
BRANCH   3   5
ATOM      5  C   UNL A   1      32.144  26.432  25.104  1.00  0.00     0.116 C 
ATOM      6  C   UNL A   1      32.129  25.357  24.016  1.00  0.00     0.097 C 
ATOM      7  C   UNL A   1      31.307  25.795  22.802  1.00  0.00     0.041 C 
ATOM      8  C   UNL A   1      29.960  26.313  23.238  1.00  0.00    -0.030 C 
ATOM      9  C   UNL A   1      30.714  26.625  25.609  1.00  0.00     0.043 C 
ATOM     10  C   UNL A   1      29.689  26.656  24.508  1.00  0.00    -0.030 C 
BRANCH   6  11
ATOM     11  C   UNL A   1      33.559  25.008  23.695  1.00  0.00     0.228 C 
ATOM     12  N   UNL A   1      34.392  24.871  24.793  1.00  0.00    -0.326 N 
ATOM     13  H   UNL A   1      34.987  25.596  25.090  1.00  0.00     0.169 HD
ATOM     14  O   UNL A   1      33.997  24.942  22.551  1.00  0.00    -0.274 OA
BRANCH  12  15
ATOM     15  C   UNL A   1      34.333  23.621  25.462  1.00  0.00     0.044 A 
ATOM     16  C   UNL A   1      35.845  22.743  23.661  1.00  0.00     0.047 C 
ATOM     17  C   UNL A   1      35.028  22.524  24.909  1.00  0.00    -0.015 A 
ATOM     18  C   UNL A   1      34.860  21.258  25.510  1.00  0.00     0.045 A 
ATOM     19  C   UNL A   1      33.487  23.465  26.565  1.00  0.00     0.026 A 
ATOM     20  C   UNL A   1      33.935  21.107  26.563  1.00  0.00     0.014 A 
ATOM     21  C   UNL A   1      33.254  22.200  27.088  1.00  0.00     0.003 A 
BRANCH  18  22
ATOM     22  C   UNL A   1      35.424  19.992  24.958  1.00  0.00     0.254 C 
ATOM     23  O   UNL A   1      36.651  19.878  24.939  1.00  0.00    -0.269 OA
ATOM     24  N   UNL A   1      34.593  18.951  24.577  1.00  0.00    -0.334 N 
ATOM     25  C   UNL A   1      33.321  19.073  23.847  1.00  0.00     0.148 C 
ATOM     26  C   UNL A   1      35.123  17.594  24.659  1.00  0.00     0.148 C 
ATOM     27  C   UNL A   1      32.316  17.968  24.233  1.00  0.00     0.181 C 
ATOM     28  C   UNL A   1      34.037  16.638  25.150  1.00  0.00     0.181 C 
ATOM     29  O   UNL A   1      32.926  16.669  24.245  1.00  0.00    -0.378 OA
ENDBRANCH  18  22
ENDBRANCH  12  15
ENDBRANCH   6  11
ENDBRANCH   3   5
ENDBRANCH   2   3
ENDBRANCH   1   2
BRANCH   1  30
ATOM     30  C   UNL A   1      34.467  29.552  26.926  1.00  0.00     0.275 C 
BRANCH  30  31
ATOM     31  O   UNL A   1      35.262  29.724  28.125  1.00  0.00    -0.458 OA
BRANCH  31  32
ATOM     32  C   UNL A   1      36.281  30.630  28.098  1.00  0.00     0.338 C 
ATOM     33  O   UNL A   1      36.103  31.834  27.959  1.00  0.00    -0.246 OA
BRANCH  32  34
ATOM     34  C   UNL A   1      37.528  29.960  28.589  1.00  0.00     0.060 A 
ATOM     35  C   UNL A   1      37.521  29.069  29.677  1.00  0.00     0.016 A 
ATOM     36  C   UNL A   1      38.614  29.972  27.715  1.00  0.00     0.016 A 
ATOM     37  C   UNL A   1      38.543  28.117  29.813  1.00  0.00     0.010 A 
ATOM     38  C   UNL A   1      39.482  28.913  27.720  1.00  0.00     0.010 A 
ATOM     39  C   UNL A   1      39.496  28.015  28.797  1.00  0.00    -0.014 A 
BRANCH  39  40
ATOM     40  C   UNL A   1      40.755  27.282  28.880  1.00  0.00     0.031 A 
ATOM     41  C   UNL A   1      40.962  25.876  28.486  1.00  0.00     0.074 A 
ATOM     42  C   UNL A   1      41.766  28.095  29.265  1.00  0.00     0.049 A 
ATOM     43  N   UNL A   1      41.913  25.150  28.970  1.00  0.00    -0.248 NA
ATOM     44  C   UNL A   1      40.148  25.145  27.515  1.00  0.00     0.031 C 
ATOM     45  C   UNL A   1      43.202  27.917  29.291  1.00  0.00     0.029 A 
ATOM     46  N   UNL A   1      41.587  29.326  29.893  1.00  0.00    -0.354 N 
ATOM     47  C   UNL A   1      42.045  24.039  28.162  1.00  0.00     0.074 A 
ATOM     48  C   UNL A   1      40.856  24.015  27.349  1.00  0.00     0.031 C 
ATOM     49  C   UNL A   1      43.722  28.818  30.154  1.00  0.00     0.029 A 
ATOM     50  C   UNL A   1      42.609  29.520  30.796  1.00  0.00     0.049 A 
ATOM     51  H   UNL A   1      40.850  29.955  29.720  1.00  0.00     0.167 HD
ATOM     52  C   UNL A   1      43.236  23.375  28.137  1.00  0.00     0.031 A 
ATOM     53  C   UNL A   1      42.262  29.472  32.117  1.00  0.00     0.031 A 
ATOM     54  C   UNL A   1      44.183  23.989  29.065  1.00  0.00     0.049 A 
ATOM     55  C   UNL A   1      42.882  28.257  32.759  1.00  0.00     0.074 A 
ATOM     56  C   UNL A   1      45.198  24.910  28.873  1.00  0.00     0.029 A 
ATOM     57  N   UNL A   1      43.905  23.981  30.428  1.00  0.00    -0.354 N 
ATOM     58  N   UNL A   1      43.115  27.132  32.137  1.00  0.00    -0.248 NA
ATOM     59  C   UNL A   1      43.391  28.269  34.124  1.00  0.00     0.031 C 
ATOM     60  C   UNL A   1      45.452  25.541  30.117  1.00  0.00     0.029 A 
ATOM     61  C   UNL A   1      44.603  24.990  31.063  1.00  0.00     0.049 A 
ATOM     62  H   UNL A   1      43.298  23.348  30.875  1.00  0.00     0.167 HD
ATOM     63  C   UNL A   1      43.905  26.341  32.930  1.00  0.00     0.074 A 
ATOM     64  C   UNL A   1      44.011  27.078  34.179  1.00  0.00     0.031 C 
ATOM     65  C   UNL A   1      44.483  25.181  32.499  1.00  0.00     0.031 A 
BRANCH  52  66
ATOM     66  C   UNL A   1      43.653  22.405  27.054  1.00  0.00    -0.014 A 
ATOM     67  C   UNL A   1      42.846  21.272  26.808  1.00  0.00     0.010 A 
ATOM     68  C   UNL A   1      44.807  22.535  26.256  1.00  0.00     0.010 A 
ATOM     69  C   UNL A   1      43.184  20.294  25.866  1.00  0.00     0.020 A 
ATOM     70  C   UNL A   1      45.164  21.552  25.308  1.00  0.00     0.020 A 
ATOM     71  C   UNL A   1      44.351  20.433  25.125  1.00  0.00     0.054 A 
BRANCH  71  72
ATOM     72  S   UNL A   1      44.756  19.137  23.920  1.00  0.00     0.124 S 
ATOM     73  O   UNL A   1      46.174  18.901  24.177  1.00  0.00    -0.237 OA
ATOM     74  O   UNL A   1      43.860  18.052  24.308  1.00  0.00    -0.237 OA
ATOM     75  O   UNL A   1      44.458  19.758  22.631  1.00  0.00    -0.744 OA
ENDBRANCH  71  72
ENDBRANCH  52  66
BRANCH  53  76
ATOM     76  C   UNL A   1      40.908  30.060  32.447  1.00  0.00    -0.014 A 
ATOM     77  C   UNL A   1      40.630  31.377  31.998  1.00  0.00     0.010 A 
ATOM     78  C   UNL A   1      39.828  29.306  32.937  1.00  0.00     0.010 A 
ATOM     79  C   UNL A   1      39.324  31.884  31.945  1.00  0.00     0.020 A 
ATOM     80  C   UNL A   1      38.512  29.822  32.912  1.00  0.00     0.020 A 
ATOM     81  C   UNL A   1      38.266  31.098  32.393  1.00  0.00     0.054 A 
BRANCH  81  82
ATOM     82  S   UNL A   1      36.563  31.690  32.114  1.00  0.00     0.124 S 
ATOM     83  O   UNL A   1      35.855  30.455  31.796  1.00  0.00    -0.237 OA
ATOM     84  O   UNL A   1      36.227  32.291  33.404  1.00  0.00    -0.237 OA
ATOM     85  O   UNL A   1      36.716  32.631  31.007  1.00  0.00    -0.744 OA
ENDBRANCH  81  82
ENDBRANCH  53  76
BRANCH  65  86
ATOM     86  C   UNL A   1      45.129  24.153  33.388  1.00  0.00    -0.014 A 
ATOM     87  C   UNL A   1      46.380  24.331  33.993  1.00  0.00     0.010 A 
ATOM     88  C   UNL A   1      44.386  23.007  33.764  1.00  0.00     0.010 A 
ATOM     89  C   UNL A   1      46.902  23.373  34.867  1.00  0.00     0.020 A 
ATOM     90  C   UNL A   1      44.869  22.077  34.681  1.00  0.00     0.020 A 
ATOM     91  C   UNL A   1      46.144  22.252  35.202  1.00  0.00     0.054 A 
BRANCH  91  92
ATOM     92  S   UNL A   1      46.808  21.055  36.380  1.00  0.00     0.124 S 
ATOM     93  O   UNL A   1      45.845  19.963  36.268  1.00  0.00    -0.237 OA
ATOM     94  O   UNL A   1      48.139  20.776  35.842  1.00  0.00    -0.237 OA
ATOM     95  O   UNL A   1      46.797  21.779  37.649  1.00  0.00    -0.744 OA
ENDBRANCH  91  92
ENDBRANCH  65  86
ENDBRANCH  39  40
ENDBRANCH  32  34
ENDBRANCH  31  32
ENDBRANCH  30  31
ENDBRANCH   1  30
TORSDOF 17
ENDMDL
MODEL 2
REMARK VINA RESULT:     -13.3      4.121     11.086
REMARK SMILES Cc1c(NC(=O)[C@@H]2CC=CC[C@@H]2C(=O)OCCOC(=O)c2ccc(-c3c4nc(c(-c5ccc(S(=O)(=O)[O-])cc5)c5ccc([nH]5)c(-c5ccc(S(=O)(=O)[O-])cc5)c5nc(c(-c6ccc(S(=O)(=O)[O-])cc6)c6ccc3[nH]6)C=C5)C=C4)cc2)cccc1C(=O)N1CCOCC1
REMARK SMILES IDX 16 1 15 2 13 3 14 4 12 5 7 6 8 7 9 8 11 9 10 10 5 11 4 12
REMARK SMILES IDX 6 14 3 15 1 16 2 17 84 18 81 19 83 20 82 21 85 22 86 23
REMARK SMILES IDX 87 24 88 25 92 26 89 27 91 28 90 29 17 30 18 31 19 32 20 33
REMARK SMILES IDX 21 34 22 35 80 36 23 37 79 38 24 39 25 40 26 41 73 42 27 43
REMARK SMILES IDX 78 44 72 45 74 46 28 47 77 48 71 49 70 50 29 52 59 53 40 54
REMARK SMILES IDX 58 55 41 56 44 57 57 58 75 59 42 60 43 61 56 63 76 64 45 65
REMARK SMILES IDX 30 66 31 67 39 68 32 69 38 70 33 71 34 72 35 73 36 74 37 75
REMARK SMILES IDX 60 76 61 77 69 78 62 79 68 80 63 81 64 82 65 83 66 84 67 85
REMARK SMILES IDX 46 86 47 87 55 88 48 89 54 90 49 91 50 92 51 93 52 94 53 95
REMARK H PARENT 4 13 74 51 44 62
REMARK Flexibility Score: inf
ROOT
ATOM      1  C   UNL A   1      37.141  22.175  24.830  1.00  0.00     0.274 C 
ENDROOT
BRANCH   1   2
ATOM      2  O   UNL A   1      35.803  22.168  24.322  1.00  0.00    -0.462 OA
BRANCH   2   3
ATOM      3  C   UNL A   1      35.057  21.070  24.597  1.00  0.00     0.310 C 
ATOM      4  O   UNL A   1      35.518  19.983  24.882  1.00  0.00    -0.252 OA
BRANCH   3   5
ATOM      5  C   UNL A   1      33.564  21.285  24.355  1.00  0.00     0.116 C 
ATOM      6  C   UNL A   1      32.829  20.995  25.665  1.00  0.00     0.097 C 
ATOM      7  C   UNL A   1      32.976  19.530  26.081  1.00  0.00     0.041 C 
ATOM      8  C   UNL A   1      32.648  18.620  24.925  1.00  0.00    -0.030 C 
ATOM      9  C   UNL A   1      32.909  20.464  23.245  1.00  0.00     0.043 C 
ATOM     10  C   UNL A   1      32.590  19.051  23.654  1.00  0.00    -0.030 C 
BRANCH   6  11
ATOM     11  C   UNL A   1      33.323  21.977  26.696  1.00  0.00     0.228 C 
ATOM     12  N   UNL A   1      33.640  23.234  26.206  1.00  0.00    -0.326 N 
ATOM     13  H   UNL A   1      34.567  23.496  26.002  1.00  0.00     0.169 HD
ATOM     14  O   UNL A   1      33.529  21.680  27.868  1.00  0.00    -0.274 OA
BRANCH  12  15
ATOM     15  C   UNL A   1      32.547  24.119  26.019  1.00  0.00     0.044 A 
ATOM     16  C   UNL A   1      34.141  25.601  24.768  1.00  0.00     0.047 C 
ATOM     17  C   UNL A   1      32.768  25.330  25.326  1.00  0.00    -0.015 A 
ATOM     18  C   UNL A   1      31.708  26.259  25.256  1.00  0.00     0.045 A 
ATOM     19  C   UNL A   1      31.323  23.848  26.637  1.00  0.00     0.026 A 
ATOM     20  C   UNL A   1      30.514  26.004  25.961  1.00  0.00     0.014 A 
ATOM     21  C   UNL A   1      30.320  24.808  26.646  1.00  0.00     0.003 A 
BRANCH  18  22
ATOM     22  C   UNL A   1      31.835  27.626  24.673  1.00  0.00     0.254 C 
ATOM     23  O   UNL A   1      31.368  27.810  23.548  1.00  0.00    -0.269 OA
ATOM     24  N   UNL A   1      32.371  28.667  25.415  1.00  0.00    -0.334 N 
ATOM     25  C   UNL A   1      33.542  28.593  26.303  1.00  0.00     0.148 C 
ATOM     26  C   UNL A   1      31.921  30.021  25.109  1.00  0.00     0.148 C 
ATOM     27  C   UNL A   1      33.434  29.565  27.497  1.00  0.00     0.181 C 
ATOM     28  C   UNL A   1      31.766  30.824  26.400  1.00  0.00     0.181 C 
ATOM     29  O   UNL A   1      33.025  30.877  27.084  1.00  0.00    -0.378 OA
ENDBRANCH  18  22
ENDBRANCH  12  15
ENDBRANCH   6  11
ENDBRANCH   3   5
ENDBRANCH   2   3
ENDBRANCH   1   2
BRANCH   1  30
ATOM     30  C   UNL A   1      37.228  23.119  26.042  1.00  0.00     0.275 C 
BRANCH  30  31
ATOM     31  O   UNL A   1      38.284  24.111  26.066  1.00  0.00    -0.458 OA
BRANCH  31  32
ATOM     32  C   UNL A   1      39.353  23.895  26.887  1.00  0.00     0.338 C 
ATOM     33  O   UNL A   1      39.998  22.855  26.886  1.00  0.00    -0.246 OA
BRANCH  32  34
ATOM     34  C   UNL A   1      39.766  25.205  27.486  1.00  0.00     0.060 A 
ATOM     35  C   UNL A   1      40.342  26.232  26.718  1.00  0.00     0.016 A 
ATOM     36  C   UNL A   1      39.236  25.498  28.741  1.00  0.00     0.016 A 
ATOM     37  C   UNL A   1      40.275  27.562  27.159  1.00  0.00     0.010 A 
ATOM     38  C   UNL A   1      38.976  26.803  29.064  1.00  0.00     0.010 A 
ATOM     39  C   UNL A   1      39.542  27.844  28.314  1.00  0.00    -0.014 A 
BRANCH  39  40
ATOM     40  C   UNL A   1      39.572  29.099  29.058  1.00  0.00     0.031 A 
ATOM     41  C   UNL A   1      38.590  30.193  28.945  1.00  0.00     0.074 A 
ATOM     42  C   UNL A   1      40.571  29.097  29.972  1.00  0.00     0.049 A 
ATOM     43  N   UNL A   1      38.870  31.415  29.251  1.00  0.00    -0.248 NA
ATOM     44  C   UNL A   1      37.206  30.039  28.497  1.00  0.00     0.031 C 
ATOM     45  C   UNL A   1      40.885  29.984  31.073  1.00  0.00     0.029 A 
ATOM     46  N   UNL A   1      41.664  28.233  29.939  1.00  0.00    -0.354 N 
ATOM     47  C   UNL A   1      37.679  32.101  29.371  1.00  0.00     0.074 A 
ATOM     48  C   UNL A   1      36.684  31.244  28.777  1.00  0.00     0.031 C 
ATOM     49  C   UNL A   1      42.188  29.817  31.389  1.00  0.00     0.029 A 
ATOM     50  C   UNL A   1      42.774  28.898  30.411  1.00  0.00     0.049 A 
ATOM     51  H   UNL A   1      41.646  27.299  29.629  1.00  0.00     0.167 HD
ATOM     52  C   UNL A   1      37.638  33.231  30.133  1.00  0.00     0.031 A 
ATOM     53  C   UNL A   1      43.739  29.190  29.487  1.00  0.00     0.031 A 
ATOM     54  C   UNL A   1      38.963  33.532  30.671  1.00  0.00     0.049 A 
ATOM     55  C   UNL A   1      43.811  30.682  29.285  1.00  0.00     0.074 A 
ATOM     56  C   UNL A   1      39.545  33.258  31.898  1.00  0.00     0.029 A 
ATOM     57  N   UNL A   1      40.000  33.840  29.798  1.00  0.00    -0.354 N 
ATOM     58  N   UNL A   1      42.792  31.492  29.395  1.00  0.00    -0.248 NA
ATOM     59  C   UNL A   1      45.070  31.378  29.059  1.00  0.00     0.031 C 
ATOM     60  C   UNL A   1      40.952  33.293  31.727  1.00  0.00     0.029 A 
ATOM     61  C   UNL A   1      41.219  33.605  30.403  1.00  0.00     0.049 A 
ATOM     62  H   UNL A   1      39.882  34.177  28.881  1.00  0.00     0.167 HD
ATOM     63  C   UNL A   1      43.249  32.783  29.402  1.00  0.00     0.074 A 
ATOM     64  C   UNL A   1      44.675  32.660  29.143  1.00  0.00     0.031 C 
ATOM     65  C   UNL A   1      42.461  33.860  29.691  1.00  0.00     0.031 A 
BRANCH  52  66
ATOM     66  C   UNL A   1      36.369  33.861  30.663  1.00  0.00    -0.014 A 
ATOM     67  C   UNL A   1      35.351  34.211  29.749  1.00  0.00     0.010 A 
ATOM     68  C   UNL A   1      36.113  34.141  32.019  1.00  0.00     0.010 A 
ATOM     69  C   UNL A   1      34.170  34.849  30.141  1.00  0.00     0.020 A 
ATOM     70  C   UNL A   1      34.930  34.792  32.429  1.00  0.00     0.020 A 
ATOM     71  C   UNL A   1      33.968  35.148  31.483  1.00  0.00     0.054 A 
BRANCH  71  72
ATOM     72  S   UNL A   1      32.425  35.984  31.949  1.00  0.00     0.124 S 
ATOM     73  O   UNL A   1      32.900  37.056  32.820  1.00  0.00    -0.237 OA
ATOM     74  O   UNL A   1      31.896  36.414  30.658  1.00  0.00    -0.237 OA
ATOM     75  O   UNL A   1      31.654  34.939  32.620  1.00  0.00    -0.744 OA
ENDBRANCH  71  72
ENDBRANCH  52  66
BRANCH  53  76
ATOM     76  C   UNL A   1      43.947  28.136  28.422  1.00  0.00    -0.014 A 
ATOM     77  C   UNL A   1      44.222  28.573  27.100  1.00  0.00     0.010 A 
ATOM     78  C   UNL A   1      44.137  26.771  28.701  1.00  0.00     0.010 A 
ATOM     79  C   UNL A   1      44.759  27.715  26.130  1.00  0.00     0.020 A 
ATOM     80  C   UNL A   1      44.652  25.895  27.718  1.00  0.00     0.020 A 
ATOM     81  C   UNL A   1      44.982  26.378  26.448  1.00  0.00     0.054 A 
BRANCH  81  82
ATOM     82  S   UNL A   1      45.879  25.338  25.247  1.00  0.00     0.124 S 
ATOM     83  O   UNL A   1      46.778  24.578  26.107  1.00  0.00    -0.237 OA
ATOM     84  O   UNL A   1      44.797  24.568  24.634  1.00  0.00    -0.237 OA
ATOM     85  O   UNL A   1      46.521  26.317  24.372  1.00  0.00    -0.744 OA
ENDBRANCH  81  82
ENDBRANCH  53  76
BRANCH  65  86
ATOM     86  C   UNL A   1      42.837  35.298  29.456  1.00  0.00    -0.014 A 
ATOM     87  C   UNL A   1      42.426  36.031  28.335  1.00  0.00     0.010 A 
ATOM     88  C   UNL A   1      43.515  36.006  30.479  1.00  0.00     0.010 A 
ATOM     89  C   UNL A   1      42.747  37.385  28.202  1.00  0.00     0.020 A 
ATOM     90  C   UNL A   1      43.785  37.368  30.384  1.00  0.00     0.020 A 
ATOM     91  C   UNL A   1      43.426  38.043  29.226  1.00  0.00     0.054 A 
BRANCH  91  92
ATOM     92  S   UNL A   1      43.778  39.807  29.063  1.00  0.00     0.124 S 
ATOM     93  O   UNL A   1      44.817  39.996  30.071  1.00  0.00    -0.237 OA
ATOM     94  O   UNL A   1      44.221  39.923  27.675  1.00  0.00    -0.237 OA
ATOM     95  O   UNL A   1      42.494  40.441  29.354  1.00  0.00    -0.744 OA
ENDBRANCH  91  92
ENDBRANCH  65  86
ENDBRANCH  39  40
ENDBRANCH  32  34
ENDBRANCH  31  32
ENDBRANCH  30  31
ENDBRANCH   1  30
TORSDOF 17
ENDMDL
MODEL 3
REMARK VINA RESULT:     -13.2      4.513     11.407
REMARK SMILES Cc1c(NC(=O)[C@@H]2CC=CC[C@@H]2C(=O)OCCOC(=O)c2ccc(-c3c4nc(c(-c5ccc(S(=O)(=O)[O-])cc5)c5ccc([nH]5)c(-c5ccc(S(=O)(=O)[O-])cc5)c5nc(c(-c6ccc(S(=O)(=O)[O-])cc6)c6ccc3[nH]6)C=C5)C=C4)cc2)cccc1C(=O)N1CCOCC1
REMARK SMILES IDX 16 1 15 2 13 3 14 4 12 5 7 6 8 7 9 8 11 9 10 10 5 11 4 12
REMARK SMILES IDX 6 14 3 15 1 16 2 17 84 18 81 19 83 20 82 21 85 22 86 23
REMARK SMILES IDX 87 24 88 25 92 26 89 27 91 28 90 29 17 30 18 31 19 32 20 33
REMARK SMILES IDX 21 34 22 35 80 36 23 37 79 38 24 39 25 40 26 41 73 42 27 43
REMARK SMILES IDX 78 44 72 45 74 46 28 47 77 48 71 49 70 50 29 52 59 53 40 54
REMARK SMILES IDX 58 55 41 56 44 57 57 58 75 59 42 60 43 61 56 63 76 64 45 65
REMARK SMILES IDX 30 66 31 67 39 68 32 69 38 70 33 71 34 72 35 73 36 74 37 75
REMARK SMILES IDX 60 76 61 77 69 78 62 79 68 80 63 81 64 82 65 83 66 84 67 85
REMARK SMILES IDX 46 86 47 87 55 88 48 89 54 90 49 91 50 92 51 93 52 94 53 95
REMARK H PARENT 4 13 74 51 44 62
REMARK Flexibility Score: inf
ROOT
ATOM      1  C   UNL A   1      36.469  23.749  25.302  1.00  0.00     0.274 C 
ENDROOT
BRANCH   1   2
ATOM      2  O   UNL A   1      35.208  24.378  25.556  1.00  0.00    -0.462 OA
BRANCH   2   3
ATOM      3  C   UNL A   1      34.142  23.554  25.714  1.00  0.00     0.310 C 
ATOM      4  O   UNL A   1      34.019  22.761  26.626  1.00  0.00    -0.252 OA
BRANCH   3   5
ATOM      5  C   UNL A   1      33.171  23.600  24.536  1.00  0.00     0.116 C 
ATOM      6  C   UNL A   1      31.760  23.372  25.082  1.00  0.00     0.097 C 
ATOM      7  C   UNL A   1      31.610  21.977  25.690  1.00  0.00     0.041 C 
ATOM      8  C   UNL A   1      32.126  20.929  24.737  1.00  0.00    -0.030 C 
ATOM      9  C   UNL A   1      33.410  22.614  23.393  1.00  0.00     0.043 C 
ATOM     10  C   UNL A   1      32.911  21.225  23.687  1.00  0.00    -0.030 C 
BRANCH   6  11
ATOM     11  C   UNL A   1      31.451  24.495  26.038  1.00  0.00     0.228 C 
ATOM     12  N   UNL A   1      31.724  25.767  25.561  1.00  0.00    -0.326 N 
ATOM     13  H   UNL A   1      32.552  26.245  25.794  1.00  0.00     0.169 HD
ATOM     14  O   UNL A   1      31.077  24.314  27.193  1.00  0.00    -0.274 OA
BRANCH  12  15
ATOM     15  C   UNL A   1      30.735  26.336  24.717  1.00  0.00     0.044 A 
ATOM     16  C   UNL A   1      32.527  27.895  23.905  1.00  0.00     0.047 C 
ATOM     17  C   UNL A   1      31.095  27.424  23.892  1.00  0.00    -0.015 A 
ATOM     18  C   UNL A   1      30.077  28.063  23.152  1.00  0.00     0.045 A 
ATOM     19  C   UNL A   1      29.408  25.909  24.818  1.00  0.00     0.026 A 
ATOM     20  C   UNL A   1      28.735  27.674  23.338  1.00  0.00     0.014 A 
ATOM     21  C   UNL A   1      28.401  26.604  24.163  1.00  0.00     0.003 A 
BRANCH  18  22
ATOM     22  C   UNL A   1      30.286  29.300  22.345  1.00  0.00     0.254 C 
ATOM     23  O   UNL A   1      31.142  29.263  21.459  1.00  0.00    -0.269 OA
ATOM     24  N   UNL A   1      29.476  30.411  22.525  1.00  0.00    -0.334 N 
ATOM     25  C   UNL A   1      29.009  30.951  23.811  1.00  0.00     0.148 C 
ATOM     26  C   UNL A   1      29.269  31.293  21.380  1.00  0.00     0.148 C 
ATOM     27  C   UNL A   1      27.619  31.612  23.699  1.00  0.00     0.181 C 
ATOM     28  C   UNL A   1      27.822  31.783  21.354  1.00  0.00     0.181 C 
ATOM     29  O   UNL A   1      27.533  32.490  22.567  1.00  0.00    -0.378 OA
ENDBRANCH  18  22
ENDBRANCH  12  15
ENDBRANCH   6  11
ENDBRANCH   3   5
ENDBRANCH   2   3
ENDBRANCH   1   2
BRANCH   1  30
ATOM     30  C   UNL A   1      37.440  24.055  26.456  1.00  0.00     0.275 C 
BRANCH  30  31
ATOM     31  O   UNL A   1      38.848  24.205  26.148  1.00  0.00    -0.458 OA
BRANCH  31  32
ATOM     32  C   UNL A   1      39.747  24.091  27.168  1.00  0.00     0.338 C 
ATOM     33  O   UNL A   1      40.356  23.057  27.411  1.00  0.00    -0.246 OA
BRANCH  32  34
ATOM     34  C   UNL A   1      40.078  25.465  27.666  1.00  0.00     0.060 A 
ATOM     35  C   UNL A   1      40.458  26.505  26.799  1.00  0.00     0.016 A 
ATOM     36  C   UNL A   1      39.654  25.766  28.959  1.00  0.00     0.016 A 
ATOM     37  C   UNL A   1      40.296  27.842  27.192  1.00  0.00     0.010 A 
ATOM     38  C   UNL A   1      39.290  27.053  29.256  1.00  0.00     0.010 A 
ATOM     39  C   UNL A   1      39.662  28.107  28.408  1.00  0.00    -0.014 A 
BRANCH  39  40
ATOM     40  C   UNL A   1      39.635  29.394  29.094  1.00  0.00     0.031 A 
ATOM     41  C   UNL A   1      38.581  30.417  28.969  1.00  0.00     0.074 A 
ATOM     42  C   UNL A   1      40.663  29.499  29.969  1.00  0.00     0.049 A 
ATOM     43  N   UNL A   1      38.791  31.667  29.210  1.00  0.00    -0.248 NA
ATOM     44  C   UNL A   1      37.195  30.154  28.580  1.00  0.00     0.031 C 
ATOM     45  C   UNL A   1      40.956  30.454  31.016  1.00  0.00     0.029 A 
ATOM     46  N   UNL A   1      41.809  28.706  29.934  1.00  0.00    -0.354 N 
ATOM     47  C   UNL A   1      37.562  32.281  29.343  1.00  0.00     0.074 A 
ATOM     48  C   UNL A   1      36.605  31.336  28.825  1.00  0.00     0.031 C 
ATOM     49  C   UNL A   1      42.277  30.386  31.291  1.00  0.00     0.029 A 
ATOM     50  C   UNL A   1      42.888  29.462  30.333  1.00  0.00     0.049 A 
ATOM     51  H   UNL A   1      41.841  27.759  29.666  1.00  0.00     0.167 HD
ATOM     52  C   UNL A   1      37.473  33.440  30.055  1.00  0.00     0.031 A 
ATOM     53  C   UNL A   1      43.799  29.770  29.362  1.00  0.00     0.031 A 
ATOM     54  C   UNL A   1      38.793  33.850  30.529  1.00  0.00     0.049 A 
ATOM     55  C   UNL A   1      43.767  31.253  29.092  1.00  0.00     0.074 A 
ATOM     56  C   UNL A   1      39.433  33.672  31.744  1.00  0.00     0.029 A 
ATOM     57  N   UNL A   1      39.778  34.182  29.605  1.00  0.00    -0.354 N 
ATOM     58  N   UNL A   1      42.701  32.001  29.203  1.00  0.00    -0.248 NA
ATOM     59  C   UNL A   1      44.969  32.017  28.788  1.00  0.00     0.031 C 
ATOM     60  C   UNL A   1      40.828  33.789  31.519  1.00  0.00     0.029 A 
ATOM     61  C   UNL A   1      41.029  34.054  30.174  1.00  0.00     0.049 A 
ATOM     62  H   UNL A   1      39.606  34.468  28.679  1.00  0.00     0.167 HD
ATOM     63  C   UNL A   1      43.073  33.317  29.136  1.00  0.00     0.074 A 
ATOM     64  C   UNL A   1      44.494  33.273  28.829  1.00  0.00     0.031 C 
ATOM     65  C   UNL A   1      42.226  34.354  29.405  1.00  0.00     0.031 A 
BRANCH  52  66
ATOM     66  C   UNL A   1      36.185  34.013  30.603  1.00  0.00    -0.014 A 
ATOM     67  C   UNL A   1      35.230  34.526  29.697  1.00  0.00     0.010 A 
ATOM     68  C   UNL A   1      35.851  34.085  31.969  1.00  0.00     0.010 A 
ATOM     69  C   UNL A   1      34.037  35.125  30.116  1.00  0.00     0.020 A 
ATOM     70  C   UNL A   1      34.655  34.694  32.407  1.00  0.00     0.020 A 
ATOM     71  C   UNL A   1      33.758  35.217  31.474  1.00  0.00     0.054 A 
BRANCH  71  72
ATOM     72  S   UNL A   1      32.204  36.008  31.976  1.00  0.00     0.124 S 
ATOM     73  O   UNL A   1      32.669  37.111  32.814  1.00  0.00    -0.237 OA
ATOM     74  O   UNL A   1      31.620  36.398  30.696  1.00  0.00    -0.237 OA
ATOM     75  O   UNL A   1      31.491  34.950  32.688  1.00  0.00    -0.744 OA
ENDBRANCH  71  72
ENDBRANCH  52  66
BRANCH  53  76
ATOM     76  C   UNL A   1      44.039  28.683  28.338  1.00  0.00    -0.014 A 
ATOM     77  C   UNL A   1      44.266  27.364  28.811  1.00  0.00     0.010 A 
ATOM     78  C   UNL A   1      43.800  28.840  26.962  1.00  0.00     0.010 A 
ATOM     79  C   UNL A   1      44.160  26.246  27.974  1.00  0.00     0.020 A 
ATOM     80  C   UNL A   1      43.719  27.718  26.107  1.00  0.00     0.020 A 
ATOM     81  C   UNL A   1      43.875  26.427  26.623  1.00  0.00     0.054 A 
BRANCH  81  82
ATOM     82  S   UNL A   1      43.527  24.955  25.603  1.00  0.00     0.124 S 
ATOM     83  O   UNL A   1      42.424  25.413  24.766  1.00  0.00    -0.237 OA
ATOM     84  O   UNL A   1      44.798  24.751  24.908  1.00  0.00    -0.237 OA
ATOM     85  O   UNL A   1      43.187  23.936  26.593  1.00  0.00    -0.744 OA
ENDBRANCH  81  82
ENDBRANCH  53  76
BRANCH  65  86
ATOM     86  C   UNL A   1      42.500  35.800  29.092  1.00  0.00    -0.014 A 
ATOM     87  C   UNL A   1      43.343  36.611  29.863  1.00  0.00     0.010 A 
ATOM     88  C   UNL A   1      42.009  36.345  27.880  1.00  0.00     0.010 A 
ATOM     89  C   UNL A   1      43.618  37.929  29.486  1.00  0.00     0.020 A 
ATOM     90  C   UNL A   1      42.326  37.635  27.464  1.00  0.00     0.020 A 
ATOM     91  C   UNL A   1      43.106  38.432  28.291  1.00  0.00     0.054 A 
BRANCH  91  92
ATOM     92  S   UNL A   1      43.521  40.117  27.790  1.00  0.00     0.124 S 
ATOM     93  O   UNL A   1      42.579  40.342  26.697  1.00  0.00    -0.237 OA
ATOM     94  O   UNL A   1      43.268  40.888  29.006  1.00  0.00    -0.237 OA
ATOM     95  O   UNL A   1      44.926  40.023  27.402  1.00  0.00    -0.744 OA
ENDBRANCH  91  92
ENDBRANCH  65  86
ENDBRANCH  39  40
ENDBRANCH  32  34
ENDBRANCH  31  32
ENDBRANCH  30  31
ENDBRANCH   1  30
TORSDOF 17
ENDMDL
