MODEL 1
REMARK VINA RESULT:     -11.9      0.000      0.000
REMARK SMILES O=C(COc1ccc(/C=C2\SC(=O)N(Cc3cc4c(cc3Cl)OCO4)C2=O)cc1)OCCOC(=O)c1ccc(-c2c3nc(c(-c4ccc(S(=O)(=O)[O-])cc4)c4ccc([nH]4)c(-c4ccc(S(=O)(=O)[O-])cc4)c4nc(c(-c5ccc(S(=O)(=O)[O-])cc5)c5ccc2[nH]5)C=C4)C=C3)cc1
REMARK SMILES IDX 31 1 30 2 2 3 1 4 3 5 4 6 5 7 6 8 29 9 7 10 28 11 8 12 9 13
REMARK SMILES IDX 10 14 11 15 26 16 12 17 14 18 27 19 13 20 15 21 16 22 17 23
REMARK SMILES IDX 21 24 18 25 20 26 22 27 19 28 25 29 23 30 24 31 32 32 33 33
REMARK SMILES IDX 34 34 35 35 36 36 37 37 95 38 38 39 94 40 39 41 40 42 41 43
REMARK SMILES IDX 88 44 42 45 93 46 87 47 89 48 43 49 92 50 86 51 85 52 44 54
REMARK SMILES IDX 74 55 55 56 73 57 56 58 59 59 72 60 90 61 57 62 58 63 71 65
REMARK SMILES IDX 91 66 60 67 45 68 46 69 54 70 47 71 53 72 48 73 49 74 50 75
REMARK SMILES IDX 51 76 52 77 75 78 76 79 84 80 77 81 83 82 78 83 79 84 80 85
REMARK SMILES IDX 81 86 82 87 61 88 62 89 70 90 63 91 69 92 64 93 65 94 66 95
REMARK SMILES IDX 67 96 68 97
REMARK H PARENT 89 53 59 64
REMARK Flexibility Score: inf
ROOT
ATOM      1  C   UNL A   1      35.057  33.510  32.043  1.00  0.00     0.274 C 
ENDROOT
BRANCH   1   2
ATOM      2  O   UNL A   1      34.114  33.385  30.961  1.00  0.00    -0.460 OA
BRANCH   2   3
ATOM      3  C   UNL A   1      34.476  33.434  29.655  1.00  0.00     0.344 C 
ATOM      4  O   UNL A   1      34.920  34.476  29.176  1.00  0.00    -0.248 OA
BRANCH   3   5
ATOM      5  C   UNL A   1      34.390  32.147  28.830  1.00  0.00     0.351 C 
BRANCH   5   6
ATOM      6  O   UNL A   1      33.422  32.143  27.781  1.00  0.00    -0.482 OA
BRANCH   6   7
ATOM      7  C   UNL A   1      33.307  30.876  27.281  1.00  0.00     0.120 A 
ATOM      8  C   UNL A   1      34.432  30.051  27.266  1.00  0.00     0.047 A 
ATOM      9  C   UNL A   1      32.074  30.418  26.830  1.00  0.00     0.047 A 
ATOM     10  C   UNL A   1      34.303  28.723  26.855  1.00  0.00     0.012 A 
ATOM     11  C   UNL A   1      31.938  29.095  26.463  1.00  0.00     0.012 A 
ATOM     12  C   UNL A   1      33.049  28.246  26.462  1.00  0.00    -0.024 A 
BRANCH  12  13
ATOM     13  C   UNL A   1      32.813  26.864  26.072  1.00  0.00     0.029 C 
ATOM     14  C   UNL A   1      32.776  26.465  24.797  1.00  0.00     0.083 C 
ATOM     15  S   UNL A   1      33.252  27.297  23.368  1.00  0.00    -0.022 SA
ATOM     16  C   UNL A   1      32.296  25.119  24.441  1.00  0.00     0.268 C 
ATOM     17  C   UNL A   1      33.189  25.822  22.413  1.00  0.00     0.293 C 
ATOM     18  N   UNL A   1      32.781  24.782  23.208  1.00  0.00    -0.264 N 
ATOM     19  O   UNL A   1      31.504  24.480  25.117  1.00  0.00    -0.268 OA
ATOM     20  O   UNL A   1      33.452  25.786  21.230  1.00  0.00    -0.261 OA
BRANCH  18  21
ATOM     21  C   UNL A   1      32.789  23.411  22.758  1.00  0.00     0.167 C 
BRANCH  21  22
ATOM     22  C   UNL A   1      33.873  22.632  23.488  1.00  0.00    -0.005 A 
ATOM     23  C   UNL A   1      35.144  23.222  23.629  1.00  0.00     0.057 A 
ATOM     24  C   UNL A   1      33.642  21.361  24.086  1.00  0.00     0.050 A 
ATOM     25  C   UNL A   1      36.115  22.528  24.324  1.00  0.00     0.166 A 
ATOM     26  C   UNL A   1      34.619  20.730  24.860  1.00  0.00     0.071 A 
ATOM     27  Cl  UNL A   1      32.196  20.457  23.845  1.00  0.00    -0.084 Cl
ATOM     28  C   UNL A   1      35.850  21.329  24.939  1.00  0.00     0.167 A 
ATOM     29  O   UNL A   1      37.415  22.902  24.475  1.00  0.00    -0.454 OA
ATOM     30  O   UNL A   1      36.940  20.811  25.564  1.00  0.00    -0.454 OA
ATOM     31  C   UNL A   1      37.956  21.714  25.095  1.00  0.00     0.468 C 
ENDBRANCH  21  22
ENDBRANCH  18  21
ENDBRANCH  12  13
ENDBRANCH   6   7
ENDBRANCH   5   6
ENDBRANCH   3   5
ENDBRANCH   2   3
ENDBRANCH   1   2
BRANCH   1  32
ATOM     32  C   UNL A   1      35.615  32.140  32.433  1.00  0.00     0.275 C 
BRANCH  32  33
ATOM     33  O   UNL A   1      36.730  31.806  31.585  1.00  0.00    -0.458 OA
BRANCH  33  34
ATOM     34  C   UNL A   1      36.835  30.503  31.212  1.00  0.00     0.338 C 
ATOM     35  O   UNL A   1      35.928  29.696  31.125  1.00  0.00    -0.246 OA
BRANCH  34  36
ATOM     36  C   UNL A   1      38.211  30.275  30.710  1.00  0.00     0.060 A 
ATOM     37  C   UNL A   1      38.418  30.180  29.326  1.00  0.00     0.016 A 
ATOM     38  C   UNL A   1      39.297  30.200  31.587  1.00  0.00     0.016 A 
ATOM     39  C   UNL A   1      39.705  29.975  28.820  1.00  0.00     0.010 A 
ATOM     40  C   UNL A   1      40.579  29.985  31.082  1.00  0.00     0.010 A 
ATOM     41  C   UNL A   1      40.787  29.839  29.699  1.00  0.00    -0.014 A 
BRANCH  41  42
ATOM     42  C   UNL A   1      42.096  29.330  29.227  1.00  0.00     0.031 A 
ATOM     43  C   UNL A   1      43.224  30.316  29.085  1.00  0.00     0.074 A 
ATOM     44  C   UNL A   1      42.276  28.046  28.872  1.00  0.00     0.049 A 
ATOM     45  N   UNL A   1      44.415  30.148  28.574  1.00  0.00    -0.248 NA
ATOM     46  C   UNL A   1      42.960  31.680  29.574  1.00  0.00     0.031 C 
ATOM     47  C   UNL A   1      41.282  26.983  28.992  1.00  0.00     0.029 A 
ATOM     48  N   UNL A   1      43.368  27.426  28.312  1.00  0.00    -0.354 N 
ATOM     49  C   UNL A   1      45.039  31.387  28.668  1.00  0.00     0.074 A 
ATOM     50  C   UNL A   1      44.087  32.301  29.260  1.00  0.00     0.031 C 
ATOM     51  C   UNL A   1      41.803  25.843  28.500  1.00  0.00     0.029 A 
ATOM     52  C   UNL A   1      43.152  26.106  27.998  1.00  0.00     0.049 A 
ATOM     53  H   UNL A   1      44.224  27.886  28.151  1.00  0.00     0.167 HD
ATOM     54  C   UNL A   1      46.292  31.737  28.292  1.00  0.00     0.031 A 
ATOM     55  C   UNL A   1      43.942  25.220  27.358  1.00  0.00     0.031 A 
ATOM     56  C   UNL A   1      47.230  30.840  27.677  1.00  0.00     0.049 A 
ATOM     57  C   UNL A   1      45.311  25.645  26.887  1.00  0.00     0.074 A 
ATOM     58  C   UNL A   1      48.525  31.100  27.265  1.00  0.00     0.029 A 
ATOM     59  N   UNL A   1      46.970  29.512  27.374  1.00  0.00    -0.354 N 
ATOM     60  N   UNL A   1      45.898  26.813  27.002  1.00  0.00    -0.248 NA
ATOM     61  C   UNL A   1      46.125  24.629  26.202  1.00  0.00     0.031 C 
ATOM     62  C   UNL A   1      49.032  29.941  26.667  1.00  0.00     0.029 A 
ATOM     63  C   UNL A   1      48.072  28.944  26.760  1.00  0.00     0.049 A 
ATOM     64  H   UNL A   1      46.126  29.043  27.567  1.00  0.00     0.167 HD
ATOM     65  C   UNL A   1      47.162  26.662  26.437  1.00  0.00     0.074 A 
ATOM     66  C   UNL A   1      47.254  25.291  25.979  1.00  0.00     0.031 C 
ATOM     67  C   UNL A   1      48.157  27.574  26.318  1.00  0.00     0.031 A 
BRANCH  54  68
ATOM     68  C   UNL A   1      46.688  33.173  28.500  1.00  0.00    -0.014 A 
ATOM     69  C   UNL A   1      47.323  33.588  29.684  1.00  0.00     0.010 A 
ATOM     70  C   UNL A   1      46.406  34.121  27.502  1.00  0.00     0.010 A 
ATOM     71  C   UNL A   1      47.619  34.938  29.889  1.00  0.00     0.020 A 
ATOM     72  C   UNL A   1      46.725  35.468  27.691  1.00  0.00     0.020 A 
ATOM     73  C   UNL A   1      47.307  35.871  28.894  1.00  0.00     0.054 A 
BRANCH  73  74
ATOM     74  S   UNL A   1      47.683  37.620  29.190  1.00  0.00     0.124 S 
ATOM     75  O   UNL A   1      48.959  37.774  28.497  1.00  0.00    -0.237 OA
ATOM     76  O   UNL A   1      46.548  38.302  28.576  1.00  0.00    -0.237 OA
ATOM     77  O   UNL A   1      47.750  37.717  30.647  1.00  0.00    -0.744 OA
ENDBRANCH  73  74
ENDBRANCH  54  68
BRANCH  55  78
ATOM     78  C   UNL A   1      43.452  23.836  27.113  1.00  0.00    -0.014 A 
ATOM     79  C   UNL A   1      43.433  22.890  28.152  1.00  0.00     0.010 A 
ATOM     80  C   UNL A   1      42.986  23.464  25.839  1.00  0.00     0.010 A 
ATOM     81  C   UNL A   1      42.962  21.593  27.920  1.00  0.00     0.020 A 
ATOM     82  C   UNL A   1      42.492  22.177  25.610  1.00  0.00     0.020 A 
ATOM     83  C   UNL A   1      42.488  21.247  26.651  1.00  0.00     0.054 A 
BRANCH  83  84
ATOM     84  S   UNL A   1      41.809  19.583  26.393  1.00  0.00     0.124 S 
ATOM     85  O   UNL A   1      42.271  18.878  27.584  1.00  0.00    -0.237 OA
ATOM     86  O   UNL A   1      40.372  19.837  26.324  1.00  0.00    -0.237 OA
ATOM     87  O   UNL A   1      42.418  19.159  25.135  1.00  0.00    -0.744 OA
ENDBRANCH  83  84
ENDBRANCH  55  78
BRANCH  67  88
ATOM     88  C   UNL A   1      49.462  27.125  25.714  1.00  0.00    -0.014 A 
ATOM     89  C   UNL A   1      49.822  27.474  24.402  1.00  0.00     0.010 A 
ATOM     90  C   UNL A   1      50.382  26.422  26.514  1.00  0.00     0.010 A 
ATOM     91  C   UNL A   1      51.077  27.117  23.896  1.00  0.00     0.020 A 
ATOM     92  C   UNL A   1      51.645  26.085  26.021  1.00  0.00     0.020 A 
ATOM     93  C   UNL A   1      51.982  26.427  24.711  1.00  0.00     0.054 A 
BRANCH  93  94
ATOM     94  S   UNL A   1      53.630  26.039  24.057  1.00  0.00     0.124 S 
ATOM     95  O   UNL A   1      53.383  25.988  22.619  1.00  0.00    -0.237 OA
ATOM     96  O   UNL A   1      54.432  27.171  24.517  1.00  0.00    -0.237 OA
ATOM     97  O   UNL A   1      53.956  24.759  24.680  1.00  0.00    -0.744 OA
ENDBRANCH  93  94
ENDBRANCH  67  88
ENDBRANCH  41  42
ENDBRANCH  34  36
ENDBRANCH  33  34
ENDBRANCH  32  33
ENDBRANCH   1  32
TORSDOF 19
ENDMDL
MODEL 2
REMARK VINA RESULT:     -11.7      0.614      7.848
REMARK SMILES O=C(COc1ccc(/C=C2\SC(=O)N(Cc3cc4c(cc3Cl)OCO4)C2=O)cc1)OCCOC(=O)c1ccc(-c2c3nc(c(-c4ccc(S(=O)(=O)[O-])cc4)c4ccc([nH]4)c(-c4ccc(S(=O)(=O)[O-])cc4)c4nc(c(-c5ccc(S(=O)(=O)[O-])cc5)c5ccc2[nH]5)C=C4)C=C3)cc1
REMARK SMILES IDX 31 1 30 2 2 3 1 4 3 5 4 6 5 7 6 8 29 9 7 10 28 11 8 12 9 13
REMARK SMILES IDX 10 14 11 15 26 16 12 17 14 18 27 19 13 20 15 21 16 22 17 23
REMARK SMILES IDX 21 24 18 25 20 26 22 27 19 28 25 29 23 30 24 31 32 32 33 33
REMARK SMILES IDX 34 34 35 35 36 36 37 37 95 38 38 39 94 40 39 41 40 42 41 43
REMARK SMILES IDX 88 44 42 45 93 46 87 47 89 48 43 49 92 50 86 51 85 52 44 54
REMARK SMILES IDX 74 55 55 56 73 57 56 58 59 59 72 60 90 61 57 62 58 63 71 65
REMARK SMILES IDX 91 66 60 67 45 68 46 69 54 70 47 71 53 72 48 73 49 74 50 75
REMARK SMILES IDX 51 76 52 77 75 78 76 79 84 80 77 81 83 82 78 83 79 84 80 85
REMARK SMILES IDX 81 86 82 87 61 88 62 89 70 90 63 91 69 92 64 93 65 94 66 95
REMARK SMILES IDX 67 96 68 97
REMARK H PARENT 89 53 59 64
REMARK Flexibility Score: inf
ROOT
ATOM      1  C   UNL A   1      37.062  33.731  30.394  1.00  0.00     0.274 C 
ENDROOT
BRANCH   1   2
ATOM      2  O   UNL A   1      36.004  34.275  29.582  1.00  0.00    -0.460 OA
BRANCH   2   3
ATOM      3  C   UNL A   1      34.704  33.918  29.725  1.00  0.00     0.344 C 
ATOM      4  O   UNL A   1      33.895  34.712  30.202  1.00  0.00    -0.248 OA
BRANCH   3   5
ATOM      5  C   UNL A   1      34.267  32.544  29.209  1.00  0.00     0.351 C 
BRANCH   5   6
ATOM      6  O   UNL A   1      34.526  32.285  27.829  1.00  0.00    -0.482 OA
BRANCH   6   7
ATOM      7  C   UNL A   1      34.128  31.013  27.529  1.00  0.00     0.120 A 
ATOM      8  C   UNL A   1      32.783  30.775  27.246  1.00  0.00     0.047 A 
ATOM      9  C   UNL A   1      35.066  29.988  27.478  1.00  0.00     0.047 A 
ATOM     10  C   UNL A   1      32.384  29.501  26.837  1.00  0.00     0.012 A 
ATOM     11  C   UNL A   1      34.678  28.740  27.035  1.00  0.00     0.012 A 
ATOM     12  C   UNL A   1      33.339  28.487  26.724  1.00  0.00    -0.024 A 
BRANCH  12  13
ATOM     13  C   UNL A   1      33.021  27.147  26.254  1.00  0.00     0.029 C 
ATOM     14  C   UNL A   1      32.966  26.826  24.957  1.00  0.00     0.083 C 
ATOM     15  S   UNL A   1      33.498  27.710  23.580  1.00  0.00    -0.022 SA
ATOM     16  C   UNL A   1      32.408  25.535  24.522  1.00  0.00     0.268 C 
ATOM     17  C   UNL A   1      33.351  26.300  22.540  1.00  0.00     0.293 C 
ATOM     18  N   UNL A   1      32.878  25.242  23.273  1.00  0.00    -0.264 N 
ATOM     19  O   UNL A   1      31.576  24.906  25.159  1.00  0.00    -0.268 OA
ATOM     20  O   UNL A   1      33.617  26.318  21.357  1.00  0.00    -0.261 OA
BRANCH  18  21
ATOM     21  C   UNL A   1      32.806  23.901  22.743  1.00  0.00     0.167 C 
BRANCH  21  22
ATOM     22  C   UNL A   1      33.759  22.991  23.503  1.00  0.00    -0.005 A 
ATOM     23  C   UNL A   1      35.143  23.237  23.406  1.00  0.00     0.057 A 
ATOM     24  C   UNL A   1      33.312  21.942  24.354  1.00  0.00     0.050 A 
ATOM     25  C   UNL A   1      36.003  22.432  24.127  1.00  0.00     0.166 A 
ATOM     26  C   UNL A   1      34.205  21.207  25.139  1.00  0.00     0.071 A 
ATOM     27  Cl  UNL A   1      31.669  21.428  24.431  1.00  0.00    -0.084 Cl
ATOM     28  C   UNL A   1      35.543  21.462  24.984  1.00  0.00     0.167 A 
ATOM     29  O   UNL A   1      37.363  22.465  24.078  1.00  0.00    -0.454 OA
ATOM     30  O   UNL A   1      36.550  20.781  25.591  1.00  0.00    -0.454 OA
ATOM     31  C   UNL A   1      37.680  21.293  24.861  1.00  0.00     0.468 C 
ENDBRANCH  21  22
ENDBRANCH  18  21
ENDBRANCH  12  13
ENDBRANCH   6   7
ENDBRANCH   5   6
ENDBRANCH   3   5
ENDBRANCH   2   3
ENDBRANCH   1   2
BRANCH   1  32
ATOM     32  C   UNL A   1      36.496  33.109  31.673  1.00  0.00     0.275 C 
BRANCH  32  33
ATOM     33  O   UNL A   1      37.315  31.999  32.083  1.00  0.00    -0.458 OA
BRANCH  33  34
ATOM     34  C   UNL A   1      37.035  30.798  31.511  1.00  0.00     0.338 C 
ATOM     35  O   UNL A   1      35.938  30.282  31.405  1.00  0.00    -0.246 OA
BRANCH  34  36
ATOM     36  C   UNL A   1      38.260  30.311  30.833  1.00  0.00     0.060 A 
ATOM     37  C   UNL A   1      39.295  29.773  31.612  1.00  0.00     0.016 A 
ATOM     38  C   UNL A   1      38.373  30.340  29.440  1.00  0.00     0.016 A 
ATOM     39  C   UNL A   1      40.458  29.296  31.001  1.00  0.00     0.010 A 
ATOM     40  C   UNL A   1      39.539  29.874  28.832  1.00  0.00     0.010 A 
ATOM     41  C   UNL A   1      40.601  29.379  29.609  1.00  0.00    -0.014 A 
BRANCH  41  42
ATOM     42  C   UNL A   1      41.917  29.166  28.962  1.00  0.00     0.031 A 
ATOM     43  C   UNL A   1      42.229  27.788  28.444  1.00  0.00     0.074 A 
ATOM     44  C   UNL A   1      42.840  30.140  28.886  1.00  0.00     0.049 A 
ATOM     45  N   UNL A   1      43.348  27.317  27.959  1.00  0.00    -0.248 NA
ATOM     46  C   UNL A   1      41.131  26.809  28.496  1.00  0.00     0.031 C 
ATOM     47  C   UNL A   1      42.655  31.523  29.315  1.00  0.00     0.029 A 
ATOM     48  N   UNL A   1      44.136  30.097  28.432  1.00  0.00    -0.354 N 
ATOM     49  C   UNL A   1      43.093  25.984  27.660  1.00  0.00     0.074 A 
ATOM     50  C   UNL A   1      41.724  25.716  28.042  1.00  0.00     0.031 C 
ATOM     51  C   UNL A   1      43.806  32.195  29.124  1.00  0.00     0.029 A 
ATOM     52  C   UNL A   1      44.816  31.281  28.592  1.00  0.00     0.049 A 
ATOM     53  H   UNL A   1      44.540  29.293  28.030  1.00  0.00     0.167 HD
ATOM     54  C   UNL A   1      43.923  25.061  27.120  1.00  0.00     0.031 A 
ATOM     55  C   UNL A   1      46.110  31.583  28.361  1.00  0.00     0.031 A 
ATOM     56  C   UNL A   1      45.292  25.315  26.767  1.00  0.00     0.049 A 
ATOM     57  C   UNL A   1      47.039  30.525  27.821  1.00  0.00     0.074 A 
ATOM     58  C   UNL A   1      46.212  24.446  26.209  1.00  0.00     0.029 A 
ATOM     59  N   UNL A   1      45.942  26.527  26.949  1.00  0.00    -0.354 N 
ATOM     60  N   UNL A   1      46.779  29.274  27.521  1.00  0.00    -0.248 NA
ATOM     61  C   UNL A   1      48.436  30.921  27.583  1.00  0.00     0.031 C 
ATOM     62  C   UNL A   1      47.434  25.118  26.099  1.00  0.00     0.029 A 
ATOM     63  C   UNL A   1      47.258  26.422  26.535  1.00  0.00     0.049 A 
ATOM     64  H   UNL A   1      45.528  27.340  27.319  1.00  0.00     0.167 HD
ATOM     65  C   UNL A   1      47.970  28.745  27.028  1.00  0.00     0.074 A 
ATOM     66  C   UNL A   1      48.950  29.811  27.070  1.00  0.00     0.031 C 
ATOM     67  C   UNL A   1      48.222  27.494  26.572  1.00  0.00     0.031 A 
BRANCH  54  68
ATOM     68  C   UNL A   1      43.369  23.676  26.928  1.00  0.00    -0.014 A 
ATOM     69  C   UNL A   1      43.220  22.796  28.015  1.00  0.00     0.010 A 
ATOM     70  C   UNL A   1      43.008  23.245  25.640  1.00  0.00     0.010 A 
ATOM     71  C   UNL A   1      42.771  21.490  27.808  1.00  0.00     0.020 A 
ATOM     72  C   UNL A   1      42.532  21.948  25.432  1.00  0.00     0.020 A 
ATOM     73  C   UNL A   1      42.441  21.071  26.515  1.00  0.00     0.054 A 
BRANCH  73  74
ATOM     74  S   UNL A   1      41.878  19.365  26.267  1.00  0.00     0.124 S 
ATOM     75  O   UNL A   1      42.256  18.738  27.531  1.00  0.00    -0.237 OA
ATOM     76  O   UNL A   1      40.443  19.527  26.051  1.00  0.00    -0.237 OA
ATOM     77  O   UNL A   1      42.634  18.918  25.100  1.00  0.00    -0.744 OA
ENDBRANCH  73  74
ENDBRANCH  54  68
BRANCH  55  78
ATOM     78  C   UNL A   1      46.611  32.954  28.652  1.00  0.00    -0.014 A 
ATOM     79  C   UNL A   1      46.464  33.984  27.707  1.00  0.00     0.010 A 
ATOM     80  C   UNL A   1      47.225  33.239  29.885  1.00  0.00     0.010 A 
ATOM     81  C   UNL A   1      46.926  35.275  27.989  1.00  0.00     0.020 A 
ATOM     82  C   UNL A   1      47.667  34.532  30.179  1.00  0.00     0.020 A 
ATOM     83  C   UNL A   1      47.519  35.542  29.226  1.00  0.00     0.054 A 
BRANCH  83  84
ATOM     84  S   UNL A   1      48.042  37.239  29.600  1.00  0.00     0.124 S 
ATOM     85  O   UNL A   1      49.276  37.019  30.347  1.00  0.00    -0.237 OA
ATOM     86  O   UNL A   1      48.200  37.820  28.270  1.00  0.00    -0.237 OA
ATOM     87  O   UNL A   1      46.926  37.776  30.376  1.00  0.00    -0.744 OA
ENDBRANCH  83  84
ENDBRANCH  55  78
BRANCH  67  88
ATOM     88  C   UNL A   1      49.597  27.201  26.030  1.00  0.00    -0.014 A 
ATOM     89  C   UNL A   1      50.626  26.724  26.859  1.00  0.00     0.010 A 
ATOM     90  C   UNL A   1      49.829  27.317  24.646  1.00  0.00     0.010 A 
ATOM     91  C   UNL A   1      51.868  26.378  26.313  1.00  0.00     0.020 A 
ATOM     92  C   UNL A   1      51.058  26.950  24.095  1.00  0.00     0.020 A 
ATOM     93  C   UNL A   1      52.075  26.490  24.934  1.00  0.00     0.054 A 
BRANCH  93  94
ATOM     94  S   UNL A   1      53.668  25.967  24.241  1.00  0.00     0.124 S 
ATOM     95  O   UNL A   1      54.583  26.959  24.798  1.00  0.00    -0.237 OA
ATOM     96  O   UNL A   1      53.818  24.611  24.766  1.00  0.00    -0.237 OA
ATOM     97  O   UNL A   1      53.461  26.049  22.798  1.00  0.00    -0.744 OA
ENDBRANCH  93  94
ENDBRANCH  67  88
ENDBRANCH  41  42
ENDBRANCH  34  36
ENDBRANCH  33  34
ENDBRANCH  32  33
ENDBRANCH   1  32
TORSDOF 19
ENDMDL
MODEL 3
REMARK VINA RESULT:     -11.3      5.613     11.811
REMARK SMILES O=C(COc1ccc(/C=C2\SC(=O)N(Cc3cc4c(cc3Cl)OCO4)C2=O)cc1)OCCOC(=O)c1ccc(-c2c3nc(c(-c4ccc(S(=O)(=O)[O-])cc4)c4ccc([nH]4)c(-c4ccc(S(=O)(=O)[O-])cc4)c4nc(c(-c5ccc(S(=O)(=O)[O-])cc5)c5ccc2[nH]5)C=C4)C=C3)cc1
REMARK SMILES IDX 31 1 30 2 2 3 1 4 3 5 4 6 5 7 6 8 29 9 7 10 28 11 8 12 9 13
REMARK SMILES IDX 10 14 11 15 26 16 12 17 14 18 27 19 13 20 15 21 16 22 17 23
REMARK SMILES IDX 21 24 18 25 20 26 22 27 19 28 25 29 23 30 24 31 32 32 33 33
REMARK SMILES IDX 34 34 35 35 36 36 37 37 95 38 38 39 94 40 39 41 40 42 41 43
REMARK SMILES IDX 88 44 42 45 93 46 87 47 89 48 43 49 92 50 86 51 85 52 44 54
REMARK SMILES IDX 74 55 55 56 73 57 56 58 59 59 72 60 90 61 57 62 58 63 71 65
REMARK SMILES IDX 91 66 60 67 45 68 46 69 54 70 47 71 53 72 48 73 49 74 50 75
REMARK SMILES IDX 51 76 52 77 75 78 76 79 84 80 77 81 83 82 78 83 79 84 80 85
REMARK SMILES IDX 81 86 82 87 61 88 62 89 70 90 63 91 69 92 64 93 65 94 66 95
REMARK SMILES IDX 67 96 68 97
REMARK H PARENT 89 53 59 64
REMARK Flexibility Score: inf
ROOT
ATOM      1  C   UNL A   1      43.680  23.554  27.029  1.00  0.00     0.274 C 
ENDROOT
BRANCH   1   2
ATOM      2  O   UNL A   1      43.594  22.122  26.901  1.00  0.00    -0.460 OA
BRANCH   2   3
ATOM      3  C   UNL A   1      42.516  21.491  26.372  1.00  0.00     0.344 C 
ATOM      4  O   UNL A   1      42.635  20.826  25.344  1.00  0.00    -0.248 OA
BRANCH   3   5
ATOM      5  C   UNL A   1      41.187  21.566  27.127  1.00  0.00     0.351 C 
BRANCH   5   6
ATOM      6  O   UNL A   1      40.562  22.849  27.162  1.00  0.00    -0.482 OA
BRANCH   6   7
ATOM      7  C   UNL A   1      39.328  22.763  26.581  1.00  0.00     0.120 A 
ATOM      8  C   UNL A   1      38.506  23.890  26.571  1.00  0.00     0.047 A 
ATOM      9  C   UNL A   1      38.925  21.573  25.985  1.00  0.00     0.047 A 
ATOM     10  C   UNL A   1      37.288  23.843  25.889  1.00  0.00     0.012 A 
ATOM     11  C   UNL A   1      37.740  21.540  25.278  1.00  0.00     0.012 A 
ATOM     12  C   UNL A   1      36.913  22.666  25.236  1.00  0.00    -0.024 A 
BRANCH  12  13
ATOM     13  C   UNL A   1      35.689  22.547  24.458  1.00  0.00     0.029 C 
ATOM     14  C   UNL A   1      34.481  22.834  24.953  1.00  0.00     0.083 C 
ATOM     15  S   UNL A   1      34.053  23.647  26.409  1.00  0.00    -0.022 SA
ATOM     16  C   UNL A   1      33.258  22.470  24.220  1.00  0.00     0.268 C 
ATOM     17  C   UNL A   1      32.386  23.838  25.884  1.00  0.00     0.293 C 
ATOM     18  N   UNL A   1      32.225  23.252  24.655  1.00  0.00    -0.264 N 
ATOM     19  O   UNL A   1      33.191  21.539  23.432  1.00  0.00    -0.268 OA
ATOM     20  O   UNL A   1      31.539  24.390  26.555  1.00  0.00    -0.261 OA
BRANCH  18  21
ATOM     21  C   UNL A   1      31.011  23.385  23.885  1.00  0.00     0.167 C 
BRANCH  21  22
ATOM     22  C   UNL A   1      30.908  24.792  23.318  1.00  0.00    -0.005 A 
ATOM     23  C   UNL A   1      29.894  25.640  23.807  1.00  0.00     0.057 A 
ATOM     24  C   UNL A   1      31.825  25.310  22.361  1.00  0.00     0.050 A 
ATOM     25  C   UNL A   1      29.826  26.929  23.317  1.00  0.00     0.166 A 
ATOM     26  C   UNL A   1      31.782  26.647  21.956  1.00  0.00     0.071 A 
ATOM     27  Cl  UNL A   1      32.998  24.335  21.559  1.00  0.00    -0.084 Cl
ATOM     28  C   UNL A   1      30.757  27.421  22.435  1.00  0.00     0.167 A 
ATOM     29  O   UNL A   1      28.862  27.846  23.604  1.00  0.00    -0.454 OA
ATOM     30  O   UNL A   1      30.506  28.707  22.075  1.00  0.00    -0.454 OA
ATOM     31  C   UNL A   1      29.207  28.888  22.665  1.00  0.00     0.468 C 
ENDBRANCH  21  22
ENDBRANCH  18  21
ENDBRANCH  12  13
ENDBRANCH   6   7
ENDBRANCH   5   6
ENDBRANCH   3   5
ENDBRANCH   2   3
ENDBRANCH   1   2
BRANCH   1  32
ATOM     32  C   UNL A   1      43.347  24.236  25.700  1.00  0.00     0.275 C 
BRANCH  32  33
ATOM     33  O   UNL A   1      42.177  25.060  25.851  1.00  0.00    -0.458 OA
BRANCH  33  34
ATOM     34  C   UNL A   1      42.344  26.391  25.629  1.00  0.00     0.338 C 
ATOM     35  O   UNL A   1      42.647  26.919  24.575  1.00  0.00    -0.246 OA
BRANCH  34  36
ATOM     36  C   UNL A   1      41.877  27.123  26.830  1.00  0.00     0.060 A 
ATOM     37  C   UNL A   1      42.347  28.426  27.052  1.00  0.00     0.016 A 
ATOM     38  C   UNL A   1      40.952  26.553  27.709  1.00  0.00     0.016 A 
ATOM     39  C   UNL A   1      41.918  29.147  28.170  1.00  0.00     0.010 A 
ATOM     40  C   UNL A   1      40.532  27.269  28.830  1.00  0.00     0.010 A 
ATOM     41  C   UNL A   1      41.036  28.557  29.085  1.00  0.00    -0.014 A 
BRANCH  41  42
ATOM     42  C   UNL A   1      40.798  29.164  30.416  1.00  0.00     0.031 A 
ATOM     43  C   UNL A   1      39.689  30.173  30.539  1.00  0.00     0.074 A 
ATOM     44  C   UNL A   1      41.574  28.883  31.478  1.00  0.00     0.049 A 
ATOM     45  N   UNL A   1      39.366  30.933  31.552  1.00  0.00    -0.248 NA
ATOM     46  C   UNL A   1      38.841  30.356  29.349  1.00  0.00     0.031 C 
ATOM     47  C   UNL A   1      42.655  27.902  31.505  1.00  0.00     0.029 A 
ATOM     48  N   UNL A   1      41.576  29.424  32.740  1.00  0.00    -0.354 N 
ATOM     49  C   UNL A   1      38.287  31.694  31.118  1.00  0.00     0.074 A 
ATOM     50  C   UNL A   1      38.027  31.322  29.744  1.00  0.00     0.031 C 
ATOM     51  C   UNL A   1      43.233  27.926  32.721  1.00  0.00     0.029 A 
ATOM     52  C   UNL A   1      42.584  28.948  33.543  1.00  0.00     0.049 A 
ATOM     53  H   UNL A   1      40.916  30.092  33.041  1.00  0.00     0.167 HD
ATOM     54  C   UNL A   1      37.575  32.624  31.798  1.00  0.00     0.031 A 
ATOM     55  C   UNL A   1      42.956  29.312  34.788  1.00  0.00     0.031 A 
ATOM     56  C   UNL A   1      37.848  33.017  33.152  1.00  0.00     0.049 A 
ATOM     57  C   UNL A   1      42.194  30.396  35.507  1.00  0.00     0.074 A 
ATOM     58  C   UNL A   1      37.180  33.947  33.929  1.00  0.00     0.029 A 
ATOM     59  N   UNL A   1      38.881  32.512  33.928  1.00  0.00    -0.354 N 
ATOM     60  N   UNL A   1      41.161  31.092  35.094  1.00  0.00    -0.248 NA
ATOM     61  C   UNL A   1      42.645  30.741  36.864  1.00  0.00     0.031 C 
ATOM     62  C   UNL A   1      37.840  34.040  35.159  1.00  0.00     0.029 A 
ATOM     63  C   UNL A   1      38.883  33.126  35.167  1.00  0.00     0.049 A 
ATOM     64  H   UNL A   1      39.518  31.820  33.638  1.00  0.00     0.167 HD
ATOM     65  C   UNL A   1      40.818  31.931  36.152  1.00  0.00     0.074 A 
ATOM     66  C   UNL A   1      41.754  31.657  37.223  1.00  0.00     0.031 C 
ATOM     67  C   UNL A   1      39.813  32.837  36.231  1.00  0.00     0.031 A 
BRANCH  54  68
ATOM     68  C   UNL A   1      36.461  33.307  31.053  1.00  0.00    -0.014 A 
ATOM     69  C   UNL A   1      36.698  33.961  29.831  1.00  0.00     0.010 A 
ATOM     70  C   UNL A   1      35.164  33.309  31.594  1.00  0.00     0.010 A 
ATOM     71  C   UNL A   1      35.667  34.651  29.190  1.00  0.00     0.020 A 
ATOM     72  C   UNL A   1      34.123  33.975  30.942  1.00  0.00     0.020 A 
ATOM     73  C   UNL A   1      34.388  34.663  29.756  1.00  0.00     0.054 A 
BRANCH  73  74
ATOM     74  S   UNL A   1      33.070  35.581  28.915  1.00  0.00     0.124 S 
ATOM     75  O   UNL A   1      33.831  36.567  28.152  1.00  0.00    -0.237 OA
ATOM     76  O   UNL A   1      32.411  34.547  28.124  1.00  0.00    -0.237 OA
ATOM     77  O   UNL A   1      32.273  36.124  30.013  1.00  0.00    -0.744 OA
ENDBRANCH  73  74
ENDBRANCH  54  68
BRANCH  55  78
ATOM     78  C   UNL A   1      44.122  28.649  35.434  1.00  0.00    -0.014 A 
ATOM     79  C   UNL A   1      43.945  27.496  36.218  1.00  0.00     0.010 A 
ATOM     80  C   UNL A   1      45.420  29.161  35.253  1.00  0.00     0.010 A 
ATOM     81  C   UNL A   1      45.044  26.870  36.814  1.00  0.00     0.020 A 
ATOM     82  C   UNL A   1      46.523  28.524  35.827  1.00  0.00     0.020 A 
ATOM     83  C   UNL A   1      46.328  27.384  36.610  1.00  0.00     0.054 A 
BRANCH  83  84
ATOM     84  S   UNL A   1      47.747  26.512  37.329  1.00  0.00     0.124 S 
ATOM     85  O   UNL A   1      47.166  25.219  37.676  1.00  0.00    -0.237 OA
ATOM     86  O   UNL A   1      48.703  26.501  36.225  1.00  0.00    -0.237 OA
ATOM     87  O   UNL A   1      48.126  27.353  38.461  1.00  0.00    -0.744 OA
ENDBRANCH  83  84
ENDBRANCH  55  78
BRANCH  67  88
ATOM     88  C   UNL A   1      39.625  33.576  37.530  1.00  0.00    -0.014 A 
ATOM     89  C   UNL A   1      38.777  33.085  38.537  1.00  0.00     0.010 A 
ATOM     90  C   UNL A   1      40.388  34.732  37.779  1.00  0.00     0.010 A 
ATOM     91  C   UNL A   1      38.687  33.745  39.767  1.00  0.00     0.020 A 
ATOM     92  C   UNL A   1      40.319  35.380  39.014  1.00  0.00     0.020 A 
ATOM     93  C   UNL A   1      39.461  34.887  39.999  1.00  0.00     0.054 A 
BRANCH  93  94
ATOM     94  S   UNL A   1      39.383  35.684  41.628  1.00  0.00     0.124 S 
ATOM     95  O   UNL A   1      37.951  35.650  41.915  1.00  0.00    -0.237 OA
ATOM     96  O   UNL A   1      40.209  34.807  42.455  1.00  0.00    -0.237 OA
ATOM     97  O   UNL A   1      39.941  37.012  41.390  1.00  0.00    -0.744 OA
ENDBRANCH  93  94
ENDBRANCH  67  88
ENDBRANCH  41  42
ENDBRANCH  34  36
ENDBRANCH  33  34
ENDBRANCH  32  33
ENDBRANCH   1  32
TORSDOF 19
ENDMDL
