MODEL 1
REMARK VINA RESULT:     -12.5      0.000      0.000
REMARK SMILES CC(C)(NC(=O)NC[C@]1(C)CCCO1)C(C)(C)C(=O)OCCOC(=O)c1ccc(-c2c3nc(c(-c4ccc(S(=O)(=O)[O-])cc4)c4ccc([nH]4)c(-c4ccc(S(=O)(=O)[O-])cc4)c4nc(c(-c5ccc(S(=O)(=O)[O-])cc5)c5ccc2[nH]5)C=C4)C=C3)cc1
REMARK SMILES IDX 21 1 20 2 18 3 19 4 15 5 16 6 17 7 2 8 1 9 3 10 4 11 5 12
REMARK SMILES IDX 6 14 7 15 8 17 9 18 11 19 14 20 10 21 12 22 13 23 22 24
REMARK SMILES IDX 23 25 24 26 25 27 26 28 27 29 85 30 28 31 84 32 29 33 30 34
REMARK SMILES IDX 31 35 78 36 32 37 83 38 77 39 79 40 33 41 82 42 76 43 75 44
REMARK SMILES IDX 34 46 64 47 45 48 63 49 46 50 49 51 62 52 80 53 47 54 48 55
REMARK SMILES IDX 61 57 81 58 50 59 35 60 36 61 44 62 37 63 43 64 38 65 39 66
REMARK SMILES IDX 40 67 41 68 42 69 65 70 66 71 74 72 67 73 73 74 68 75 69 76
REMARK SMILES IDX 70 77 71 78 72 79 51 80 52 81 60 82 53 83 59 84 54 85 55 86
REMARK SMILES IDX 56 87 57 88 58 89
REMARK H PARENT 4 13 7 16 79 45 49 56
REMARK Flexibility Score: inf
ROOT
ATOM      1  C   UNL A   1      31.793  28.574  27.488  1.00  0.00     0.274 C 
ENDROOT
BRANCH   1   2
ATOM      2  O   UNL A   1      32.644  26.907  26.673  1.00  0.00    -0.462 OA
BRANCH   2   3
ATOM      3  C   UNL A   1      32.147  25.555  26.130  1.00  0.00     0.313 C 
ATOM      4  O   UNL A   1      31.553  24.872  26.980  1.00  0.00    -0.252 OA
BRANCH   3   5
ATOM      5  C   UNL A   1      32.381  24.981  24.432  1.00  0.00     0.085 C 
ATOM      6  C   UNL A   1      31.822  23.731  23.644  1.00  0.00     0.026 C 
ATOM      7  C   UNL A   1      33.860  24.926  23.973  1.00  0.00     0.026 C 
BRANCH   5   8
ATOM      8  C   UNL A   1      31.527  26.106  23.752  1.00  0.00     0.052 C 
ATOM      9  C   UNL A   1      30.196  26.597  24.389  1.00  0.00     0.035 C 
ATOM     10  C   UNL A   1      31.029  25.574  22.377  1.00  0.00     0.035 C 
BRANCH   8  11
ATOM     11  N   UNL A   1      32.408  27.333  23.732  1.00  0.00    -0.332 N 
ATOM     12  C   UNL A   1      32.290  28.641  23.391  1.00  0.00     0.315 C 
ATOM     13  H   UNL A   1      33.315  27.127  24.057  1.00  0.00     0.165 HD
ATOM     14  O   UNL A   1      33.259  29.365  23.657  1.00  0.00    -0.249 OA
ATOM     15  N   UNL A   1      31.219  29.290  22.857  1.00  0.00    -0.335 N 
ATOM     16  H   UNL A   1      31.395  30.251  22.972  1.00  0.00     0.165 HD
BRANCH  15  17
ATOM     17  C   UNL A   1      29.860  29.183  22.153  1.00  0.00     0.152 C 
BRANCH  17  18
ATOM     18  C   UNL A   1      28.331  29.875  22.632  1.00  0.00     0.083 C 
ATOM     19  C   UNL A   1      28.065  30.699  20.865  1.00  0.00     0.039 C 
ATOM     20  O   UNL A   1      28.181  31.356  23.898  1.00  0.00    -0.373 OA
ATOM     21  C   UNL A   1      27.397  28.759  23.135  1.00  0.00     0.044 C 
ATOM     22  C   UNL A   1      28.284  32.596  21.002  1.00  0.00     0.031 C 
ATOM     23  C   UNL A   1      28.226  33.064  22.905  1.00  0.00     0.161 C 
ENDBRANCH  17  18
ENDBRANCH  15  17
ENDBRANCH   8  11
ENDBRANCH   5   8
ENDBRANCH   3   5
ENDBRANCH   2   3
ENDBRANCH   1   2
BRANCH   1  24
ATOM     24  C   UNL A   1      32.102  30.235  26.890  1.00  0.00     0.275 C 
BRANCH  24  25
ATOM     25  O   UNL A   1      33.509  30.621  26.697  1.00  0.00    -0.458 OA
BRANCH  25  26
ATOM     26  C   UNL A   1      34.165  31.369  27.616  1.00  0.00     0.338 C 
ATOM     27  O   UNL A   1      33.698  32.317  28.222  1.00  0.00    -0.246 OA
BRANCH  26  28
ATOM     28  C   UNL A   1      35.551  30.835  27.858  1.00  0.00     0.060 A 
ATOM     29  C   UNL A   1      35.766  29.457  27.900  1.00  0.00     0.016 A 
ATOM     30  C   UNL A   1      36.601  31.658  28.254  1.00  0.00     0.016 A 
ATOM     31  C   UNL A   1      36.954  28.893  28.399  1.00  0.00     0.010 A 
ATOM     32  C   UNL A   1      37.819  31.095  28.710  1.00  0.00     0.010 A 
ATOM     33  C   UNL A   1      37.997  29.700  28.845  1.00  0.00    -0.014 A 
BRANCH  33  34
ATOM     34  C   UNL A   1      39.185  29.148  29.587  1.00  0.00     0.031 A 
ATOM     35  C   UNL A   1      39.588  29.807  30.888  1.00  0.00     0.074 A 
ATOM     36  C   UNL A   1      39.905  28.071  29.197  1.00  0.00     0.049 A 
ATOM     37  N   UNL A   1      40.749  29.839  31.488  1.00  0.00    -0.248 NA
ATOM     38  C   UNL A   1      38.526  30.540  31.600  1.00  0.00     0.031 C 
ATOM     39  C   UNL A   1      39.584  27.162  28.098  1.00  0.00     0.029 A 
ATOM     40  N   UNL A   1      41.093  27.569  29.696  1.00  0.00    -0.354 N 
ATOM     41  C   UNL A   1      40.587  30.683  32.583  1.00  0.00     0.074 A 
ATOM     42  C   UNL A   1      39.203  31.104  32.591  1.00  0.00     0.031 C 
ATOM     43  C   UNL A   1      40.542  26.223  28.004  1.00  0.00     0.029 A 
ATOM     44  C   UNL A   1      41.611  26.533  28.949  1.00  0.00     0.049 A 
ATOM     45  H   UNL A   1      41.528  27.918  30.508  1.00  0.00     0.167 HD
ATOM     46  C   UNL A   1      41.519  31.092  33.479  1.00  0.00     0.031 A 
ATOM     47  C   UNL A   1      42.833  25.957  28.948  1.00  0.00     0.031 A 
ATOM     48  C   UNL A   1      42.875  30.610  33.498  1.00  0.00     0.049 A 
ATOM     49  C   UNL A   1      43.902  26.486  29.871  1.00  0.00     0.074 A 
ATOM     50  C   UNL A   1      43.919  30.998  34.322  1.00  0.00     0.029 A 
ATOM     51  N   UNL A   1      43.364  29.609  32.676  1.00  0.00    -0.354 N 
ATOM     52  N   UNL A   1      43.812  27.428  30.780  1.00  0.00    -0.248 NA
ATOM     53  C   UNL A   1      45.248  25.904  29.742  1.00  0.00     0.031 C 
ATOM     54  C   UNL A   1      45.050  30.253  33.970  1.00  0.00     0.029 A 
ATOM     55  C   UNL A   1      44.695  29.366  32.966  1.00  0.00     0.049 A 
ATOM     56  H   UNL A   1      42.841  29.139  31.986  1.00  0.00     0.167 HD
ATOM     57  C   UNL A   1      45.082  27.537  31.340  1.00  0.00     0.074 A 
ATOM     58  C   UNL A   1      45.921  26.564  30.676  1.00  0.00     0.031 C 
ATOM     59  C   UNL A   1      45.512  28.376  32.315  1.00  0.00     0.031 A 
BRANCH  46  60
ATOM     60  C   UNL A   1      41.134  32.180  34.447  1.00  0.00    -0.014 A 
ATOM     61  C   UNL A   1      40.433  31.915  35.636  1.00  0.00     0.010 A 
ATOM     62  C   UNL A   1      41.520  33.505  34.162  1.00  0.00     0.010 A 
ATOM     63  C   UNL A   1      40.092  32.962  36.500  1.00  0.00     0.020 A 
ATOM     64  C   UNL A   1      41.202  34.548  35.035  1.00  0.00     0.020 A 
ATOM     65  C   UNL A   1      40.472  34.272  36.191  1.00  0.00     0.054 A 
BRANCH  65  66
ATOM     66  S   UNL A   1      40.021  35.612  37.329  1.00  0.00     0.124 S 
ATOM     67  O   UNL A   1      38.946  34.999  38.104  1.00  0.00    -0.237 OA
ATOM     68  O   UNL A   1      41.264  35.848  38.058  1.00  0.00    -0.237 OA
ATOM     69  O   UNL A   1      39.608  36.697  36.442  1.00  0.00    -0.744 OA
ENDBRANCH  65  66
ENDBRANCH  46  60
BRANCH  47  70
ATOM     70  C   UNL A   1      43.159  24.895  27.948  1.00  0.00    -0.014 A 
ATOM     71  C   UNL A   1      43.649  25.223  26.671  1.00  0.00     0.010 A 
ATOM     72  C   UNL A   1      42.982  23.537  28.278  1.00  0.00     0.010 A 
ATOM     73  C   UNL A   1      43.960  24.215  25.750  1.00  0.00     0.020 A 
ATOM     74  C   UNL A   1      43.322  22.527  27.373  1.00  0.00     0.020 A 
ATOM     75  C   UNL A   1      43.801  22.873  26.109  1.00  0.00     0.054 A 
BRANCH  75  76
ATOM     76  S   UNL A   1      44.281  21.577  24.931  1.00  0.00     0.124 S 
ATOM     77  O   UNL A   1      45.637  21.260  25.365  1.00  0.00    -0.237 OA
ATOM     78  O   UNL A   1      43.280  20.540  25.173  1.00  0.00    -0.237 OA
ATOM     79  O   UNL A   1      44.176  22.240  23.633  1.00  0.00    -0.744 OA
ENDBRANCH  75  76
ENDBRANCH  47  70
BRANCH  59  80
ATOM     80  C   UNL A   1      46.935  28.246  32.780  1.00  0.00    -0.014 A 
ATOM     81  C   UNL A   1      47.942  29.097  32.295  1.00  0.00     0.010 A 
ATOM     82  C   UNL A   1      47.243  27.327  33.801  1.00  0.00     0.010 A 
ATOM     83  C   UNL A   1      49.236  29.031  32.824  1.00  0.00     0.020 A 
ATOM     84  C   UNL A   1      48.527  27.272  34.344  1.00  0.00     0.020 A 
ATOM     85  C   UNL A   1      49.518  28.122  33.850  1.00  0.00     0.054 A 
BRANCH  85  86
ATOM     86  S   UNL A   1      51.178  28.117  34.583  1.00  0.00     0.124 S 
ATOM     87  O   UNL A   1      51.450  26.689  34.713  1.00  0.00    -0.237 OA
ATOM     88  O   UNL A   1      51.975  28.819  33.578  1.00  0.00    -0.237 OA
ATOM     89  O   UNL A   1      51.003  28.837  35.843  1.00  0.00    -0.744 OA
ENDBRANCH  85  86
ENDBRANCH  59  80
ENDBRANCH  33  34
ENDBRANCH  26  28
ENDBRANCH  25  26
ENDBRANCH  24  25
ENDBRANCH   1  24
TORSDOF 18
ENDMDL
MODEL 2
REMARK VINA RESULT:     -12.4      2.927      9.182
REMARK SMILES CC(C)(NC(=O)NC[C@]1(C)CCCO1)C(C)(C)C(=O)OCCOC(=O)c1ccc(-c2c3nc(c(-c4ccc(S(=O)(=O)[O-])cc4)c4ccc([nH]4)c(-c4ccc(S(=O)(=O)[O-])cc4)c4nc(c(-c5ccc(S(=O)(=O)[O-])cc5)c5ccc2[nH]5)C=C4)C=C3)cc1
REMARK SMILES IDX 21 1 20 2 18 3 19 4 15 5 16 6 17 7 2 8 1 9 3 10 4 11 5 12
REMARK SMILES IDX 6 14 7 15 8 17 9 18 11 19 14 20 10 21 12 22 13 23 22 24
REMARK SMILES IDX 23 25 24 26 25 27 26 28 27 29 85 30 28 31 84 32 29 33 30 34
REMARK SMILES IDX 31 35 78 36 32 37 83 38 77 39 79 40 33 41 82 42 76 43 75 44
REMARK SMILES IDX 34 46 64 47 45 48 63 49 46 50 49 51 62 52 80 53 47 54 48 55
REMARK SMILES IDX 61 57 81 58 50 59 35 60 36 61 44 62 37 63 43 64 38 65 39 66
REMARK SMILES IDX 40 67 41 68 42 69 65 70 66 71 74 72 67 73 73 74 68 75 69 76
REMARK SMILES IDX 70 77 71 78 72 79 51 80 52 81 60 82 53 83 59 84 54 85 55 86
REMARK SMILES IDX 56 87 57 88 58 89
REMARK H PARENT 4 13 7 16 79 45 49 56
REMARK Flexibility Score: inf
ROOT
ATOM      1  C   UNL A   1      37.254  23.053  25.106  1.00  0.00     0.274 C 
ENDROOT
BRANCH   1   2
ATOM      2  O   UNL A   1      35.707  22.721  23.816  1.00  0.00    -0.462 OA
BRANCH   2   3
ATOM      3  C   UNL A   1      34.241  22.268  23.929  1.00  0.00     0.313 C 
ATOM      4  O   UNL A   1      33.635  22.286  22.845  1.00  0.00    -0.252 OA
BRANCH   3   5
ATOM      5  C   UNL A   1      33.440  21.752  25.466  1.00  0.00     0.085 C 
ATOM      6  C   UNL A   1      34.001  21.454  26.911  1.00  0.00     0.026 C 
ATOM      7  C   UNL A   1      32.484  20.541  25.314  1.00  0.00     0.026 C 
BRANCH   5   8
ATOM      8  C   UNL A   1      32.725  23.117  25.753  1.00  0.00     0.052 C 
ATOM      9  C   UNL A   1      33.524  24.452  25.770  1.00  0.00     0.035 C 
ATOM     10  C   UNL A   1      32.167  23.077  27.205  1.00  0.00     0.035 C 
BRANCH   8  11
ATOM     11  N   UNL A   1      31.721  23.296  24.639  1.00  0.00    -0.332 N 
ATOM     12  C   UNL A   1      30.881  24.267  24.197  1.00  0.00     0.315 C 
ATOM     13  H   UNL A   1      31.659  22.487  24.081  1.00  0.00     0.165 HD
ATOM     14  O   UNL A   1      30.296  24.040  23.130  1.00  0.00    -0.249 OA
ATOM     15  N   UNL A   1      30.643  25.496  24.732  1.00  0.00    -0.335 N 
ATOM     16  H   UNL A   1      30.184  26.014  24.034  1.00  0.00     0.165 HD
BRANCH  15  17
ATOM     17  C   UNL A   1      30.775  26.428  25.944  1.00  0.00     0.152 C 
BRANCH  17  18
ATOM     18  C   UNL A   1      31.865  27.772  26.167  1.00  0.00     0.083 C 
ATOM     19  C   UNL A   1      31.035  28.787  24.699  1.00  0.00     0.039 C 
ATOM     20  O   UNL A   1      33.762  27.694  25.707  1.00  0.00    -0.373 OA
ATOM     21  C   UNL A   1      31.777  28.269  27.623  1.00  0.00     0.044 C 
ATOM     22  C   UNL A   1      32.230  28.843  23.204  1.00  0.00     0.031 C 
ATOM     23  C   UNL A   1      34.000  28.287  23.836  1.00  0.00     0.161 C 
ENDBRANCH  17  18
ENDBRANCH  15  17
ENDBRANCH   8  11
ENDBRANCH   5   8
ENDBRANCH   3   5
ENDBRANCH   2   3
ENDBRANCH   1   2
BRANCH   1  24
ATOM     24  C   UNL A   1      38.482  21.813  25.518  1.00  0.00     0.275 C 
BRANCH  24  25
ATOM     25  O   UNL A   1      39.389  22.122  26.634  1.00  0.00    -0.458 OA
BRANCH  25  26
ATOM     26  C   UNL A   1      40.484  22.899  26.455  1.00  0.00     0.338 C 
ATOM     27  O   UNL A   1      41.490  22.578  25.848  1.00  0.00    -0.246 OA
BRANCH  26  28
ATOM     28  C   UNL A   1      40.279  24.266  27.050  1.00  0.00     0.060 A 
ATOM     29  C   UNL A   1      41.183  25.289  26.766  1.00  0.00     0.016 A 
ATOM     30  C   UNL A   1      39.337  24.505  28.047  1.00  0.00     0.016 A 
ATOM     31  C   UNL A   1      41.222  26.490  27.497  1.00  0.00     0.010 A 
ATOM     32  C   UNL A   1      39.338  25.733  28.753  1.00  0.00     0.010 A 
ATOM     33  C   UNL A   1      40.318  26.726  28.531  1.00  0.00    -0.014 A 
BRANCH  33  34
ATOM     34  C   UNL A   1      40.462  27.887  29.479  1.00  0.00     0.031 A 
ATOM     35  C   UNL A   1      41.587  27.851  30.490  1.00  0.00     0.074 A 
ATOM     36  C   UNL A   1      39.679  28.989  29.472  1.00  0.00     0.049 A 
ATOM     37  N   UNL A   1      41.693  28.449  31.649  1.00  0.00    -0.248 NA
ATOM     38  C   UNL A   1      42.747  27.013  30.141  1.00  0.00     0.031 C 
ATOM     39  C   UNL A   1      38.670  29.334  28.470  1.00  0.00     0.029 A 
ATOM     40  N   UNL A   1      39.607  30.034  30.375  1.00  0.00    -0.354 N 
ATOM     41  C   UNL A   1      42.874  27.975  32.213  1.00  0.00     0.074 A 
ATOM     42  C   UNL A   1      43.471  27.075  31.250  1.00  0.00     0.031 C 
ATOM     43  C   UNL A   1      38.086  30.495  28.811  1.00  0.00     0.029 A 
ATOM     44  C   UNL A   1      38.581  30.917  30.118  1.00  0.00     0.049 A 
ATOM     45  H   UNL A   1      40.230  30.137  31.132  1.00  0.00     0.167 HD
ATOM     46  C   UNL A   1      43.391  28.242  33.437  1.00  0.00     0.031 A 
ATOM     47  C   UNL A   1      38.030  31.891  30.875  1.00  0.00     0.031 A 
ATOM     48  C   UNL A   1      42.820  29.191  34.357  1.00  0.00     0.049 A 
ATOM     49  C   UNL A   1      38.536  32.115  32.278  1.00  0.00     0.074 A 
ATOM     50  C   UNL A   1      43.225  29.499  35.645  1.00  0.00     0.029 A 
ATOM     51  N   UNL A   1      41.741  30.010  34.070  1.00  0.00    -0.354 N 
ATOM     52  N   UNL A   1      39.532  31.527  32.897  1.00  0.00    -0.248 NA
ATOM     53  C   UNL A   1      37.820  33.104  33.100  1.00  0.00     0.031 C 
ATOM     54  C   UNL A   1      42.366  30.481  36.148  1.00  0.00     0.029 A 
ATOM     55  C   UNL A   1      41.461  30.821  35.155  1.00  0.00     0.049 A 
ATOM     56  H   UNL A   1      41.246  30.015  33.218  1.00  0.00     0.167 HD
ATOM     57  C   UNL A   1      39.571  32.086  34.171  1.00  0.00     0.074 A 
ATOM     58  C   UNL A   1      38.507  33.063  34.235  1.00  0.00     0.031 C 
ATOM     59  C   UNL A   1      40.414  31.808  35.196  1.00  0.00     0.031 A 
BRANCH  46  60
ATOM     60  C   UNL A   1      44.575  27.430  33.894  1.00  0.00    -0.014 A 
ATOM     61  C   UNL A   1      44.434  26.176  34.511  1.00  0.00     0.010 A 
ATOM     62  C   UNL A   1      45.870  27.937  33.664  1.00  0.00     0.010 A 
ATOM     63  C   UNL A   1      45.565  25.463  34.925  1.00  0.00     0.020 A 
ATOM     64  C   UNL A   1      47.002  27.216  34.053  1.00  0.00     0.020 A 
ATOM     65  C   UNL A   1      46.841  25.991  34.700  1.00  0.00     0.054 A 
BRANCH  65  66
ATOM     66  S   UNL A   1      48.293  25.047  35.242  1.00  0.00     0.124 S 
ATOM     67  O   UNL A   1      47.978  24.790  36.644  1.00  0.00    -0.237 OA
ATOM     68  O   UNL A   1      48.262  23.878  34.368  1.00  0.00    -0.237 OA
ATOM     69  O   UNL A   1      49.408  25.962  35.013  1.00  0.00    -0.744 OA
ENDBRANCH  65  66
ENDBRANCH  46  60
BRANCH  47  70
ATOM     70  C   UNL A   1      36.843  32.648  30.373  1.00  0.00    -0.014 A 
ATOM     71  C   UNL A   1      35.535  32.260  30.713  1.00  0.00     0.010 A 
ATOM     72  C   UNL A   1      37.023  33.775  29.547  1.00  0.00     0.010 A 
ATOM     73  C   UNL A   1      34.434  32.987  30.242  1.00  0.00     0.020 A 
ATOM     74  C   UNL A   1      35.928  34.522  29.102  1.00  0.00     0.020 A 
ATOM     75  C   UNL A   1      34.638  34.118  29.446  1.00  0.00     0.054 A 
BRANCH  75  76
ATOM     76  S   UNL A   1      33.204  35.093  28.908  1.00  0.00     0.124 S 
ATOM     77  O   UNL A   1      32.500  35.317  30.166  1.00  0.00    -0.237 OA
ATOM     78  O   UNL A   1      33.827  36.273  28.312  1.00  0.00    -0.237 OA
ATOM     79  O   UNL A   1      32.528  34.211  27.960  1.00  0.00    -0.744 OA
ENDBRANCH  75  76
ENDBRANCH  47  70
BRANCH  59  80
ATOM     80  C   UNL A   1      40.274  32.609  36.461  1.00  0.00    -0.014 A 
ATOM     81  C   UNL A   1      39.261  32.327  37.393  1.00  0.00     0.010 A 
ATOM     82  C   UNL A   1      41.241  33.584  36.767  1.00  0.00     0.010 A 
ATOM     83  C   UNL A   1      39.218  33.012  38.613  1.00  0.00     0.020 A 
ATOM     84  C   UNL A   1      41.211  34.255  37.991  1.00  0.00     0.020 A 
ATOM     85  C   UNL A   1      40.197  33.966  38.906  1.00  0.00     0.054 A 
BRANCH  85  86
ATOM     86  S   UNL A   1      40.174  34.775  40.531  1.00  0.00     0.124 S 
ATOM     87  O   UNL A   1      40.230  33.634  41.440  1.00  0.00    -0.237 OA
ATOM     88  O   UNL A   1      41.374  35.607  40.493  1.00  0.00    -0.237 OA
ATOM     89  O   UNL A   1      38.912  35.512  40.533  1.00  0.00    -0.744 OA
ENDBRANCH  85  86
ENDBRANCH  59  80
ENDBRANCH  33  34
ENDBRANCH  26  28
ENDBRANCH  25  26
ENDBRANCH  24  25
ENDBRANCH   1  24
TORSDOF 18
ENDMDL
MODEL 3
REMARK VINA RESULT:     -12.4      3.681      5.477
REMARK SMILES CC(C)(NC(=O)NC[C@]1(C)CCCO1)C(C)(C)C(=O)OCCOC(=O)c1ccc(-c2c3nc(c(-c4ccc(S(=O)(=O)[O-])cc4)c4ccc([nH]4)c(-c4ccc(S(=O)(=O)[O-])cc4)c4nc(c(-c5ccc(S(=O)(=O)[O-])cc5)c5ccc2[nH]5)C=C4)C=C3)cc1
REMARK SMILES IDX 21 1 20 2 18 3 19 4 15 5 16 6 17 7 2 8 1 9 3 10 4 11 5 12
REMARK SMILES IDX 6 14 7 15 8 17 9 18 11 19 14 20 10 21 12 22 13 23 22 24
REMARK SMILES IDX 23 25 24 26 25 27 26 28 27 29 85 30 28 31 84 32 29 33 30 34
REMARK SMILES IDX 31 35 78 36 32 37 83 38 77 39 79 40 33 41 82 42 76 43 75 44
REMARK SMILES IDX 34 46 64 47 45 48 63 49 46 50 49 51 62 52 80 53 47 54 48 55
REMARK SMILES IDX 61 57 81 58 50 59 35 60 36 61 44 62 37 63 43 64 38 65 39 66
REMARK SMILES IDX 40 67 41 68 42 69 65 70 66 71 74 72 67 73 73 74 68 75 69 76
REMARK SMILES IDX 70 77 71 78 72 79 51 80 52 81 60 82 53 83 59 84 54 85 55 86
REMARK SMILES IDX 56 87 57 88 58 89
REMARK H PARENT 4 13 7 16 79 45 49 56
REMARK Flexibility Score: inf
ROOT
ATOM      1  C   UNL A   1      31.889  29.677  27.146  1.00  0.00     0.274 C 
ENDROOT
BRANCH   1   2
ATOM      2  O   UNL A   1      31.223  27.748  27.186  1.00  0.00    -0.462 OA
BRANCH   2   3
ATOM      3  C   UNL A   1      31.059  26.605  26.167  1.00  0.00     0.313 C 
ATOM      4  O   UNL A   1      31.081  25.477  26.686  1.00  0.00    -0.252 OA
BRANCH   3   5
ATOM      5  C   UNL A   1      30.849  26.838  24.387  1.00  0.00     0.085 C 
ATOM      6  C   UNL A   1      30.257  28.025  23.531  1.00  0.00     0.026 C 
ATOM      7  C   UNL A   1      30.177  25.645  23.661  1.00  0.00     0.026 C 
BRANCH   5   8
ATOM      8  C   UNL A   1      32.370  27.030  24.060  1.00  0.00     0.052 C 
ATOM      9  C   UNL A   1      33.467  26.648  25.095  1.00  0.00     0.035 C 
ATOM     10  C   UNL A   1      32.639  28.551  23.876  1.00  0.00     0.035 C 
BRANCH   8  11
ATOM     11  N   UNL A   1      32.649  26.137  22.873  1.00  0.00    -0.332 N 
ATOM     12  C   UNL A   1      33.418  25.054  22.597  1.00  0.00     0.315 C 
ATOM     13  H   UNL A   1      32.129  26.418  22.085  1.00  0.00     0.165 HD
ATOM     14  O   UNL A   1      33.251  24.533  21.487  1.00  0.00    -0.249 OA
ATOM     15  N   UNL A   1      34.307  24.412  23.404  1.00  0.00    -0.335 N 
ATOM     16  H   UNL A   1      34.490  23.545  22.976  1.00  0.00     0.165 HD
BRANCH  15  17
ATOM     17  C   UNL A   1      35.151  24.445  24.686  1.00  0.00     0.152 C 
BRANCH  17  18
ATOM     18  C   UNL A   1      35.401  23.173  25.854  1.00  0.00     0.083 C 
ATOM     19  C   UNL A   1      37.160  23.891  26.370  1.00  0.00     0.039 C 
ATOM     20  O   UNL A   1      35.749  21.317  25.353  1.00  0.00    -0.373 OA
ATOM     21  C   UNL A   1      34.229  23.155  26.853  1.00  0.00     0.044 C 
ATOM     22  C   UNL A   1      38.540  22.738  25.712  1.00  0.00     0.031 C 
ATOM     23  C   UNL A   1      37.701  21.047  25.185  1.00  0.00     0.161 C 
ENDBRANCH  17  18
ENDBRANCH  15  17
ENDBRANCH   8  11
ENDBRANCH   5   8
ENDBRANCH   3   5
ENDBRANCH   2   3
ENDBRANCH   1   2
BRANCH   1  24
ATOM     24  C   UNL A   1      33.625  30.123  27.119  1.00  0.00     0.275 C 
BRANCH  24  25
ATOM     25  O   UNL A   1      33.980  31.443  27.662  1.00  0.00    -0.458 OA
BRANCH  25  26
ATOM     26  C   UNL A   1      34.720  31.563  28.790  1.00  0.00     0.338 C 
ATOM     27  O   UNL A   1      34.436  32.253  29.754  1.00  0.00    -0.246 OA
BRANCH  26  28
ATOM     28  C   UNL A   1      35.929  30.668  28.741  1.00  0.00     0.060 A 
ATOM     29  C   UNL A   1      36.363  30.025  29.901  1.00  0.00     0.016 A 
ATOM     30  C   UNL A   1      36.766  30.616  27.630  1.00  0.00     0.016 A 
ATOM     31  C   UNL A   1      37.626  29.415  29.999  1.00  0.00     0.010 A 
ATOM     32  C   UNL A   1      38.018  29.959  27.708  1.00  0.00     0.010 A 
ATOM     33  C   UNL A   1      38.497  29.395  28.912  1.00  0.00    -0.014 A 
BRANCH  33  34
ATOM     34  C   UNL A   1      39.933  28.957  29.035  1.00  0.00     0.031 A 
ATOM     35  C   UNL A   1      40.957  29.975  29.485  1.00  0.00     0.074 A 
ATOM     36  C   UNL A   1      40.376  27.699  28.810  1.00  0.00     0.049 A 
ATOM     37  N   UNL A   1      42.247  30.016  29.275  1.00  0.00    -0.248 NA
ATOM     38  C   UNL A   1      40.443  31.108  30.274  1.00  0.00     0.031 C 
ATOM     39  C   UNL A   1      39.551  26.516  28.567  1.00  0.00     0.029 A 
ATOM     40  N   UNL A   1      41.668  27.213  28.735  1.00  0.00    -0.354 N 
ATOM     41  C   UNL A   1      42.679  31.228  29.806  1.00  0.00     0.074 A 
ATOM     42  C   UNL A   1      41.522  31.871  30.389  1.00  0.00     0.031 C 
ATOM     43  C   UNL A   1      40.349  25.452  28.370  1.00  0.00     0.029 A 
ATOM     44  C   UNL A   1      41.740  25.894  28.344  1.00  0.00     0.049 A 
ATOM     45  H   UNL A   1      42.463  27.758  28.942  1.00  0.00     0.167 HD
ATOM     46  C   UNL A   1      43.923  31.766  29.778  1.00  0.00     0.031 A 
ATOM     47  C   UNL A   1      42.780  25.144  27.918  1.00  0.00     0.031 A 
ATOM     48  C   UNL A   1      45.078  31.085  29.254  1.00  0.00     0.049 A 
ATOM     49  C   UNL A   1      44.143  25.775  27.785  1.00  0.00     0.074 A 
ATOM     50  C   UNL A   1      46.374  31.555  29.121  1.00  0.00     0.029 A 
ATOM     51  N   UNL A   1      45.080  29.774  28.809  1.00  0.00    -0.354 N 
ATOM     52  N   UNL A   1      44.521  26.992  28.100  1.00  0.00    -0.248 NA
ATOM     53  C   UNL A   1      45.212  24.948  27.201  1.00  0.00     0.031 C 
ATOM     54  C   UNL A   1      47.151  30.536  28.561  1.00  0.00     0.029 A 
ATOM     55  C   UNL A   1      46.351  29.416  28.396  1.00  0.00     0.049 A 
ATOM     56  H   UNL A   1      44.292  29.182  28.790  1.00  0.00     0.167 HD
ATOM     57  C   UNL A   1      45.871  27.068  27.769  1.00  0.00     0.074 A 
ATOM     58  C   UNL A   1      46.248  25.777  27.237  1.00  0.00     0.031 C 
ATOM     59  C   UNL A   1      46.719  28.119  27.892  1.00  0.00     0.031 A 
BRANCH  46  60
ATOM     60  C   UNL A   1      44.083  33.193  30.235  1.00  0.00    -0.014 A 
ATOM     61  C   UNL A   1      43.949  34.283  29.359  1.00  0.00     0.010 A 
ATOM     62  C   UNL A   1      44.347  33.439  31.597  1.00  0.00     0.010 A 
ATOM     63  C   UNL A   1      44.115  35.590  29.831  1.00  0.00     0.020 A 
ATOM     64  C   UNL A   1      44.489  34.744  32.076  1.00  0.00     0.020 A 
ATOM     65  C   UNL A   1      44.391  35.812  31.185  1.00  0.00     0.054 A 
BRANCH  65  66
ATOM     66  S   UNL A   1      44.599  37.516  31.773  1.00  0.00     0.124 S 
ATOM     67  O   UNL A   1      44.036  37.439  33.118  1.00  0.00    -0.237 OA
ATOM     68  O   UNL A   1      46.045  37.706  31.708  1.00  0.00    -0.237 OA
ATOM     69  O   UNL A   1      43.827  38.309  30.820  1.00  0.00    -0.744 OA
ENDBRANCH  65  66
ENDBRANCH  46  60
BRANCH  47  70
ATOM     70  C   UNL A   1      42.552  23.740  27.458  1.00  0.00    -0.014 A 
ATOM     71  C   UNL A   1      42.491  23.423  26.090  1.00  0.00     0.010 A 
ATOM     72  C   UNL A   1      42.399  22.705  28.401  1.00  0.00     0.010 A 
ATOM     73  C   UNL A   1      42.287  22.101  25.676  1.00  0.00     0.020 A 
ATOM     74  C   UNL A   1      42.229  21.379  27.992  1.00  0.00     0.020 A 
ATOM     75  C   UNL A   1      42.165  21.086  26.630  1.00  0.00     0.054 A 
BRANCH  75  76
ATOM     76  S   UNL A   1      41.978  19.367  26.076  1.00  0.00     0.124 S 
ATOM     77  O   UNL A   1      42.858  19.325  24.913  1.00  0.00    -0.237 OA
ATOM     78  O   UNL A   1      42.430  18.606  27.239  1.00  0.00    -0.237 OA
ATOM     79  O   UNL A   1      40.550  19.254  25.786  1.00  0.00    -0.744 OA
ENDBRANCH  75  76
ENDBRANCH  47  70
BRANCH  59  80
ATOM     80  C   UNL A   1      48.158  27.913  27.509  1.00  0.00    -0.014 A 
ATOM     81  C   UNL A   1      48.612  28.186  26.208  1.00  0.00     0.010 A 
ATOM     82  C   UNL A   1      49.087  27.546  28.500  1.00  0.00     0.010 A 
ATOM     83  C   UNL A   1      49.975  28.093  25.904  1.00  0.00     0.020 A 
ATOM     84  C   UNL A   1      50.449  27.471  28.205  1.00  0.00     0.020 A 
ATOM     85  C   UNL A   1      50.885  27.743  26.907  1.00  0.00     0.054 A 
BRANCH  85  86
ATOM     86  S   UNL A   1      52.657  27.718  26.513  1.00  0.00     0.124 S 
ATOM     87  O   UNL A   1      52.662  27.140  25.172  1.00  0.00    -0.237 OA
ATOM     88  O   UNL A   1      53.022  29.130  26.590  1.00  0.00    -0.237 OA
ATOM     89  O   UNL A   1      53.232  26.874  27.558  1.00  0.00    -0.744 OA
ENDBRANCH  85  86
ENDBRANCH  59  80
ENDBRANCH  33  34
ENDBRANCH  26  28
ENDBRANCH  25  26
ENDBRANCH  24  25
ENDBRANCH   1  24
TORSDOF 18
ENDMDL
