MODEL 1
REMARK VINA RESULT:     -10.9      0.000      0.000
REMARK SMILES O=C(OCCOC(=O)c1oc2cccc3c2c1CCC3)c1ccc(-c2c3nc(c(-c4ccc(S(=O)(=O)[O-])cc4)c4ccc([nH]4)c(-c4ccc(S(=O)(=O)[O-])cc4)c4nc(c(-c5ccc(S(=O)(=O)[O-])cc5)c5ccc2[nH]5)C=C4)C=C3)cc1
REMARK SMILES IDX 3 1 2 2 1 3 21 4 22 5 80 6 23 7 79 8 24 9 25 10 26 11 73 12
REMARK SMILES IDX 27 13 78 14 72 15 74 16 28 17 77 18 71 19 70 20 29 22 59 23
REMARK SMILES IDX 40 24 58 25 41 26 44 27 57 28 75 29 42 30 43 31 56 33 76 34
REMARK SMILES IDX 45 35 30 36 31 37 39 38 32 39 38 40 33 41 34 42 35 43 36 44
REMARK SMILES IDX 37 45 60 46 61 47 69 48 62 49 68 50 63 51 64 52 65 53 66 54
REMARK SMILES IDX 67 55 46 56 47 57 55 58 48 59 54 60 49 61 50 62 51 63 52 64
REMARK SMILES IDX 53 65 4 66 5 67 6 68 7 69 8 70 9 71 10 72 17 73 11 74 16 75
REMARK SMILES IDX 18 76 12 77 15 78 19 79 13 80 14 81 20 82
REMARK H PARENT 74 21 44 32
REMARK Flexibility Score: inf
ROOT
ATOM      1  O   UNL A   1      41.725  21.882  26.268  1.00  0.00    -0.458 OA
ENDROOT
BRANCH   1   2
ATOM      2  C   UNL A   1      40.596  22.358  26.843  1.00  0.00     0.338 C 
ATOM      3  O   UNL A   1      39.626  21.657  27.089  1.00  0.00    -0.246 OA
BRANCH   2   4
ATOM      4  C   UNL A   1      40.715  23.770  27.293  1.00  0.00     0.060 A 
ATOM      5  C   UNL A   1      41.679  24.169  28.222  1.00  0.00     0.016 A 
ATOM      6  C   UNL A   1      39.821  24.719  26.770  1.00  0.00     0.016 A 
ATOM      7  C   UNL A   1      41.739  25.489  28.641  1.00  0.00     0.010 A 
ATOM      8  C   UNL A   1      39.865  26.043  27.208  1.00  0.00     0.010 A 
ATOM      9  C   UNL A   1      40.814  26.419  28.158  1.00  0.00    -0.014 A 
BRANCH   9  10
ATOM     10  C   UNL A   1      40.882  27.751  28.745  1.00  0.00     0.031 A 
ATOM     11  C   UNL A   1      41.979  28.654  28.306  1.00  0.00     0.074 A 
ATOM     12  C   UNL A   1      40.010  28.184  29.674  1.00  0.00     0.049 A 
ATOM     13  N   UNL A   1      42.994  29.075  28.989  1.00  0.00    -0.248 NA
ATOM     14  C   UNL A   1      41.941  29.134  26.920  1.00  0.00     0.031 C 
ATOM     15  C   UNL A   1      38.717  27.605  30.039  1.00  0.00     0.029 A 
ATOM     16  N   UNL A   1      40.088  29.308  30.442  1.00  0.00    -0.354 N 
ATOM     17  C   UNL A   1      43.640  30.010  28.183  1.00  0.00     0.074 A 
ATOM     18  C   UNL A   1      43.003  29.940  26.889  1.00  0.00     0.031 C 
ATOM     19  C   UNL A   1      38.043  28.490  30.807  1.00  0.00     0.029 A 
ATOM     20  C   UNL A   1      38.911  29.619  31.100  1.00  0.00     0.049 A 
ATOM     21  H   UNL A   1      40.906  29.849  30.521  1.00  0.00     0.167 HD
ATOM     22  C   UNL A   1      44.545  30.909  28.662  1.00  0.00     0.031 A 
ATOM     23  C   UNL A   1      38.650  30.759  31.782  1.00  0.00     0.031 A 
ATOM     24  C   UNL A   1      45.031  30.579  29.971  1.00  0.00     0.049 A 
ATOM     25  C   UNL A   1      39.945  31.353  32.190  1.00  0.00     0.074 A 
ATOM     26  C   UNL A   1      45.741  29.533  30.521  1.00  0.00     0.029 A 
ATOM     27  N   UNL A   1      44.535  31.297  31.031  1.00  0.00    -0.354 N 
ATOM     28  N   UNL A   1      40.761  30.809  33.049  1.00  0.00    -0.248 NA
ATOM     29  C   UNL A   1      40.511  32.438  31.403  1.00  0.00     0.031 C 
ATOM     30  C   UNL A   1      45.269  29.420  31.862  1.00  0.00     0.029 A 
ATOM     31  C   UNL A   1      44.296  30.406  32.046  1.00  0.00     0.049 A 
ATOM     32  H   UNL A   1      44.380  32.269  31.057  1.00  0.00     0.167 HD
ATOM     33  C   UNL A   1      42.026  31.210  32.655  1.00  0.00     0.074 A 
ATOM     34  C   UNL A   1      41.799  32.314  31.732  1.00  0.00     0.031 C 
ATOM     35  C   UNL A   1      43.127  30.441  32.903  1.00  0.00     0.031 A 
BRANCH  22  36
ATOM     36  C   UNL A   1      44.750  32.278  28.063  1.00  0.00    -0.014 A 
ATOM     37  C   UNL A   1      46.012  32.635  27.546  1.00  0.00     0.010 A 
ATOM     38  C   UNL A   1      43.810  33.315  28.241  1.00  0.00     0.010 A 
ATOM     39  C   UNL A   1      46.327  33.970  27.257  1.00  0.00     0.020 A 
ATOM     40  C   UNL A   1      44.100  34.642  27.917  1.00  0.00     0.020 A 
ATOM     41  C   UNL A   1      45.369  34.966  27.455  1.00  0.00     0.054 A 
BRANCH  41  42
ATOM     42  S   UNL A   1      45.828  36.700  27.195  1.00  0.00     0.124 S 
ATOM     43  O   UNL A   1      46.736  36.605  26.056  1.00  0.00    -0.237 OA
ATOM     44  O   UNL A   1      44.536  37.325  26.925  1.00  0.00    -0.237 OA
ATOM     45  O   UNL A   1      46.449  37.084  28.461  1.00  0.00    -0.744 OA
ENDBRANCH  41  42
ENDBRANCH  22  36
BRANCH  23  46
ATOM     46  C   UNL A   1      37.367  31.503  31.811  1.00  0.00    -0.014 A 
ATOM     47  C   UNL A   1      36.693  31.728  33.025  1.00  0.00     0.010 A 
ATOM     48  C   UNL A   1      36.944  32.233  30.680  1.00  0.00     0.010 A 
ATOM     49  C   UNL A   1      35.686  32.702  33.119  1.00  0.00     0.020 A 
ATOM     50  C   UNL A   1      35.931  33.193  30.763  1.00  0.00     0.020 A 
ATOM     51  C   UNL A   1      35.331  33.448  31.992  1.00  0.00     0.054 A 
BRANCH  51  52
ATOM     52  S   UNL A   1      34.159  34.822  32.163  1.00  0.00     0.124 S 
ATOM     53  O   UNL A   1      33.898  35.189  30.775  1.00  0.00    -0.237 OA
ATOM     54  O   UNL A   1      33.048  34.192  32.871  1.00  0.00    -0.237 OA
ATOM     55  O   UNL A   1      34.902  35.816  32.937  1.00  0.00    -0.744 OA
ENDBRANCH  51  52
ENDBRANCH  23  46
BRANCH  35  56
ATOM     56  C   UNL A   1      43.008  29.326  33.915  1.00  0.00    -0.014 A 
ATOM     57  C   UNL A   1      43.336  29.497  35.274  1.00  0.00     0.010 A 
ATOM     58  C   UNL A   1      42.384  28.130  33.518  1.00  0.00     0.010 A 
ATOM     59  C   UNL A   1      43.047  28.496  36.211  1.00  0.00     0.020 A 
ATOM     60  C   UNL A   1      42.080  27.133  34.451  1.00  0.00     0.020 A 
ATOM     61  C   UNL A   1      42.408  27.325  35.795  1.00  0.00     0.054 A 
BRANCH  61  62
ATOM     62  S   UNL A   1      41.956  26.078  37.037  1.00  0.00     0.124 S 
ATOM     63  O   UNL A   1      42.131  24.823  36.312  1.00  0.00    -0.237 OA
ATOM     64  O   UNL A   1      42.924  26.329  38.103  1.00  0.00    -0.237 OA
ATOM     65  O   UNL A   1      40.573  26.408  37.377  1.00  0.00    -0.744 OA
ENDBRANCH  61  62
ENDBRANCH  35  56
ENDBRANCH   9  10
ENDBRANCH   2   4
ENDBRANCH   1   2
BRANCH   1  66
ATOM     66  C   UNL A   1      42.106  20.508  26.497  1.00  0.00     0.275 C 
BRANCH  66  67
ATOM     67  C   UNL A   1      43.327  20.002  25.734  1.00  0.00     0.275 C 
BRANCH  67  68
ATOM     68  O   UNL A   1      43.975  21.094  25.064  1.00  0.00    -0.456 OA
BRANCH  68  69
ATOM     69  C   UNL A   1      45.273  21.323  25.421  1.00  0.00     0.374 C 
ATOM     70  O   UNL A   1      46.175  20.499  25.375  1.00  0.00    -0.242 OA
BRANCH  69  71
ATOM     71  C   UNL A   1      45.365  22.625  26.016  1.00  0.00     0.216 A 
ATOM     72  O   UNL A   1      46.141  22.823  27.143  1.00  0.00    -0.449 OA
ATOM     73  C   UNL A   1      44.739  23.802  25.667  1.00  0.00     0.014 A 
ATOM     74  C   UNL A   1      45.989  24.136  27.510  1.00  0.00     0.135 A 
ATOM     75  C   UNL A   1      45.127  24.743  26.629  1.00  0.00     0.028 A 
ATOM     76  C   UNL A   1      43.810  24.206  24.581  1.00  0.00     0.041 C 
ATOM     77  C   UNL A   1      46.557  24.820  28.575  1.00  0.00     0.048 A 
ATOM     78  C   UNL A   1      44.729  26.074  26.744  1.00  0.00    -0.037 A 
ATOM     79  C   UNL A   1      42.962  25.431  25.038  1.00  0.00     0.010 C 
ATOM     80  C   UNL A   1      46.193  26.179  28.690  1.00  0.00     0.004 A 
ATOM     81  C   UNL A   1      45.298  26.798  27.793  1.00  0.00     0.004 A 
ATOM     82  C   UNL A   1      43.779  26.591  25.697  1.00  0.00     0.036 C 
ENDBRANCH  69  71
ENDBRANCH  68  69
ENDBRANCH  67  68
ENDBRANCH  66  67
ENDBRANCH   1  66
TORSDOF 14
ENDMDL
MODEL 2
REMARK VINA RESULT:     -10.7      1.178      1.721
REMARK SMILES O=C(OCCOC(=O)c1oc2cccc3c2c1CCC3)c1ccc(-c2c3nc(c(-c4ccc(S(=O)(=O)[O-])cc4)c4ccc([nH]4)c(-c4ccc(S(=O)(=O)[O-])cc4)c4nc(c(-c5ccc(S(=O)(=O)[O-])cc5)c5ccc2[nH]5)C=C4)C=C3)cc1
REMARK SMILES IDX 3 1 2 2 1 3 21 4 22 5 80 6 23 7 79 8 24 9 25 10 26 11 73 12
REMARK SMILES IDX 27 13 78 14 72 15 74 16 28 17 77 18 71 19 70 20 29 22 59 23
REMARK SMILES IDX 40 24 58 25 41 26 44 27 57 28 75 29 42 30 43 31 56 33 76 34
REMARK SMILES IDX 45 35 30 36 31 37 39 38 32 39 38 40 33 41 34 42 35 43 36 44
REMARK SMILES IDX 37 45 60 46 61 47 69 48 62 49 68 50 63 51 64 52 65 53 66 54
REMARK SMILES IDX 67 55 46 56 47 57 55 58 48 59 54 60 49 61 50 62 51 63 52 64
REMARK SMILES IDX 53 65 4 66 5 67 6 68 7 69 8 70 9 71 10 72 17 73 11 74 16 75
REMARK SMILES IDX 18 76 12 77 15 78 19 79 13 80 14 81 20 82
REMARK H PARENT 74 21 44 32
REMARK Flexibility Score: inf
ROOT
ATOM      1  O   UNL A   1      42.151  21.902  26.752  1.00  0.00    -0.458 OA
ENDROOT
BRANCH   1   2
ATOM      2  C   UNL A   1      41.062  22.625  26.401  1.00  0.00     0.338 C 
ATOM      3  O   UNL A   1      40.068  22.130  25.892  1.00  0.00    -0.246 OA
BRANCH   2   4
ATOM      4  C   UNL A   1      41.129  24.042  26.845  1.00  0.00     0.060 A 
ATOM      5  C   UNL A   1      41.160  24.392  28.197  1.00  0.00     0.016 A 
ATOM      6  C   UNL A   1      41.150  25.051  25.868  1.00  0.00     0.016 A 
ATOM      7  C   UNL A   1      41.192  25.725  28.572  1.00  0.00     0.010 A 
ATOM      8  C   UNL A   1      41.158  26.395  26.243  1.00  0.00     0.010 A 
ATOM      9  C   UNL A   1      41.160  26.727  27.598  1.00  0.00    -0.014 A 
BRANCH   9  10
ATOM     10  C   UNL A   1      41.076  28.096  28.092  1.00  0.00     0.031 A 
ATOM     11  C   UNL A   1      42.227  29.003  27.838  1.00  0.00     0.074 A 
ATOM     12  C   UNL A   1      40.015  28.560  28.777  1.00  0.00     0.049 A 
ATOM     13  N   UNL A   1      43.061  29.499  28.694  1.00  0.00    -0.248 NA
ATOM     14  C   UNL A   1      42.484  29.392  26.447  1.00  0.00     0.031 C 
ATOM     15  C   UNL A   1      38.684  27.965  28.893  1.00  0.00     0.029 A 
ATOM     16  N   UNL A   1      39.905  29.733  29.463  1.00  0.00    -0.354 N 
ATOM     17  C   UNL A   1      43.852  30.400  27.983  1.00  0.00     0.074 A 
ATOM     18  C   UNL A   1      43.514  30.226  26.590  1.00  0.00     0.031 C 
ATOM     19  C   UNL A   1      37.844  28.876  29.434  1.00  0.00     0.029 A 
ATOM     20  C   UNL A   1      38.608  30.048  29.829  1.00  0.00     0.049 A 
ATOM     21  H   UNL A   1      40.677  30.304  29.680  1.00  0.00     0.167 HD
ATOM     22  C   UNL A   1      44.615  31.356  28.583  1.00  0.00     0.031 A 
ATOM     23  C   UNL A   1      38.185  31.221  30.357  1.00  0.00     0.031 A 
ATOM     24  C   UNL A   1      44.810  31.126  29.986  1.00  0.00     0.049 A 
ATOM     25  C   UNL A   1      39.351  31.881  30.992  1.00  0.00     0.074 A 
ATOM     26  C   UNL A   1      45.401  30.140  30.748  1.00  0.00     0.029 A 
ATOM     27  N   UNL A   1      44.083  31.895  30.861  1.00  0.00    -0.354 N 
ATOM     28  N   UNL A   1      39.968  31.419  32.044  1.00  0.00    -0.248 NA
ATOM     29  C   UNL A   1      40.056  32.930  30.273  1.00  0.00     0.031 C 
ATOM     30  C   UNL A   1      44.649  30.099  31.960  1.00  0.00     0.029 A 
ATOM     31  C   UNL A   1      43.643  31.064  31.860  1.00  0.00     0.049 A 
ATOM     32  H   UNL A   1      43.909  32.861  30.785  1.00  0.00     0.167 HD
ATOM     33  C   UNL A   1      41.282  31.834  31.905  1.00  0.00     0.074 A 
ATOM     34  C   UNL A   1      41.243  32.868  30.880  1.00  0.00     0.031 C 
ATOM     35  C   UNL A   1      42.315  31.117  32.439  1.00  0.00     0.031 A 
BRANCH  22  36
ATOM     36  C   UNL A   1      44.923  32.689  27.949  1.00  0.00    -0.014 A 
ATOM     37  C   UNL A   1      46.262  33.112  27.822  1.00  0.00     0.010 A 
ATOM     38  C   UNL A   1      43.918  33.653  27.721  1.00  0.00     0.010 A 
ATOM     39  C   UNL A   1      46.577  34.444  27.518  1.00  0.00     0.020 A 
ATOM     40  C   UNL A   1      44.221  34.973  27.378  1.00  0.00     0.020 A 
ATOM     41  C   UNL A   1      45.551  35.368  27.308  1.00  0.00     0.054 A 
BRANCH  41  42
ATOM     42  S   UNL A   1      45.970  37.110  27.039  1.00  0.00     0.124 S 
ATOM     43  O   UNL A   1      46.743  37.424  28.237  1.00  0.00    -0.237 OA
ATOM     44  O   UNL A   1      46.729  37.057  25.792  1.00  0.00    -0.237 OA
ATOM     45  O   UNL A   1      44.668  37.766  26.944  1.00  0.00    -0.744 OA
ENDBRANCH  41  42
ENDBRANCH  22  36
BRANCH  23  46
ATOM     46  C   UNL A   1      36.915  31.925  30.055  1.00  0.00    -0.014 A 
ATOM     47  C   UNL A   1      36.122  32.452  31.091  1.00  0.00     0.010 A 
ATOM     48  C   UNL A   1      36.619  32.322  28.734  1.00  0.00     0.010 A 
ATOM     49  C   UNL A   1      35.121  33.399  30.819  1.00  0.00     0.020 A 
ATOM     50  C   UNL A   1      35.614  33.253  28.455  1.00  0.00     0.020 A 
ATOM     51  C   UNL A   1      34.894  33.814  29.504  1.00  0.00     0.054 A 
BRANCH  51  52
ATOM     52  S   UNL A   1      33.726  35.165  29.185  1.00  0.00     0.124 S 
ATOM     53  O   UNL A   1      33.514  35.720  30.518  1.00  0.00    -0.237 OA
ATOM     54  O   UNL A   1      34.476  36.009  28.260  1.00  0.00    -0.237 OA
ATOM     55  O   UNL A   1      32.565  34.490  28.605  1.00  0.00    -0.744 OA
ENDBRANCH  51  52
ENDBRANCH  23  46
BRANCH  35  56
ATOM     56  C   UNL A   1      41.997  30.066  33.476  1.00  0.00    -0.014 A 
ATOM     57  C   UNL A   1      41.571  28.768  33.134  1.00  0.00     0.010 A 
ATOM     58  C   UNL A   1      42.307  30.340  34.820  1.00  0.00     0.010 A 
ATOM     59  C   UNL A   1      41.456  27.771  34.111  1.00  0.00     0.020 A 
ATOM     60  C   UNL A   1      42.208  29.346  35.798  1.00  0.00     0.020 A 
ATOM     61  C   UNL A   1      41.789  28.063  35.438  1.00  0.00     0.054 A 
BRANCH  61  62
ATOM     62  S   UNL A   1      41.725  26.736  36.676  1.00  0.00     0.124 S 
ATOM     63  O   UNL A   1      40.479  27.016  37.385  1.00  0.00    -0.237 OA
ATOM     64  O   UNL A   1      41.720  25.531  35.849  1.00  0.00    -0.237 OA
ATOM     65  O   UNL A   1      42.941  26.932  37.463  1.00  0.00    -0.744 OA
ENDBRANCH  61  62
ENDBRANCH  35  56
ENDBRANCH   9  10
ENDBRANCH   2   4
ENDBRANCH   1   2
BRANCH   1  66
ATOM     66  C   UNL A   1      42.318  20.574  26.209  1.00  0.00     0.275 C 
BRANCH  66  67
ATOM     67  C   UNL A   1      43.625  20.300  25.470  1.00  0.00     0.275 C 
BRANCH  67  68
ATOM     68  O   UNL A   1      44.158  21.525  24.943  1.00  0.00    -0.456 OA
BRANCH  68  69
ATOM     69  C   UNL A   1      45.403  21.869  25.388  1.00  0.00     0.374 C 
ATOM     70  O   UNL A   1      46.440  21.284  25.111  1.00  0.00    -0.242 OA
BRANCH  69  71
ATOM     71  C   UNL A   1      45.272  22.915  26.361  1.00  0.00     0.216 A 
ATOM     72  O   UNL A   1      44.991  22.610  27.680  1.00  0.00    -0.449 OA
ATOM     73  C   UNL A   1      45.340  24.282  26.202  1.00  0.00     0.014 A 
ATOM     74  C   UNL A   1      44.870  23.800  28.351  1.00  0.00     0.135 A 
ATOM     75  C   UNL A   1      45.067  24.829  27.462  1.00  0.00     0.028 A 
ATOM     76  C   UNL A   1      45.605  25.187  25.054  1.00  0.00     0.041 C 
ATOM     77  C   UNL A   1      44.589  24.026  29.691  1.00  0.00     0.048 A 
ATOM     78  C   UNL A   1      44.972  26.173  27.818  1.00  0.00    -0.037 A 
ATOM     79  C   UNL A   1      44.947  26.575  25.312  1.00  0.00     0.010 C 
ATOM     80  C   UNL A   1      44.523  25.381  30.079  1.00  0.00     0.004 A 
ATOM     81  C   UNL A   1      44.713  26.437  29.164  1.00  0.00     0.004 A 
ATOM     82  C   UNL A   1      45.215  27.183  26.728  1.00  0.00     0.036 C 
ENDBRANCH  69  71
ENDBRANCH  68  69
ENDBRANCH  67  68
ENDBRANCH  66  67
ENDBRANCH   1  66
TORSDOF 14
ENDMDL
MODEL 3
REMARK VINA RESULT:     -10.6      2.456     11.481
REMARK SMILES O=C(OCCOC(=O)c1oc2cccc3c2c1CCC3)c1ccc(-c2c3nc(c(-c4ccc(S(=O)(=O)[O-])cc4)c4ccc([nH]4)c(-c4ccc(S(=O)(=O)[O-])cc4)c4nc(c(-c5ccc(S(=O)(=O)[O-])cc5)c5ccc2[nH]5)C=C4)C=C3)cc1
REMARK SMILES IDX 3 1 2 2 1 3 21 4 22 5 80 6 23 7 79 8 24 9 25 10 26 11 73 12
REMARK SMILES IDX 27 13 78 14 72 15 74 16 28 17 77 18 71 19 70 20 29 22 59 23
REMARK SMILES IDX 40 24 58 25 41 26 44 27 57 28 75 29 42 30 43 31 56 33 76 34
REMARK SMILES IDX 45 35 30 36 31 37 39 38 32 39 38 40 33 41 34 42 35 43 36 44
REMARK SMILES IDX 37 45 60 46 61 47 69 48 62 49 68 50 63 51 64 52 65 53 66 54
REMARK SMILES IDX 67 55 46 56 47 57 55 58 48 59 54 60 49 61 50 62 51 63 52 64
REMARK SMILES IDX 53 65 4 66 5 67 6 68 7 69 8 70 9 71 10 72 17 73 11 74 16 75
REMARK SMILES IDX 18 76 12 77 15 78 19 79 13 80 14 81 20 82
REMARK H PARENT 74 21 44 32
REMARK Flexibility Score: inf
ROOT
ATOM      1  O   UNL A   1      34.610  33.071  29.574  1.00  0.00    -0.458 OA
ENDROOT
BRANCH   1   2
ATOM      2  C   UNL A   1      35.012  32.288  28.545  1.00  0.00     0.338 C 
ATOM      3  O   UNL A   1      34.514  32.344  27.431  1.00  0.00    -0.246 OA
BRANCH   2   4
ATOM      4  C   UNL A   1      36.219  31.480  28.859  1.00  0.00     0.060 A 
ATOM      5  C   UNL A   1      37.448  32.074  29.160  1.00  0.00     0.016 A 
ATOM      6  C   UNL A   1      36.114  30.080  28.838  1.00  0.00     0.016 A 
ATOM      7  C   UNL A   1      38.559  31.287  29.417  1.00  0.00     0.010 A 
ATOM      8  C   UNL A   1      37.237  29.285  29.072  1.00  0.00     0.010 A 
ATOM      9  C   UNL A   1      38.462  29.895  29.343  1.00  0.00    -0.014 A 
BRANCH   9  10
ATOM     10  C   UNL A   1      39.708  29.158  29.511  1.00  0.00     0.031 A 
ATOM     11  C   UNL A   1      40.201  28.923  30.894  1.00  0.00     0.074 A 
ATOM     12  C   UNL A   1      40.432  28.703  28.472  1.00  0.00     0.049 A 
ATOM     13  N   UNL A   1      41.247  29.423  31.469  1.00  0.00    -0.248 NA
ATOM     14  C   UNL A   1      39.413  28.024  31.745  1.00  0.00     0.031 C 
ATOM     15  C   UNL A   1      40.018  28.560  27.076  1.00  0.00     0.029 A 
ATOM     16  N   UNL A   1      41.697  28.194  28.486  1.00  0.00    -0.354 N 
ATOM     17  C   UNL A   1      41.354  28.778  32.700  1.00  0.00     0.074 A 
ATOM     18  C   UNL A   1      40.151  27.996  32.856  1.00  0.00     0.031 C 
ATOM     19  C   UNL A   1      40.938  27.817  26.421  1.00  0.00     0.029 A 
ATOM     20  C   UNL A   1      42.060  27.562  27.310  1.00  0.00     0.049 A 
ATOM     21  H   UNL A   1      42.298  28.270  29.262  1.00  0.00     0.167 HD
ATOM     22  C   UNL A   1      42.493  28.784  33.447  1.00  0.00     0.031 A 
ATOM     23  C   UNL A   1      43.176  26.824  27.107  1.00  0.00     0.031 A 
ATOM     24  C   UNL A   1      43.433  29.789  33.038  1.00  0.00     0.049 A 
ATOM     25  C   UNL A   1      44.189  27.245  28.104  1.00  0.00     0.074 A 
ATOM     26  C   UNL A   1      43.435  31.167  32.977  1.00  0.00     0.029 A 
ATOM     27  N   UNL A   1      44.527  29.378  32.317  1.00  0.00    -0.354 N 
ATOM     28  N   UNL A   1      44.750  28.422  28.122  1.00  0.00    -0.248 NA
ATOM     29  C   UNL A   1      44.378  26.452  29.309  1.00  0.00     0.031 C 
ATOM     30  C   UNL A   1      44.264  31.494  31.863  1.00  0.00     0.029 A 
ATOM     31  C   UNL A   1      44.715  30.292  31.312  1.00  0.00     0.049 A 
ATOM     32  H   UNL A   1      45.073  28.577  32.489  1.00  0.00     0.167 HD
ATOM     33  C   UNL A   1      45.030  28.671  29.456  1.00  0.00     0.074 A 
ATOM     34  C   UNL A   1      44.908  27.376  30.113  1.00  0.00     0.031 C 
ATOM     35  C   UNL A   1      45.071  29.943  29.950  1.00  0.00     0.031 A 
BRANCH  22  36
ATOM     36  C   UNL A   1      42.893  27.651  34.359  1.00  0.00    -0.014 A 
ATOM     37  C   UNL A   1      43.101  27.896  35.731  1.00  0.00     0.010 A 
ATOM     38  C   UNL A   1      43.332  26.410  33.852  1.00  0.00     0.010 A 
ATOM     39  C   UNL A   1      43.750  26.958  36.547  1.00  0.00     0.020 A 
ATOM     40  C   UNL A   1      43.942  25.451  34.664  1.00  0.00     0.020 A 
ATOM     41  C   UNL A   1      44.175  25.744  36.002  1.00  0.00     0.054 A 
BRANCH  41  42
ATOM     42  S   UNL A   1      45.120  24.594  37.035  1.00  0.00     0.124 S 
ATOM     43  O   UNL A   1      46.479  25.111  36.897  1.00  0.00    -0.237 OA
ATOM     44  O   UNL A   1      44.503  24.776  38.346  1.00  0.00    -0.237 OA
ATOM     45  O   UNL A   1      44.879  23.294  36.412  1.00  0.00    -0.744 OA
ENDBRANCH  41  42
ENDBRANCH  22  36
BRANCH  23  46
ATOM     46  C   UNL A   1      43.282  25.573  26.317  1.00  0.00    -0.014 A 
ATOM     47  C   UNL A   1      44.304  25.410  25.362  1.00  0.00     0.010 A 
ATOM     48  C   UNL A   1      42.549  24.429  26.695  1.00  0.00     0.010 A 
ATOM     49  C   UNL A   1      44.627  24.138  24.864  1.00  0.00     0.020 A 
ATOM     50  C   UNL A   1      42.855  23.162  26.191  1.00  0.00     0.020 A 
ATOM     51  C   UNL A   1      43.917  23.018  25.304  1.00  0.00     0.054 A 
BRANCH  51  52
ATOM     52  S   UNL A   1      44.456  21.363  24.793  1.00  0.00     0.124 S 
ATOM     53  O   UNL A   1      43.372  20.514  25.278  1.00  0.00    -0.237 OA
ATOM     54  O   UNL A   1      44.550  21.503  23.343  1.00  0.00    -0.237 OA
ATOM     55  O   UNL A   1      45.734  21.187  25.481  1.00  0.00    -0.744 OA
ENDBRANCH  51  52
ENDBRANCH  23  46
BRANCH  35  56
ATOM     56  C   UNL A   1      45.158  31.090  28.970  1.00  0.00    -0.014 A 
ATOM     57  C   UNL A   1      46.367  31.476  28.361  1.00  0.00     0.010 A 
ATOM     58  C   UNL A   1      43.961  31.675  28.521  1.00  0.00     0.010 A 
ATOM     59  C   UNL A   1      46.379  32.424  27.330  1.00  0.00     0.020 A 
ATOM     60  C   UNL A   1      43.964  32.611  27.482  1.00  0.00     0.020 A 
ATOM     61  C   UNL A   1      45.173  32.977  26.886  1.00  0.00     0.054 A 
BRANCH  61  62
ATOM     62  S   UNL A   1      45.196  34.134  25.487  1.00  0.00     0.124 S 
ATOM     63  O   UNL A   1      46.621  34.401  25.311  1.00  0.00    -0.237 OA
ATOM     64  O   UNL A   1      44.566  33.355  24.422  1.00  0.00    -0.237 OA
ATOM     65  O   UNL A   1      44.408  35.271  25.960  1.00  0.00    -0.744 OA
ENDBRANCH  61  62
ENDBRANCH  35  56
ENDBRANCH   9  10
ENDBRANCH   2   4
ENDBRANCH   1   2
BRANCH   1  66
ATOM     66  C   UNL A   1      33.896  34.294  29.290  1.00  0.00     0.275 C 
BRANCH  66  67
ATOM     67  C   UNL A   1      33.810  35.312  30.423  1.00  0.00     0.275 C 
BRANCH  67  68
ATOM     68  O   UNL A   1      34.076  34.672  31.681  1.00  0.00    -0.456 OA
BRANCH  68  69
ATOM     69  C   UNL A   1      34.882  35.362  32.539  1.00  0.00     0.374 C 
ATOM     70  O   UNL A   1      34.653  36.480  32.982  1.00  0.00    -0.242 OA
BRANCH  69  71
ATOM     71  C   UNL A   1      36.112  34.640  32.699  1.00  0.00     0.216 A 
ATOM     72  O   UNL A   1      37.320  35.312  32.700  1.00  0.00    -0.449 OA
ATOM     73  C   UNL A   1      36.330  33.286  32.821  1.00  0.00     0.014 A 
ATOM     74  C   UNL A   1      38.306  34.365  32.811  1.00  0.00     0.135 A 
ATOM     75  C   UNL A   1      37.720  33.124  32.873  1.00  0.00     0.028 A 
ATOM     76  C   UNL A   1      35.453  32.089  32.883  1.00  0.00     0.041 C 
ATOM     77  C   UNL A   1      39.683  34.534  32.852  1.00  0.00     0.048 A 
ATOM     78  C   UNL A   1      38.449  31.939  32.950  1.00  0.00    -0.037 A 
ATOM     79  C   UNL A   1      36.233  30.833  32.393  1.00  0.00     0.010 C 
ATOM     80  C   UNL A   1      40.439  33.347  32.964  1.00  0.00     0.004 A 
ATOM     81  C   UNL A   1      39.838  32.073  33.015  1.00  0.00     0.004 A 
ATOM     82  C   UNL A   1      37.660  30.658  33.011  1.00  0.00     0.036 C 
ENDBRANCH  69  71
ENDBRANCH  68  69
ENDBRANCH  67  68
ENDBRANCH  66  67
ENDBRANCH   1  66
TORSDOF 14
ENDMDL
