MODEL 1
REMARK VINA RESULT:     -11.0      0.000      0.000
REMARK SMILES Nc1c(N2CCCC2)ncnc1N1CCC(C(=O)OCCOC(=O)c2ccc(-c3c4nc(c(-c5ccc(S(=O)(=O)[O-])cc5)c5ccc([nH]5)c(-c5ccc(S(=O)(=O)[O-])cc5)c5nc(c(-c6ccc(S(=O)(=O)[O-])cc6)c6ccc3[nH]6)C=C5)C=C4)cc2)CC1
REMARK SMILES IDX 21 1 20 2 19 3 17 4 18 5 16 6 13 7 14 8 86 9 15 10 85 11
REMARK SMILES IDX 12 12 2 13 3 14 9 15 11 16 10 17 1 18 4 21 5 22 8 23 6 24
REMARK SMILES IDX 7 25 22 26 23 27 24 28 25 29 26 30 84 31 27 32 83 33 28 34
REMARK SMILES IDX 29 35 30 36 77 37 31 38 82 39 76 40 78 41 32 42 81 43 75 44
REMARK SMILES IDX 74 45 33 47 63 48 44 49 62 50 45 51 48 52 61 53 79 54 46 55
REMARK SMILES IDX 47 56 60 58 80 59 49 60 34 61 35 62 43 63 36 64 42 65 37 66
REMARK SMILES IDX 38 67 39 68 40 69 41 70 64 71 65 72 73 73 66 74 72 75 67 76
REMARK SMILES IDX 68 77 69 78 70 79 71 80 50 81 51 82 59 83 52 84 58 85 53 86
REMARK SMILES IDX 54 87 55 88 56 89 57 90
REMARK H PARENT 1 19 1 20 78 46 48 57
REMARK Flexibility Score: inf
ROOT
ATOM      1  C   UNL A   1      32.445  30.006  26.873  1.00  0.00     0.275 C 
ENDROOT
BRANCH   1   2
ATOM      2  C   UNL A   1      32.698  29.666  25.402  1.00  0.00     0.274 C 
BRANCH   2   3
ATOM      3  O   UNL A   1      32.300  28.315  25.105  1.00  0.00    -0.462 OA
BRANCH   3   4
ATOM      4  C   UNL A   1      33.274  27.505  24.623  1.00  0.00     0.309 C 
ATOM      5  O   UNL A   1      34.071  27.818  23.746  1.00  0.00    -0.252 OA
BRANCH   4   6
ATOM      6  C   UNL A   1      33.322  26.153  25.298  1.00  0.00     0.103 C 
ATOM      7  N   UNL A   1      33.313  23.348  25.779  1.00  0.00    -0.355 N 
ATOM      8  C   UNL A   1      32.200  24.151  26.279  1.00  0.00     0.119 C 
ATOM      9  C   UNL A   1      34.580  24.017  25.482  1.00  0.00     0.119 C 
ATOM     10  C   UNL A   1      31.993  25.409  25.437  1.00  0.00     0.037 C 
ATOM     11  C   UNL A   1      34.349  25.252  24.618  1.00  0.00     0.037 C 
BRANCH   7  12
ATOM     12  C   UNL A   1      33.005  22.222  25.006  1.00  0.00     0.157 A 
ATOM     13  C   UNL A   1      33.438  20.953  25.438  1.00  0.00     0.118 A 
ATOM     14  C   UNL A   1      33.154  19.873  24.588  1.00  0.00     0.157 A 
ATOM     15  N   UNL A   1      32.560  20.056  23.394  1.00  0.00    -0.217 NA
ATOM     16  N   UNL A   1      32.341  22.399  23.852  1.00  0.00    -0.217 NA
ATOM     17  C   UNL A   1      32.163  21.303  23.107  1.00  0.00     0.226 A 
BRANCH  13  18
ATOM     18  N   UNL A   1      34.072  20.796  26.682  1.00  0.00    -0.393 N 
ATOM     19  H   UNL A   1      34.586  21.539  27.070  1.00  0.00     0.156 HD
ATOM     20  H   UNL A   1      34.000  19.941  27.165  1.00  0.00     0.156 HD
ENDBRANCH  13  18
BRANCH  14  21
ATOM     21  N   UNL A   1      33.508  18.586  24.903  1.00  0.00    -0.355 N 
ATOM     22  C   UNL A   1      34.630  17.858  24.344  1.00  0.00     0.118 C 
ATOM     23  C   UNL A   1      32.558  17.731  25.587  1.00  0.00     0.118 C 
ATOM     24  C   UNL A   1      34.071  16.443  24.232  1.00  0.00     0.023 C 
ATOM     25  C   UNL A   1      33.178  16.336  25.464  1.00  0.00     0.023 C 
ENDBRANCH  14  21
ENDBRANCH   7  12
ENDBRANCH   4   6
ENDBRANCH   3   4
ENDBRANCH   2   3
ENDBRANCH   1   2
BRANCH   1  26
ATOM     26  O   UNL A   1      33.545  29.606  27.714  1.00  0.00    -0.458 OA
BRANCH  26  27
ATOM     27  C   UNL A   1      34.381  30.606  28.080  1.00  0.00     0.338 C 
ATOM     28  O   UNL A   1      34.086  31.758  28.342  1.00  0.00    -0.246 OA
BRANCH  27  29
ATOM     29  C   UNL A   1      35.747  30.083  28.234  1.00  0.00     0.060 A 
ATOM     30  C   UNL A   1      36.122  29.587  29.483  1.00  0.00     0.016 A 
ATOM     31  C   UNL A   1      36.679  30.182  27.201  1.00  0.00     0.016 A 
ATOM     32  C   UNL A   1      37.437  29.201  29.717  1.00  0.00     0.010 A 
ATOM     33  C   UNL A   1      38.001  29.782  27.433  1.00  0.00     0.010 A 
ATOM     34  C   UNL A   1      38.390  29.304  28.696  1.00  0.00    -0.014 A 
BRANCH  34  35
ATOM     35  C   UNL A   1      39.800  28.949  28.982  1.00  0.00     0.031 A 
ATOM     36  C   UNL A   1      40.690  29.924  29.701  1.00  0.00     0.074 A 
ATOM     37  C   UNL A   1      40.262  27.728  28.652  1.00  0.00     0.049 A 
ATOM     38  N   UNL A   1      41.954  29.809  30.014  1.00  0.00    -0.248 NA
ATOM     39  C   UNL A   1      40.073  31.188  30.133  1.00  0.00     0.031 C 
ATOM     40  C   UNL A   1      39.472  26.669  28.020  1.00  0.00     0.029 A 
ATOM     41  N   UNL A   1      41.501  27.165  28.823  1.00  0.00    -0.354 N 
ATOM     42  C   UNL A   1      42.290  30.986  30.672  1.00  0.00     0.074 A 
ATOM     43  C   UNL A   1      41.101  31.811  30.695  1.00  0.00     0.031 C 
ATOM     44  C   UNL A   1      40.240  25.576  27.881  1.00  0.00     0.029 A 
ATOM     45  C   UNL A   1      41.586  25.872  28.365  1.00  0.00     0.049 A 
ATOM     46  H   UNL A   1      42.258  27.642  29.234  1.00  0.00     0.167 HD
ATOM     47  C   UNL A   1      43.479  31.345  31.211  1.00  0.00     0.031 A 
ATOM     48  C   UNL A   1      42.633  25.026  28.323  1.00  0.00     0.031 A 
ATOM     49  C   UNL A   1      44.662  30.527  31.177  1.00  0.00     0.049 A 
ATOM     50  C   UNL A   1      43.969  25.485  28.836  1.00  0.00     0.074 A 
ATOM     51  C   UNL A   1      45.924  30.816  31.668  1.00  0.00     0.029 A 
ATOM     52  N   UNL A   1      44.730  29.258  30.624  1.00  0.00    -0.354 N 
ATOM     53  N   UNL A   1      44.282  26.622  29.411  1.00  0.00    -0.248 NA
ATOM     54  C   UNL A   1      45.096  24.554  28.684  1.00  0.00     0.031 C 
ATOM     55  C   UNL A   1      46.763  29.735  31.379  1.00  0.00     0.029 A 
ATOM     56  C   UNL A   1      46.015  28.756  30.746  1.00  0.00     0.049 A 
ATOM     57  H   UNL A   1      43.975  28.782  30.206  1.00  0.00     0.167 HD
ATOM     58  C   UNL A   1      45.639  26.540  29.697  1.00  0.00     0.074 A 
ATOM     59  C   UNL A   1      46.085  25.236  29.247  1.00  0.00     0.031 C 
ATOM     60  C   UNL A   1      46.443  27.462  30.282  1.00  0.00     0.031 A 
BRANCH  47  61
ATOM     61  C   UNL A   1      43.564  32.700  31.857  1.00  0.00    -0.014 A 
ATOM     62  C   UNL A   1      43.882  33.843  31.102  1.00  0.00     0.010 A 
ATOM     63  C   UNL A   1      43.293  32.836  33.230  1.00  0.00     0.010 A 
ATOM     64  C   UNL A   1      43.961  35.094  31.717  1.00  0.00     0.020 A 
ATOM     65  C   UNL A   1      43.352  34.090  33.845  1.00  0.00     0.020 A 
ATOM     66  C   UNL A   1      43.702  35.210  33.087  1.00  0.00     0.054 A 
BRANCH  66  67
ATOM     67  S   UNL A   1      43.803  36.848  33.859  1.00  0.00     0.124 S 
ATOM     68  O   UNL A   1      44.920  36.676  34.784  1.00  0.00    -0.237 OA
ATOM     69  O   UNL A   1      44.060  37.725  32.719  1.00  0.00    -0.237 OA
ATOM     70  O   UNL A   1      42.495  37.016  34.488  1.00  0.00    -0.744 OA
ENDBRANCH  66  67
ENDBRANCH  47  61
BRANCH  48  71
ATOM     71  C   UNL A   1      42.458  23.663  27.757  1.00  0.00    -0.014 A 
ATOM     72  C   UNL A   1      42.734  23.415  26.402  1.00  0.00     0.010 A 
ATOM     73  C   UNL A   1      42.046  22.598  28.579  1.00  0.00     0.010 A 
ATOM     74  C   UNL A   1      42.603  22.125  25.879  1.00  0.00     0.020 A 
ATOM     75  C   UNL A   1      41.934  21.304  28.065  1.00  0.00     0.020 A 
ATOM     76  C   UNL A   1      42.208  21.077  26.715  1.00  0.00     0.054 A 
BRANCH  76  77
ATOM     77  S   UNL A   1      42.117  19.399  26.032  1.00  0.00     0.124 S 
ATOM     78  O   UNL A   1      42.665  18.597  27.121  1.00  0.00    -0.237 OA
ATOM     79  O   UNL A   1      40.687  19.235  25.782  1.00  0.00    -0.237 OA
ATOM     80  O   UNL A   1      42.947  19.474  24.830  1.00  0.00    -0.744 OA
ENDBRANCH  76  77
ENDBRANCH  48  71
BRANCH  60  81
ATOM     81  C   UNL A   1      47.888  27.095  30.476  1.00  0.00    -0.014 A 
ATOM     82  C   UNL A   1      48.862  27.490  29.543  1.00  0.00     0.010 A 
ATOM     83  C   UNL A   1      48.284  26.415  31.642  1.00  0.00     0.010 A 
ATOM     84  C   UNL A   1      50.210  27.197  29.766  1.00  0.00     0.020 A 
ATOM     85  C   UNL A   1      49.633  26.137  31.876  1.00  0.00     0.020 A 
ATOM     86  C   UNL A   1      50.587  26.524  30.932  1.00  0.00     0.054 A 
BRANCH  86  87
ATOM     87  S   UNL A   1      52.350  26.212  31.229  1.00  0.00     0.124 S 
ATOM     88  O   UNL A   1      52.320  24.913  31.895  1.00  0.00    -0.237 OA
ATOM     89  O   UNL A   1      52.908  26.214  29.879  1.00  0.00    -0.237 OA
ATOM     90  O   UNL A   1      52.763  27.334  32.069  1.00  0.00    -0.744 OA
ENDBRANCH  86  87
ENDBRANCH  60  81
ENDBRANCH  34  35
ENDBRANCH  27  29
ENDBRANCH  26  27
ENDBRANCH   1  26
TORSDOF 17
ENDMDL
MODEL 2
REMARK VINA RESULT:     -10.9      3.007      3.787
REMARK SMILES Nc1c(N2CCCC2)ncnc1N1CCC(C(=O)OCCOC(=O)c2ccc(-c3c4nc(c(-c5ccc(S(=O)(=O)[O-])cc5)c5ccc([nH]5)c(-c5ccc(S(=O)(=O)[O-])cc5)c5nc(c(-c6ccc(S(=O)(=O)[O-])cc6)c6ccc3[nH]6)C=C5)C=C4)cc2)CC1
REMARK SMILES IDX 21 1 20 2 19 3 17 4 18 5 16 6 13 7 14 8 86 9 15 10 85 11
REMARK SMILES IDX 12 12 2 13 3 14 9 15 11 16 10 17 1 18 4 21 5 22 8 23 6 24
REMARK SMILES IDX 7 25 22 26 23 27 24 28 25 29 26 30 84 31 27 32 83 33 28 34
REMARK SMILES IDX 29 35 30 36 77 37 31 38 82 39 76 40 78 41 32 42 81 43 75 44
REMARK SMILES IDX 74 45 33 47 63 48 44 49 62 50 45 51 48 52 61 53 79 54 46 55
REMARK SMILES IDX 47 56 60 58 80 59 49 60 34 61 35 62 43 63 36 64 42 65 37 66
REMARK SMILES IDX 38 67 39 68 40 69 41 70 64 71 65 72 73 73 66 74 72 75 67 76
REMARK SMILES IDX 68 77 69 78 70 79 71 80 50 81 51 82 59 83 52 84 58 85 53 86
REMARK SMILES IDX 54 87 55 88 56 89 57 90
REMARK H PARENT 1 19 1 20 78 46 48 57
REMARK Flexibility Score: inf
ROOT
ATOM      1  C   UNL A   1      34.677  29.905  27.734  1.00  0.00     0.275 C 
ENDROOT
BRANCH   1   2
ATOM      2  C   UNL A   1      33.763  29.538  26.563  1.00  0.00     0.274 C 
BRANCH   2   3
ATOM      3  O   UNL A   1      34.016  28.196  26.107  1.00  0.00    -0.462 OA
BRANCH   3   4
ATOM      4  C   UNL A   1      32.924  27.477  25.751  1.00  0.00     0.309 C 
ATOM      5  O   UNL A   1      31.986  27.913  25.094  1.00  0.00    -0.252 OA
BRANCH   4   6
ATOM      6  C   UNL A   1      32.972  26.039  26.215  1.00  0.00     0.103 C 
ATOM      7  N   UNL A   1      33.027  23.193  26.263  1.00  0.00    -0.355 N 
ATOM      8  C   UNL A   1      31.855  23.883  26.796  1.00  0.00     0.119 C 
ATOM      9  C   UNL A   1      34.288  23.931  26.166  1.00  0.00     0.119 C 
ATOM     10  C   UNL A   1      31.664  25.251  26.141  1.00  0.00     0.037 C 
ATOM     11  C   UNL A   1      34.075  25.277  25.484  1.00  0.00     0.037 C 
BRANCH   7  12
ATOM     12  C   UNL A   1      32.813  22.193  25.309  1.00  0.00     0.157 A 
ATOM     13  C   UNL A   1      33.191  20.869  25.605  1.00  0.00     0.118 A 
ATOM     14  C   UNL A   1      33.009  19.924  24.583  1.00  0.00     0.157 A 
ATOM     15  N   UNL A   1      32.562  20.282  23.365  1.00  0.00    -0.217 NA
ATOM     16  N   UNL A   1      32.291  22.542  24.122  1.00  0.00    -0.217 NA
ATOM     17  C   UNL A   1      32.202  21.564  23.213  1.00  0.00     0.226 A 
BRANCH  13  18
ATOM     18  N   UNL A   1      33.672  20.527  26.880  1.00  0.00    -0.393 N 
ATOM     19  H   UNL A   1      33.190  19.867  27.427  1.00  0.00     0.156 HD
ATOM     20  H   UNL A   1      34.492  20.949  27.225  1.00  0.00     0.156 HD
ENDBRANCH  13  18
BRANCH  14  21
ATOM     21  N   UNL A   1      33.323  18.599  24.753  1.00  0.00    -0.355 N 
ATOM     22  C   UNL A   1      34.558  17.964  24.337  1.00  0.00     0.118 C 
ATOM     23  C   UNL A   1      32.272  17.651  25.067  1.00  0.00     0.118 C 
ATOM     24  C   UNL A   1      34.075  16.592  23.877  1.00  0.00     0.023 C 
ATOM     25  C   UNL A   1      32.942  16.291  24.854  1.00  0.00     0.023 C 
ENDBRANCH  14  21
ENDBRANCH   7  12
ENDBRANCH   4   6
ENDBRANCH   3   4
ENDBRANCH   2   3
ENDBRANCH   1   2
BRANCH   1  26
ATOM     26  O   UNL A   1      35.968  29.274  27.629  1.00  0.00    -0.458 OA
BRANCH  26  27
ATOM     27  C   UNL A   1      36.765  29.410  28.716  1.00  0.00     0.338 C 
ATOM     28  O   UNL A   1      36.421  29.661  29.857  1.00  0.00    -0.246 OA
BRANCH  27  29
ATOM     29  C   UNL A   1      38.157  29.101  28.356  1.00  0.00     0.060 A 
ATOM     30  C   UNL A   1      39.013  28.664  29.368  1.00  0.00     0.016 A 
ATOM     31  C   UNL A   1      38.642  29.343  27.071  1.00  0.00     0.016 A 
ATOM     32  C   UNL A   1      40.367  28.483  29.109  1.00  0.00     0.010 A 
ATOM     33  C   UNL A   1      40.004  29.149  26.807  1.00  0.00     0.010 A 
ATOM     34  C   UNL A   1      40.876  28.732  27.828  1.00  0.00    -0.014 A 
BRANCH  34  35
ATOM     35  C   UNL A   1      42.331  28.595  27.587  1.00  0.00     0.031 A 
ATOM     36  C   UNL A   1      43.259  29.729  27.922  1.00  0.00     0.074 A 
ATOM     37  C   UNL A   1      42.825  27.430  27.126  1.00  0.00     0.049 A 
ATOM     38  N   UNL A   1      44.554  29.810  27.757  1.00  0.00    -0.248 NA
ATOM     39  C   UNL A   1      42.651  30.921  28.535  1.00  0.00     0.031 C 
ATOM     40  C   UNL A   1      42.034  26.233  26.835  1.00  0.00     0.029 A 
ATOM     41  N   UNL A   1      44.114  27.057  26.841  1.00  0.00    -0.354 N 
ATOM     42  C   UNL A   1      44.918  31.064  28.234  1.00  0.00     0.074 A 
ATOM     43  C   UNL A   1      43.704  31.716  28.678  1.00  0.00     0.031 C 
ATOM     44  C   UNL A   1      42.858  25.250  26.439  1.00  0.00     0.029 A 
ATOM     45  C   UNL A   1      44.226  25.760  26.398  1.00  0.00     0.049 A 
ATOM     46  H   UNL A   1      44.886  27.660  26.944  1.00  0.00     0.167 HD
ATOM     47  C   UNL A   1      46.151  31.618  28.300  1.00  0.00     0.031 A 
ATOM     48  C   UNL A   1      45.305  25.066  25.989  1.00  0.00     0.031 A 
ATOM     49  C   UNL A   1      47.354  30.971  27.849  1.00  0.00     0.049 A 
ATOM     50  C   UNL A   1      46.649  25.739  25.977  1.00  0.00     0.074 A 
ATOM     51  C   UNL A   1      48.648  31.463  27.845  1.00  0.00     0.029 A 
ATOM     52  N   UNL A   1      47.413  29.690  27.324  1.00  0.00    -0.354 N 
ATOM     53  N   UNL A   1      46.970  26.944  26.386  1.00  0.00    -0.248 NA
ATOM     54  C   UNL A   1      47.776  24.964  25.437  1.00  0.00     0.031 C 
ATOM     55  C   UNL A   1      49.483  30.492  27.283  1.00  0.00     0.029 A 
ATOM     56  C   UNL A   1      48.717  29.379  26.976  1.00  0.00     0.049 A 
ATOM     57  H   UNL A   1      46.641  29.088  27.214  1.00  0.00     0.167 HD
ATOM     58  C   UNL A   1      48.335  27.069  26.161  1.00  0.00     0.074 A 
ATOM     59  C   UNL A   1      48.784  25.813  25.594  1.00  0.00     0.031 C 
ATOM     60  C   UNL A   1      49.144  28.129  26.403  1.00  0.00     0.031 A 
BRANCH  47  61
ATOM     61  C   UNL A   1      46.253  33.011  28.856  1.00  0.00    -0.014 A 
ATOM     62  C   UNL A   1      46.484  33.228  30.226  1.00  0.00     0.010 A 
ATOM     63  C   UNL A   1      46.146  34.117  27.994  1.00  0.00     0.010 A 
ATOM     64  C   UNL A   1      46.574  34.529  30.729  1.00  0.00     0.020 A 
ATOM     65  C   UNL A   1      46.253  35.419  28.490  1.00  0.00     0.020 A 
ATOM     66  C   UNL A   1      46.451  35.617  29.858  1.00  0.00     0.054 A 
BRANCH  66  67
ATOM     67  S   UNL A   1      46.579  37.295  30.535  1.00  0.00     0.124 S 
ATOM     68  O   UNL A   1      47.815  37.773  29.921  1.00  0.00    -0.237 OA
ATOM     69  O   UNL A   1      45.353  37.929  30.057  1.00  0.00    -0.237 OA
ATOM     70  O   UNL A   1      46.644  37.082  31.979  1.00  0.00    -0.744 OA
ENDBRANCH  66  67
ENDBRANCH  47  61
BRANCH  48  71
ATOM     71  C   UNL A   1      45.150  23.658  25.540  1.00  0.00    -0.014 A 
ATOM     72  C   UNL A   1      44.754  23.371  24.223  1.00  0.00     0.010 A 
ATOM     73  C   UNL A   1      45.430  22.596  26.420  1.00  0.00     0.010 A 
ATOM     74  C   UNL A   1      44.643  22.046  23.792  1.00  0.00     0.020 A 
ATOM     75  C   UNL A   1      45.340  21.271  25.987  1.00  0.00     0.020 A 
ATOM     76  C   UNL A   1      44.941  21.004  24.676  1.00  0.00     0.054 A 
BRANCH  76  77
ATOM     77  S   UNL A   1      44.861  19.294  24.073  1.00  0.00     0.124 S 
ATOM     78  O   UNL A   1      43.751  18.750  24.848  1.00  0.00    -0.237 OA
ATOM     79  O   UNL A   1      44.609  19.474  22.645  1.00  0.00    -0.237 OA
ATOM     80  O   UNL A   1      46.180  18.755  24.402  1.00  0.00    -0.744 OA
ENDBRANCH  76  77
ENDBRANCH  48  71
BRANCH  60  81
ATOM     81  C   UNL A   1      50.600  27.980  26.064  1.00  0.00    -0.014 A 
ATOM     82  C   UNL A   1      51.507  27.457  27.001  1.00  0.00     0.010 A 
ATOM     83  C   UNL A   1      51.051  28.296  24.769  1.00  0.00     0.010 A 
ATOM     84  C   UNL A   1      52.847  27.264  26.653  1.00  0.00     0.020 A 
ATOM     85  C   UNL A   1      52.385  28.087  24.412  1.00  0.00     0.020 A 
ATOM     86  C   UNL A   1      53.278  27.579  25.360  1.00  0.00     0.054 A 
BRANCH  86  87
ATOM     87  S   UNL A   1      55.007  27.260  24.913  1.00  0.00     0.124 S 
ATOM     88  O   UNL A   1      55.284  28.347  23.979  1.00  0.00    -0.237 OA
ATOM     89  O   UNL A   1      55.692  27.348  26.200  1.00  0.00    -0.237 OA
ATOM     90  O   UNL A   1      54.971  25.924  24.323  1.00  0.00    -0.744 OA
ENDBRANCH  86  87
ENDBRANCH  60  81
ENDBRANCH  34  35
ENDBRANCH  27  29
ENDBRANCH  26  27
ENDBRANCH   1  26
TORSDOF 17
ENDMDL
MODEL 3
REMARK VINA RESULT:     -10.8      4.334     10.517
REMARK SMILES Nc1c(N2CCCC2)ncnc1N1CCC(C(=O)OCCOC(=O)c2ccc(-c3c4nc(c(-c5ccc(S(=O)(=O)[O-])cc5)c5ccc([nH]5)c(-c5ccc(S(=O)(=O)[O-])cc5)c5nc(c(-c6ccc(S(=O)(=O)[O-])cc6)c6ccc3[nH]6)C=C5)C=C4)cc2)CC1
REMARK SMILES IDX 21 1 20 2 19 3 17 4 18 5 16 6 13 7 14 8 86 9 15 10 85 11
REMARK SMILES IDX 12 12 2 13 3 14 9 15 11 16 10 17 1 18 4 21 5 22 8 23 6 24
REMARK SMILES IDX 7 25 22 26 23 27 24 28 25 29 26 30 84 31 27 32 83 33 28 34
REMARK SMILES IDX 29 35 30 36 77 37 31 38 82 39 76 40 78 41 32 42 81 43 75 44
REMARK SMILES IDX 74 45 33 47 63 48 44 49 62 50 45 51 48 52 61 53 79 54 46 55
REMARK SMILES IDX 47 56 60 58 80 59 49 60 34 61 35 62 43 63 36 64 42 65 37 66
REMARK SMILES IDX 38 67 39 68 40 69 41 70 64 71 65 72 73 73 66 74 72 75 67 76
REMARK SMILES IDX 68 77 69 78 70 79 71 80 50 81 51 82 59 83 52 84 58 85 53 86
REMARK SMILES IDX 54 87 55 88 56 89 57 90
REMARK H PARENT 1 19 1 20 78 46 48 57
REMARK Flexibility Score: inf
ROOT
ATOM      1  C   UNL A   1      40.711  22.595  26.521  1.00  0.00     0.275 C 
ENDROOT
BRANCH   1   2
ATOM      2  C   UNL A   1      39.671  21.473  26.494  1.00  0.00     0.274 C 
BRANCH   2   3
ATOM      3  O   UNL A   1      38.481  21.884  25.794  1.00  0.00    -0.462 OA
BRANCH   3   4
ATOM      4  C   UNL A   1      37.839  20.913  25.100  1.00  0.00     0.309 C 
ATOM      5  O   UNL A   1      38.242  19.762  24.975  1.00  0.00    -0.252 OA
BRANCH   4   6
ATOM      6  C   UNL A   1      36.529  21.369  24.500  1.00  0.00     0.103 C 
ATOM      7  N   UNL A   1      34.249  22.920  23.797  1.00  0.00    -0.355 N 
ATOM      8  C   UNL A   1      34.065  21.742  24.639  1.00  0.00     0.119 C 
ATOM      9  C   UNL A   1      35.454  23.008  22.971  1.00  0.00     0.119 C 
ATOM     10  C   UNL A   1      35.326  21.423  25.442  1.00  0.00     0.037 C 
ATOM     11  C   UNL A   1      36.699  22.715  23.801  1.00  0.00     0.037 C 
BRANCH   7  12
ATOM     12  C   UNL A   1      33.710  24.131  24.247  1.00  0.00     0.157 A 
ATOM     13  C   UNL A   1      32.602  24.682  23.576  1.00  0.00     0.118 A 
ATOM     14  C   UNL A   1      32.149  25.928  24.036  1.00  0.00     0.157 A 
ATOM     15  N   UNL A   1      32.786  26.588  25.021  1.00  0.00    -0.217 NA
ATOM     16  N   UNL A   1      34.301  24.748  25.283  1.00  0.00    -0.217 NA
ATOM     17  C   UNL A   1      33.807  25.949  25.606  1.00  0.00     0.226 A 
BRANCH  13  18
ATOM     18  N   UNL A   1      31.967  23.978  22.539  1.00  0.00    -0.393 N 
ATOM     19  H   UNL A   1      31.195  24.375  22.075  1.00  0.00     0.156 HD
ATOM     20  H   UNL A   1      32.296  23.088  22.276  1.00  0.00     0.156 HD
ENDBRANCH  13  18
BRANCH  14  21
ATOM     21  N   UNL A   1      31.068  26.562  23.476  1.00  0.00    -0.355 N 
ATOM     22  C   UNL A   1      31.129  27.646  22.516  1.00  0.00     0.118 C 
ATOM     23  C   UNL A   1      29.759  26.407  24.080  1.00  0.00     0.118 C 
ATOM     24  C   UNL A   1      29.950  28.517  22.940  1.00  0.00     0.023 C 
ATOM     25  C   UNL A   1      28.919  27.489  23.394  1.00  0.00     0.023 C 
ENDBRANCH  14  21
ENDBRANCH   7  12
ENDBRANCH   4   6
ENDBRANCH   3   4
ENDBRANCH   2   3
ENDBRANCH   1   2
BRANCH   1  26
ATOM     26  O   UNL A   1      40.097  23.898  26.550  1.00  0.00    -0.458 OA
BRANCH  26  27
ATOM     27  C   UNL A   1      40.947  24.938  26.374  1.00  0.00     0.338 C 
ATOM     28  O   UNL A   1      41.760  25.084  25.479  1.00  0.00    -0.246 OA
BRANCH  27  29
ATOM     29  C   UNL A   1      40.686  25.973  27.386  1.00  0.00     0.060 A 
ATOM     30  C   UNL A   1      41.432  27.151  27.326  1.00  0.00     0.016 A 
ATOM     31  C   UNL A   1      39.804  25.745  28.442  1.00  0.00     0.016 A 
ATOM     32  C   UNL A   1      41.317  28.104  28.331  1.00  0.00     0.010 A 
ATOM     33  C   UNL A   1      39.678  26.711  29.448  1.00  0.00     0.010 A 
ATOM     34  C   UNL A   1      40.445  27.889  29.406  1.00  0.00    -0.014 A 
BRANCH  34  35
ATOM     35  C   UNL A   1      40.382  28.886  30.500  1.00  0.00     0.031 A 
ATOM     36  C   UNL A   1      41.401  28.854  31.604  1.00  0.00     0.074 A 
ATOM     37  C   UNL A   1      39.449  29.856  30.467  1.00  0.00     0.049 A 
ATOM     38  N   UNL A   1      41.495  29.620  32.661  1.00  0.00    -0.248 NA
ATOM     39  C   UNL A   1      42.458  27.836  31.501  1.00  0.00     0.031 C 
ATOM     40  C   UNL A   1      38.455  30.035  29.408  1.00  0.00     0.029 A 
ATOM     41  N   UNL A   1      39.201  30.886  31.338  1.00  0.00    -0.354 N 
ATOM     42  C   UNL A   1      42.614  29.174  33.354  1.00  0.00     0.074 A 
ATOM     43  C   UNL A   1      43.154  28.057  32.608  1.00  0.00     0.031 C 
ATOM     44  C   UNL A   1      37.720  31.127  29.678  1.00  0.00     0.029 A 
ATOM     45  C   UNL A   1      38.157  31.693  30.952  1.00  0.00     0.049 A 
ATOM     46  H   UNL A   1      39.720  31.033  32.162  1.00  0.00     0.167 HD
ATOM     47  C   UNL A   1      43.143  29.653  34.503  1.00  0.00     0.031 A 
ATOM     48  C   UNL A   1      37.603  32.758  31.563  1.00  0.00     0.031 A 
ATOM     49  C   UNL A   1      42.597  30.756  35.247  1.00  0.00     0.049 A 
ATOM     50  C   UNL A   1      38.147  33.209  32.890  1.00  0.00     0.074 A 
ATOM     51  C   UNL A   1      43.045  31.297  36.441  1.00  0.00     0.029 A 
ATOM     52  N   UNL A   1      41.485  31.492  34.868  1.00  0.00    -0.354 N 
ATOM     53  N   UNL A   1      39.176  32.744  33.557  1.00  0.00    -0.248 NA
ATOM     54  C   UNL A   1      37.448  34.319  33.552  1.00  0.00     0.031 C 
ATOM     55  C   UNL A   1      42.180  32.336  36.802  1.00  0.00     0.029 A 
ATOM     56  C   UNL A   1      41.220  32.471  35.812  1.00  0.00     0.049 A 
ATOM     57  H   UNL A   1      40.961  31.342  34.048  1.00  0.00     0.167 HD
ATOM     58  C   UNL A   1      39.254  33.509  34.714  1.00  0.00     0.074 A 
ATOM     59  C   UNL A   1      38.178  34.478  34.649  1.00  0.00     0.031 C 
ATOM     60  C   UNL A   1      40.138  33.418  35.737  1.00  0.00     0.031 A 
BRANCH  47  61
ATOM     61  C   UNL A   1      44.364  28.960  35.043  1.00  0.00    -0.014 A 
ATOM     62  C   UNL A   1      44.247  27.848  35.896  1.00  0.00     0.010 A 
ATOM     63  C   UNL A   1      45.643  29.409  34.670  1.00  0.00     0.010 A 
ATOM     64  C   UNL A   1      45.390  27.217  36.392  1.00  0.00     0.020 A 
ATOM     65  C   UNL A   1      46.789  28.768  35.150  1.00  0.00     0.020 A 
ATOM     66  C   UNL A   1      46.655  27.685  36.022  1.00  0.00     0.054 A 
BRANCH  66  67
ATOM     67  S   UNL A   1      48.123  26.842  36.674  1.00  0.00     0.124 S 
ATOM     68  O   UNL A   1      47.626  25.482  36.870  1.00  0.00    -0.237 OA
ATOM     69  O   UNL A   1      49.094  27.007  35.595  1.00  0.00    -0.237 OA
ATOM     70  O   UNL A   1      48.427  27.576  37.900  1.00  0.00    -0.744 OA
ENDBRANCH  66  67
ENDBRANCH  47  61
BRANCH  48  71
ATOM     71  C   UNL A   1      36.457  33.459  30.928  1.00  0.00    -0.014 A 
ATOM     72  C   UNL A   1      35.260  33.652  31.638  1.00  0.00     0.010 A 
ATOM     73  C   UNL A   1      36.568  33.966  29.620  1.00  0.00     0.010 A 
ATOM     74  C   UNL A   1      34.194  34.341  31.052  1.00  0.00     0.020 A 
ATOM     75  C   UNL A   1      35.513  34.673  29.039  1.00  0.00     0.020 A 
ATOM     76  C   UNL A   1      34.329  34.852  29.757  1.00  0.00     0.054 A 
BRANCH  76  77
ATOM     77  S   UNL A   1      32.961  35.808  29.047  1.00  0.00     0.124 S 
ATOM     78  O   UNL A   1      33.663  36.926  28.424  1.00  0.00    -0.237 OA
ATOM     79  O   UNL A   1      32.351  34.852  28.126  1.00  0.00    -0.237 OA
ATOM     80  O   UNL A   1      32.144  36.150  30.209  1.00  0.00    -0.744 OA
ENDBRANCH  76  77
ENDBRANCH  48  71
BRANCH  60  81
ATOM     81  C   UNL A   1      39.987  34.394  36.870  1.00  0.00    -0.014 A 
ATOM     82  C   UNL A   1      40.634  35.641  36.837  1.00  0.00     0.010 A 
ATOM     83  C   UNL A   1      39.130  34.090  37.943  1.00  0.00     0.010 A 
ATOM     84  C   UNL A   1      40.437  36.564  37.867  1.00  0.00     0.020 A 
ATOM     85  C   UNL A   1      38.916  35.019  38.964  1.00  0.00     0.020 A 
ATOM     86  C   UNL A   1      39.578  36.248  38.924  1.00  0.00     0.054 A 
BRANCH  86  87
ATOM     87  S   UNL A   1      39.288  37.489  40.215  1.00  0.00     0.124 S 
ATOM     88  O   UNL A   1      40.614  38.082  40.369  1.00  0.00    -0.237 OA
ATOM     89  O   UNL A   1      38.279  38.354  39.609  1.00  0.00    -0.237 OA
ATOM     90  O   UNL A   1      38.821  36.701  41.354  1.00  0.00    -0.744 OA
ENDBRANCH  86  87
ENDBRANCH  60  81
ENDBRANCH  34  35
ENDBRANCH  27  29
ENDBRANCH  26  27
ENDBRANCH   1  26
TORSDOF 17
ENDMDL
