MODEL 1
REMARK VINA RESULT:      -9.4      0.000      0.000
REMARK SMILES CCOCCCC(=O)N[C@@H]1COC[C@H]1C(=O)OCCOC(=O)c1ccc(-c2c3nc(c(-c4ccc(S(=O)(=O)[O-])cc4)c4ccc([nH]4)c(-c4ccc(S(=O)(=O)[O-])cc4)c4nc(c(-c5ccc(S(=O)(=O)[O-])cc5)c5ccc2[nH]5)C=C4)C=C3)cc1
REMARK SMILES IDX 17 1 15 2 16 3 14 4 10 5 11 6 12 7 13 8 9 9 7 10 8 11 6 13
REMARK SMILES IDX 5 14 4 15 3 16 2 17 1 18 18 19 19 20 20 21 21 22 22 23 23 24
REMARK SMILES IDX 24 25 82 26 25 27 81 28 26 29 27 30 28 31 75 32 29 33 80 34
REMARK SMILES IDX 74 35 76 36 30 37 79 38 73 39 72 40 31 42 61 43 42 44 60 45
REMARK SMILES IDX 43 46 46 47 59 48 77 49 44 50 45 51 58 53 78 54 47 55 32 56
REMARK SMILES IDX 33 57 41 58 34 59 40 60 35 61 36 62 37 63 38 64 39 65 62 66
REMARK SMILES IDX 63 67 71 68 64 69 70 70 65 71 66 72 67 73 68 74 69 75 48 76
REMARK SMILES IDX 49 77 57 78 50 79 56 80 51 81 52 82 53 83 54 84 55 85
REMARK H PARENT 9 12 76 41 46 52
REMARK Flexibility Score: inf
ROOT
ATOM      1  O   UNL A   1      31.436  28.408  25.909  1.00  0.00    -0.462 OA
ENDROOT
BRANCH   1   2
ATOM      2  C   UNL A   1      31.128  27.442  25.009  1.00  0.00     0.313 C 
ATOM      3  O   UNL A   1      30.586  27.707  23.932  1.00  0.00    -0.252 OA
BRANCH   2   4
ATOM      4  C   UNL A   1      31.394  25.968  25.336  1.00  0.00     0.149 C 
ATOM      5  C   UNL A   1      32.177  25.322  26.497  1.00  0.00     0.124 C 
ATOM      6  C   UNL A   1      31.311  24.068  26.773  1.00  0.00     0.186 C 
ATOM      7  O   UNL A   1      29.960  24.420  26.510  1.00  0.00    -0.378 OA
ATOM      8  C   UNL A   1      29.980  25.382  25.458  1.00  0.00     0.177 C 
BRANCH   5   9
ATOM      9  N   UNL A   1      33.544  24.819  26.127  1.00  0.00    -0.350 N 
ATOM     10  C   UNL A   1      34.051  24.182  25.035  1.00  0.00     0.220 C 
ATOM     11  O   UNL A   1      35.043  24.714  24.520  1.00  0.00    -0.275 OA
ATOM     12  H   UNL A   1      34.219  24.987  26.824  1.00  0.00     0.163 HD
BRANCH  10  13
ATOM     13  C   UNL A   1      33.555  22.871  24.459  1.00  0.00     0.102 C 
BRANCH  13  14
ATOM     14  C   UNL A   1      32.456  22.965  23.420  1.00  0.00     0.038 C 
BRANCH  14  15
ATOM     15  C   UNL A   1      32.888  23.742  22.210  1.00  0.00     0.160 C 
BRANCH  15  16
ATOM     16  O   UNL A   1      32.235  24.994  22.129  1.00  0.00    -0.382 OA
BRANCH  16  17
ATOM     17  C   UNL A   1      32.813  25.947  21.263  1.00  0.00     0.156 C 
ATOM     18  C   UNL A   1      33.577  26.923  22.134  1.00  0.00     0.035 C 
ENDBRANCH  16  17
ENDBRANCH  15  16
ENDBRANCH  14  15
ENDBRANCH  13  14
ENDBRANCH  10  13
ENDBRANCH   5   9
ENDBRANCH   2   4
ENDBRANCH   1   2
BRANCH   1  19
ATOM     19  C   UNL A   1      31.406  29.772  25.388  1.00  0.00     0.274 C 
BRANCH  19  20
ATOM     20  C   UNL A   1      31.949  30.842  26.360  1.00  0.00     0.275 C 
BRANCH  20  21
ATOM     21  O   UNL A   1      33.149  30.447  27.049  1.00  0.00    -0.458 OA
BRANCH  21  22
ATOM     22  C   UNL A   1      33.900  31.429  27.603  1.00  0.00     0.338 C 
ATOM     23  O   UNL A   1      33.617  32.599  27.677  1.00  0.00    -0.246 OA
BRANCH  22  24
ATOM     24  C   UNL A   1      35.245  30.860  27.877  1.00  0.00     0.060 A 
ATOM     25  C   UNL A   1      36.253  31.757  28.234  1.00  0.00     0.016 A 
ATOM     26  C   UNL A   1      35.519  29.491  27.817  1.00  0.00     0.016 A 
ATOM     27  C   UNL A   1      37.525  31.283  28.569  1.00  0.00     0.010 A 
ATOM     28  C   UNL A   1      36.777  29.013  28.236  1.00  0.00     0.010 A 
ATOM     29  C   UNL A   1      37.778  29.900  28.670  1.00  0.00    -0.014 A 
BRANCH  29  30
ATOM     30  C   UNL A   1      38.956  29.425  29.472  1.00  0.00     0.031 A 
ATOM     31  C   UNL A   1      40.008  28.481  28.946  1.00  0.00     0.074 A 
ATOM     32  C   UNL A   1      39.053  29.851  30.751  1.00  0.00     0.049 A 
ATOM     33  N   UNL A   1      41.013  27.936  29.591  1.00  0.00    -0.248 NA
ATOM     34  C   UNL A   1      39.930  28.096  27.531  1.00  0.00     0.031 C 
ATOM     35  C   UNL A   1      38.110  30.761  31.410  1.00  0.00     0.029 A 
ATOM     36  N   UNL A   1      39.988  29.597  31.726  1.00  0.00    -0.354 N 
ATOM     37  C   UNL A   1      41.672  27.119  28.677  1.00  0.00     0.074 A 
ATOM     38  C   UNL A   1      40.952  27.249  27.424  1.00  0.00     0.031 C 
ATOM     39  C   UNL A   1      38.548  31.043  32.642  1.00  0.00     0.029 A 
ATOM     40  C   UNL A   1      39.741  30.251  32.912  1.00  0.00     0.049 A 
ATOM     41  H   UNL A   1      40.763  29.003  31.589  1.00  0.00     0.167 HD
ATOM     42  C   UNL A   1      42.762  26.331  28.868  1.00  0.00     0.031 A 
ATOM     43  C   UNL A   1      40.357  30.201  34.109  1.00  0.00     0.031 A 
ATOM     44  C   UNL A   1      43.488  26.206  30.112  1.00  0.00     0.049 A 
ATOM     45  C   UNL A   1      41.526  29.288  34.301  1.00  0.00     0.074 A 
ATOM     46  C   UNL A   1      44.620  25.446  30.373  1.00  0.00     0.029 A 
ATOM     47  N   UNL A   1      43.165  26.842  31.300  1.00  0.00    -0.354 N 
ATOM     48  N   UNL A   1      42.112  28.511  33.425  1.00  0.00    -0.248 NA
ATOM     49  C   UNL A   1      42.102  29.226  35.652  1.00  0.00     0.031 C 
ATOM     50  C   UNL A   1      44.946  25.581  31.727  1.00  0.00     0.029 A 
ATOM     51  C   UNL A   1      44.053  26.470  32.300  1.00  0.00     0.049 A 
ATOM     52  H   UNL A   1      42.414  27.469  31.417  1.00  0.00     0.167 HD
ATOM     53  C   UNL A   1      43.130  27.867  34.117  1.00  0.00     0.074 A 
ATOM     54  C   UNL A   1      43.095  28.364  35.478  1.00  0.00     0.031 C 
ATOM     55  C   UNL A   1      44.008  26.942  33.660  1.00  0.00     0.031 A 
BRANCH  42  56
ATOM     56  C   UNL A   1      43.238  25.479  27.713  1.00  0.00    -0.014 A 
ATOM     57  C   UNL A   1      44.090  25.992  26.719  1.00  0.00     0.010 A 
ATOM     58  C   UNL A   1      42.914  24.108  27.690  1.00  0.00     0.010 A 
ATOM     59  C   UNL A   1      44.585  25.156  25.710  1.00  0.00     0.020 A 
ATOM     60  C   UNL A   1      43.423  23.266  26.696  1.00  0.00     0.020 A 
ATOM     61  C   UNL A   1      44.246  23.799  25.704  1.00  0.00     0.054 A 
BRANCH  61  62
ATOM     62  S   UNL A   1      44.925  22.730  24.403  1.00  0.00     0.124 S 
ATOM     63  O   UNL A   1      43.778  22.578  23.509  1.00  0.00    -0.237 OA
ATOM     64  O   UNL A   1      46.031  23.524  23.875  1.00  0.00    -0.237 OA
ATOM     65  O   UNL A   1      45.319  21.519  25.118  1.00  0.00    -0.744 OA
ENDBRANCH  61  62
ENDBRANCH  42  56
BRANCH  43  66
ATOM     66  C   UNL A   1      39.823  31.012  35.237  1.00  0.00    -0.014 A 
ATOM     67  C   UNL A   1      38.628  30.647  35.880  1.00  0.00     0.010 A 
ATOM     68  C   UNL A   1      40.544  32.127  35.707  1.00  0.00     0.010 A 
ATOM     69  C   UNL A   1      38.166  31.379  36.976  1.00  0.00     0.020 A 
ATOM     70  C   UNL A   1      40.103  32.839  36.823  1.00  0.00     0.020 A 
ATOM     71  C   UNL A   1      38.911  32.466  37.446  1.00  0.00     0.054 A 
BRANCH  71  72
ATOM     72  S   UNL A   1      38.346  33.350  38.926  1.00  0.00     0.124 S 
ATOM     73  O   UNL A   1      38.531  34.743  38.535  1.00  0.00    -0.237 OA
ATOM     74  O   UNL A   1      36.960  32.905  39.052  1.00  0.00    -0.237 OA
ATOM     75  O   UNL A   1      39.242  32.866  39.973  1.00  0.00    -0.744 OA
ENDBRANCH  71  72
ENDBRANCH  43  66
BRANCH  55  76
ATOM     76  C   UNL A   1      45.018  26.418  34.645  1.00  0.00    -0.014 A 
ATOM     77  C   UNL A   1      44.789  25.225  35.354  1.00  0.00     0.010 A 
ATOM     78  C   UNL A   1      46.213  27.127  34.864  1.00  0.00     0.010 A 
ATOM     79  C   UNL A   1      45.719  24.771  36.294  1.00  0.00     0.020 A 
ATOM     80  C   UNL A   1      47.156  26.664  35.787  1.00  0.00     0.020 A 
ATOM     81  C   UNL A   1      46.894  25.498  36.509  1.00  0.00     0.054 A 
BRANCH  81  82
ATOM     82  S   UNL A   1      48.096  24.883  37.723  1.00  0.00     0.124 S 
ATOM     83  O   UNL A   1      47.453  23.659  38.193  1.00  0.00    -0.237 OA
ATOM     84  O   UNL A   1      49.299  24.689  36.917  1.00  0.00    -0.237 OA
ATOM     85  O   UNL A   1      48.179  25.961  38.705  1.00  0.00    -0.744 OA
ENDBRANCH  81  82
ENDBRANCH  55  76
ENDBRANCH  29  30
ENDBRANCH  22  24
ENDBRANCH  21  22
ENDBRANCH  20  21
ENDBRANCH  19  20
ENDBRANCH   1  19
TORSDOF 20
ENDMDL
MODEL 2
REMARK VINA RESULT:      -9.3      3.556      4.466
REMARK SMILES CCOCCCC(=O)N[C@@H]1COC[C@H]1C(=O)OCCOC(=O)c1ccc(-c2c3nc(c(-c4ccc(S(=O)(=O)[O-])cc4)c4ccc([nH]4)c(-c4ccc(S(=O)(=O)[O-])cc4)c4nc(c(-c5ccc(S(=O)(=O)[O-])cc5)c5ccc2[nH]5)C=C4)C=C3)cc1
REMARK SMILES IDX 17 1 15 2 16 3 14 4 10 5 11 6 12 7 13 8 9 9 7 10 8 11 6 13
REMARK SMILES IDX 5 14 4 15 3 16 2 17 1 18 18 19 19 20 20 21 21 22 22 23 23 24
REMARK SMILES IDX 24 25 82 26 25 27 81 28 26 29 27 30 28 31 75 32 29 33 80 34
REMARK SMILES IDX 74 35 76 36 30 37 79 38 73 39 72 40 31 42 61 43 42 44 60 45
REMARK SMILES IDX 43 46 46 47 59 48 77 49 44 50 45 51 58 53 78 54 47 55 32 56
REMARK SMILES IDX 33 57 41 58 34 59 40 60 35 61 36 62 37 63 38 64 39 65 62 66
REMARK SMILES IDX 63 67 71 68 64 69 70 70 65 71 66 72 67 73 68 74 69 75 48 76
REMARK SMILES IDX 49 77 57 78 50 79 56 80 51 81 52 82 53 83 54 84 55 85
REMARK H PARENT 9 12 76 41 46 52
REMARK Flexibility Score: inf
ROOT
ATOM      1  O   UNL A   1      33.235  28.661  25.447  1.00  0.00    -0.462 OA
ENDROOT
BRANCH   1   2
ATOM      2  C   UNL A   1      33.186  28.301  24.141  1.00  0.00     0.313 C 
ATOM      3  O   UNL A   1      33.299  29.131  23.235  1.00  0.00    -0.252 OA
BRANCH   2   4
ATOM      4  C   UNL A   1      32.923  26.842  23.751  1.00  0.00     0.149 C 
ATOM      5  C   UNL A   1      31.608  26.038  23.694  1.00  0.00     0.124 C 
ATOM      6  C   UNL A   1      31.859  25.156  22.445  1.00  0.00     0.186 C 
ATOM      7  O   UNL A   1      32.643  25.918  21.538  1.00  0.00    -0.378 OA
ATOM      8  C   UNL A   1      33.482  26.762  22.323  1.00  0.00     0.177 C 
BRANCH   5   9
ATOM      9  N   UNL A   1      31.401  25.094  24.844  1.00  0.00    -0.350 N 
ATOM     10  C   UNL A   1      32.089  24.840  25.992  1.00  0.00     0.220 C 
ATOM     11  O   UNL A   1      31.427  24.903  27.035  1.00  0.00    -0.275 OA
ATOM     12  H   UNL A   1      30.593  24.539  24.748  1.00  0.00     0.163 HD
BRANCH  10  13
ATOM     13  C   UNL A   1      33.545  24.427  26.085  1.00  0.00     0.102 C 
BRANCH  13  14
ATOM     14  C   UNL A   1      33.811  22.986  26.470  1.00  0.00     0.038 C 
BRANCH  14  15
ATOM     15  C   UNL A   1      34.773  22.319  25.529  1.00  0.00     0.160 C 
BRANCH  15  16
ATOM     16  O   UNL A   1      35.992  23.031  25.433  1.00  0.00    -0.382 OA
BRANCH  16  17
ATOM     17  C   UNL A   1      37.170  22.290  25.674  1.00  0.00     0.156 C 
ATOM     18  C   UNL A   1      37.309  21.305  24.530  1.00  0.00     0.035 C 
ENDBRANCH  16  17
ENDBRANCH  15  16
ENDBRANCH  14  15
ENDBRANCH  13  14
ENDBRANCH  10  13
ENDBRANCH   5   9
ENDBRANCH   2   4
ENDBRANCH   1   2
BRANCH   1  19
ATOM     19  C   UNL A   1      32.565  29.919  25.769  1.00  0.00     0.274 C 
BRANCH  19  20
ATOM     20  C   UNL A   1      32.885  30.475  27.174  1.00  0.00     0.275 C 
BRANCH  20  21
ATOM     21  O   UNL A   1      34.164  31.130  27.264  1.00  0.00    -0.458 OA
BRANCH  21  22
ATOM     22  C   UNL A   1      34.665  31.345  28.504  1.00  0.00     0.338 C 
ATOM     23  O   UNL A   1      34.327  32.202  29.281  1.00  0.00    -0.246 OA
BRANCH  22  24
ATOM     24  C   UNL A   1      35.881  30.502  28.643  1.00  0.00     0.060 A 
ATOM     25  C   UNL A   1      36.747  30.452  27.549  1.00  0.00     0.016 A 
ATOM     26  C   UNL A   1      36.191  29.798  29.810  1.00  0.00     0.016 A 
ATOM     27  C   UNL A   1      37.943  29.731  27.636  1.00  0.00     0.010 A 
ATOM     28  C   UNL A   1      37.434  29.144  29.921  1.00  0.00     0.010 A 
ATOM     29  C   UNL A   1      38.349  29.149  28.853  1.00  0.00    -0.014 A 
BRANCH  29  30
ATOM     30  C   UNL A   1      39.799  28.812  29.058  1.00  0.00     0.031 A 
ATOM     31  C   UNL A   1      40.430  27.508  28.640  1.00  0.00     0.074 A 
ATOM     32  C   UNL A   1      40.570  29.729  29.685  1.00  0.00     0.049 A 
ATOM     33  N   UNL A   1      41.652  27.083  28.859  1.00  0.00    -0.248 NA
ATOM     34  C   UNL A   1      39.596  26.560  27.888  1.00  0.00     0.031 C 
ATOM     35  C   UNL A   1      40.106  31.038  30.158  1.00  0.00     0.029 A 
ATOM     36  N   UNL A   1      41.903  29.720  30.022  1.00  0.00    -0.354 N 
ATOM     37  C   UNL A   1      41.732  25.809  28.304  1.00  0.00     0.074 A 
ATOM     38  C   UNL A   1      40.429  25.534  27.728  1.00  0.00     0.031 C 
ATOM     39  C   UNL A   1      41.141  31.726  30.654  1.00  0.00     0.029 A 
ATOM     40  C   UNL A   1      42.323  30.875  30.641  1.00  0.00     0.049 A 
ATOM     41  H   UNL A   1      42.501  28.958  29.837  1.00  0.00     0.167 HD
ATOM     42  C   UNL A   1      42.785  24.951  28.287  1.00  0.00     0.031 A 
ATOM     43  C   UNL A   1      43.504  31.219  31.190  1.00  0.00     0.031 A 
ATOM     44  C   UNL A   1      44.088  25.225  28.852  1.00  0.00     0.049 A 
ATOM     45  C   UNL A   1      44.631  30.234  31.198  1.00  0.00     0.074 A 
ATOM     46  C   UNL A   1      45.213  24.411  28.848  1.00  0.00     0.029 A 
ATOM     47  N   UNL A   1      44.448  26.384  29.520  1.00  0.00    -0.354 N 
ATOM     48  N   UNL A   1      44.670  29.030  30.685  1.00  0.00    -0.248 NA
ATOM     49  C   UNL A   1      45.865  30.646  31.881  1.00  0.00     0.031 C 
ATOM     50  C   UNL A   1      46.232  25.056  29.560  1.00  0.00     0.029 A 
ATOM     51  C   UNL A   1      45.763  26.296  29.959  1.00  0.00     0.049 A 
ATOM     52  H   UNL A   1      43.857  27.158  29.663  1.00  0.00     0.167 HD
ATOM     53  C   UNL A   1      45.935  28.538  30.982  1.00  0.00     0.074 A 
ATOM     54  C   UNL A   1      46.638  29.585  31.696  1.00  0.00     0.031 C 
ATOM     55  C   UNL A   1      46.459  27.323  30.689  1.00  0.00     0.031 A 
BRANCH  42  56
ATOM     56  C   UNL A   1      42.582  23.584  27.674  1.00  0.00    -0.014 A 
ATOM     57  C   UNL A   1      43.040  23.280  26.380  1.00  0.00     0.010 A 
ATOM     58  C   UNL A   1      42.022  22.555  28.457  1.00  0.00     0.010 A 
ATOM     59  C   UNL A   1      42.915  21.980  25.872  1.00  0.00     0.020 A 
ATOM     60  C   UNL A   1      41.916  21.252  27.962  1.00  0.00     0.020 A 
ATOM     61  C   UNL A   1      42.351  20.975  26.666  1.00  0.00     0.054 A 
BRANCH  61  62
ATOM     62  S   UNL A   1      42.230  19.292  25.996  1.00  0.00     0.124 S 
ATOM     63  O   UNL A   1      40.798  19.179  25.726  1.00  0.00    -0.237 OA
ATOM     64  O   UNL A   1      43.088  19.349  24.816  1.00  0.00    -0.237 OA
ATOM     65  O   UNL A   1      42.725  18.448  27.081  1.00  0.00    -0.744 OA
ENDBRANCH  61  62
ENDBRANCH  42  56
BRANCH  43  66
ATOM     66  C   UNL A   1      43.647  32.552  31.835  1.00  0.00    -0.014 A 
ATOM     67  C   UNL A   1      43.337  32.729  33.194  1.00  0.00     0.010 A 
ATOM     68  C   UNL A   1      44.149  33.642  31.097  1.00  0.00     0.010 A 
ATOM     69  C   UNL A   1      43.531  33.971  33.805  1.00  0.00     0.020 A 
ATOM     70  C   UNL A   1      44.376  34.874  31.713  1.00  0.00     0.020 A 
ATOM     71  C   UNL A   1      44.057  35.033  33.063  1.00  0.00     0.054 A 
BRANCH  71  72
ATOM     72  S   UNL A   1      44.389  36.611  33.893  1.00  0.00     0.124 S 
ATOM     73  O   UNL A   1      45.466  37.161  33.077  1.00  0.00    -0.237 OA
ATOM     74  O   UNL A   1      43.104  37.299  33.794  1.00  0.00    -0.237 OA
ATOM     75  O   UNL A   1      44.766  36.209  35.246  1.00  0.00    -0.744 OA
ENDBRANCH  71  72
ENDBRANCH  43  66
BRANCH  55  76
ATOM     76  C   UNL A   1      47.874  27.068  31.132  1.00  0.00    -0.014 A 
ATOM     77  C   UNL A   1      48.964  27.397  30.306  1.00  0.00     0.010 A 
ATOM     78  C   UNL A   1      48.119  26.492  32.392  1.00  0.00     0.010 A 
ATOM     79  C   UNL A   1      50.272  27.119  30.714  1.00  0.00     0.020 A 
ATOM     80  C   UNL A   1      49.427  26.233  32.814  1.00  0.00     0.020 A 
ATOM     81  C   UNL A   1      50.494  26.532  31.964  1.00  0.00     0.054 A 
BRANCH  81  82
ATOM     82  S   UNL A   1      52.200  26.193  32.482  1.00  0.00     0.124 S 
ATOM     83  O   UNL A   1      52.081  26.196  33.938  1.00  0.00    -0.237 OA
ATOM     84  O   UNL A   1      52.469  24.890  31.878  1.00  0.00    -0.237 OA
ATOM     85  O   UNL A   1      52.961  27.304  31.916  1.00  0.00    -0.744 OA
ENDBRANCH  81  82
ENDBRANCH  55  76
ENDBRANCH  29  30
ENDBRANCH  22  24
ENDBRANCH  21  22
ENDBRANCH  20  21
ENDBRANCH  19  20
ENDBRANCH   1  19
TORSDOF 20
ENDMDL
MODEL 3
REMARK VINA RESULT:      -9.3      1.020      2.162
REMARK SMILES CCOCCCC(=O)N[C@@H]1COC[C@H]1C(=O)OCCOC(=O)c1ccc(-c2c3nc(c(-c4ccc(S(=O)(=O)[O-])cc4)c4ccc([nH]4)c(-c4ccc(S(=O)(=O)[O-])cc4)c4nc(c(-c5ccc(S(=O)(=O)[O-])cc5)c5ccc2[nH]5)C=C4)C=C3)cc1
REMARK SMILES IDX 17 1 15 2 16 3 14 4 10 5 11 6 12 7 13 8 9 9 7 10 8 11 6 13
REMARK SMILES IDX 5 14 4 15 3 16 2 17 1 18 18 19 19 20 20 21 21 22 22 23 23 24
REMARK SMILES IDX 24 25 82 26 25 27 81 28 26 29 27 30 28 31 75 32 29 33 80 34
REMARK SMILES IDX 74 35 76 36 30 37 79 38 73 39 72 40 31 42 61 43 42 44 60 45
REMARK SMILES IDX 43 46 46 47 59 48 77 49 44 50 45 51 58 53 78 54 47 55 32 56
REMARK SMILES IDX 33 57 41 58 34 59 40 60 35 61 36 62 37 63 38 64 39 65 62 66
REMARK SMILES IDX 63 67 71 68 64 69 70 70 65 71 66 72 67 73 68 74 69 75 48 76
REMARK SMILES IDX 49 77 57 78 50 79 56 80 51 81 52 82 53 83 54 84 55 85
REMARK H PARENT 9 12 76 41 46 52
REMARK Flexibility Score: inf
ROOT
ATOM      1  O   UNL A   1      32.266  29.243  24.616  1.00  0.00    -0.462 OA
ENDROOT
BRANCH   1   2
ATOM      2  C   UNL A   1      33.139  28.304  24.173  1.00  0.00     0.313 C 
ATOM      3  O   UNL A   1      34.346  28.538  24.069  1.00  0.00    -0.252 OA
BRANCH   2   4
ATOM      4  C   UNL A   1      32.632  26.928  23.725  1.00  0.00     0.149 C 
ATOM      5  C   UNL A   1      31.222  26.464  23.306  1.00  0.00     0.124 C 
ATOM      6  C   UNL A   1      31.567  25.464  22.175  1.00  0.00     0.186 C 
ATOM      7  O   UNL A   1      32.730  25.950  21.519  1.00  0.00    -0.378 OA
ATOM      8  C   UNL A   1      33.513  26.617  22.506  1.00  0.00     0.177 C 
BRANCH   5   9
ATOM      9  N   UNL A   1      30.485  25.680  24.354  1.00  0.00    -0.350 N 
ATOM     10  C   UNL A   1      30.668  25.485  25.690  1.00  0.00     0.220 C 
ATOM     11  O   UNL A   1      29.687  25.730  26.403  1.00  0.00    -0.275 OA
ATOM     12  H   UNL A   1      29.699  25.203  23.999  1.00  0.00     0.163 HD
BRANCH  10  13
ATOM     13  C   UNL A   1      31.919  24.938  26.348  1.00  0.00     0.102 C 
BRANCH  13  14
ATOM     14  C   UNL A   1      32.069  23.430  26.358  1.00  0.00     0.038 C 
BRANCH  14  15
ATOM     15  C   UNL A   1      31.384  22.788  25.186  1.00  0.00     0.160 C 
BRANCH  15  16
ATOM     16  O   UNL A   1      32.059  21.620  24.759  1.00  0.00    -0.382 OA
BRANCH  16  17
ATOM     17  C   UNL A   1      33.460  21.722  24.620  1.00  0.00     0.156 C 
ATOM     18  C   UNL A   1      34.021  20.327  24.808  1.00  0.00     0.035 C 
ENDBRANCH  16  17
ENDBRANCH  15  16
ENDBRANCH  14  15
ENDBRANCH  13  14
ENDBRANCH  10  13
ENDBRANCH   5   9
ENDBRANCH   2   4
ENDBRANCH   1   2
BRANCH   1  19
ATOM     19  C   UNL A   1      31.732  29.008  25.955  1.00  0.00     0.274 C 
BRANCH  19  20
ATOM     20  C   UNL A   1      32.308  29.937  27.046  1.00  0.00     0.275 C 
BRANCH  20  21
ATOM     21  O   UNL A   1      33.479  30.664  26.634  1.00  0.00    -0.458 OA
BRANCH  21  22
ATOM     22  C   UNL A   1      34.062  31.474  27.550  1.00  0.00     0.338 C 
ATOM     23  O   UNL A   1      33.670  32.556  27.909  1.00  0.00    -0.246 OA
BRANCH  22  24
ATOM     24  C   UNL A   1      35.405  30.912  27.850  1.00  0.00     0.060 A 
ATOM     25  C   UNL A   1      36.393  31.811  28.255  1.00  0.00     0.016 A 
ATOM     26  C   UNL A   1      35.695  29.548  27.766  1.00  0.00     0.016 A 
ATOM     27  C   UNL A   1      37.660  31.342  28.616  1.00  0.00     0.010 A 
ATOM     28  C   UNL A   1      36.945  29.072  28.211  1.00  0.00     0.010 A 
ATOM     29  C   UNL A   1      37.924  29.960  28.694  1.00  0.00    -0.014 A 
BRANCH  29  30
ATOM     30  C   UNL A   1      39.084  29.479  29.518  1.00  0.00     0.031 A 
ATOM     31  C   UNL A   1      40.159  28.554  29.004  1.00  0.00     0.074 A 
ATOM     32  C   UNL A   1      39.142  29.880  30.808  1.00  0.00     0.049 A 
ATOM     33  N   UNL A   1      41.150  28.004  29.665  1.00  0.00    -0.248 NA
ATOM     34  C   UNL A   1      40.123  28.196  27.579  1.00  0.00     0.031 C 
ATOM     35  C   UNL A   1      38.173  30.769  31.458  1.00  0.00     0.029 A 
ATOM     36  N   UNL A   1      40.052  29.614  31.803  1.00  0.00    -0.354 N 
ATOM     37  C   UNL A   1      41.840  27.211  28.754  1.00  0.00     0.074 A 
ATOM     38  C   UNL A   1      41.155  27.360  27.484  1.00  0.00     0.031 C 
ATOM     39  C   UNL A   1      38.575  31.029  32.707  1.00  0.00     0.029 A 
ATOM     40  C   UNL A   1      39.767  30.242  32.994  1.00  0.00     0.049 A 
ATOM     41  H   UNL A   1      40.835  29.029  31.676  1.00  0.00     0.167 HD
ATOM     42  C   UNL A   1      42.932  26.428  28.959  1.00  0.00     0.031 A 
ATOM     43  C   UNL A   1      40.350  30.174  34.207  1.00  0.00     0.031 A 
ATOM     44  C   UNL A   1      43.625  26.284  30.220  1.00  0.00     0.049 A 
ATOM     45  C   UNL A   1      41.521  29.266  34.413  1.00  0.00     0.074 A 
ATOM     46  C   UNL A   1      44.756  25.529  30.497  1.00  0.00     0.029 A 
ATOM     47  N   UNL A   1      43.263  26.894  31.411  1.00  0.00    -0.354 N 
ATOM     48  N   UNL A   1      42.138  28.512  33.538  1.00  0.00    -0.248 NA
ATOM     49  C   UNL A   1      42.060  29.182  35.778  1.00  0.00     0.031 C 
ATOM     50  C   UNL A   1      45.043  25.639  31.862  1.00  0.00     0.029 A 
ATOM     51  C   UNL A   1      44.126  26.510  32.428  1.00  0.00     0.049 A 
ATOM     52  H   UNL A   1      42.504  27.512  31.519  1.00  0.00     0.167 HD
ATOM     53  C   UNL A   1      43.142  27.863  34.246  1.00  0.00     0.074 A 
ATOM     54  C   UNL A   1      43.065  28.332  35.614  1.00  0.00     0.031 C 
ATOM     55  C   UNL A   1      44.040  26.954  33.795  1.00  0.00     0.031 A 
BRANCH  42  56
ATOM     56  C   UNL A   1      43.447  25.604  27.801  1.00  0.00    -0.014 A 
ATOM     57  C   UNL A   1      44.415  26.103  26.912  1.00  0.00     0.010 A 
ATOM     58  C   UNL A   1      43.033  24.263  27.674  1.00  0.00     0.010 A 
ATOM     59  C   UNL A   1      44.937  25.285  25.902  1.00  0.00     0.020 A 
ATOM     60  C   UNL A   1      43.568  23.437  26.680  1.00  0.00     0.020 A 
ATOM     61  C   UNL A   1      44.508  23.958  25.791  1.00  0.00     0.054 A 
BRANCH  61  62
ATOM     62  S   UNL A   1      45.223  22.910  24.492  1.00  0.00     0.124 S 
ATOM     63  O   UNL A   1      45.742  21.784  25.267  1.00  0.00    -0.237 OA
ATOM     64  O   UNL A   1      44.070  22.611  23.646  1.00  0.00    -0.237 OA
ATOM     65  O   UNL A   1      46.238  23.761  23.877  1.00  0.00    -0.744 OA
ENDBRANCH  61  62
ENDBRANCH  42  56
BRANCH  43  66
ATOM     66  C   UNL A   1      39.778  30.957  35.335  1.00  0.00    -0.014 A 
ATOM     67  C   UNL A   1      38.564  30.575  35.931  1.00  0.00     0.010 A 
ATOM     68  C   UNL A   1      40.480  32.062  35.853  1.00  0.00     0.010 A 
ATOM     69  C   UNL A   1      38.065  31.282  37.029  1.00  0.00     0.020 A 
ATOM     70  C   UNL A   1      40.002  32.748  36.970  1.00  0.00     0.020 A 
ATOM     71  C   UNL A   1      38.792  32.359  37.547  1.00  0.00     0.054 A 
BRANCH  71  72
ATOM     72  S   UNL A   1      38.177  33.207  39.027  1.00  0.00     0.124 S 
ATOM     73  O   UNL A   1      38.900  32.519  40.092  1.00  0.00    -0.237 OA
ATOM     74  O   UNL A   1      38.572  34.593  38.787  1.00  0.00    -0.237 OA
ATOM     75  O   UNL A   1      36.738  32.963  38.985  1.00  0.00    -0.744 OA
ENDBRANCH  71  72
ENDBRANCH  43  66
BRANCH  55  76
ATOM     76  C   UNL A   1      45.028  26.419  34.797  1.00  0.00    -0.014 A 
ATOM     77  C   UNL A   1      46.225  27.105  35.074  1.00  0.00     0.010 A 
ATOM     78  C   UNL A   1      44.755  25.216  35.472  1.00  0.00     0.010 A 
ATOM     79  C   UNL A   1      47.150  26.575  35.978  1.00  0.00     0.020 A 
ATOM     80  C   UNL A   1      45.668  24.695  36.394  1.00  0.00     0.020 A 
ATOM     81  C   UNL A   1      46.868  25.370  36.628  1.00  0.00     0.054 A 
BRANCH  81  82
ATOM     82  S   UNL A   1      48.076  24.708  37.811  1.00  0.00     0.124 S 
ATOM     83  O   UNL A   1      48.038  23.278  37.515  1.00  0.00    -0.237 OA
ATOM     84  O   UNL A   1      49.308  25.395  37.432  1.00  0.00    -0.237 OA
ATOM     85  O   UNL A   1      47.532  25.091  39.112  1.00  0.00    -0.744 OA
ENDBRANCH  81  82
ENDBRANCH  55  76
ENDBRANCH  29  30
ENDBRANCH  22  24
ENDBRANCH  21  22
ENDBRANCH  20  21
ENDBRANCH  19  20
ENDBRANCH   1  19
TORSDOF 20
ENDMDL
