MODEL 1
REMARK VINA RESULT:     -11.1      0.000      0.000
REMARK SMILES O=C(Cc1ccc(O)cc1)N[C@H]1C=C[C@H](C(=O)OCCOC(=O)c2ccc(-c3c4nc(c(-c5ccc(S(=O)(=O)[O-])cc5)c5ccc([nH]5)c(-c5ccc(S(=O)(=O)[O-])cc5)c5nc(c(-c6ccc(S(=O)(=O)[O-])cc6)c6ccc3[nH]6)C=C5)C=C4)cc2)C1
REMARK SMILES IDX 19 1 18 2 16 3 17 4 15 5 12 6 13 7 84 8 14 9 11 10 1 11 2 12
REMARK SMILES IDX 3 14 4 15 5 16 10 17 6 18 9 19 7 20 8 21 20 23 21 24 22 25
REMARK SMILES IDX 23 26 24 27 25 28 83 29 26 30 82 31 27 32 28 33 29 34 76 35
REMARK SMILES IDX 30 36 81 37 75 38 77 39 31 40 80 41 74 42 73 43 32 45 62 46
REMARK SMILES IDX 43 47 61 48 44 49 47 50 60 51 78 52 45 53 46 54 59 56 79 57
REMARK SMILES IDX 48 58 33 59 34 60 42 61 35 62 41 63 36 64 37 65 38 66 39 67
REMARK SMILES IDX 40 68 63 69 64 70 72 71 65 72 71 73 66 74 67 75 68 76 69 77
REMARK SMILES IDX 70 78 49 79 50 80 58 81 51 82 57 83 52 84 53 85 54 86 55 87
REMARK SMILES IDX 56 88
REMARK H PARENT 11 13 8 22 77 44 47 55
REMARK Flexibility Score: inf
ROOT
ATOM      1  C   UNL A   1      33.423  31.295  27.626  1.00  0.00     0.274 C 
ENDROOT
BRANCH   1   2
ATOM      2  O   UNL A   1      33.033  29.958  27.239  1.00  0.00    -0.462 OA
BRANCH   2   3
ATOM      3  C   UNL A   1      32.493  29.845  25.993  1.00  0.00     0.312 C 
ATOM      4  O   UNL A   1      31.454  30.386  25.638  1.00  0.00    -0.252 OA
BRANCH   3   5
ATOM      5  C   UNL A   1      33.354  28.953  25.092  1.00  0.00     0.124 C 
ATOM      6  C   UNL A   1      32.186  26.830  25.113  1.00  0.00     0.106 C 
ATOM      7  C   UNL A   1      33.437  26.759  25.934  1.00  0.00    -0.006 C 
ATOM      8  C   UNL A   1      32.504  28.029  24.208  1.00  0.00     0.048 C 
ATOM      9  C   UNL A   1      34.084  27.934  25.929  1.00  0.00    -0.014 C 
BRANCH   6  10
ATOM     10  N   UNL A   1      32.001  25.589  24.409  1.00  0.00    -0.350 N 
ATOM     11  O   UNL A   1      30.633  24.695  26.020  1.00  0.00    -0.275 OA
ATOM     12  C   UNL A   1      31.246  24.568  24.963  1.00  0.00     0.224 C 
ATOM     13  H   UNL A   1      32.415  25.464  23.524  1.00  0.00     0.164 HD
BRANCH  12  14
ATOM     14  C   UNL A   1      31.244  23.276  24.169  1.00  0.00     0.135 C 
BRANCH  14  15
ATOM     15  C   UNL A   1      32.374  22.334  24.508  1.00  0.00    -0.038 A 
ATOM     16  C   UNL A   1      33.701  22.692  24.210  1.00  0.00     0.008 A 
ATOM     17  C   UNL A   1      32.125  21.064  25.051  1.00  0.00     0.008 A 
ATOM     18  C   UNL A   1      34.754  21.807  24.457  1.00  0.00     0.046 A 
ATOM     19  C   UNL A   1      33.176  20.178  25.285  1.00  0.00     0.046 A 
ATOM     20  C   UNL A   1      34.479  20.555  24.991  1.00  0.00     0.115 A 
BRANCH  20  21
ATOM     21  O   UNL A   1      35.469  19.646  25.219  1.00  0.00    -0.508 OA
ATOM     22  H   UNL A   1      36.011  19.357  24.512  1.00  0.00     0.293 HD
ENDBRANCH  20  21
ENDBRANCH  14  15
ENDBRANCH  12  14
ENDBRANCH   6  10
ENDBRANCH   3   5
ENDBRANCH   2   3
ENDBRANCH   1   2
BRANCH   1  23
ATOM     23  C   UNL A   1      34.928  31.389  27.852  1.00  0.00     0.275 C 
BRANCH  23  24
ATOM     24  O   UNL A   1      35.405  30.153  28.405  1.00  0.00    -0.458 OA
BRANCH  24  25
ATOM     25  C   UNL A   1      36.214  30.261  29.483  1.00  0.00     0.338 C 
ATOM     26  O   UNL A   1      35.940  30.737  30.571  1.00  0.00    -0.246 OA
BRANCH  25  27
ATOM     27  C   UNL A   1      37.528  29.677  29.169  1.00  0.00     0.060 A 
ATOM     28  C   UNL A   1      38.317  29.170  30.199  1.00  0.00     0.016 A 
ATOM     29  C   UNL A   1      38.030  29.744  27.870  1.00  0.00     0.016 A 
ATOM     30  C   UNL A   1      39.647  28.836  29.960  1.00  0.00     0.010 A 
ATOM     31  C   UNL A   1      39.329  29.296  27.611  1.00  0.00     0.010 A 
ATOM     32  C   UNL A   1      40.169  28.876  28.659  1.00  0.00    -0.014 A 
BRANCH  32  33
ATOM     33  C   UNL A   1      41.590  28.506  28.400  1.00  0.00     0.031 A 
ATOM     34  C   UNL A   1      42.675  29.549  28.488  1.00  0.00     0.074 A 
ATOM     35  C   UNL A   1      41.922  27.235  28.094  1.00  0.00     0.049 A 
ATOM     36  N   UNL A   1      43.928  29.474  28.115  1.00  0.00    -0.248 NA
ATOM     37  C   UNL A   1      42.297  30.854  29.055  1.00  0.00     0.031 C 
ATOM     38  C   UNL A   1      40.995  26.104  28.022  1.00  0.00     0.029 A 
ATOM     39  N   UNL A   1      43.142  26.679  27.794  1.00  0.00    -0.354 N 
ATOM     40  C   UNL A   1      44.474  30.729  28.361  1.00  0.00     0.074 A 
ATOM     41  C   UNL A   1      43.413  31.553  28.900  1.00  0.00     0.031 C 
ATOM     42  C   UNL A   1      41.682  24.986  27.746  1.00  0.00     0.029 A 
ATOM     43  C   UNL A   1      43.082  25.331  27.532  1.00  0.00     0.049 A 
ATOM     44  H   UNL A   1      43.979  27.196  27.769  1.00  0.00     0.167 HD
ATOM     45  C   UNL A   1      45.742  31.158  28.157  1.00  0.00     0.031 A 
ATOM     46  C   UNL A   1      44.031  24.468  27.123  1.00  0.00     0.031 A 
ATOM     47  C   UNL A   1      46.813  30.323  27.682  1.00  0.00     0.049 A 
ATOM     48  C   UNL A   1      45.419  24.974  26.861  1.00  0.00     0.074 A 
ATOM     49  C   UNL A   1      48.136  30.663  27.462  1.00  0.00     0.029 A 
ATOM     50  N   UNL A   1      46.686  28.980  27.368  1.00  0.00    -0.354 N 
ATOM     51  N   UNL A   1      45.903  26.179  27.037  1.00  0.00    -0.248 NA
ATOM     52  C   UNL A   1      46.383  24.006  26.319  1.00  0.00     0.031 C 
ATOM     53  C   UNL A   1      48.807  29.528  26.994  1.00  0.00     0.029 A 
ATOM     54  C   UNL A   1      47.908  28.475  26.959  1.00  0.00     0.049 A 
ATOM     55  H   UNL A   1      45.850  28.461  27.427  1.00  0.00     0.167 HD
ATOM     56  C   UNL A   1      47.224  26.119  26.615  1.00  0.00     0.074 A 
ATOM     57  C   UNL A   1      47.475  24.750  26.210  1.00  0.00     0.031 C 
ATOM     58  C   UNL A   1      48.143  27.113  26.557  1.00  0.00     0.031 A 
BRANCH  45  59
ATOM     59  C   UNL A   1      46.034  32.610  28.416  1.00  0.00    -0.014 A 
ATOM     60  C   UNL A   1      46.492  33.054  29.669  1.00  0.00     0.010 A 
ATOM     61  C   UNL A   1      45.876  33.542  27.373  1.00  0.00     0.010 A 
ATOM     62  C   UNL A   1      46.752  34.412  29.883  1.00  0.00     0.020 A 
ATOM     63  C   UNL A   1      46.154  34.896  27.578  1.00  0.00     0.020 A 
ATOM     64  C   UNL A   1      46.572  35.325  28.839  1.00  0.00     0.054 A 
BRANCH  64  65
ATOM     65  S   UNL A   1      46.926  37.080  29.134  1.00  0.00     0.124 S 
ATOM     66  O   UNL A   1      46.354  37.282  30.463  1.00  0.00    -0.237 OA
ATOM     67  O   UNL A   1      48.383  37.136  29.065  1.00  0.00    -0.237 OA
ATOM     68  O   UNL A   1      46.227  37.762  28.046  1.00  0.00    -0.744 OA
ENDBRANCH  64  65
ENDBRANCH  45  59
BRANCH  46  69
ATOM     69  C   UNL A   1      43.674  23.046  26.868  1.00  0.00    -0.014 A 
ATOM     70  C   UNL A   1      42.857  22.340  27.768  1.00  0.00     0.010 A 
ATOM     71  C   UNL A   1      44.132  22.399  25.705  1.00  0.00     0.010 A 
ATOM     72  C   UNL A   1      42.510  21.010  27.511  1.00  0.00     0.020 A 
ATOM     73  C   UNL A   1      43.767  21.079  25.433  1.00  0.00     0.020 A 
ATOM     74  C   UNL A   1      42.966  20.388  26.344  1.00  0.00     0.054 A 
BRANCH  74  75
ATOM     75  S   UNL A   1      42.457  18.682  25.994  1.00  0.00     0.124 S 
ATOM     76  O   UNL A   1      43.293  18.346  24.847  1.00  0.00    -0.237 OA
ATOM     77  O   UNL A   1      42.780  17.986  27.238  1.00  0.00    -0.237 OA
ATOM     78  O   UNL A   1      41.028  18.806  25.715  1.00  0.00    -0.744 OA
ENDBRANCH  74  75
ENDBRANCH  46  69
BRANCH  58  79
ATOM     79  C   UNL A   1      49.512  26.750  26.058  1.00  0.00    -0.014 A 
ATOM     80  C   UNL A   1      50.445  26.126  26.906  1.00  0.00     0.010 A 
ATOM     81  C   UNL A   1      49.856  26.999  24.718  1.00  0.00     0.010 A 
ATOM     82  C   UNL A   1      51.711  25.779  26.425  1.00  0.00     0.020 A 
ATOM     83  C   UNL A   1      51.113  26.637  24.230  1.00  0.00     0.020 A 
ATOM     84  C   UNL A   1      52.037  26.041  25.091  1.00  0.00     0.054 A 
BRANCH  84  85
ATOM     85  S   UNL A   1      53.671  25.547  24.474  1.00  0.00     0.124 S 
ATOM     86  O   UNL A   1      53.575  25.890  23.058  1.00  0.00    -0.237 OA
ATOM     87  O   UNL A   1      54.579  26.378  25.262  1.00  0.00    -0.237 OA
ATOM     88  O   UNL A   1      53.732  24.118  24.767  1.00  0.00    -0.744 OA
ENDBRANCH  84  85
ENDBRANCH  58  79
ENDBRANCH  32  33
ENDBRANCH  25  27
ENDBRANCH  24  25
ENDBRANCH  23  24
ENDBRANCH   1  23
TORSDOF 18
ENDMDL
MODEL 2
REMARK VINA RESULT:     -11.1      6.643     12.378
REMARK SMILES O=C(Cc1ccc(O)cc1)N[C@H]1C=C[C@H](C(=O)OCCOC(=O)c2ccc(-c3c4nc(c(-c5ccc(S(=O)(=O)[O-])cc5)c5ccc([nH]5)c(-c5ccc(S(=O)(=O)[O-])cc5)c5nc(c(-c6ccc(S(=O)(=O)[O-])cc6)c6ccc3[nH]6)C=C5)C=C4)cc2)C1
REMARK SMILES IDX 19 1 18 2 16 3 17 4 15 5 12 6 13 7 84 8 14 9 11 10 1 11 2 12
REMARK SMILES IDX 3 14 4 15 5 16 10 17 6 18 9 19 7 20 8 21 20 23 21 24 22 25
REMARK SMILES IDX 23 26 24 27 25 28 83 29 26 30 82 31 27 32 28 33 29 34 76 35
REMARK SMILES IDX 30 36 81 37 75 38 77 39 31 40 80 41 74 42 73 43 32 45 62 46
REMARK SMILES IDX 43 47 61 48 44 49 47 50 60 51 78 52 45 53 46 54 59 56 79 57
REMARK SMILES IDX 48 58 33 59 34 60 42 61 35 62 41 63 36 64 37 65 38 66 39 67
REMARK SMILES IDX 40 68 63 69 64 70 72 71 65 72 71 73 66 74 67 75 68 76 69 77
REMARK SMILES IDX 70 78 49 79 50 80 58 81 51 82 57 83 52 84 53 85 54 86 55 87
REMARK SMILES IDX 56 88
REMARK H PARENT 11 13 8 22 77 44 47 55
REMARK Flexibility Score: inf
ROOT
ATOM      1  C   UNL A   1      38.269  21.854  25.634  1.00  0.00     0.274 C 
ENDROOT
BRANCH   1   2
ATOM      2  O   UNL A   1      37.154  22.734  25.900  1.00  0.00    -0.462 OA
BRANCH   2   3
ATOM      3  C   UNL A   1      35.919  22.177  25.745  1.00  0.00     0.312 C 
ATOM      4  O   UNL A   1      35.241  21.734  26.663  1.00  0.00    -0.252 OA
BRANCH   3   5
ATOM      5  C   UNL A   1      35.489  22.176  24.274  1.00  0.00     0.124 C 
ATOM      6  C   UNL A   1      34.077  24.137  24.096  1.00  0.00     0.106 C 
ATOM      7  C   UNL A   1      33.257  22.884  24.063  1.00  0.00    -0.006 C 
ATOM      8  C   UNL A   1      35.453  23.592  23.681  1.00  0.00     0.048 C 
ATOM      9  C   UNL A   1      34.035  21.797  24.167  1.00  0.00    -0.014 C 
BRANCH   6  10
ATOM     10  N   UNL A   1      33.522  25.101  23.182  1.00  0.00    -0.350 N 
ATOM     11  O   UNL A   1      33.316  26.734  24.781  1.00  0.00    -0.275 OA
ATOM     12  C   UNL A   1      33.132  26.353  23.628  1.00  0.00     0.224 C 
ATOM     13  H   UNL A   1      33.419  24.867  22.231  1.00  0.00     0.164 HD
BRANCH  12  14
ATOM     14  C   UNL A   1      32.448  27.215  22.584  1.00  0.00     0.135 C 
BRANCH  14  15
ATOM     15  C   UNL A   1      30.989  27.488  22.860  1.00  0.00    -0.038 A 
ATOM     16  C   UNL A   1      30.194  26.506  23.477  1.00  0.00     0.008 A 
ATOM     17  C   UNL A   1      30.382  28.683  22.444  1.00  0.00     0.008 A 
ATOM     18  C   UNL A   1      28.827  26.716  23.683  1.00  0.00     0.046 A 
ATOM     19  C   UNL A   1      29.016  28.885  22.639  1.00  0.00     0.046 A 
ATOM     20  C   UNL A   1      28.250  27.906  23.257  1.00  0.00     0.115 A 
BRANCH  20  21
ATOM     21  O   UNL A   1      26.918  28.143  23.406  1.00  0.00    -0.508 OA
ATOM     22  H   UNL A   1      26.595  29.022  23.402  1.00  0.00     0.293 HD
ENDBRANCH  20  21
ENDBRANCH  14  15
ENDBRANCH  12  14
ENDBRANCH   6  10
ENDBRANCH   3   5
ENDBRANCH   2   3
ENDBRANCH   1   2
BRANCH   1  23
ATOM     23  C   UNL A   1      39.496  22.256  26.445  1.00  0.00     0.275 C 
BRANCH  23  24
ATOM     24  O   UNL A   1      39.368  23.624  26.859  1.00  0.00    -0.458 OA
BRANCH  24  25
ATOM     25  C   UNL A   1      40.503  24.357  26.838  1.00  0.00     0.338 C 
ATOM     26  O   UNL A   1      41.512  24.143  26.188  1.00  0.00    -0.246 OA
BRANCH  25  27
ATOM     27  C   UNL A   1      40.350  25.522  27.724  1.00  0.00     0.060 A 
ATOM     28  C   UNL A   1      41.301  26.540  27.689  1.00  0.00     0.016 A 
ATOM     29  C   UNL A   1      39.332  25.547  28.675  1.00  0.00     0.016 A 
ATOM     30  C   UNL A   1      41.308  27.522  28.675  1.00  0.00     0.010 A 
ATOM     31  C   UNL A   1      39.273  26.602  29.592  1.00  0.00     0.010 A 
ATOM     32  C   UNL A   1      40.284  27.581  29.631  1.00  0.00    -0.014 A 
BRANCH  32  33
ATOM     33  C   UNL A   1      40.283  28.641  30.679  1.00  0.00     0.031 A 
ATOM     34  C   UNL A   1      41.263  28.579  31.823  1.00  0.00     0.074 A 
ATOM     35  C   UNL A   1      39.415  29.670  30.611  1.00  0.00     0.049 A 
ATOM     36  N   UNL A   1      41.296  29.287  32.924  1.00  0.00    -0.248 NA
ATOM     37  C   UNL A   1      42.337  27.577  31.724  1.00  0.00     0.031 C 
ATOM     38  C   UNL A   1      38.443  29.898  29.540  1.00  0.00     0.029 A 
ATOM     39  N   UNL A   1      39.218  30.730  31.464  1.00  0.00    -0.354 N 
ATOM     40  C   UNL A   1      42.362  28.788  33.665  1.00  0.00     0.074 A 
ATOM     41  C   UNL A   1      42.942  27.708  32.896  1.00  0.00     0.031 C 
ATOM     42  C   UNL A   1      37.787  31.045  29.774  1.00  0.00     0.029 A 
ATOM     43  C   UNL A   1      38.226  31.588  31.053  1.00  0.00     0.049 A 
ATOM     44  H   UNL A   1      39.737  30.861  32.290  1.00  0.00     0.167 HD
ATOM     45  C   UNL A   1      42.818  29.194  34.874  1.00  0.00     0.031 A 
ATOM     46  C   UNL A   1      37.691  32.669  31.651  1.00  0.00     0.031 A 
ATOM     47  C   UNL A   1      42.284  30.308  35.610  1.00  0.00     0.049 A 
ATOM     48  C   UNL A   1      38.182  33.074  33.010  1.00  0.00     0.074 A 
ATOM     49  C   UNL A   1      42.693  30.807  36.834  1.00  0.00     0.029 A 
ATOM     50  N   UNL A   1      41.236  31.106  35.181  1.00  0.00    -0.354 N 
ATOM     51  N   UNL A   1      39.148  32.552  33.726  1.00  0.00    -0.248 NA
ATOM     52  C   UNL A   1      37.489  34.199  33.655  1.00  0.00     0.031 C 
ATOM     53  C   UNL A   1      41.877  31.896  37.157  1.00  0.00     0.029 A 
ATOM     54  C   UNL A   1      40.985  32.095  36.116  1.00  0.00     0.049 A 
ATOM     55  H   UNL A   1      40.742  30.987  34.337  1.00  0.00     0.167 HD
ATOM     56  C   UNL A   1      39.172  33.276  34.911  1.00  0.00     0.074 A 
ATOM     57  C   UNL A   1      38.149  34.296  34.801  1.00  0.00     0.031 C 
ATOM     58  C   UNL A   1      39.963  33.102  35.996  1.00  0.00     0.031 A 
BRANCH  45  59
ATOM     59  C   UNL A   1      43.935  28.401  35.496  1.00  0.00    -0.014 A 
ATOM     60  C   UNL A   1      45.282  28.744  35.286  1.00  0.00     0.010 A 
ATOM     61  C   UNL A   1      43.625  27.312  36.332  1.00  0.00     0.010 A 
ATOM     62  C   UNL A   1      46.301  27.986  35.874  1.00  0.00     0.020 A 
ATOM     63  C   UNL A   1      44.640  26.565  36.935  1.00  0.00     0.020 A 
ATOM     64  C   UNL A   1      45.973  26.895  36.687  1.00  0.00     0.054 A 
BRANCH  64  65
ATOM     65  S   UNL A   1      47.309  25.933  37.449  1.00  0.00     0.124 S 
ATOM     66  O   UNL A   1      46.564  24.976  38.263  1.00  0.00    -0.237 OA
ATOM     67  O   UNL A   1      48.003  25.368  36.296  1.00  0.00    -0.237 OA
ATOM     68  O   UNL A   1      48.068  26.931  38.201  1.00  0.00    -0.744 OA
ENDBRANCH  64  65
ENDBRANCH  45  59
BRANCH  46  69
ATOM     69  C   UNL A   1      36.576  33.401  30.991  1.00  0.00    -0.014 A 
ATOM     70  C   UNL A   1      36.788  34.091  29.786  1.00  0.00     0.010 A 
ATOM     71  C   UNL A   1      35.288  33.388  31.557  1.00  0.00     0.010 A 
ATOM     72  C   UNL A   1      35.730  34.761  29.161  1.00  0.00     0.020 A 
ATOM     73  C   UNL A   1      34.224  34.034  30.924  1.00  0.00     0.020 A 
ATOM     74  C   UNL A   1      34.455  34.727  29.734  1.00  0.00     0.054 A 
BRANCH  74  75
ATOM     75  S   UNL A   1      33.079  35.547  28.880  1.00  0.00     0.124 S 
ATOM     76  O   UNL A   1      33.777  36.525  28.053  1.00  0.00    -0.237 OA
ATOM     77  O   UNL A   1      32.444  34.447  28.159  1.00  0.00    -0.237 OA
ATOM     78  O   UNL A   1      32.285  36.102  29.974  1.00  0.00    -0.744 OA
ENDBRANCH  74  75
ENDBRANCH  46  69
BRANCH  58  79
ATOM     79  C   UNL A   1      39.768  34.051  37.144  1.00  0.00    -0.014 A 
ATOM     80  C   UNL A   1      38.895  33.734  38.199  1.00  0.00     0.010 A 
ATOM     81  C   UNL A   1      40.496  35.252  37.187  1.00  0.00     0.010 A 
ATOM     82  C   UNL A   1      38.735  34.618  39.270  1.00  0.00     0.020 A 
ATOM     83  C   UNL A   1      40.352  36.129  38.265  1.00  0.00     0.020 A 
ATOM     84  C   UNL A   1      39.462  35.812  39.293  1.00  0.00     0.054 A 
BRANCH  84  85
ATOM     85  S   UNL A   1      39.271  36.929  40.710  1.00  0.00     0.124 S 
ATOM     86  O   UNL A   1      38.343  37.927  40.185  1.00  0.00    -0.237 OA
ATOM     87  O   UNL A   1      38.732  36.051  41.745  1.00  0.00    -0.237 OA
ATOM     88  O   UNL A   1      40.629  37.409  40.954  1.00  0.00    -0.744 OA
ENDBRANCH  84  85
ENDBRANCH  58  79
ENDBRANCH  32  33
ENDBRANCH  25  27
ENDBRANCH  24  25
ENDBRANCH  23  24
ENDBRANCH   1  23
TORSDOF 18
ENDMDL
MODEL 3
REMARK VINA RESULT:     -11.0      2.409      3.308
REMARK SMILES O=C(Cc1ccc(O)cc1)N[C@H]1C=C[C@H](C(=O)OCCOC(=O)c2ccc(-c3c4nc(c(-c5ccc(S(=O)(=O)[O-])cc5)c5ccc([nH]5)c(-c5ccc(S(=O)(=O)[O-])cc5)c5nc(c(-c6ccc(S(=O)(=O)[O-])cc6)c6ccc3[nH]6)C=C5)C=C4)cc2)C1
REMARK SMILES IDX 19 1 18 2 16 3 17 4 15 5 12 6 13 7 84 8 14 9 11 10 1 11 2 12
REMARK SMILES IDX 3 14 4 15 5 16 10 17 6 18 9 19 7 20 8 21 20 23 21 24 22 25
REMARK SMILES IDX 23 26 24 27 25 28 83 29 26 30 82 31 27 32 28 33 29 34 76 35
REMARK SMILES IDX 30 36 81 37 75 38 77 39 31 40 80 41 74 42 73 43 32 45 62 46
REMARK SMILES IDX 43 47 61 48 44 49 47 50 60 51 78 52 45 53 46 54 59 56 79 57
REMARK SMILES IDX 48 58 33 59 34 60 42 61 35 62 41 63 36 64 37 65 38 66 39 67
REMARK SMILES IDX 40 68 63 69 64 70 72 71 65 72 71 73 66 74 67 75 68 76 69 77
REMARK SMILES IDX 70 78 49 79 50 80 58 81 51 82 57 83 52 84 53 85 54 86 55 87
REMARK SMILES IDX 56 88
REMARK H PARENT 11 13 8 22 77 44 47 55
REMARK Flexibility Score: inf
ROOT
ATOM      1  C   UNL A   1      32.809  29.832  25.616  1.00  0.00     0.274 C 
ENDROOT
BRANCH   1   2
ATOM      2  O   UNL A   1      31.481  29.270  25.706  1.00  0.00    -0.462 OA
BRANCH   2   3
ATOM      3  C   UNL A   1      31.008  28.701  24.561  1.00  0.00     0.312 C 
ATOM      4  O   UNL A   1      30.952  29.270  23.478  1.00  0.00    -0.252 OA
BRANCH   3   5
ATOM      5  C   UNL A   1      30.557  27.256  24.802  1.00  0.00     0.124 C 
ATOM      6  C   UNL A   1      32.466  25.940  24.098  1.00  0.00     0.106 C 
ATOM      7  C   UNL A   1      31.353  25.844  23.099  1.00  0.00    -0.006 C 
ATOM      8  C   UNL A   1      31.691  26.379  25.350  1.00  0.00     0.048 C 
ATOM      9  C   UNL A   1      30.297  26.575  23.483  1.00  0.00    -0.014 C 
BRANCH   6  10
ATOM     10  N   UNL A   1      33.116  24.662  24.221  1.00  0.00    -0.350 N 
ATOM     11  O   UNL A   1      34.479  25.003  22.407  1.00  0.00    -0.275 OA
ATOM     12  C   UNL A   1      34.074  24.267  23.303  1.00  0.00     0.224 C 
ATOM     13  H   UNL A   1      32.876  24.064  24.965  1.00  0.00     0.164 HD
BRANCH  12  14
ATOM     14  C   UNL A   1      34.579  22.848  23.482  1.00  0.00     0.135 C 
BRANCH  14  15
ATOM     15  C   UNL A   1      35.773  22.722  24.397  1.00  0.00    -0.038 A 
ATOM     16  C   UNL A   1      36.172  23.814  25.188  1.00  0.00     0.008 A 
ATOM     17  C   UNL A   1      36.548  21.552  24.424  1.00  0.00     0.008 A 
ATOM     18  C   UNL A   1      37.313  23.736  25.993  1.00  0.00     0.046 A 
ATOM     19  C   UNL A   1      37.693  21.481  25.218  1.00  0.00     0.046 A 
ATOM     20  C   UNL A   1      38.065  22.569  25.996  1.00  0.00     0.115 A 
BRANCH  20  21
ATOM     21  O   UNL A   1      39.201  22.457  26.739  1.00  0.00    -0.508 OA
ATOM     22  H   UNL A   1      39.442  21.629  27.104  1.00  0.00     0.293 HD
ENDBRANCH  20  21
ENDBRANCH  14  15
ENDBRANCH  12  14
ENDBRANCH   6  10
ENDBRANCH   3   5
ENDBRANCH   2   3
ENDBRANCH   1   2
BRANCH   1  23
ATOM     23  C   UNL A   1      33.784  29.098  26.530  1.00  0.00     0.275 C 
BRANCH  23  24
ATOM     24  O   UNL A   1      33.673  29.618  27.863  1.00  0.00    -0.458 OA
BRANCH  24  25
ATOM     25  C   UNL A   1      34.534  30.609  28.184  1.00  0.00     0.338 C 
ATOM     26  O   UNL A   1      34.274  31.786  28.370  1.00  0.00    -0.246 OA
BRANCH  25  27
ATOM     27  C   UNL A   1      35.891  30.056  28.313  1.00  0.00     0.060 A 
ATOM     28  C   UNL A   1      36.301  29.521  29.532  1.00  0.00     0.016 A 
ATOM     29  C   UNL A   1      36.798  30.178  27.261  1.00  0.00     0.016 A 
ATOM     30  C   UNL A   1      37.641  29.215  29.745  1.00  0.00     0.010 A 
ATOM     31  C   UNL A   1      38.120  29.758  27.442  1.00  0.00     0.010 A 
ATOM     32  C   UNL A   1      38.570  29.311  28.698  1.00  0.00    -0.014 A 
BRANCH  32  33
ATOM     33  C   UNL A   1      40.004  28.970  28.921  1.00  0.00     0.031 A 
ATOM     34  C   UNL A   1      40.946  29.994  29.501  1.00  0.00     0.074 A 
ATOM     35  C   UNL A   1      40.471  27.743  28.617  1.00  0.00     0.049 A 
ATOM     36  N   UNL A   1      42.252  29.960  29.591  1.00  0.00    -0.248 NA
ATOM     37  C   UNL A   1      40.342  31.226  30.034  1.00  0.00     0.031 C 
ATOM     38  C   UNL A   1      39.674  26.629  28.099  1.00  0.00     0.029 A 
ATOM     39  N   UNL A   1      41.740  27.222  28.711  1.00  0.00    -0.354 N 
ATOM     40  C   UNL A   1      42.627  31.178  30.148  1.00  0.00     0.074 A 
ATOM     41  C   UNL A   1      41.413  31.936  30.362  1.00  0.00     0.031 C 
ATOM     42  C   UNL A   1      40.458  25.549  27.965  1.00  0.00     0.029 A 
ATOM     43  C   UNL A   1      41.828  25.913  28.301  1.00  0.00     0.049 A 
ATOM     44  H   UNL A   1      42.511  27.737  29.040  1.00  0.00     0.167 HD
ATOM     45  C   UNL A   1      43.868  31.624  30.455  1.00  0.00     0.031 A 
ATOM     46  C   UNL A   1      42.893  25.101  28.164  1.00  0.00     0.031 A 
ATOM     47  C   UNL A   1      45.069  30.848  30.303  1.00  0.00     0.049 A 
ATOM     48  C   UNL A   1      44.264  25.632  28.468  1.00  0.00     0.074 A 
ATOM     49  C   UNL A   1      46.371  31.209  30.606  1.00  0.00     0.029 A 
ATOM     50  N   UNL A   1      45.113  29.550  29.822  1.00  0.00    -0.354 N 
ATOM     51  N   UNL A   1      44.608  26.808  28.933  1.00  0.00    -0.248 NA
ATOM     52  C   UNL A   1      45.395  24.730  28.202  1.00  0.00     0.031 C 
ATOM     53  C   UNL A   1      47.207  30.134  30.286  1.00  0.00     0.029 A 
ATOM     54  C   UNL A   1      46.420  29.093  29.820  1.00  0.00     0.049 A 
ATOM     55  H   UNL A   1      44.332  29.030  29.524  1.00  0.00     0.167 HD
ATOM     56  C   UNL A   1      45.994  26.794  29.003  1.00  0.00     0.074 A 
ATOM     57  C   UNL A   1      46.425  25.480  28.569  1.00  0.00     0.031 C 
ATOM     58  C   UNL A   1      46.835  27.786  29.383  1.00  0.00     0.031 A 
BRANCH  45  59
ATOM     59  C   UNL A   1      43.993  33.037  30.957  1.00  0.00    -0.014 A 
ATOM     60  C   UNL A   1      44.241  34.107  30.080  1.00  0.00     0.010 A 
ATOM     61  C   UNL A   1      43.828  33.298  32.330  1.00  0.00     0.010 A 
ATOM     62  C   UNL A   1      44.358  35.411  30.575  1.00  0.00     0.020 A 
ATOM     63  C   UNL A   1      43.924  34.601  32.825  1.00  0.00     0.020 A 
ATOM     64  C   UNL A   1      44.208  35.647  31.946  1.00  0.00     0.054 A 
BRANCH  64  65
ATOM     65  S   UNL A   1      44.351  37.347  32.566  1.00  0.00     0.124 S 
ATOM     66  O   UNL A   1      45.800  37.512  32.656  1.00  0.00    -0.237 OA
ATOM     67  O   UNL A   1      43.695  38.131  31.524  1.00  0.00    -0.237 OA
ATOM     68  O   UNL A   1      43.649  37.308  33.847  1.00  0.00    -0.744 OA
ENDBRANCH  64  65
ENDBRANCH  45  59
BRANCH  46  69
ATOM     69  C   UNL A   1      42.705  23.719  27.646  1.00  0.00    -0.014 A 
ATOM     70  C   UNL A   1      42.745  23.460  26.266  1.00  0.00     0.010 A 
ATOM     71  C   UNL A   1      42.510  22.649  28.539  1.00  0.00     0.010 A 
ATOM     72  C   UNL A   1      42.586  22.156  25.788  1.00  0.00     0.020 A 
ATOM     73  C   UNL A   1      42.376  21.342  28.067  1.00  0.00     0.020 A 
ATOM     74  C   UNL A   1      42.404  21.104  26.692  1.00  0.00     0.054 A 
BRANCH  74  75
ATOM     75  S   UNL A   1      42.263  19.409  26.060  1.00  0.00     0.124 S 
ATOM     76  O   UNL A   1      40.849  19.336  25.705  1.00  0.00    -0.237 OA
ATOM     77  O   UNL A   1      43.198  19.403  24.938  1.00  0.00    -0.237 OA
ATOM     78  O   UNL A   1      42.667  18.588  27.200  1.00  0.00    -0.744 OA
ENDBRANCH  74  75
ENDBRANCH  46  69
BRANCH  58  79
ATOM     79  C   UNL A   1      48.305  27.481  29.366  1.00  0.00    -0.014 A 
ATOM     80  C   UNL A   1      49.096  27.812  28.252  1.00  0.00     0.010 A 
ATOM     81  C   UNL A   1      48.908  26.894  30.492  1.00  0.00     0.010 A 
ATOM     82  C   UNL A   1      50.467  27.537  28.256  1.00  0.00     0.020 A 
ATOM     83  C   UNL A   1      50.281  26.635  30.506  1.00  0.00     0.020 A 
ATOM     84  C   UNL A   1      51.049  26.946  29.381  1.00  0.00     0.054 A 
BRANCH  84  85
ATOM     85  S   UNL A   1      52.836  26.633  29.384  1.00  0.00     0.124 S 
ATOM     86  O   UNL A   1      53.018  25.906  28.131  1.00  0.00    -0.237 OA
ATOM     87  O   UNL A   1      53.401  27.980  29.417  1.00  0.00    -0.237 OA
ATOM     88  O   UNL A   1      53.046  25.847  30.597  1.00  0.00    -0.744 OA
ENDBRANCH  84  85
ENDBRANCH  58  79
ENDBRANCH  32  33
ENDBRANCH  25  27
ENDBRANCH  24  25
ENDBRANCH  23  24
ENDBRANCH   1  23
TORSDOF 18
ENDMDL
