MODEL 1
REMARK VINA RESULT:     -10.0      0.000      0.000
REMARK SMILES CC[C@@](C)(C(=O)OCCOC(=O)c1ccc(-c2c3nc(c(-c4ccc(S(=O)(=O)[O-])cc4)c4ccc([nH]4)c(-c4ccc(S(=O)(=O)[O-])cc4)c4nc(c(-c5ccc(S(=O)(=O)[O-])cc5)c5ccc2[nH]5)C=C4)C=C3)cc1)n1nnnc1Cc1cccs1
REMARK SMILES IDX 8 1 7 2 5 3 6 4 3 5 4 6 2 7 1 8 73 9 74 10 77 11 75 12 76 13
REMARK SMILES IDX 78 14 79 15 80 16 83 17 81 18 82 19 9 20 10 21 11 22 12 23
REMARK SMILES IDX 13 24 14 25 72 26 15 27 71 28 16 29 17 30 18 31 65 32 19 33
REMARK SMILES IDX 70 34 64 35 66 36 20 37 69 38 63 39 62 40 21 42 51 43 32 44
REMARK SMILES IDX 50 45 33 46 36 47 49 48 67 49 34 50 35 51 48 53 68 54 37 55
REMARK SMILES IDX 22 56 23 57 31 58 24 59 30 60 25 61 26 62 27 63 28 64 29 65
REMARK SMILES IDX 52 66 53 67 61 68 54 69 60 70 55 71 56 72 57 73 58 74 59 75
REMARK SMILES IDX 38 76 39 77 47 78 40 79 46 80 41 81 42 82 43 83 44 84 45 85
REMARK H PARENT 66 41 36 52
REMARK Flexibility Score: inf
ROOT
ATOM      1  C   UNL A   1      31.682  30.345  25.710  1.00  0.00     0.274 C 
ENDROOT
BRANCH   1   2
ATOM      2  O   UNL A   1      31.589  28.937  25.389  1.00  0.00    -0.460 OA
BRANCH   2   3
ATOM      3  C   UNL A   1      32.111  28.573  24.182  1.00  0.00     0.334 C 
ATOM      4  O   UNL A   1      33.010  29.195  23.627  1.00  0.00    -0.249 OA
BRANCH   3   5
ATOM      5  C   UNL A   1      31.373  27.395  23.531  1.00  0.00     0.160 C 
ATOM      6  C   UNL A   1      30.545  28.082  22.401  1.00  0.00     0.050 C 
BRANCH   5   7
ATOM      7  C   UNL A   1      30.360  26.693  24.477  1.00  0.00     0.039 C 
ATOM      8  C   UNL A   1      28.968  26.489  23.889  1.00  0.00     0.007 C 
ENDBRANCH   5   7
BRANCH   5   9
ATOM      9  N   UNL A   1      32.373  26.473  22.981  1.00  0.00    -0.212 N 
ATOM     10  N   UNL A   1      32.313  26.158  21.667  1.00  0.00    -0.044 NA
ATOM     11  C   UNL A   1      33.443  25.798  23.541  1.00  0.00     0.157 A 
ATOM     12  N   UNL A   1      33.328  25.349  21.432  1.00  0.00    -0.024 NA
ATOM     13  N   UNL A   1      34.036  25.123  22.571  1.00  0.00    -0.113 NA
BRANCH  11  14
ATOM     14  C   UNL A   1      33.942  25.846  24.946  1.00  0.00     0.125 C 
BRANCH  14  15
ATOM     15  C   UNL A   1      33.810  24.541  25.679  1.00  0.00     0.012 A 
ATOM     16  C   UNL A   1      34.822  23.678  26.063  1.00  0.00     0.016 A 
ATOM     17  S   UNL A   1      32.285  23.999  26.239  1.00  0.00    -0.148 S 
ATOM     18  C   UNL A   1      34.346  22.593  26.849  1.00  0.00     0.012 A 
ATOM     19  C   UNL A   1      32.983  22.649  27.027  1.00  0.00     0.065 A 
ENDBRANCH  14  15
ENDBRANCH  11  14
ENDBRANCH   5   9
ENDBRANCH   3   5
ENDBRANCH   2   3
ENDBRANCH   1   2
BRANCH   1  20
ATOM     20  C   UNL A   1      32.309  30.574  27.081  1.00  0.00     0.275 C 
BRANCH  20  21
ATOM     21  O   UNL A   1      33.741  30.510  26.979  1.00  0.00    -0.458 OA
BRANCH  21  22
ATOM     22  C   UNL A   1      34.422  31.465  27.650  1.00  0.00     0.338 C 
ATOM     23  O   UNL A   1      34.022  32.587  27.925  1.00  0.00    -0.246 OA
BRANCH  22  24
ATOM     24  C   UNL A   1      35.738  30.962  28.096  1.00  0.00     0.060 A 
ATOM     25  C   UNL A   1      35.858  29.692  28.663  1.00  0.00     0.016 A 
ATOM     26  C   UNL A   1      36.823  31.841  28.131  1.00  0.00     0.016 A 
ATOM     27  C   UNL A   1      37.010  29.354  29.371  1.00  0.00     0.010 A 
ATOM     28  C   UNL A   1      38.019  31.451  28.742  1.00  0.00     0.010 A 
ATOM     29  C   UNL A   1      38.114  30.220  29.410  1.00  0.00    -0.014 A 
BRANCH  29  30
ATOM     30  C   UNL A   1      39.350  29.846  30.158  1.00  0.00     0.031 A 
ATOM     31  C   UNL A   1      40.263  28.757  29.650  1.00  0.00     0.074 A 
ATOM     32  C   UNL A   1      39.670  30.491  31.299  1.00  0.00     0.049 A 
ATOM     33  N   UNL A   1      41.269  28.176  30.256  1.00  0.00    -0.248 NA
ATOM     34  C   UNL A   1      40.009  28.245  28.293  1.00  0.00     0.031 C 
ATOM     35  C   UNL A   1      38.915  31.597  31.892  1.00  0.00     0.029 A 
ATOM     36  N   UNL A   1      40.726  30.315  32.160  1.00  0.00    -0.354 N 
ATOM     37  C   UNL A   1      41.733  27.201  29.379  1.00  0.00     0.074 A 
ATOM     38  C   UNL A   1      40.903  27.270  28.196  1.00  0.00     0.031 C 
ATOM     39  C   UNL A   1      39.558  32.034  32.985  1.00  0.00     0.029 A 
ATOM     40  C   UNL A   1      40.714  31.180  33.227  1.00  0.00     0.049 A 
ATOM     41  H   UNL A   1      41.425  29.634  32.025  1.00  0.00     0.167 HD
ATOM     42  C   UNL A   1      42.753  26.325  29.547  1.00  0.00     0.031 A 
ATOM     43  C   UNL A   1      41.507  31.258  34.313  1.00  0.00     0.031 A 
ATOM     44  C   UNL A   1      43.606  26.277  30.706  1.00  0.00     0.049 A 
ATOM     45  C   UNL A   1      42.605  30.256  34.496  1.00  0.00     0.074 A 
ATOM     46  C   UNL A   1      44.656  25.413  30.970  1.00  0.00     0.029 A 
ATOM     47  N   UNL A   1      43.522  27.143  31.786  1.00  0.00    -0.354 N 
ATOM     48  N   UNL A   1      42.964  29.278  33.701  1.00  0.00    -0.248 NA
ATOM     49  C   UNL A   1      43.383  30.347  35.738  1.00  0.00     0.031 C 
ATOM     50  C   UNL A   1      45.188  25.738  32.225  1.00  0.00     0.029 A 
ATOM     51  C   UNL A   1      44.492  26.826  32.723  1.00  0.00     0.049 A 
ATOM     52  H   UNL A   1      42.869  27.873  31.874  1.00  0.00     0.167 HD
ATOM     53  C   UNL A   1      44.002  28.626  34.354  1.00  0.00     0.074 A 
ATOM     54  C   UNL A   1      44.233  29.338  35.595  1.00  0.00     0.031 C 
ATOM     55  C   UNL A   1      44.693  27.527  33.964  1.00  0.00     0.031 A 
BRANCH  42  56
ATOM     56  C   UNL A   1      42.980  25.306  28.462  1.00  0.00    -0.014 A 
ATOM     57  C   UNL A   1      43.879  25.549  27.408  1.00  0.00     0.010 A 
ATOM     58  C   UNL A   1      42.318  24.068  28.528  1.00  0.00     0.010 A 
ATOM     59  C   UNL A   1      44.087  24.578  26.423  1.00  0.00     0.020 A 
ATOM     60  C   UNL A   1      42.536  23.088  27.555  1.00  0.00     0.020 A 
ATOM     61  C   UNL A   1      43.408  23.357  26.498  1.00  0.00     0.054 A 
BRANCH  61  62
ATOM     62  S   UNL A   1      43.709  22.104  25.221  1.00  0.00     0.124 S 
ATOM     63  O   UNL A   1      45.093  21.723  25.494  1.00  0.00    -0.237 OA
ATOM     64  O   UNL A   1      42.707  21.084  25.524  1.00  0.00    -0.237 OA
ATOM     65  O   UNL A   1      43.496  22.827  23.970  1.00  0.00    -0.744 OA
ENDBRANCH  61  62
ENDBRANCH  42  56
BRANCH  43  66
ATOM     66  C   UNL A   1      41.227  32.292  35.342  1.00  0.00    -0.014 A 
ATOM     67  C   UNL A   1      41.808  33.568  35.251  1.00  0.00     0.010 A 
ATOM     68  C   UNL A   1      40.319  32.021  36.383  1.00  0.00     0.010 A 
ATOM     69  C   UNL A   1      41.475  34.560  36.178  1.00  0.00     0.020 A 
ATOM     70  C   UNL A   1      39.966  33.017  37.294  1.00  0.00     0.020 A 
ATOM     71  C   UNL A   1      40.551  34.280  37.190  1.00  0.00     0.054 A 
BRANCH  71  72
ATOM     72  S   UNL A   1      40.041  35.603  38.323  1.00  0.00     0.124 S 
ATOM     73  O   UNL A   1      39.731  36.690  37.399  1.00  0.00    -0.237 OA
ATOM     74  O   UNL A   1      38.896  35.017  39.015  1.00  0.00    -0.237 OA
ATOM     75  O   UNL A   1      41.223  35.804  39.157  1.00  0.00    -0.744 OA
ENDBRANCH  71  72
ENDBRANCH  43  66
BRANCH  55  76
ATOM     76  C   UNL A   1      45.756  27.028  34.899  1.00  0.00    -0.014 A 
ATOM     77  C   UNL A   1      47.103  27.380  34.704  1.00  0.00     0.010 A 
ATOM     78  C   UNL A   1      45.406  26.219  35.995  1.00  0.00     0.010 A 
ATOM     79  C   UNL A   1      48.089  26.903  35.570  1.00  0.00     0.020 A 
ATOM     80  C   UNL A   1      46.388  25.754  36.873  1.00  0.00     0.020 A 
ATOM     81  C   UNL A   1      47.726  26.086  36.646  1.00  0.00     0.054 A 
BRANCH  81  82
ATOM     82  S   UNL A   1      49.017  25.494  37.775  1.00  0.00     0.124 S 
ATOM     83  O   UNL A   1      48.933  24.047  37.599  1.00  0.00    -0.237 OA
ATOM     84  O   UNL A   1      50.226  26.122  37.248  1.00  0.00    -0.237 OA
ATOM     85  O   UNL A   1      48.585  25.991  39.080  1.00  0.00    -0.744 OA
ENDBRANCH  81  82
ENDBRANCH  55  76
ENDBRANCH  29  30
ENDBRANCH  22  24
ENDBRANCH  21  22
ENDBRANCH  20  21
ENDBRANCH   1  20
TORSDOF 18
ENDMDL
MODEL 2
REMARK VINA RESULT:      -9.9      5.642      9.915
REMARK SMILES CC[C@@](C)(C(=O)OCCOC(=O)c1ccc(-c2c3nc(c(-c4ccc(S(=O)(=O)[O-])cc4)c4ccc([nH]4)c(-c4ccc(S(=O)(=O)[O-])cc4)c4nc(c(-c5ccc(S(=O)(=O)[O-])cc5)c5ccc2[nH]5)C=C4)C=C3)cc1)n1nnnc1Cc1cccs1
REMARK SMILES IDX 8 1 7 2 5 3 6 4 3 5 4 6 2 7 1 8 73 9 74 10 77 11 75 12 76 13
REMARK SMILES IDX 78 14 79 15 80 16 83 17 81 18 82 19 9 20 10 21 11 22 12 23
REMARK SMILES IDX 13 24 14 25 72 26 15 27 71 28 16 29 17 30 18 31 65 32 19 33
REMARK SMILES IDX 70 34 64 35 66 36 20 37 69 38 63 39 62 40 21 42 51 43 32 44
REMARK SMILES IDX 50 45 33 46 36 47 49 48 67 49 34 50 35 51 48 53 68 54 37 55
REMARK SMILES IDX 22 56 23 57 31 58 24 59 30 60 25 61 26 62 27 63 28 64 29 65
REMARK SMILES IDX 52 66 53 67 61 68 54 69 60 70 55 71 56 72 57 73 58 74 59 75
REMARK SMILES IDX 38 76 39 77 47 78 40 79 46 80 41 81 42 82 43 83 44 84 45 85
REMARK H PARENT 66 41 36 52
REMARK Flexibility Score: inf
ROOT
ATOM      1  C   UNL A   1      33.086  30.758  27.323  1.00  0.00     0.274 C 
ENDROOT
BRANCH   1   2
ATOM      2  O   UNL A   1      33.316  29.335  27.201  1.00  0.00    -0.460 OA
BRANCH   2   3
ATOM      3  C   UNL A   1      32.194  28.563  27.121  1.00  0.00     0.334 C 
ATOM      4  O   UNL A   1      31.304  28.586  27.963  1.00  0.00    -0.249 OA
BRANCH   3   5
ATOM      5  C   UNL A   1      32.222  27.571  25.949  1.00  0.00     0.160 C 
ATOM      6  C   UNL A   1      31.733  26.242  26.605  1.00  0.00     0.050 C 
BRANCH   5   7
ATOM      7  C   UNL A   1      33.646  27.306  25.388  1.00  0.00     0.039 C 
ATOM      8  C   UNL A   1      34.104  25.853  25.458  1.00  0.00     0.007 C 
ENDBRANCH   5   7
BRANCH   5   9
ATOM      9  N   UNL A   1      31.283  28.042  24.924  1.00  0.00    -0.212 N 
ATOM     10  N   UNL A   1      31.214  29.369  24.669  1.00  0.00    -0.044 NA
ATOM     11  C   UNL A   1      30.383  27.393  24.099  1.00  0.00     0.157 A 
ATOM     12  N   UNL A   1      30.329  29.514  23.702  1.00  0.00    -0.024 NA
ATOM     13  N   UNL A   1      29.813  28.310  23.336  1.00  0.00    -0.113 NA
BRANCH  11  14
ATOM     14  C   UNL A   1      30.118  25.930  23.980  1.00  0.00     0.125 C 
BRANCH  14  15
ATOM     15  C   UNL A   1      31.241  25.163  23.340  1.00  0.00     0.012 A 
ATOM     16  C   UNL A   1      31.610  23.848  23.572  1.00  0.00     0.016 A 
ATOM     17  S   UNL A   1      32.186  25.864  22.096  1.00  0.00    -0.148 S 
ATOM     18  C   UNL A   1      32.643  23.409  22.699  1.00  0.00     0.012 A 
ATOM     19  C   UNL A   1      33.046  24.406  21.840  1.00  0.00     0.065 A 
ENDBRANCH  14  15
ENDBRANCH  11  14
ENDBRANCH   5   9
ENDBRANCH   3   5
ENDBRANCH   2   3
ENDBRANCH   1   2
BRANCH   1  20
ATOM     20  C   UNL A   1      34.306  31.485  27.881  1.00  0.00     0.275 C 
BRANCH  20  21
ATOM     21  O   UNL A   1      35.447  30.611  27.856  1.00  0.00    -0.458 OA
BRANCH  21  22
ATOM     22  C   UNL A   1      36.106  30.470  29.028  1.00  0.00     0.338 C 
ATOM     23  O   UNL A   1      35.706  30.807  30.133  1.00  0.00    -0.246 OA
BRANCH  22  24
ATOM     24  C   UNL A   1      37.393  29.771  28.831  1.00  0.00     0.060 A 
ATOM     25  C   UNL A   1      38.146  29.348  29.926  1.00  0.00     0.016 A 
ATOM     26  C   UNL A   1      37.944  29.717  27.549  1.00  0.00     0.016 A 
ATOM     27  C   UNL A   1      39.484  28.995  29.754  1.00  0.00     0.010 A 
ATOM     28  C   UNL A   1      39.250  29.249  27.368  1.00  0.00     0.010 A 
ATOM     29  C   UNL A   1      40.053  28.925  28.473  1.00  0.00    -0.014 A 
BRANCH  29  30
ATOM     30  C   UNL A   1      41.481  28.533  28.294  1.00  0.00     0.031 A 
ATOM     31  C   UNL A   1      42.591  29.541  28.478  1.00  0.00     0.074 A 
ATOM     32  C   UNL A   1      41.798  27.261  27.973  1.00  0.00     0.049 A 
ATOM     33  N   UNL A   1      43.862  29.429  28.183  1.00  0.00    -0.248 NA
ATOM     34  C   UNL A   1      42.225  30.845  29.053  1.00  0.00     0.031 C 
ATOM     35  C   UNL A   1      40.844  26.162  27.808  1.00  0.00     0.029 A 
ATOM     36  N   UNL A   1      43.018  26.675  27.737  1.00  0.00    -0.354 N 
ATOM     37  C   UNL A   1      44.436  30.659  28.490  1.00  0.00     0.074 A 
ATOM     38  C   UNL A   1      43.376  31.503  28.998  1.00  0.00     0.031 C 
ATOM     39  C   UNL A   1      41.515  25.030  27.554  1.00  0.00     0.029 A 
ATOM     40  C   UNL A   1      42.935  25.337  27.438  1.00  0.00     0.049 A 
ATOM     41  H   UNL A   1      43.870  27.167  27.780  1.00  0.00     0.167 HD
ATOM     42  C   UNL A   1      45.726  31.050  28.355  1.00  0.00     0.031 A 
ATOM     43  C   UNL A   1      43.879  24.453  27.063  1.00  0.00     0.031 A 
ATOM     44  C   UNL A   1      46.792  30.203  27.886  1.00  0.00     0.049 A 
ATOM     45  C   UNL A   1      45.292  24.917  26.884  1.00  0.00     0.074 A 
ATOM     46  C   UNL A   1      48.128  30.519  27.702  1.00  0.00     0.029 A 
ATOM     47  N   UNL A   1      46.648  28.867  27.545  1.00  0.00    -0.354 N 
ATOM     48  N   UNL A   1      45.795  26.111  27.083  1.00  0.00    -0.248 NA
ATOM     49  C   UNL A   1      46.257  23.923  26.397  1.00  0.00     0.031 C 
ATOM     50  C   UNL A   1      48.787  29.380  27.222  1.00  0.00     0.029 A 
ATOM     51  C   UNL A   1      47.868  28.347  27.142  1.00  0.00     0.049 A 
ATOM     52  H   UNL A   1      45.805  28.362  27.584  1.00  0.00     0.167 HD
ATOM     53  C   UNL A   1      47.135  26.016  26.731  1.00  0.00     0.074 A 
ATOM     54  C   UNL A   1      47.371  24.642  26.335  1.00  0.00     0.031 C 
ATOM     55  C   UNL A   1      48.082  26.986  26.726  1.00  0.00     0.031 A 
BRANCH  42  56
ATOM     56  C   UNL A   1      46.055  32.483  28.680  1.00  0.00    -0.014 A 
ATOM     57  C   UNL A   1      46.223  32.911  30.009  1.00  0.00     0.010 A 
ATOM     58  C   UNL A   1      46.247  33.402  27.633  1.00  0.00     0.010 A 
ATOM     59  C   UNL A   1      46.548  34.243  30.284  1.00  0.00     0.020 A 
ATOM     60  C   UNL A   1      46.588  34.731  27.903  1.00  0.00     0.020 A 
ATOM     61  C   UNL A   1      46.721  35.146  29.229  1.00  0.00     0.054 A 
BRANCH  61  62
ATOM     62  S   UNL A   1      47.163  36.865  29.607  1.00  0.00     0.124 S 
ATOM     63  O   UNL A   1      45.900  37.559  29.368  1.00  0.00    -0.237 OA
ATOM     64  O   UNL A   1      47.583  36.793  31.005  1.00  0.00    -0.237 OA
ATOM     65  O   UNL A   1      48.230  37.166  28.656  1.00  0.00    -0.744 OA
ENDBRANCH  61  62
ENDBRANCH  42  56
BRANCH  43  66
ATOM     66  C   UNL A   1      43.483  23.053  26.761  1.00  0.00    -0.014 A 
ATOM     67  C   UNL A   1      44.019  22.382  25.650  1.00  0.00     0.010 A 
ATOM     68  C   UNL A   1      42.617  22.364  27.631  1.00  0.00     0.010 A 
ATOM     69  C   UNL A   1      43.706  21.039  25.420  1.00  0.00     0.020 A 
ATOM     70  C   UNL A   1      42.321  21.017  27.417  1.00  0.00     0.020 A 
ATOM     71  C   UNL A   1      42.863  20.364  26.308  1.00  0.00     0.054 A 
BRANCH  71  72
ATOM     72  S   UNL A   1      42.546  18.594  26.066  1.00  0.00     0.124 S 
ATOM     73  O   UNL A   1      43.416  18.283  24.936  1.00  0.00    -0.237 OA
ATOM     74  O   UNL A   1      42.941  18.012  27.346  1.00  0.00    -0.237 OA
ATOM     75  O   UNL A   1      41.112  18.545  25.787  1.00  0.00    -0.744 OA
ENDBRANCH  71  72
ENDBRANCH  43  66
BRANCH  55  76
ATOM     76  C   UNL A   1      49.455  26.590  26.267  1.00  0.00    -0.014 A 
ATOM     77  C   UNL A   1      49.825  26.727  24.918  1.00  0.00     0.010 A 
ATOM     78  C   UNL A   1      50.391  26.096  27.193  1.00  0.00     0.010 A 
ATOM     79  C   UNL A   1      51.101  26.345  24.495  1.00  0.00     0.020 A 
ATOM     80  C   UNL A   1      51.673  25.729  26.776  1.00  0.00     0.020 A 
ATOM     81  C   UNL A   1      52.014  25.841  25.426  1.00  0.00     0.054 A 
BRANCH  81  82
ATOM     82  S   UNL A   1      53.675  25.372  24.864  1.00  0.00     0.124 S 
ATOM     83  O   UNL A   1      53.724  25.973  23.534  1.00  0.00    -0.237 OA
ATOM     84  O   UNL A   1      54.544  25.987  25.863  1.00  0.00    -0.237 OA
ATOM     85  O   UNL A   1      53.646  23.911  24.888  1.00  0.00    -0.744 OA
ENDBRANCH  81  82
ENDBRANCH  55  76
ENDBRANCH  29  30
ENDBRANCH  22  24
ENDBRANCH  21  22
ENDBRANCH  20  21
ENDBRANCH   1  20
TORSDOF 18
ENDMDL
MODEL 3
REMARK VINA RESULT:      -9.8      5.101      7.404
REMARK SMILES CC[C@@](C)(C(=O)OCCOC(=O)c1ccc(-c2c3nc(c(-c4ccc(S(=O)(=O)[O-])cc4)c4ccc([nH]4)c(-c4ccc(S(=O)(=O)[O-])cc4)c4nc(c(-c5ccc(S(=O)(=O)[O-])cc5)c5ccc2[nH]5)C=C4)C=C3)cc1)n1nnnc1Cc1cccs1
REMARK SMILES IDX 8 1 7 2 5 3 6 4 3 5 4 6 2 7 1 8 73 9 74 10 77 11 75 12 76 13
REMARK SMILES IDX 78 14 79 15 80 16 83 17 81 18 82 19 9 20 10 21 11 22 12 23
REMARK SMILES IDX 13 24 14 25 72 26 15 27 71 28 16 29 17 30 18 31 65 32 19 33
REMARK SMILES IDX 70 34 64 35 66 36 20 37 69 38 63 39 62 40 21 42 51 43 32 44
REMARK SMILES IDX 50 45 33 46 36 47 49 48 67 49 34 50 35 51 48 53 68 54 37 55
REMARK SMILES IDX 22 56 23 57 31 58 24 59 30 60 25 61 26 62 27 63 28 64 29 65
REMARK SMILES IDX 52 66 53 67 61 68 54 69 60 70 55 71 56 72 57 73 58 74 59 75
REMARK SMILES IDX 38 76 39 77 47 78 40 79 46 80 41 81 42 82 43 83 44 84 45 85
REMARK H PARENT 66 41 36 52
REMARK Flexibility Score: inf
ROOT
ATOM      1  C   UNL A   1      36.175  22.167  24.992  1.00  0.00     0.274 C 
ENDROOT
BRANCH   1   2
ATOM      2  O   UNL A   1      35.555  23.075  25.931  1.00  0.00    -0.460 OA
BRANCH   2   3
ATOM      3  C   UNL A   1      34.362  22.663  26.449  1.00  0.00     0.334 C 
ATOM      4  O   UNL A   1      34.259  21.718  27.223  1.00  0.00    -0.249 OA
BRANCH   3   5
ATOM      5  C   UNL A   1      33.155  23.409  25.863  1.00  0.00     0.160 C 
ATOM      6  C   UNL A   1      33.619  24.898  25.887  1.00  0.00     0.050 C 
BRANCH   5   7
ATOM      7  C   UNL A   1      31.876  23.315  26.740  1.00  0.00     0.039 C 
ATOM      8  C   UNL A   1      30.754  24.268  26.343  1.00  0.00     0.007 C 
ENDBRANCH   5   7
BRANCH   5   9
ATOM      9  N   UNL A   1      32.942  22.934  24.491  1.00  0.00    -0.212 N 
ATOM     10  N   UNL A   1      33.163  23.789  23.466  1.00  0.00    -0.044 NA
ATOM     11  C   UNL A   1      32.534  21.722  23.965  1.00  0.00     0.157 A 
ATOM     12  N   UNL A   1      32.929  23.110  22.360  1.00  0.00    -0.024 NA
ATOM     13  N   UNL A   1      32.548  21.837  22.648  1.00  0.00    -0.113 NA
BRANCH  11  14
ATOM     14  C   UNL A   1      32.208  20.457  24.685  1.00  0.00     0.125 C 
BRANCH  14  15
ATOM     15  C   UNL A   1      33.035  19.281  24.247  1.00  0.00     0.012 A 
ATOM     16  C   UNL A   1      34.271  18.887  24.731  1.00  0.00     0.016 A 
ATOM     17  S   UNL A   1      32.441  18.175  23.083  1.00  0.00    -0.148 S 
ATOM     18  C   UNL A   1      34.708  17.654  24.172  1.00  0.00     0.012 A 
ATOM     19  C   UNL A   1      33.803  17.155  23.263  1.00  0.00     0.065 A 
ENDBRANCH  14  15
ENDBRANCH  11  14
ENDBRANCH   5   9
ENDBRANCH   3   5
ENDBRANCH   2   3
ENDBRANCH   1   2
BRANCH   1  20
ATOM     20  C   UNL A   1      37.294  21.357  25.640  1.00  0.00     0.275 C 
BRANCH  20  21
ATOM     21  O   UNL A   1      38.569  21.931  25.306  1.00  0.00    -0.458 OA
BRANCH  21  22
ATOM     22  C   UNL A   1      39.527  21.828  26.253  1.00  0.00     0.338 C 
ATOM     23  O   UNL A   1      40.114  20.808  26.586  1.00  0.00    -0.246 OA
BRANCH  22  24
ATOM     24  C   UNL A   1      39.854  23.152  26.822  1.00  0.00     0.060 A 
ATOM     25  C   UNL A   1      39.458  24.321  26.171  1.00  0.00     0.016 A 
ATOM     26  C   UNL A   1      40.732  23.225  27.905  1.00  0.00     0.016 A 
ATOM     27  C   UNL A   1      40.038  25.540  26.521  1.00  0.00     0.010 A 
ATOM     28  C   UNL A   1      41.220  24.467  28.327  1.00  0.00     0.010 A 
ATOM     29  C   UNL A   1      40.915  25.636  27.612  1.00  0.00    -0.014 A 
BRANCH  29  30
ATOM     30  C   UNL A   1      41.521  26.946  27.990  1.00  0.00     0.031 A 
ATOM     31  C   UNL A   1      43.003  27.189  27.829  1.00  0.00     0.074 A 
ATOM     32  C   UNL A   1      40.743  27.936  28.474  1.00  0.00     0.049 A 
ATOM     33  N   UNL A   1      43.727  28.186  28.275  1.00  0.00    -0.248 NA
ATOM     34  C   UNL A   1      43.773  26.179  27.085  1.00  0.00     0.031 C 
ATOM     35  C   UNL A   1      39.289  27.871  28.643  1.00  0.00     0.029 A 
ATOM     36  N   UNL A   1      41.067  29.200  28.904  1.00  0.00    -0.354 N 
ATOM     37  C   UNL A   1      45.038  27.900  27.910  1.00  0.00     0.074 A 
ATOM     38  C   UNL A   1      45.012  26.638  27.202  1.00  0.00     0.031 C 
ATOM     39  C   UNL A   1      38.843  29.056  29.086  1.00  0.00     0.029 A 
ATOM     40  C   UNL A   1      39.983  29.930  29.328  1.00  0.00     0.049 A 
ATOM     41  H   UNL A   1      41.988  29.549  28.907  1.00  0.00     0.167 HD
ATOM     42  C   UNL A   1      46.162  28.619  28.148  1.00  0.00     0.031 A 
ATOM     43  C   UNL A   1      39.904  31.149  29.896  1.00  0.00     0.031 A 
ATOM     44  C   UNL A   1      46.188  29.893  28.819  1.00  0.00     0.049 A 
ATOM     45  C   UNL A   1      41.162  31.910  30.184  1.00  0.00     0.074 A 
ATOM     46  C   UNL A   1      47.282  30.688  29.118  1.00  0.00     0.029 A 
ATOM     47  N   UNL A   1      45.068  30.570  29.277  1.00  0.00    -0.354 N 
ATOM     48  N   UNL A   1      42.402  31.576  29.921  1.00  0.00    -0.248 NA
ATOM     49  C   UNL A   1      41.012  33.196  30.876  1.00  0.00     0.031 C 
ATOM     50  C   UNL A   1      46.826  31.833  29.784  1.00  0.00     0.029 A 
ATOM     51  C   UNL A   1      45.445  31.766  29.866  1.00  0.00     0.049 A 
ATOM     52  H   UNL A   1      44.142  30.248  29.195  1.00  0.00     0.167 HD
ATOM     53  C   UNL A   1      43.183  32.606  30.429  1.00  0.00     0.074 A 
ATOM     54  C   UNL A   1      42.275  33.587  30.988  1.00  0.00     0.031 C 
ATOM     55  C   UNL A   1      44.534  32.719  30.441  1.00  0.00     0.031 A 
BRANCH  42  56
ATOM     56  C   UNL A   1      47.474  28.022  27.716  1.00  0.00    -0.014 A 
ATOM     57  C   UNL A   1      48.168  27.112  28.533  1.00  0.00     0.010 A 
ATOM     58  C   UNL A   1      47.994  28.341  26.449  1.00  0.00     0.010 A 
ATOM     59  C   UNL A   1      49.375  26.555  28.101  1.00  0.00     0.020 A 
ATOM     60  C   UNL A   1      49.192  27.774  26.005  1.00  0.00     0.020 A 
ATOM     61  C   UNL A   1      49.883  26.896  26.842  1.00  0.00     0.054 A 
BRANCH  61  62
ATOM     62  S   UNL A   1      51.441  26.146  26.291  1.00  0.00     0.124 S 
ATOM     63  O   UNL A   1      52.432  27.021  26.914  1.00  0.00    -0.237 OA
ATOM     64  O   UNL A   1      51.365  24.795  26.842  1.00  0.00    -0.237 OA
ATOM     65  O   UNL A   1      51.367  26.225  24.834  1.00  0.00    -0.744 OA
ENDBRANCH  61  62
ENDBRANCH  42  56
BRANCH  43  66
ATOM     66  C   UNL A   1      38.574  31.678  30.293  1.00  0.00    -0.014 A 
ATOM     67  C   UNL A   1      38.055  31.419  31.573  1.00  0.00     0.010 A 
ATOM     68  C   UNL A   1      37.853  32.504  29.411  1.00  0.00     0.010 A 
ATOM     69  C   UNL A   1      36.841  31.989  31.968  1.00  0.00     0.020 A 
ATOM     70  C   UNL A   1      36.653  33.093  29.812  1.00  0.00     0.020 A 
ATOM     71  C   UNL A   1      36.151  32.828  31.087  1.00  0.00     0.054 A 
BRANCH  71  72
ATOM     72  S   UNL A   1      34.632  33.650  31.643  1.00  0.00     0.124 S 
ATOM     73  O   UNL A   1      33.951  33.914  30.379  1.00  0.00    -0.237 OA
ATOM     74  O   UNL A   1      34.009  32.645  32.498  1.00  0.00    -0.237 OA
ATOM     75  O   UNL A   1      35.129  34.830  32.347  1.00  0.00    -0.744 OA
ENDBRANCH  71  72
ENDBRANCH  43  66
BRANCH  55  76
ATOM     76  C   UNL A   1      45.104  33.947  31.089  1.00  0.00    -0.014 A 
ATOM     77  C   UNL A   1      45.312  35.120  30.342  1.00  0.00     0.010 A 
ATOM     78  C   UNL A   1      45.415  33.939  32.461  1.00  0.00     0.010 A 
ATOM     79  C   UNL A   1      45.854  36.256  30.948  1.00  0.00     0.020 A 
ATOM     80  C   UNL A   1      45.942  35.079  33.074  1.00  0.00     0.020 A 
ATOM     81  C   UNL A   1      46.173  36.225  32.310  1.00  0.00     0.054 A 
BRANCH  81  82
ATOM     82  S   UNL A   1      46.854  37.716  33.087  1.00  0.00     0.124 S 
ATOM     83  O   UNL A   1      48.291  37.520  32.911  1.00  0.00    -0.237 OA
ATOM     84  O   UNL A   1      46.266  38.794  32.296  1.00  0.00    -0.237 OA
ATOM     85  O   UNL A   1      46.377  37.634  34.466  1.00  0.00    -0.744 OA
ENDBRANCH  81  82
ENDBRANCH  55  76
ENDBRANCH  29  30
ENDBRANCH  22  24
ENDBRANCH  21  22
ENDBRANCH  20  21
ENDBRANCH   1  20
TORSDOF 18
ENDMDL
