MODEL 1
REMARK VINA RESULT:     -10.4      0.000      0.000
REMARK SMILES O=C(C[C@H]1CN(S(=O)(=O)N2CCCCC2)CCO1)OCCOC(=O)c1ccc(-c2c3nc(c(-c4ccc(S(=O)(=O)[O-])cc4)c4ccc([nH]4)c(-c4ccc(S(=O)(=O)[O-])cc4)c4nc(c(-c5ccc(S(=O)(=O)[O-])cc5)c5ccc2[nH]5)C=C4)C=C3)cc1
REMARK SMILES IDX 20 1 19 2 2 3 1 4 3 5 4 6 5 7 18 8 6 9 17 10 16 11 7 12 8 13
REMARK SMILES IDX 9 14 10 15 11 16 15 17 12 18 14 19 13 20 21 21 22 22 23 23
REMARK SMILES IDX 24 24 25 25 26 26 84 27 27 28 83 29 28 30 29 31 30 32 77 33
REMARK SMILES IDX 31 34 82 35 76 36 78 37 32 38 81 39 75 40 74 41 33 43 63 44
REMARK SMILES IDX 44 45 62 46 45 47 48 48 61 49 79 50 46 51 47 52 60 54 80 55
REMARK SMILES IDX 49 56 34 57 35 58 43 59 36 60 42 61 37 62 38 63 39 64 40 65
REMARK SMILES IDX 41 66 64 67 65 68 73 69 66 70 72 71 67 72 68 73 69 74 70 75
REMARK SMILES IDX 71 76 50 77 51 78 59 79 52 80 58 81 53 82 54 83 55 84 56 85
REMARK SMILES IDX 57 86
REMARK H PARENT 78 42 48 53
REMARK Flexibility Score: inf
ROOT
ATOM      1  C   UNL A   1      38.521  22.528  25.937  1.00  0.00     0.274 C 
ENDROOT
BRANCH   1   2
ATOM      2  O   UNL A   1      37.279  21.805  26.064  1.00  0.00    -0.462 OA
BRANCH   2   3
ATOM      3  C   UNL A   1      36.529  21.301  25.060  1.00  0.00     0.308 C 
ATOM      4  O   UNL A   1      36.696  20.133  24.705  1.00  0.00    -0.252 OA
BRANCH   3   5
ATOM      5  C   UNL A   1      35.506  22.151  24.345  1.00  0.00     0.156 C 
BRANCH   5   6
ATOM      6  C   UNL A   1      34.224  22.529  25.113  1.00  0.00     0.144 C 
ATOM      7  C   UNL A   1      33.561  23.879  24.820  1.00  0.00     0.136 C 
ATOM      8  O   UNL A   1      33.212  21.508  25.005  1.00  0.00    -0.375 OA
ATOM      9  N   UNL A   1      33.237  23.917  23.368  1.00  0.00    -0.184 NA
ATOM     10  C   UNL A   1      32.537  21.491  23.747  1.00  0.00     0.177 C 
ATOM     11  C   UNL A   1      32.164  22.866  23.150  1.00  0.00     0.132 C 
BRANCH   9  12
ATOM     12  S   UNL A   1      32.785  25.407  22.696  1.00  0.00     0.282 S 
ATOM     13  O   UNL A   1      33.883  25.826  21.850  1.00  0.00    -0.195 OA
ATOM     14  O   UNL A   1      31.469  25.225  22.124  1.00  0.00    -0.195 OA
BRANCH  12  15
ATOM     15  N   UNL A   1      32.661  26.579  23.937  1.00  0.00    -0.189 NA
ATOM     16  C   UNL A   1      33.828  27.531  23.844  1.00  0.00     0.103 C 
ATOM     17  C   UNL A   1      31.389  27.330  24.060  1.00  0.00     0.103 C 
ATOM     18  C   UNL A   1      33.827  28.604  24.932  1.00  0.00     0.017 C 
ATOM     19  C   UNL A   1      31.399  28.315  25.219  1.00  0.00     0.017 C 
ATOM     20  C   UNL A   1      32.497  29.335  25.019  1.00  0.00     0.003 C 
ENDBRANCH  12  15
ENDBRANCH   9  12
ENDBRANCH   5   6
ENDBRANCH   3   5
ENDBRANCH   2   3
ENDBRANCH   1   2
BRANCH   1  21
ATOM     21  C   UNL A   1      38.290  24.029  26.090  1.00  0.00     0.275 C 
BRANCH  21  22
ATOM     22  O   UNL A   1      39.098  24.468  27.189  1.00  0.00    -0.458 OA
BRANCH  22  23
ATOM     23  C   UNL A   1      39.949  25.477  26.874  1.00  0.00     0.338 C 
ATOM     24  O   UNL A   1      40.570  25.606  25.834  1.00  0.00    -0.246 OA
BRANCH  23  25
ATOM     25  C   UNL A   1      39.810  26.528  27.908  1.00  0.00     0.060 A 
ATOM     26  C   UNL A   1      40.344  27.794  27.630  1.00  0.00     0.016 A 
ATOM     27  C   UNL A   1      39.112  26.300  29.097  1.00  0.00     0.016 A 
ATOM     28  C   UNL A   1      40.221  28.824  28.559  1.00  0.00     0.010 A 
ATOM     29  C   UNL A   1      39.000  27.325  30.033  1.00  0.00     0.010 A 
ATOM     30  C   UNL A   1      39.592  28.573  29.783  1.00  0.00    -0.014 A 
BRANCH  30  31
ATOM     31  C   UNL A   1      39.788  29.488  30.925  1.00  0.00     0.031 A 
ATOM     32  C   UNL A   1      40.932  29.178  31.850  1.00  0.00     0.074 A 
ATOM     33  C   UNL A   1      38.930  30.491  31.175  1.00  0.00     0.049 A 
ATOM     34  N   UNL A   1      41.225  29.702  33.008  1.00  0.00    -0.248 NA
ATOM     35  C   UNL A   1      41.861  28.116  31.415  1.00  0.00     0.031 C 
ATOM     36  C   UNL A   1      37.809  30.885  30.322  1.00  0.00     0.029 A 
ATOM     37  N   UNL A   1      38.853  31.341  32.250  1.00  0.00    -0.354 N 
ATOM     38  C   UNL A   1      42.350  29.017  33.450  1.00  0.00     0.074 A 
ATOM     39  C   UNL A   1      42.688  28.038  32.444  1.00  0.00     0.031 C 
ATOM     40  C   UNL A   1      37.131  31.877  30.927  1.00  0.00     0.029 A 
ATOM     41  C   UNL A   1      37.747  32.158  32.223  1.00  0.00     0.049 A 
ATOM     42  H   UNL A   1      39.524  31.363  32.970  1.00  0.00     0.167 HD
ATOM     43  C   UNL A   1      43.035  29.185  34.603  1.00  0.00     0.031 A 
ATOM     44  C   UNL A   1      37.272  33.000  33.163  1.00  0.00     0.031 A 
ATOM     45  C   UNL A   1      42.672  30.150  35.602  1.00  0.00     0.049 A 
ATOM     46  C   UNL A   1      38.021  33.127  34.468  1.00  0.00     0.074 A 
ATOM     47  C   UNL A   1      43.314  30.438  36.791  1.00  0.00     0.029 A 
ATOM     48  N   UNL A   1      41.555  30.970  35.533  1.00  0.00    -0.354 N 
ATOM     49  N   UNL A   1      39.125  32.524  34.847  1.00  0.00    -0.248 NA
ATOM     50  C   UNL A   1      37.461  34.043  35.472  1.00  0.00     0.031 C 
ATOM     51  C   UNL A   1      42.548  31.386  37.473  1.00  0.00     0.029 A 
ATOM     52  C   UNL A   1      41.465  31.735  36.680  1.00  0.00     0.049 A 
ATOM     53  H   UNL A   1      40.923  31.001  34.780  1.00  0.00     0.167 HD
ATOM     54  C   UNL A   1      39.400  33.003  36.124  1.00  0.00     0.074 A 
ATOM     55  C   UNL A   1      38.359  33.957  36.445  1.00  0.00     0.031 C 
ATOM     56  C   UNL A   1      40.417  32.683  36.961  1.00  0.00     0.031 A 
BRANCH  43  57
ATOM     57  C   UNL A   1      44.204  28.278  34.864  1.00  0.00    -0.014 A 
ATOM     58  C   UNL A   1      45.473  28.546  34.323  1.00  0.00     0.010 A 
ATOM     59  C   UNL A   1      44.036  27.161  35.702  1.00  0.00     0.010 A 
ATOM     60  C   UNL A   1      46.551  27.702  34.601  1.00  0.00     0.020 A 
ATOM     61  C   UNL A   1      45.116  26.328  36.001  1.00  0.00     0.020 A 
ATOM     62  C   UNL A   1      46.367  26.599  35.442  1.00  0.00     0.054 A 
BRANCH  62  63
ATOM     63  S   UNL A   1      47.796  25.552  35.831  1.00  0.00     0.124 S 
ATOM     64  O   UNL A   1      48.043  24.892  34.551  1.00  0.00    -0.237 OA
ATOM     65  O   UNL A   1      48.804  26.528  36.239  1.00  0.00    -0.237 OA
ATOM     66  O   UNL A   1      47.309  24.681  36.897  1.00  0.00    -0.744 OA
ENDBRANCH  62  63
ENDBRANCH  43  57
BRANCH  44  67
ATOM     67  C   UNL A   1      36.000  33.743  32.938  1.00  0.00    -0.014 A 
ATOM     68  C   UNL A   1      36.013  35.101  32.577  1.00  0.00     0.010 A 
ATOM     69  C   UNL A   1      34.761  33.098  33.114  1.00  0.00     0.010 A 
ATOM     70  C   UNL A   1      34.815  35.808  32.420  1.00  0.00     0.020 A 
ATOM     71  C   UNL A   1      33.561  33.792  32.930  1.00  0.00     0.020 A 
ATOM     72  C   UNL A   1      33.595  35.147  32.600  1.00  0.00     0.054 A 
BRANCH  72  73
ATOM     73  S   UNL A   1      32.053  36.074  32.364  1.00  0.00     0.124 S 
ATOM     74  O   UNL A   1      32.126  36.431  30.951  1.00  0.00    -0.237 OA
ATOM     75  O   UNL A   1      31.035  35.087  32.717  1.00  0.00    -0.237 OA
ATOM     76  O   UNL A   1      32.179  37.189  33.301  1.00  0.00    -0.744 OA
ENDBRANCH  72  73
ENDBRANCH  44  67
BRANCH  56  77
ATOM     77  C   UNL A   1      40.475  33.383  38.291  1.00  0.00    -0.014 A 
ATOM     78  C   UNL A   1      41.129  34.619  38.430  1.00  0.00     0.010 A 
ATOM     79  C   UNL A   1      39.773  32.847  39.386  1.00  0.00     0.010 A 
ATOM     80  C   UNL A   1      41.091  35.301  39.648  1.00  0.00     0.020 A 
ATOM     81  C   UNL A   1      39.710  33.539  40.597  1.00  0.00     0.020 A 
ATOM     82  C   UNL A   1      40.376  34.759  40.722  1.00  0.00     0.054 A 
BRANCH  82  83
ATOM     83  S   UNL A   1      40.279  35.703  42.267  1.00  0.00     0.124 S 
ATOM     84  O   UNL A   1      41.645  36.197  42.408  1.00  0.00    -0.237 OA
ATOM     85  O   UNL A   1      39.271  36.717  41.961  1.00  0.00    -0.237 OA
ATOM     86  O   UNL A   1      39.871  34.707  43.256  1.00  0.00    -0.744 OA
ENDBRANCH  82  83
ENDBRANCH  56  77
ENDBRANCH  30  31
ENDBRANCH  23  25
ENDBRANCH  22  23
ENDBRANCH  21  22
ENDBRANCH   1  21
TORSDOF 17
ENDMDL
MODEL 2
REMARK VINA RESULT:     -10.3      5.970     11.435
REMARK SMILES O=C(C[C@H]1CN(S(=O)(=O)N2CCCCC2)CCO1)OCCOC(=O)c1ccc(-c2c3nc(c(-c4ccc(S(=O)(=O)[O-])cc4)c4ccc([nH]4)c(-c4ccc(S(=O)(=O)[O-])cc4)c4nc(c(-c5ccc(S(=O)(=O)[O-])cc5)c5ccc2[nH]5)C=C4)C=C3)cc1
REMARK SMILES IDX 20 1 19 2 2 3 1 4 3 5 4 6 5 7 18 8 6 9 17 10 16 11 7 12 8 13
REMARK SMILES IDX 9 14 10 15 11 16 15 17 12 18 14 19 13 20 21 21 22 22 23 23
REMARK SMILES IDX 24 24 25 25 26 26 84 27 27 28 83 29 28 30 29 31 30 32 77 33
REMARK SMILES IDX 31 34 82 35 76 36 78 37 32 38 81 39 75 40 74 41 33 43 63 44
REMARK SMILES IDX 44 45 62 46 45 47 48 48 61 49 79 50 46 51 47 52 60 54 80 55
REMARK SMILES IDX 49 56 34 57 35 58 43 59 36 60 42 61 37 62 38 63 39 64 40 65
REMARK SMILES IDX 41 66 64 67 65 68 73 69 66 70 72 71 67 72 68 73 69 74 70 75
REMARK SMILES IDX 71 76 50 77 51 78 59 79 52 80 58 81 53 82 54 83 55 84 56 85
REMARK SMILES IDX 57 86
REMARK H PARENT 78 42 48 53
REMARK Flexibility Score: inf
ROOT
ATOM      1  C   UNL A   1      33.550  30.199  26.603  1.00  0.00     0.274 C 
ENDROOT
BRANCH   1   2
ATOM      2  O   UNL A   1      33.485  28.886  27.198  1.00  0.00    -0.462 OA
BRANCH   2   3
ATOM      3  C   UNL A   1      32.540  27.947  26.985  1.00  0.00     0.308 C 
ATOM      4  O   UNL A   1      31.464  28.022  27.581  1.00  0.00    -0.252 OA
BRANCH   3   5
ATOM      5  C   UNL A   1      32.784  26.788  26.047  1.00  0.00     0.156 C 
BRANCH   5   6
ATOM      6  C   UNL A   1      32.425  26.981  24.560  1.00  0.00     0.144 C 
ATOM      7  C   UNL A   1      32.975  25.985  23.535  1.00  0.00     0.136 C 
ATOM      8  O   UNL A   1      31.001  27.078  24.360  1.00  0.00    -0.375 OA
ATOM      9  N   UNL A   1      32.514  24.627  23.931  1.00  0.00    -0.184 NA
ATOM     10  C   UNL A   1      30.317  25.826  24.435  1.00  0.00     0.177 C 
ATOM     11  C   UNL A   1      31.007  24.626  23.750  1.00  0.00     0.132 C 
BRANCH   9  12
ATOM     12  S   UNL A   1      33.227  23.293  23.164  1.00  0.00     0.282 S 
ATOM     13  O   UNL A   1      32.248  22.225  23.204  1.00  0.00    -0.195 OA
ATOM     14  O   UNL A   1      33.725  23.761  21.889  1.00  0.00    -0.195 OA
BRANCH  12  15
ATOM     15  N   UNL A   1      34.564  22.753  24.084  1.00  0.00    -0.189 NA
ATOM     16  C   UNL A   1      34.333  21.324  24.511  1.00  0.00     0.103 C 
ATOM     17  C   UNL A   1      35.917  22.906  23.501  1.00  0.00     0.103 C 
ATOM     18  C   UNL A   1      35.463  20.754  25.368  1.00  0.00     0.017 C 
ATOM     19  C   UNL A   1      37.017  22.417  24.431  1.00  0.00     0.017 C 
ATOM     20  C   UNL A   1      36.827  20.946  24.726  1.00  0.00     0.003 C 
ENDBRANCH  12  15
ENDBRANCH   9  12
ENDBRANCH   5   6
ENDBRANCH   3   5
ENDBRANCH   2   3
ENDBRANCH   1   2
BRANCH   1  21
ATOM     21  C   UNL A   1      33.420  31.282  27.672  1.00  0.00     0.275 C 
BRANCH  21  22
ATOM     22  O   UNL A   1      34.725  31.844  27.861  1.00  0.00    -0.458 OA
BRANCH  22  23
ATOM     23  C   UNL A   1      35.167  31.782  29.143  1.00  0.00     0.338 C 
ATOM     24  O   UNL A   1      34.548  32.105  30.141  1.00  0.00    -0.246 OA
BRANCH  23  25
ATOM     25  C   UNL A   1      36.438  31.023  29.149  1.00  0.00     0.060 A 
ATOM     26  C   UNL A   1      37.032  30.748  30.388  1.00  0.00     0.016 A 
ATOM     27  C   UNL A   1      37.004  30.531  27.969  1.00  0.00     0.016 A 
ATOM     28  C   UNL A   1      38.216  30.018  30.450  1.00  0.00     0.010 A 
ATOM     29  C   UNL A   1      38.196  29.813  28.027  1.00  0.00     0.010 A 
ATOM     30  C   UNL A   1      38.824  29.595  29.264  1.00  0.00    -0.014 A 
BRANCH  30  31
ATOM     31  C   UNL A   1      40.243  29.183  29.257  1.00  0.00     0.031 A 
ATOM     32  C   UNL A   1      41.261  30.271  29.459  1.00  0.00     0.074 A 
ATOM     33  C   UNL A   1      40.604  27.917  28.993  1.00  0.00     0.049 A 
ATOM     34  N   UNL A   1      42.558  30.224  29.327  1.00  0.00    -0.248 NA
ATOM     35  C   UNL A   1      40.741  31.598  29.840  1.00  0.00     0.031 C 
ATOM     36  C   UNL A   1      39.689  26.791  28.812  1.00  0.00     0.029 A 
ATOM     37  N   UNL A   1      41.850  27.377  28.793  1.00  0.00    -0.354 N 
ATOM     38  C   UNL A   1      43.003  31.515  29.583  1.00  0.00     0.074 A 
ATOM     39  C   UNL A   1      41.845  32.326  29.871  1.00  0.00     0.031 C 
ATOM     40  C   UNL A   1      40.404  25.698  28.489  1.00  0.00     0.029 A 
ATOM     41  C   UNL A   1      41.819  26.059  28.404  1.00  0.00     0.049 A 
ATOM     42  H   UNL A   1      42.684  27.884  28.918  1.00  0.00     0.167 HD
ATOM     43  C   UNL A   1      44.271  31.983  29.565  1.00  0.00     0.031 A 
ATOM     44  C   UNL A   1      42.819  25.258  27.985  1.00  0.00     0.031 A 
ATOM     45  C   UNL A   1      45.409  31.166  29.254  1.00  0.00     0.049 A 
ATOM     46  C   UNL A   1      44.218  25.821  27.916  1.00  0.00     0.074 A 
ATOM     47  C   UNL A   1      46.745  31.522  29.245  1.00  0.00     0.029 A 
ATOM     48  N   UNL A   1      45.340  29.833  28.880  1.00  0.00    -0.354 N 
ATOM     49  N   UNL A   1      44.638  27.026  28.228  1.00  0.00    -0.248 NA
ATOM     50  C   UNL A   1      45.277  24.920  27.439  1.00  0.00     0.031 C 
ATOM     51  C   UNL A   1      47.479  30.420  28.800  1.00  0.00     0.029 A 
ATOM     52  C   UNL A   1      46.607  29.360  28.594  1.00  0.00     0.049 A 
ATOM     53  H   UNL A   1      44.513  29.303  28.825  1.00  0.00     0.167 HD
ATOM     54  C   UNL A   1      46.011  27.020  28.001  1.00  0.00     0.074 A 
ATOM     55  C   UNL A   1      46.353  25.689  27.546  1.00  0.00     0.031 C 
ATOM     56  C   UNL A   1      46.911  28.023  28.151  1.00  0.00     0.031 A 
BRANCH  43  57
ATOM     57  C   UNL A   1      44.483  33.446  29.838  1.00  0.00    -0.014 A 
ATOM     58  C   UNL A   1      44.718  33.920  31.140  1.00  0.00     0.010 A 
ATOM     59  C   UNL A   1      44.489  34.353  28.764  1.00  0.00     0.010 A 
ATOM     60  C   UNL A   1      44.937  35.282  31.366  1.00  0.00     0.020 A 
ATOM     61  C   UNL A   1      44.731  35.712  28.982  1.00  0.00     0.020 A 
ATOM     62  C   UNL A   1      44.947  36.169  30.284  1.00  0.00     0.054 A 
BRANCH  62  63
ATOM     63  S   UNL A   1      45.290  37.921  30.599  1.00  0.00     0.124 S 
ATOM     64  O   UNL A   1      46.706  37.892  30.957  1.00  0.00    -0.237 OA
ATOM     65  O   UNL A   1      44.980  38.542  29.313  1.00  0.00    -0.237 OA
ATOM     66  O   UNL A   1      44.379  38.264  31.688  1.00  0.00    -0.744 OA
ENDBRANCH  62  63
ENDBRANCH  43  57
BRANCH  44  67
ATOM     67  C   UNL A   1      42.535  23.864  27.541  1.00  0.00    -0.014 A 
ATOM     68  C   UNL A   1      42.546  22.799  28.459  1.00  0.00     0.010 A 
ATOM     69  C   UNL A   1      42.280  23.589  26.185  1.00  0.00     0.010 A 
ATOM     70  C   UNL A   1      42.332  21.485  28.027  1.00  0.00     0.020 A 
ATOM     71  C   UNL A   1      42.037  22.281  25.753  1.00  0.00     0.020 A 
ATOM     72  C   UNL A   1      42.081  21.235  26.675  1.00  0.00     0.054 A 
BRANCH  72  73
ATOM     73  S   UNL A   1      41.778  19.527  26.140  1.00  0.00     0.124 S 
ATOM     74  O   UNL A   1      42.145  18.766  27.331  1.00  0.00    -0.237 OA
ATOM     75  O   UNL A   1      40.355  19.546  25.814  1.00  0.00    -0.237 OA
ATOM     76  O   UNL A   1      42.670  19.366  24.993  1.00  0.00    -0.744 OA
ENDBRANCH  72  73
ENDBRANCH  44  67
BRANCH  56  77
ATOM     77  C   UNL A   1      48.352  27.720  27.847  1.00  0.00    -0.014 A 
ATOM     78  C   UNL A   1      48.883  27.943  26.566  1.00  0.00     0.010 A 
ATOM     79  C   UNL A   1      49.207  27.310  28.887  1.00  0.00     0.010 A 
ATOM     80  C   UNL A   1      50.245  27.747  26.325  1.00  0.00     0.020 A 
ATOM     81  C   UNL A   1      50.573  27.140  28.657  1.00  0.00     0.020 A 
ATOM     82  C   UNL A   1      51.082  27.353  27.375  1.00  0.00     0.054 A 
BRANCH  82  83
ATOM     83  S   UNL A   1      52.858  27.182  27.053  1.00  0.00     0.124 S 
ATOM     84  O   UNL A   1      53.356  28.515  27.376  1.00  0.00    -0.237 OA
ATOM     85  O   UNL A   1      53.252  26.122  27.979  1.00  0.00    -0.237 OA
ATOM     86  O   UNL A   1      52.921  26.819  25.638  1.00  0.00    -0.744 OA
ENDBRANCH  82  83
ENDBRANCH  56  77
ENDBRANCH  30  31
ENDBRANCH  23  25
ENDBRANCH  22  23
ENDBRANCH  21  22
ENDBRANCH   1  21
TORSDOF 17
ENDMDL
MODEL 3
REMARK VINA RESULT:     -10.3      2.393      3.248
REMARK SMILES O=C(C[C@H]1CN(S(=O)(=O)N2CCCCC2)CCO1)OCCOC(=O)c1ccc(-c2c3nc(c(-c4ccc(S(=O)(=O)[O-])cc4)c4ccc([nH]4)c(-c4ccc(S(=O)(=O)[O-])cc4)c4nc(c(-c5ccc(S(=O)(=O)[O-])cc5)c5ccc2[nH]5)C=C4)C=C3)cc1
REMARK SMILES IDX 20 1 19 2 2 3 1 4 3 5 4 6 5 7 18 8 6 9 17 10 16 11 7 12 8 13
REMARK SMILES IDX 9 14 10 15 11 16 15 17 12 18 14 19 13 20 21 21 22 22 23 23
REMARK SMILES IDX 24 24 25 25 26 26 84 27 27 28 83 29 28 30 29 31 30 32 77 33
REMARK SMILES IDX 31 34 82 35 76 36 78 37 32 38 81 39 75 40 74 41 33 43 63 44
REMARK SMILES IDX 44 45 62 46 45 47 48 48 61 49 79 50 46 51 47 52 60 54 80 55
REMARK SMILES IDX 49 56 34 57 35 58 43 59 36 60 42 61 37 62 38 63 39 64 40 65
REMARK SMILES IDX 41 66 64 67 65 68 73 69 66 70 72 71 67 72 68 73 69 74 70 75
REMARK SMILES IDX 71 76 50 77 51 78 59 79 52 80 58 81 53 82 54 83 55 84 56 85
REMARK SMILES IDX 57 86
REMARK H PARENT 78 42 48 53
REMARK Flexibility Score: inf
ROOT
ATOM      1  C   UNL A   1      37.051  20.916  25.136  1.00  0.00     0.274 C 
ENDROOT
BRANCH   1   2
ATOM      2  O   UNL A   1      36.354  22.125  25.502  1.00  0.00    -0.462 OA
BRANCH   2   3
ATOM      3  C   UNL A   1      35.078  22.225  25.932  1.00  0.00     0.308 C 
ATOM      4  O   UNL A   1      34.625  21.367  26.692  1.00  0.00    -0.252 OA
BRANCH   3   5
ATOM      5  C   UNL A   1      34.185  23.355  25.479  1.00  0.00     0.156 C 
BRANCH   5   6
ATOM      6  C   UNL A   1      32.866  22.987  24.770  1.00  0.00     0.144 C 
ATOM      7  C   UNL A   1      31.792  24.067  24.608  1.00  0.00     0.136 C 
ATOM      8  O   UNL A   1      33.099  22.399  23.475  1.00  0.00    -0.375 OA
ATOM      9  N   UNL A   1      32.399  25.200  23.858  1.00  0.00    -0.184 NA
ATOM     10  C   UNL A   1      33.460  23.342  22.465  1.00  0.00     0.177 C 
ATOM     11  C   UNL A   1      32.681  24.676  22.462  1.00  0.00     0.132 C 
BRANCH   9  12
ATOM     12  S   UNL A   1      31.544  26.664  23.805  1.00  0.00     0.282 S 
ATOM     13  O   UNL A   1      31.513  27.071  22.415  1.00  0.00    -0.195 OA
ATOM     14  O   UNL A   1      30.303  26.449  24.516  1.00  0.00    -0.195 OA
BRANCH  12  15
ATOM     15  N   UNL A   1      32.425  27.870  24.639  1.00  0.00    -0.189 NA
ATOM     16  C   UNL A   1      31.481  28.960  25.086  1.00  0.00     0.103 C 
ATOM     17  C   UNL A   1      33.294  27.446  25.761  1.00  0.00     0.103 C 
ATOM     18  C   UNL A   1      32.177  30.105  25.818  1.00  0.00     0.017 C 
ATOM     19  C   UNL A   1      34.043  28.608  26.395  1.00  0.00     0.017 C 
ATOM     20  C   UNL A   1      33.061  29.613  26.953  1.00  0.00     0.003 C 
ENDBRANCH  12  15
ENDBRANCH   9  12
ENDBRANCH   5   6
ENDBRANCH   3   5
ENDBRANCH   2   3
ENDBRANCH   1   2
BRANCH   1  21
ATOM     21  C   UNL A   1      38.552  21.067  25.371  1.00  0.00     0.275 C 
BRANCH  21  22
ATOM     22  O   UNL A   1      38.746  22.305  26.067  1.00  0.00    -0.458 OA
BRANCH  22  23
ATOM     23  C   UNL A   1      40.050  22.635  26.246  1.00  0.00     0.338 C 
ATOM     24  O   UNL A   1      41.017  22.047  25.794  1.00  0.00    -0.246 OA
BRANCH  23  25
ATOM     25  C   UNL A   1      40.098  23.972  26.879  1.00  0.00     0.060 A 
ATOM     26  C   UNL A   1      40.966  24.926  26.330  1.00  0.00     0.016 A 
ATOM     27  C   UNL A   1      39.260  24.309  27.947  1.00  0.00     0.016 A 
ATOM     28  C   UNL A   1      41.032  26.206  26.874  1.00  0.00     0.010 A 
ATOM     29  C   UNL A   1      39.336  25.584  28.501  1.00  0.00     0.010 A 
ATOM     30  C   UNL A   1      40.253  26.518  27.993  1.00  0.00    -0.014 A 
BRANCH  30  31
ATOM     31  C   UNL A   1      40.577  27.694  28.825  1.00  0.00     0.031 A 
ATOM     32  C   UNL A   1      41.784  27.579  29.714  1.00  0.00     0.074 A 
ATOM     33  C   UNL A   1      39.780  28.775  28.853  1.00  0.00     0.049 A 
ATOM     34  N   UNL A   1      42.192  28.377  30.662  1.00  0.00    -0.248 NA
ATOM     35  C   UNL A   1      42.634  26.388  29.520  1.00  0.00     0.031 C 
ATOM     36  C   UNL A   1      38.605  28.988  28.009  1.00  0.00     0.029 A 
ATOM     37  N   UNL A   1      39.824  29.885  29.659  1.00  0.00    -0.354 N 
ATOM     38  C   UNL A   1      43.326  27.773  31.191  1.00  0.00     0.074 A 
ATOM     39  C   UNL A   1      43.542  26.542  30.469  1.00  0.00     0.031 C 
ATOM     40  C   UNL A   1      38.017  30.143  28.367  1.00  0.00     0.029 A 
ATOM     41  C   UNL A   1      38.750  30.727  29.490  1.00  0.00     0.049 A 
ATOM     42  H   UNL A   1      40.554  30.062  30.295  1.00  0.00     0.167 HD
ATOM     43  C   UNL A   1      44.111  28.206  32.202  1.00  0.00     0.031 A 
ATOM     44  C   UNL A   1      38.387  31.816  30.196  1.00  0.00     0.031 A 
ATOM     45  C   UNL A   1      43.869  29.423  32.924  1.00  0.00     0.049 A 
ATOM     46  C   UNL A   1      39.248  32.246  31.359  1.00  0.00     0.074 A 
ATOM     47  C   UNL A   1      44.620  29.982  33.940  1.00  0.00     0.029 A 
ATOM     48  N   UNL A   1      42.781  30.256  32.714  1.00  0.00    -0.354 N 
ATOM     49  N   UNL A   1      40.358  31.705  31.808  1.00  0.00    -0.248 NA
ATOM     50  C   UNL A   1      38.808  33.429  32.113  1.00  0.00     0.031 C 
ATOM     51  C   UNL A   1      43.949  31.122  34.391  1.00  0.00     0.029 A 
ATOM     52  C   UNL A   1      42.815  31.306  33.613  1.00  0.00     0.049 A 
ATOM     53  H   UNL A   1      42.088  30.120  32.029  1.00  0.00     0.167 HD
ATOM     54  C   UNL A   1      40.757  32.494  32.883  1.00  0.00     0.074 A 
ATOM     55  C   UNL A   1      39.782  33.557  33.006  1.00  0.00     0.031 C 
ATOM     56  C   UNL A   1      41.830  32.353  33.700  1.00  0.00     0.031 A 
BRANCH  43  57
ATOM     57  C   UNL A   1      45.266  27.337  32.616  1.00  0.00    -0.014 A 
ATOM     58  C   UNL A   1      46.474  27.336  31.899  1.00  0.00     0.010 A 
ATOM     59  C   UNL A   1      45.150  26.540  33.769  1.00  0.00     0.010 A 
ATOM     60  C   UNL A   1      47.543  26.538  32.317  1.00  0.00     0.020 A 
ATOM     61  C   UNL A   1      46.223  25.759  34.205  1.00  0.00     0.020 A 
ATOM     62  C   UNL A   1      47.411  25.757  33.471  1.00  0.00     0.054 A 
BRANCH  62  63
ATOM     63  S   UNL A   1      48.832  24.775  34.023  1.00  0.00     0.124 S 
ATOM     64  O   UNL A   1      49.686  24.786  32.838  1.00  0.00    -0.237 OA
ATOM     65  O   UNL A   1      49.328  25.545  35.161  1.00  0.00    -0.237 OA
ATOM     66  O   UNL A   1      48.250  23.479  34.359  1.00  0.00    -0.744 OA
ENDBRANCH  62  63
ENDBRANCH  43  57
BRANCH  44  67
ATOM     67  C   UNL A   1      37.128  32.543  29.869  1.00  0.00    -0.014 A 
ATOM     68  C   UNL A   1      37.115  33.565  28.904  1.00  0.00     0.010 A 
ATOM     69  C   UNL A   1      35.933  32.234  30.547  1.00  0.00     0.010 A 
ATOM     70  C   UNL A   1      35.941  34.280  28.641  1.00  0.00     0.020 A 
ATOM     71  C   UNL A   1      34.751  32.926  30.267  1.00  0.00     0.020 A 
ATOM     72  C   UNL A   1      34.766  33.957  29.327  1.00  0.00     0.054 A 
BRANCH  72  73
ATOM     73  S   UNL A   1      33.248  34.877  28.950  1.00  0.00     0.124 S 
ATOM     74  O   UNL A   1      32.614  34.968  30.262  1.00  0.00    -0.237 OA
ATOM     75  O   UNL A   1      33.766  36.131  28.408  1.00  0.00    -0.237 OA
ATOM     76  O   UNL A   1      32.564  34.024  27.981  1.00  0.00    -0.744 OA
ENDBRANCH  72  73
ENDBRANCH  44  67
BRANCH  56  77
ATOM     77  C   UNL A   1      42.025  33.380  34.781  1.00  0.00    -0.014 A 
ATOM     78  C   UNL A   1      41.545  33.160  36.083  1.00  0.00     0.010 A 
ATOM     79  C   UNL A   1      42.790  34.530  34.513  1.00  0.00     0.010 A 
ATOM     80  C   UNL A   1      41.817  34.080  37.097  1.00  0.00     0.020 A 
ATOM     81  C   UNL A   1      43.088  35.437  35.530  1.00  0.00     0.020 A 
ATOM     82  C   UNL A   1      42.593  35.210  36.815  1.00  0.00     0.054 A 
BRANCH  82  83
ATOM     83  S   UNL A   1      42.996  36.348  38.168  1.00  0.00     0.124 S 
ATOM     84  O   UNL A   1      44.017  35.602  38.898  1.00  0.00    -0.237 OA
ATOM     85  O   UNL A   1      43.470  37.534  37.460  1.00  0.00    -0.237 OA
ATOM     86  O   UNL A   1      41.725  36.515  38.871  1.00  0.00    -0.744 OA
ENDBRANCH  82  83
ENDBRANCH  56  77
ENDBRANCH  30  31
ENDBRANCH  23  25
ENDBRANCH  22  23
ENDBRANCH  21  22
ENDBRANCH   1  21
TORSDOF 17
ENDMDL
