MODEL 1
REMARK VINA RESULT:     -13.1      0.000      0.000
REMARK SMILES Cc1cccc(-n2ncc(C(=O)Nc3cccc(C(=O)OCCOC(=O)c4ccc(-c5c6nc(c(-c7ccc(S(=O)(=O)[O-])cc7)c7ccc([nH]7)c(-c7ccc(S(=O)(=O)[O-])cc7)c7nc(c(-c8ccc(S(=O)(=O)[O-])cc8)c8ccc5[nH]8)C=C7)C=C6)cc4)c3C)c2C)c1
REMARK SMILES IDX 22 1 21 2 19 3 20 4 18 5 14 6 15 7 87 8 16 9 88 10 17 11
REMARK SMILES IDX 13 12 11 13 12 14 10 16 7 17 8 18 89 19 9 20 90 21 6 22 1 23
REMARK SMILES IDX 2 24 3 25 91 26 4 27 5 28 23 29 24 30 25 31 26 32 27 33
REMARK SMILES IDX 28 34 86 35 29 36 85 37 30 38 31 39 32 40 79 41 33 42 84 43
REMARK SMILES IDX 78 44 80 45 34 46 83 47 77 48 76 49 35 51 65 52 46 53 64 54
REMARK SMILES IDX 47 55 50 56 63 57 81 58 48 59 49 60 62 62 82 63 51 64 36 65
REMARK SMILES IDX 37 66 45 67 38 68 44 69 39 70 40 71 41 72 42 73 43 74 66 75
REMARK SMILES IDX 67 76 75 77 68 78 74 79 69 80 70 81 71 82 72 83 73 84 52 85
REMARK SMILES IDX 53 86 61 87 54 88 60 89 55 90 56 91 57 92 58 93 59 94
REMARK H PARENT 13 15 80 50 50 61
REMARK Flexibility Score: inf
ROOT
ATOM      1  C   UNL A   1      32.127  31.202  26.514  1.00  0.00     0.275 C 
ENDROOT
BRANCH   1   2
ATOM      2  O   UNL A   1      31.387  30.208  25.768  1.00  0.00    -0.458 OA
BRANCH   2   3
ATOM      3  C   UNL A   1      32.078  29.328  25.013  1.00  0.00     0.338 C 
ATOM      4  O   UNL A   1      33.292  29.356  24.798  1.00  0.00    -0.246 OA
BRANCH   3   5
ATOM      5  C   UNL A   1      31.198  28.187  24.655  1.00  0.00     0.065 A 
ATOM      6  C   UNL A   1      30.086  26.044  25.011  1.00  0.00     0.045 A 
ATOM      7  C   UNL A   1      29.272  26.312  23.904  1.00  0.00     0.026 A 
ATOM      8  C   UNL A   1      31.004  27.032  25.455  1.00  0.00    -0.013 A 
ATOM      9  C   UNL A   1      29.469  27.449  23.126  1.00  0.00     0.003 A 
ATOM     10  C   UNL A   1      31.762  26.823  26.741  1.00  0.00     0.047 C 
ATOM     11  C   UNL A   1      30.450  28.365  23.479  1.00  0.00     0.016 A 
BRANCH   6  12
ATOM     12  N   UNL A   1      29.967  24.831  25.728  1.00  0.00    -0.322 N 
ATOM     13  C   UNL A   1      30.663  23.639  25.679  1.00  0.00     0.259 C 
ATOM     14  O   UNL A   1      30.117  22.644  26.163  1.00  0.00    -0.269 OA
ATOM     15  H   UNL A   1      29.243  24.837  26.395  1.00  0.00     0.170 HD
BRANCH  13  16
ATOM     16  C   UNL A   1      32.018  23.563  25.141  1.00  0.00     0.081 A 
ATOM     17  N   UNL A   1      34.219  23.251  24.943  1.00  0.00    -0.237 N 
ATOM     18  N   UNL A   1      33.812  23.682  23.724  1.00  0.00    -0.175 NA
ATOM     19  C   UNL A   1      33.188  23.340  25.869  1.00  0.00     0.054 A 
ATOM     20  C   UNL A   1      32.500  23.859  23.850  1.00  0.00     0.149 A 
ATOM     21  C   UNL A   1      33.381  23.342  27.347  1.00  0.00     0.068 C 
BRANCH  17  22
ATOM     22  C   UNL A   1      35.555  22.792  25.111  1.00  0.00     0.065 A 
ATOM     23  C   UNL A   1      37.469  19.525  24.682  1.00  0.00     0.044 C 
ATOM     24  C   UNL A   1      37.150  20.956  25.004  1.00  0.00    -0.049 A 
ATOM     25  C   UNL A   1      38.170  21.837  25.381  1.00  0.00     0.003 A 
ATOM     26  C   UNL A   1      35.837  21.435  24.900  1.00  0.00     0.031 A 
ATOM     27  C   UNL A   1      37.886  23.179  25.643  1.00  0.00     0.002 A 
ATOM     28  C   UNL A   1      36.581  23.660  25.503  1.00  0.00     0.028 A 
ENDBRANCH  17  22
ENDBRANCH  13  16
ENDBRANCH   6  12
ENDBRANCH   3   5
ENDBRANCH   2   3
ENDBRANCH   1   2
BRANCH   1  29
ATOM     29  C   UNL A   1      33.230  30.678  27.465  1.00  0.00     0.275 C 
BRANCH  29  30
ATOM     30  O   UNL A   1      34.478  31.371  27.334  1.00  0.00    -0.458 OA
BRANCH  30  31
ATOM     31  C   UNL A   1      35.012  31.709  28.523  1.00  0.00     0.338 C 
ATOM     32  O   UNL A   1      34.408  32.283  29.445  1.00  0.00    -0.246 OA
BRANCH  31  33
ATOM     33  C   UNL A   1      36.190  30.865  28.748  1.00  0.00     0.060 A 
ATOM     34  C   UNL A   1      36.315  30.130  29.937  1.00  0.00     0.016 A 
ATOM     35  C   UNL A   1      37.006  30.593  27.637  1.00  0.00     0.016 A 
ATOM     36  C   UNL A   1      37.309  29.176  30.041  1.00  0.00     0.010 A 
ATOM     37  C   UNL A   1      37.854  29.529  27.664  1.00  0.00     0.010 A 
ATOM     38  C   UNL A   1      38.091  28.947  28.906  1.00  0.00    -0.014 A 
BRANCH  38  39
ATOM     39  C   UNL A   1      39.490  28.608  29.024  1.00  0.00     0.031 A 
ATOM     40  C   UNL A   1      39.894  27.237  28.775  1.00  0.00     0.074 A 
ATOM     41  C   UNL A   1      40.261  29.702  29.224  1.00  0.00     0.049 A 
ATOM     42  N   UNL A   1      40.741  26.586  29.488  1.00  0.00    -0.248 NA
ATOM     43  C   UNL A   1      39.269  26.433  27.724  1.00  0.00     0.031 C 
ATOM     44  C   UNL A   1      41.692  29.911  29.196  1.00  0.00     0.029 A 
ATOM     45  N   UNL A   1      39.780  30.936  29.649  1.00  0.00    -0.354 N 
ATOM     46  C   UNL A   1      41.111  25.530  28.688  1.00  0.00     0.074 A 
ATOM     47  C   UNL A   1      39.999  25.317  27.791  1.00  0.00     0.031 C 
ATOM     48  C   UNL A   1      41.957  31.057  29.868  1.00  0.00     0.029 A 
ATOM     49  C   UNL A   1      40.709  31.577  30.440  1.00  0.00     0.049 A 
ATOM     50  H   UNL A   1      38.895  31.302  29.418  1.00  0.00     0.167 HD
ATOM     51  C   UNL A   1      42.436  25.212  28.584  1.00  0.00     0.031 A 
ATOM     52  C   UNL A   1      40.390  31.646  31.771  1.00  0.00     0.031 A 
ATOM     53  C   UNL A   1      43.261  26.134  29.390  1.00  0.00     0.049 A 
ATOM     54  C   UNL A   1      41.099  30.549  32.562  1.00  0.00     0.074 A 
ATOM     55  C   UNL A   1      44.162  27.145  29.086  1.00  0.00     0.029 A 
ATOM     56  N   UNL A   1      42.919  26.349  30.723  1.00  0.00    -0.354 N 
ATOM     57  N   UNL A   1      41.827  29.612  32.010  1.00  0.00    -0.248 NA
ATOM     58  C   UNL A   1      41.055  30.404  34.016  1.00  0.00     0.031 C 
ATOM     59  C   UNL A   1      44.322  27.976  30.243  1.00  0.00     0.029 A 
ATOM     60  C   UNL A   1      43.519  27.477  31.251  1.00  0.00     0.049 A 
ATOM     61  H   UNL A   1      42.315  25.761  31.233  1.00  0.00     0.167 HD
ATOM     62  C   UNL A   1      42.387  28.809  32.958  1.00  0.00     0.074 A 
ATOM     63  C   UNL A   1      41.844  29.328  34.205  1.00  0.00     0.031 C 
ATOM     64  C   UNL A   1      43.259  27.799  32.654  1.00  0.00     0.031 A 
BRANCH  51  65
ATOM     65  C   UNL A   1      42.938  24.334  27.454  1.00  0.00    -0.014 A 
ATOM     66  C   UNL A   1      42.923  22.932  27.570  1.00  0.00     0.010 A 
ATOM     67  C   UNL A   1      43.466  24.847  26.248  1.00  0.00     0.010 A 
ATOM     68  C   UNL A   1      43.500  22.099  26.595  1.00  0.00     0.020 A 
ATOM     69  C   UNL A   1      44.092  24.035  25.290  1.00  0.00     0.020 A 
ATOM     70  C   UNL A   1      44.107  22.658  25.473  1.00  0.00     0.054 A 
BRANCH  70  71
ATOM     71  S   UNL A   1      44.889  21.572  24.250  1.00  0.00     0.124 S 
ATOM     72  O   UNL A   1      46.305  21.668  24.596  1.00  0.00    -0.237 OA
ATOM     73  O   UNL A   1      44.257  20.286  24.530  1.00  0.00    -0.237 OA
ATOM     74  O   UNL A   1      44.528  22.176  22.968  1.00  0.00    -0.744 OA
ENDBRANCH  70  71
ENDBRANCH  51  65
BRANCH  52  75
ATOM     75  C   UNL A   1      39.039  32.280  32.047  1.00  0.00    -0.014 A 
ATOM     76  C   UNL A   1      38.084  31.486  32.737  1.00  0.00     0.010 A 
ATOM     77  C   UNL A   1      38.712  33.636  31.861  1.00  0.00     0.010 A 
ATOM     78  C   UNL A   1      36.916  32.024  33.298  1.00  0.00     0.020 A 
ATOM     79  C   UNL A   1      37.518  34.182  32.402  1.00  0.00     0.020 A 
ATOM     80  C   UNL A   1      36.641  33.377  33.138  1.00  0.00     0.054 A 
BRANCH  80  81
ATOM     81  S   UNL A   1      35.188  34.063  34.005  1.00  0.00     0.124 S 
ATOM     82  O   UNL A   1      35.528  33.828  35.405  1.00  0.00    -0.237 OA
ATOM     83  O   UNL A   1      35.216  35.464  33.591  1.00  0.00    -0.237 OA
ATOM     84  O   UNL A   1      34.080  33.260  33.493  1.00  0.00    -0.744 OA
ENDBRANCH  80  81
ENDBRANCH  52  75
BRANCH  64  85
ATOM     85  C   UNL A   1      43.966  26.964  33.688  1.00  0.00    -0.014 A 
ATOM     86  C   UNL A   1      43.499  25.714  34.114  1.00  0.00     0.010 A 
ATOM     87  C   UNL A   1      45.079  27.506  34.371  1.00  0.00     0.010 A 
ATOM     88  C   UNL A   1      44.174  24.999  35.112  1.00  0.00     0.020 A 
ATOM     89  C   UNL A   1      45.742  26.818  35.381  1.00  0.00     0.020 A 
ATOM     90  C   UNL A   1      45.301  25.551  35.726  1.00  0.00     0.054 A 
BRANCH  90  91
ATOM     91  S   UNL A   1      46.168  24.621  37.009  1.00  0.00     0.124 S 
ATOM     92  O   UNL A   1      46.656  23.453  36.280  1.00  0.00    -0.237 OA
ATOM     93  O   UNL A   1      47.191  25.574  37.430  1.00  0.00    -0.237 OA
ATOM     94  O   UNL A   1      45.129  24.341  37.999  1.00  0.00    -0.744 OA
ENDBRANCH  90  91
ENDBRANCH  64  85
ENDBRANCH  38  39
ENDBRANCH  31  33
ENDBRANCH  30  31
ENDBRANCH  29  30
ENDBRANCH   1  29
TORSDOF 17
ENDMDL
MODEL 2
REMARK VINA RESULT:     -12.7      1.737      2.506
REMARK SMILES Cc1cccc(-n2ncc(C(=O)Nc3cccc(C(=O)OCCOC(=O)c4ccc(-c5c6nc(c(-c7ccc(S(=O)(=O)[O-])cc7)c7ccc([nH]7)c(-c7ccc(S(=O)(=O)[O-])cc7)c7nc(c(-c8ccc(S(=O)(=O)[O-])cc8)c8ccc5[nH]8)C=C7)C=C6)cc4)c3C)c2C)c1
REMARK SMILES IDX 22 1 21 2 19 3 20 4 18 5 14 6 15 7 87 8 16 9 88 10 17 11
REMARK SMILES IDX 13 12 11 13 12 14 10 16 7 17 8 18 89 19 9 20 90 21 6 22 1 23
REMARK SMILES IDX 2 24 3 25 91 26 4 27 5 28 23 29 24 30 25 31 26 32 27 33
REMARK SMILES IDX 28 34 86 35 29 36 85 37 30 38 31 39 32 40 79 41 33 42 84 43
REMARK SMILES IDX 78 44 80 45 34 46 83 47 77 48 76 49 35 51 65 52 46 53 64 54
REMARK SMILES IDX 47 55 50 56 63 57 81 58 48 59 49 60 62 62 82 63 51 64 36 65
REMARK SMILES IDX 37 66 45 67 38 68 44 69 39 70 40 71 41 72 42 73 43 74 66 75
REMARK SMILES IDX 67 76 75 77 68 78 74 79 69 80 70 81 71 82 72 83 73 84 52 85
REMARK SMILES IDX 53 86 61 87 54 88 60 89 55 90 56 91 57 92 58 93 59 94
REMARK H PARENT 13 15 80 50 50 61
REMARK Flexibility Score: inf
ROOT
ATOM      1  C   UNL A   1      34.170  30.201  27.146  1.00  0.00     0.275 C 
ENDROOT
BRANCH   1   2
ATOM      2  O   UNL A   1      33.471  29.301  26.256  1.00  0.00    -0.458 OA
BRANCH   2   3
ATOM      3  C   UNL A   1      32.126  29.387  26.183  1.00  0.00     0.338 C 
ATOM      4  O   UNL A   1      31.408  30.107  26.881  1.00  0.00    -0.246 OA
BRANCH   3   5
ATOM      5  C   UNL A   1      31.648  28.652  24.985  1.00  0.00     0.065 A 
ATOM      6  C   UNL A   1      30.702  26.755  23.776  1.00  0.00     0.045 A 
ATOM      7  C   UNL A   1      30.530  27.584  22.662  1.00  0.00     0.026 A 
ATOM      8  C   UNL A   1      31.183  27.312  24.989  1.00  0.00    -0.013 A 
ATOM      9  C   UNL A   1      30.987  28.899  22.667  1.00  0.00     0.003 A 
ATOM     10  C   UNL A   1      31.213  26.467  26.238  1.00  0.00     0.047 C 
ATOM     11  C   UNL A   1      31.575  29.420  23.811  1.00  0.00     0.016 A 
BRANCH   6  12
ATOM     12  N   UNL A   1      30.348  25.386  23.728  1.00  0.00    -0.322 N 
ATOM     13  C   UNL A   1      31.059  24.243  23.422  1.00  0.00     0.259 C 
ATOM     14  O   UNL A   1      30.412  23.238  23.117  1.00  0.00    -0.269 OA
ATOM     15  H   UNL A   1      29.406  25.215  23.959  1.00  0.00     0.170 HD
BRANCH  13  16
ATOM     16  C   UNL A   1      32.516  24.196  23.518  1.00  0.00     0.081 A 
ATOM     17  N   UNL A   1      34.596  23.695  24.154  1.00  0.00    -0.237 N 
ATOM     18  N   UNL A   1      34.740  24.598  23.155  1.00  0.00    -0.175 NA
ATOM     19  C   UNL A   1      33.261  23.566  24.516  1.00  0.00     0.054 A 
ATOM     20  C   UNL A   1      33.497  24.886  22.778  1.00  0.00     0.149 A 
ATOM     21  C   UNL A   1      32.790  22.992  25.808  1.00  0.00     0.068 C 
BRANCH  17  22
ATOM     22  C   UNL A   1      35.745  23.035  24.671  1.00  0.00     0.065 A 
ATOM     23  C   UNL A   1      37.099  19.477  24.825  1.00  0.00     0.044 C 
ATOM     24  C   UNL A   1      36.967  20.959  25.020  1.00  0.00    -0.049 A 
ATOM     25  C   UNL A   1      38.000  21.684  25.625  1.00  0.00     0.003 A 
ATOM     26  C   UNL A   1      35.827  21.639  24.572  1.00  0.00     0.031 A 
ATOM     27  C   UNL A   1      37.901  23.069  25.773  1.00  0.00     0.002 A 
ATOM     28  C   UNL A   1      36.778  23.747  25.292  1.00  0.00     0.028 A 
ENDBRANCH  17  22
ENDBRANCH  13  16
ENDBRANCH   6  12
ENDBRANCH   3   5
ENDBRANCH   2   3
ENDBRANCH   1   2
BRANCH   1  29
ATOM     29  C   UNL A   1      35.584  29.768  27.602  1.00  0.00     0.275 C 
BRANCH  29  30
ATOM     30  O   UNL A   1      36.011  30.389  28.821  1.00  0.00    -0.458 OA
BRANCH  30  31
ATOM     31  C   UNL A   1      37.229  30.952  28.718  1.00  0.00     0.338 C 
ATOM     32  O   UNL A   1      37.485  32.152  28.914  1.00  0.00    -0.246 OA
BRANCH  31  33
ATOM     33  C   UNL A   1      38.232  29.892  28.858  1.00  0.00     0.060 A 
ATOM     34  C   UNL A   1      38.153  28.981  29.923  1.00  0.00     0.016 A 
ATOM     35  C   UNL A   1      39.066  29.646  27.753  1.00  0.00     0.016 A 
ATOM     36  C   UNL A   1      38.965  27.863  29.919  1.00  0.00     0.010 A 
ATOM     37  C   UNL A   1      39.721  28.459  27.650  1.00  0.00     0.010 A 
ATOM     38  C   UNL A   1      39.774  27.669  28.795  1.00  0.00    -0.014 A 
BRANCH  38  39
ATOM     39  C   UNL A   1      41.086  27.078  28.917  1.00  0.00     0.031 A 
ATOM     40  C   UNL A   1      41.246  25.675  28.581  1.00  0.00     0.074 A 
ATOM     41  C   UNL A   1      42.031  28.000  29.209  1.00  0.00     0.049 A 
ATOM     42  N   UNL A   1      41.941  24.839  29.263  1.00  0.00    -0.248 NA
ATOM     43  C   UNL A   1      40.523  25.067  27.464  1.00  0.00     0.031 C 
ATOM     44  C   UNL A   1      43.477  27.950  29.225  1.00  0.00     0.029 A 
ATOM     45  N   UNL A   1      41.764  29.270  29.710  1.00  0.00    -0.354 N 
ATOM     46  C   UNL A   1      42.143  23.787  28.400  1.00  0.00     0.074 A 
ATOM     47  C   UNL A   1      41.041  23.837  27.467  1.00  0.00     0.031 C 
ATOM     48  C   UNL A   1      43.920  28.984  29.980  1.00  0.00     0.029 A 
ATOM     49  C   UNL A   1      42.766  29.681  30.562  1.00  0.00     0.049 A 
ATOM     50  H   UNL A   1      40.966  29.803  29.487  1.00  0.00     0.167 HD
ATOM     51  C   UNL A   1      43.393  23.244  28.300  1.00  0.00     0.031 A 
ATOM     52  C   UNL A   1      42.422  29.719  31.888  1.00  0.00     0.031 A 
ATOM     53  C   UNL A   1      44.343  23.949  29.185  1.00  0.00     0.049 A 
ATOM     54  C   UNL A   1      42.898  28.464  32.615  1.00  0.00     0.074 A 
ATOM     55  C   UNL A   1      45.418  24.799  28.971  1.00  0.00     0.029 A 
ATOM     56  N   UNL A   1      44.002  24.134  30.523  1.00  0.00    -0.354 N 
ATOM     57  N   UNL A   1      43.466  27.449  32.013  1.00  0.00    -0.248 NA
ATOM     58  C   UNL A   1      42.783  28.234  34.053  1.00  0.00     0.031 C 
ATOM     59  C   UNL A   1      45.686  25.510  30.187  1.00  0.00     0.029 A 
ATOM     60  C   UNL A   1      44.775  25.099  31.141  1.00  0.00     0.049 A 
ATOM     61  H   UNL A   1      43.287  23.632  30.978  1.00  0.00     0.167 HD
ATOM     62  C   UNL A   1      43.843  26.498  32.913  1.00  0.00     0.074 A 
ATOM     63  C   UNL A   1      43.361  27.023  34.182  1.00  0.00     0.031 C 
ATOM     64  C   UNL A   1      44.531  25.370  32.557  1.00  0.00     0.031 A 
BRANCH  51  65
ATOM     65  C   UNL A   1      43.768  22.366  27.122  1.00  0.00    -0.014 A 
ATOM     66  C   UNL A   1      42.901  21.353  26.675  1.00  0.00     0.010 A 
ATOM     67  C   UNL A   1      44.991  22.483  26.424  1.00  0.00     0.010 A 
ATOM     68  C   UNL A   1      43.276  20.442  25.671  1.00  0.00     0.020 A 
ATOM     69  C   UNL A   1      45.402  21.552  25.458  1.00  0.00     0.020 A 
ATOM     70  C   UNL A   1      44.538  20.530  25.088  1.00  0.00     0.054 A 
BRANCH  70  71
ATOM     71  S   UNL A   1      45.024  19.318  23.830  1.00  0.00     0.124 S 
ATOM     72  O   UNL A   1      44.519  19.918  22.597  1.00  0.00    -0.237 OA
ATOM     73  O   UNL A   1      46.477  19.292  23.971  1.00  0.00    -0.237 OA
ATOM     74  O   UNL A   1      44.337  18.095  24.244  1.00  0.00    -0.744 OA
ENDBRANCH  70  71
ENDBRANCH  51  65
BRANCH  52  75
ATOM     75  C   UNL A   1      41.197  30.566  32.180  1.00  0.00    -0.014 A 
ATOM     76  C   UNL A   1      40.080  29.905  32.759  1.00  0.00     0.010 A 
ATOM     77  C   UNL A   1      41.132  31.970  32.117  1.00  0.00     0.010 A 
ATOM     78  C   UNL A   1      39.003  30.598  33.331  1.00  0.00     0.020 A 
ATOM     79  C   UNL A   1      40.032  32.678  32.669  1.00  0.00     0.020 A 
ATOM     80  C   UNL A   1      38.987  31.987  33.295  1.00  0.00     0.054 A 
BRANCH  80  81
ATOM     81  S   UNL A   1      37.642  32.851  34.177  1.00  0.00     0.124 S 
ATOM     82  O   UNL A   1      36.619  32.961  33.142  1.00  0.00    -0.237 OA
ATOM     83  O   UNL A   1      37.330  31.915  35.255  1.00  0.00    -0.237 OA
ATOM     84  O   UNL A   1      38.258  34.114  34.576  1.00  0.00    -0.744 OA
ENDBRANCH  80  81
ENDBRANCH  52  75
BRANCH  64  85
ATOM     85  C   UNL A   1      45.044  24.356  33.544  1.00  0.00    -0.014 A 
ATOM     86  C   UNL A   1      44.239  23.358  34.107  1.00  0.00     0.010 A 
ATOM     87  C   UNL A   1      46.362  24.481  34.041  1.00  0.00     0.010 A 
ATOM     88  C   UNL A   1      44.759  22.467  35.055  1.00  0.00     0.020 A 
ATOM     89  C   UNL A   1      46.883  23.620  35.001  1.00  0.00     0.020 A 
ATOM     90  C   UNL A   1      46.084  22.596  35.481  1.00  0.00     0.054 A 
BRANCH  90  91
ATOM     91  S   UNL A   1      46.748  21.440  36.700  1.00  0.00     0.124 S 
ATOM     92  O   UNL A   1      46.850  22.267  37.900  1.00  0.00    -0.237 OA
ATOM     93  O   UNL A   1      45.713  20.410  36.730  1.00  0.00    -0.237 OA
ATOM     94  O   UNL A   1      48.027  21.024  36.127  1.00  0.00    -0.744 OA
ENDBRANCH  90  91
ENDBRANCH  64  85
ENDBRANCH  38  39
ENDBRANCH  31  33
ENDBRANCH  30  31
ENDBRANCH  29  30
ENDBRANCH   1  29
TORSDOF 17
ENDMDL
MODEL 3
REMARK VINA RESULT:     -12.6      3.541     10.149
REMARK SMILES Cc1cccc(-n2ncc(C(=O)Nc3cccc(C(=O)OCCOC(=O)c4ccc(-c5c6nc(c(-c7ccc(S(=O)(=O)[O-])cc7)c7ccc([nH]7)c(-c7ccc(S(=O)(=O)[O-])cc7)c7nc(c(-c8ccc(S(=O)(=O)[O-])cc8)c8ccc5[nH]8)C=C7)C=C6)cc4)c3C)c2C)c1
REMARK SMILES IDX 22 1 21 2 19 3 20 4 18 5 14 6 15 7 87 8 16 9 88 10 17 11
REMARK SMILES IDX 13 12 11 13 12 14 10 16 7 17 8 18 89 19 9 20 90 21 6 22 1 23
REMARK SMILES IDX 2 24 3 25 91 26 4 27 5 28 23 29 24 30 25 31 26 32 27 33
REMARK SMILES IDX 28 34 86 35 29 36 85 37 30 38 31 39 32 40 79 41 33 42 84 43
REMARK SMILES IDX 78 44 80 45 34 46 83 47 77 48 76 49 35 51 65 52 46 53 64 54
REMARK SMILES IDX 47 55 50 56 63 57 81 58 48 59 49 60 62 62 82 63 51 64 36 65
REMARK SMILES IDX 37 66 45 67 38 68 44 69 39 70 40 71 41 72 42 73 43 74 66 75
REMARK SMILES IDX 67 76 75 77 68 78 74 79 69 80 70 81 71 82 72 83 73 84 52 85
REMARK SMILES IDX 53 86 61 87 54 88 60 89 55 90 56 91 57 92 58 93 59 94
REMARK H PARENT 13 15 80 50 50 61
REMARK Flexibility Score: inf
ROOT
ATOM      1  C   UNL A   1      37.818  20.689  25.020  1.00  0.00     0.275 C 
ENDROOT
BRANCH   1   2
ATOM      2  O   UNL A   1      36.720  21.602  25.251  1.00  0.00    -0.458 OA
BRANCH   2   3
ATOM      3  C   UNL A   1      36.127  22.175  24.182  1.00  0.00     0.338 C 
ATOM      4  O   UNL A   1      36.701  22.581  23.168  1.00  0.00    -0.246 OA
BRANCH   3   5
ATOM      5  C   UNL A   1      34.654  22.048  24.306  1.00  0.00     0.065 A 
ATOM      6  C   UNL A   1      32.328  22.548  23.759  1.00  0.00     0.045 A 
ATOM      7  C   UNL A   1      31.940  21.424  24.498  1.00  0.00     0.026 A 
ATOM      8  C   UNL A   1      33.710  22.819  23.581  1.00  0.00    -0.013 A 
ATOM      9  C   UNL A   1      32.873  20.671  25.205  1.00  0.00     0.003 A 
ATOM     10  C   UNL A   1      34.140  23.926  22.651  1.00  0.00     0.047 C 
ATOM     11  C   UNL A   1      34.220  21.002  25.138  1.00  0.00     0.016 A 
BRANCH   6  12
ATOM     12  N   UNL A   1      31.368  23.382  23.142  1.00  0.00    -0.322 N 
ATOM     13  C   UNL A   1      30.668  24.490  23.577  1.00  0.00     0.259 C 
ATOM     14  O   UNL A   1      29.647  24.795  22.956  1.00  0.00    -0.269 OA
ATOM     15  H   UNL A   1      31.156  23.120  22.217  1.00  0.00     0.170 HD
BRANCH  13  16
ATOM     16  C   UNL A   1      31.146  25.315  24.684  1.00  0.00     0.081 A 
ATOM     17  N   UNL A   1      32.074  26.962  25.870  1.00  0.00    -0.237 N 
ATOM     18  N   UNL A   1      31.639  26.067  26.789  1.00  0.00    -0.175 NA
ATOM     19  C   UNL A   1      31.950  26.452  24.583  1.00  0.00     0.054 A 
ATOM     20  C   UNL A   1      31.083  25.092  26.074  1.00  0.00     0.149 A 
ATOM     21  C   UNL A   1      32.681  26.974  23.395  1.00  0.00     0.068 C 
BRANCH  17  22
ATOM     22  C   UNL A   1      32.565  28.225  26.303  1.00  0.00     0.065 A 
ATOM     23  C   UNL A   1      31.287  31.809  26.502  1.00  0.00     0.044 C 
ATOM     24  C   UNL A   1      32.188  30.612  26.595  1.00  0.00    -0.049 A 
ATOM     25  C   UNL A   1      33.456  30.729  27.175  1.00  0.00     0.003 A 
ATOM     26  C   UNL A   1      31.760  29.361  26.132  1.00  0.00     0.031 A 
ATOM     27  C   UNL A   1      34.282  29.610  27.301  1.00  0.00     0.002 A 
ATOM     28  C   UNL A   1      33.838  28.357  26.871  1.00  0.00     0.028 A 
ENDBRANCH  17  22
ENDBRANCH  13  16
ENDBRANCH   6  12
ENDBRANCH   3   5
ENDBRANCH   2   3
ENDBRANCH   1   2
BRANCH   1  29
ATOM     29  C   UNL A   1      39.156  21.020  25.726  1.00  0.00     0.275 C 
BRANCH  29  30
ATOM     30  O   UNL A   1      39.297  22.404  26.068  1.00  0.00    -0.458 OA
BRANCH  30  31
ATOM     31  C   UNL A   1      40.558  22.728  26.412  1.00  0.00     0.338 C 
ATOM     32  O   UNL A   1      41.585  22.183  25.974  1.00  0.00    -0.246 OA
BRANCH  31  33
ATOM     33  C   UNL A   1      40.547  24.097  26.939  1.00  0.00     0.060 A 
ATOM     34  C   UNL A   1      40.948  25.169  26.126  1.00  0.00     0.016 A 
ATOM     35  C   UNL A   1      39.854  24.316  28.141  1.00  0.00     0.016 A 
ATOM     36  C   UNL A   1      40.723  26.463  26.555  1.00  0.00     0.010 A 
ATOM     37  C   UNL A   1      39.460  25.574  28.476  1.00  0.00     0.010 A 
ATOM     38  C   UNL A   1      40.030  26.622  27.759  1.00  0.00    -0.014 A 
BRANCH  38  39
ATOM     39  C   UNL A   1      40.338  27.713  28.655  1.00  0.00     0.031 A 
ATOM     40  C   UNL A   1      39.456  28.864  28.673  1.00  0.00     0.074 A 
ATOM     41  C   UNL A   1      41.374  27.417  29.474  1.00  0.00     0.049 A 
ATOM     42  N   UNL A   1      39.852  30.085  28.715  1.00  0.00    -0.248 NA
ATOM     43  C   UNL A   1      38.005  28.720  28.536  1.00  0.00     0.031 C 
ATOM     44  C   UNL A   1      41.911  28.069  30.648  1.00  0.00     0.029 A 
ATOM     45  N   UNL A   1      42.282  26.387  29.253  1.00  0.00    -0.354 N 
ATOM     46  C   UNL A   1      38.739  30.786  29.117  1.00  0.00     0.074 A 
ATOM     47  C   UNL A   1      37.609  29.983  28.706  1.00  0.00     0.031 C 
ATOM     48  C   UNL A   1      43.175  27.617  30.832  1.00  0.00     0.029 A 
ATOM     49  C   UNL A   1      43.533  26.730  29.718  1.00  0.00     0.049 A 
ATOM     50  H   UNL A   1      42.061  25.529  28.823  1.00  0.00     0.167 HD
ATOM     51  C   UNL A   1      38.872  31.738  30.087  1.00  0.00     0.031 A 
ATOM     52  C   UNL A   1      44.466  26.979  28.746  1.00  0.00     0.031 A 
ATOM     53  C   UNL A   1      40.272  31.820  30.553  1.00  0.00     0.049 A 
ATOM     54  C   UNL A   1      44.612  28.478  28.497  1.00  0.00     0.074 A 
ATOM     55  C   UNL A   1      40.923  31.477  31.729  1.00  0.00     0.029 A 
ATOM     56  N   UNL A   1      41.286  31.949  29.607  1.00  0.00    -0.354 N 
ATOM     57  N   UNL A   1      43.862  29.385  29.071  1.00  0.00    -0.248 NA
ATOM     58  C   UNL A   1      45.591  29.086  27.598  1.00  0.00     0.031 C 
ATOM     59  C   UNL A   1      42.327  31.375  31.460  1.00  0.00     0.029 A 
ATOM     60  C   UNL A   1      42.534  31.650  30.121  1.00  0.00     0.049 A 
ATOM     61  H   UNL A   1      41.130  32.223  28.674  1.00  0.00     0.167 HD
ATOM     62  C   UNL A   1      44.255  30.639  28.712  1.00  0.00     0.074 A 
ATOM     63  C   UNL A   1      45.326  30.399  27.757  1.00  0.00     0.031 C 
ATOM     64  C   UNL A   1      43.689  31.771  29.232  1.00  0.00     0.031 A 
BRANCH  51  65
ATOM     65  C   UNL A   1      37.660  32.263  30.833  1.00  0.00    -0.014 A 
ATOM     66  C   UNL A   1      36.793  33.193  30.233  1.00  0.00     0.010 A 
ATOM     67  C   UNL A   1      37.339  31.885  32.157  1.00  0.00     0.010 A 
ATOM     68  C   UNL A   1      35.739  33.793  30.944  1.00  0.00     0.020 A 
ATOM     69  C   UNL A   1      36.325  32.511  32.897  1.00  0.00     0.020 A 
ATOM     70  C   UNL A   1      35.528  33.469  32.282  1.00  0.00     0.054 A 
BRANCH  70  71
ATOM     71  S   UNL A   1      34.195  34.288  33.198  1.00  0.00     0.124 S 
ATOM     72  O   UNL A   1      33.172  33.248  33.272  1.00  0.00    -0.237 OA
ATOM     73  O   UNL A   1      34.848  34.623  34.460  1.00  0.00    -0.237 OA
ATOM     74  O   UNL A   1      33.848  35.432  32.355  1.00  0.00    -0.744 OA
ENDBRANCH  70  71
ENDBRANCH  51  65
BRANCH  52  75
ATOM     75  C   UNL A   1      44.641  25.840  27.757  1.00  0.00    -0.014 A 
ATOM     76  C   UNL A   1      44.477  26.153  26.381  1.00  0.00     0.010 A 
ATOM     77  C   UNL A   1      45.142  24.560  28.055  1.00  0.00     0.010 A 
ATOM     78  C   UNL A   1      44.876  25.283  25.355  1.00  0.00     0.020 A 
ATOM     79  C   UNL A   1      45.523  23.663  27.022  1.00  0.00     0.020 A 
ATOM     80  C   UNL A   1      45.410  24.042  25.679  1.00  0.00     0.054 A 
BRANCH  80  81
ATOM     81  S   UNL A   1      46.050  23.004  24.320  1.00  0.00     0.124 S 
ATOM     82  O   UNL A   1      46.480  21.803  25.029  1.00  0.00    -0.237 OA
ATOM     83  O   UNL A   1      44.866  22.833  23.480  1.00  0.00    -0.237 OA
ATOM     84  O   UNL A   1      47.129  23.813  23.758  1.00  0.00    -0.744 OA
ENDBRANCH  80  81
ENDBRANCH  52  75
BRANCH  64  85
ATOM     85  C   UNL A   1      44.171  33.165  28.927  1.00  0.00    -0.014 A 
ATOM     86  C   UNL A   1      44.267  33.675  27.627  1.00  0.00     0.010 A 
ATOM     87  C   UNL A   1      44.682  33.964  29.976  1.00  0.00     0.010 A 
ATOM     88  C   UNL A   1      44.764  34.965  27.398  1.00  0.00     0.020 A 
ATOM     89  C   UNL A   1      45.202  35.235  29.759  1.00  0.00     0.020 A 
ATOM     90  C   UNL A   1      45.213  35.741  28.470  1.00  0.00     0.054 A 
BRANCH  90  91
ATOM     91  S   UNL A   1      45.848  37.404  28.167  1.00  0.00     0.124 S 
ATOM     92  O   UNL A   1      45.614  37.578  26.735  1.00  0.00    -0.237 OA
ATOM     93  O   UNL A   1      45.006  38.211  29.046  1.00  0.00    -0.237 OA
ATOM     94  O   UNL A   1      47.254  37.317  28.556  1.00  0.00    -0.744 OA
ENDBRANCH  90  91
ENDBRANCH  64  85
ENDBRANCH  38  39
ENDBRANCH  31  33
ENDBRANCH  30  31
ENDBRANCH  29  30
ENDBRANCH   1  29
TORSDOF 17
ENDMDL
