MODEL 1
REMARK VINA RESULT:     -12.7      0.000      0.000
REMARK SMILES Cn1c(SCC(=O)Nc2cccc(C(=O)OCCOC(=O)c3ccc(-c4c5nc(c(-c6ccc(S(=O)(=O)[O-])cc6)c6ccc([nH]6)c(-c6ccc(S(=O)(=O)[O-])cc6)c6nc(c(-c7ccc(S(=O)(=O)[O-])cc7)c7ccc4[nH]7)C=C6)C=C5)cc3)c2)nnc1[C@@H]1CCCN1C(=O)c1ccccc1Cl
REMARK SMILES IDX 14 1 15 2 13 3 9 4 10 5 82 6 11 7 12 8 8 9 6 10 7 11 5 13
REMARK SMILES IDX 4 14 3 15 1 16 2 17 85 18 83 19 84 20 86 21 87 22 90 23
REMARK SMILES IDX 88 24 89 25 91 26 92 27 93 28 94 29 98 30 95 31 97 32 99 33
REMARK SMILES IDX 96 34 16 35 17 36 18 37 19 38 20 39 21 40 22 41 23 42 81 43
REMARK SMILES IDX 24 44 80 45 25 46 26 47 27 48 74 49 28 50 79 51 73 52 75 53
REMARK SMILES IDX 29 54 78 55 72 56 71 57 30 59 60 60 41 61 59 62 42 63 45 64
REMARK SMILES IDX 58 65 76 66 43 67 44 68 57 70 77 71 46 72 31 73 32 74 40 75
REMARK SMILES IDX 33 76 39 77 34 78 35 79 36 80 37 81 38 82 61 83 62 84 70 85
REMARK SMILES IDX 63 86 69 87 64 88 65 89 66 90 67 91 68 92 47 93 48 94 56 95
REMARK SMILES IDX 49 96 55 97 50 98 51 99 52 100 53 101 54 102
REMARK H PARENT 8 12 75 58 45 69
REMARK Flexibility Score: inf
ROOT
ATOM      1  C   UNL A   1      34.281  30.172  27.317  1.00  0.00     0.338 C 
ATOM      2  O   UNL A   1      35.408  29.700  27.250  1.00  0.00    -0.246 OA
ENDROOT
BRANCH   1   3
ATOM      3  C   UNL A   1      33.082  29.436  26.834  1.00  0.00     0.062 A 
ATOM      4  C   UNL A   1      31.385  29.167  25.170  1.00  0.00     0.042 A 
ATOM      5  C   UNL A   1      31.025  27.926  25.683  1.00  0.00     0.026 A 
ATOM      6  C   UNL A   1      32.277  29.985  25.848  1.00  0.00     0.041 A 
ATOM      7  C   UNL A   1      31.742  27.412  26.759  1.00  0.00     0.003 A 
ATOM      8  C   UNL A   1      32.823  28.131  27.275  1.00  0.00     0.016 A 
BRANCH   4   9
ATOM      9  N   UNL A   1      30.985  29.490  23.875  1.00  0.00    -0.325 N 
ATOM     10  C   UNL A   1      31.241  28.732  22.760  1.00  0.00     0.234 C 
ATOM     11  O   UNL A   1      30.623  29.028  21.729  1.00  0.00    -0.274 OA
ATOM     12  H   UNL A   1      30.480  30.325  23.749  1.00  0.00     0.169 HD
BRANCH  10  13
ATOM     13  C   UNL A   1      32.068  27.457  22.797  1.00  0.00     0.178 C 
BRANCH  13  14
ATOM     14  S   UNL A   1      31.396  25.907  22.227  1.00  0.00    -0.076 SA
BRANCH  14  15
ATOM     15  C   UNL A   1      32.456  24.577  22.505  1.00  0.00     0.191 A 
ATOM     16  C   UNL A   1      32.170  24.088  24.962  1.00  0.00     0.154 C 
ATOM     17  N   UNL A   1      32.866  24.075  23.708  1.00  0.00    -0.307 N 
ATOM     18  C   UNL A   1      34.099  23.506  23.468  1.00  0.00     0.156 A 
ATOM     19  N   UNL A   1      33.262  24.132  21.564  1.00  0.00    -0.123 NA
ATOM     20  N   UNL A   1      34.283  23.447  22.164  1.00  0.00    -0.132 NA
BRANCH  18  21
ATOM     21  C   UNL A   1      35.101  23.077  24.476  1.00  0.00     0.154 C 
ATOM     22  C   UNL A   1      36.543  23.398  24.066  1.00  0.00     0.035 C 
ATOM     23  N   UNL A   1      35.115  21.639  24.786  1.00  0.00    -0.328 N 
ATOM     24  C   UNL A   1      37.375  22.394  24.847  1.00  0.00     0.024 C 
ATOM     25  C   UNL A   1      36.478  21.174  24.986  1.00  0.00     0.120 C 
BRANCH  23  26
ATOM     26  C   UNL A   1      34.080  20.802  25.193  1.00  0.00     0.255 C 
ATOM     27  O   UNL A   1      33.432  20.999  26.219  1.00  0.00    -0.269 OA
BRANCH  26  28
ATOM     28  C   UNL A   1      33.791  19.555  24.467  1.00  0.00     0.058 A 
ATOM     29  C   UNL A   1      34.601  18.431  24.655  1.00  0.00     0.015 A 
ATOM     30  C   UNL A   1      32.793  19.539  23.481  1.00  0.00     0.053 A 
ATOM     31  C   UNL A   1      34.353  17.268  23.919  1.00  0.00     0.001 A 
ATOM     32  C   UNL A   1      32.547  18.370  22.756  1.00  0.00     0.021 A 
ATOM     33  Cl  UNL A   1      31.828  20.926  23.111  1.00  0.00    -0.083 Cl
ATOM     34  C   UNL A   1      33.313  17.229  22.989  1.00  0.00     0.002 A 
ENDBRANCH  26  28
ENDBRANCH  23  26
ENDBRANCH  18  21
ENDBRANCH  14  15
ENDBRANCH  13  14
ENDBRANCH  10  13
ENDBRANCH   4   9
ENDBRANCH   1   3
BRANCH   1  35
ATOM     35  O   UNL A   1      33.936  31.362  27.858  1.00  0.00    -0.458 OA
BRANCH  35  36
ATOM     36  C   UNL A   1      35.010  32.261  28.193  1.00  0.00     0.275 C 
BRANCH  36  37
ATOM     37  C   UNL A   1      35.242  32.275  29.704  1.00  0.00     0.275 C 
BRANCH  37  38
ATOM     38  O   UNL A   1      36.586  31.851  30.000  1.00  0.00    -0.458 OA
BRANCH  38  39
ATOM     39  C   UNL A   1      36.684  30.610  30.532  1.00  0.00     0.338 C 
ATOM     40  O   UNL A   1      35.875  30.031  31.235  1.00  0.00    -0.246 OA
BRANCH  39  41
ATOM     41  C   UNL A   1      37.892  29.950  30.019  1.00  0.00     0.060 A 
ATOM     42  C   UNL A   1      38.720  29.326  30.942  1.00  0.00     0.016 A 
ATOM     43  C   UNL A   1      38.302  30.090  28.700  1.00  0.00     0.016 A 
ATOM     44  C   UNL A   1      40.004  28.935  30.602  1.00  0.00     0.010 A 
ATOM     45  C   UNL A   1      39.556  29.591  28.325  1.00  0.00     0.010 A 
ATOM     46  C   UNL A   1      40.436  29.046  29.282  1.00  0.00    -0.014 A 
BRANCH  46  47
ATOM     47  C   UNL A   1      41.820  28.636  28.932  1.00  0.00     0.031 A 
ATOM     48  C   UNL A   1      42.940  29.636  29.014  1.00  0.00     0.074 A 
ATOM     49  C   UNL A   1      42.081  27.364  28.571  1.00  0.00     0.049 A 
ATOM     50  N   UNL A   1      44.177  29.529  28.602  1.00  0.00    -0.248 NA
ATOM     51  C   UNL A   1      42.620  30.936  29.626  1.00  0.00     0.031 C 
ATOM     52  C   UNL A   1      41.100  26.277  28.515  1.00  0.00     0.029 A 
ATOM     53  N   UNL A   1      43.255  26.767  28.183  1.00  0.00    -0.354 N 
ATOM     54  C   UNL A   1      44.764  30.766  28.844  1.00  0.00     0.074 A 
ATOM     55  C   UNL A   1      43.743  31.610  29.425  1.00  0.00     0.031 C 
ATOM     56  C   UNL A   1      41.714  25.145  28.142  1.00  0.00     0.029 A 
ATOM     57  C   UNL A   1      43.107  25.445  27.833  1.00  0.00     0.049 A 
ATOM     58  H   UNL A   1      44.118  27.238  28.156  1.00  0.00     0.167 HD
ATOM     59  C   UNL A   1      46.037  31.160  28.597  1.00  0.00     0.031 A 
ATOM     60  C   UNL A   1      43.971  24.579  27.271  1.00  0.00     0.031 A 
ATOM     61  C   UNL A   1      47.045  30.301  28.031  1.00  0.00     0.049 A 
ATOM     62  C   UNL A   1      45.359  25.050  26.949  1.00  0.00     0.074 A 
ATOM     63  C   UNL A   1      48.368  30.594  27.750  1.00  0.00     0.029 A 
ATOM     64  N   UNL A   1      46.841  28.980  27.658  1.00  0.00    -0.354 N 
ATOM     65  N   UNL A   1      45.893  26.231  27.151  1.00  0.00    -0.248 NA
ATOM     66  C   UNL A   1      46.258  24.076  26.321  1.00  0.00     0.031 C 
ATOM     67  C   UNL A   1      48.945  29.469  27.150  1.00  0.00     0.029 A 
ATOM     68  C   UNL A   1      48.003  28.451  27.122  1.00  0.00     0.049 A 
ATOM     69  H   UNL A   1      45.993  28.489  27.760  1.00  0.00     0.167 HD
ATOM     70  C   UNL A   1      47.197  26.142  26.680  1.00  0.00     0.074 A 
ATOM     71  C   UNL A   1      47.376  24.781  26.209  1.00  0.00     0.031 C 
ATOM     72  C   UNL A   1      48.158  27.099  26.639  1.00  0.00     0.031 A 
BRANCH  59  73
ATOM     73  C   UNL A   1      46.376  32.604  28.874  1.00  0.00    -0.014 A 
ATOM     74  C   UNL A   1      46.193  33.611  27.908  1.00  0.00     0.010 A 
ATOM     75  C   UNL A   1      46.916  32.955  30.126  1.00  0.00     0.010 A 
ATOM     76  C   UNL A   1      46.610  34.922  28.163  1.00  0.00     0.020 A 
ATOM     77  C   UNL A   1      47.300  34.272  30.398  1.00  0.00     0.020 A 
ATOM     78  C   UNL A   1      47.171  35.240  29.403  1.00  0.00     0.054 A 
BRANCH  78  79
ATOM     79  S   UNL A   1      47.732  36.940  29.696  1.00  0.00     0.124 S 
ATOM     80  O   UNL A   1      48.846  36.735  30.620  1.00  0.00    -0.237 OA
ATOM     81  O   UNL A   1      48.103  37.391  28.357  1.00  0.00    -0.237 OA
ATOM     82  O   UNL A   1      46.561  37.598  30.269  1.00  0.00    -0.744 OA
ENDBRANCH  78  79
ENDBRANCH  59  73
BRANCH  60  83
ATOM     83  C   UNL A   1      43.508  23.206  26.932  1.00  0.00    -0.014 A 
ATOM     84  C   UNL A   1      43.832  22.619  25.698  1.00  0.00     0.010 A 
ATOM     85  C   UNL A   1      42.800  22.446  27.885  1.00  0.00     0.010 A 
ATOM     86  C   UNL A   1      43.472  21.295  25.428  1.00  0.00     0.020 A 
ATOM     87  C   UNL A   1      42.468  21.114  27.633  1.00  0.00     0.020 A 
ATOM     88  C   UNL A   1      42.805  20.546  26.403  1.00  0.00     0.054 A 
BRANCH  88  89
ATOM     89  S   UNL A   1      42.447  18.799  26.071  1.00  0.00     0.124 S 
ATOM     90  O   UNL A   1      43.382  18.496  24.993  1.00  0.00    -0.237 OA
ATOM     91  O   UNL A   1      42.737  18.169  27.358  1.00  0.00    -0.237 OA
ATOM     92  O   UNL A   1      41.034  18.804  25.693  1.00  0.00    -0.744 OA
ENDBRANCH  88  89
ENDBRANCH  60  83
BRANCH  72  93
ATOM     93  C   UNL A   1      49.499  26.700  26.082  1.00  0.00    -0.014 A 
ATOM     94  C   UNL A   1      49.833  26.939  24.738  1.00  0.00     0.010 A 
ATOM     95  C   UNL A   1      50.453  26.107  26.930  1.00  0.00     0.010 A 
ATOM     96  C   UNL A   1      51.083  26.559  24.242  1.00  0.00     0.020 A 
ATOM     97  C   UNL A   1      51.715  25.757  26.447  1.00  0.00     0.020 A 
ATOM     98  C   UNL A   1      52.016  25.969  25.101  1.00  0.00     0.054 A 
BRANCH  98  99
ATOM     99  S   UNL A   1      53.643  25.515  24.442  1.00  0.00     0.124 S 
ATOM    100  O   UNL A   1      54.533  26.387  25.205  1.00  0.00    -0.237 OA
ATOM    101  O   UNL A   1      53.732  24.092  24.761  1.00  0.00    -0.237 OA
ATOM    102  O   UNL A   1      53.539  25.823  23.018  1.00  0.00    -0.744 OA
ENDBRANCH  98  99
ENDBRANCH  72  93
ENDBRANCH  46  47
ENDBRANCH  39  41
ENDBRANCH  38  39
ENDBRANCH  37  38
ENDBRANCH  36  37
ENDBRANCH  35  36
ENDBRANCH   1  35
TORSDOF 21
ENDMDL
MODEL 2
REMARK VINA RESULT:     -12.1      5.710     11.770
REMARK SMILES Cn1c(SCC(=O)Nc2cccc(C(=O)OCCOC(=O)c3ccc(-c4c5nc(c(-c6ccc(S(=O)(=O)[O-])cc6)c6ccc([nH]6)c(-c6ccc(S(=O)(=O)[O-])cc6)c6nc(c(-c7ccc(S(=O)(=O)[O-])cc7)c7ccc4[nH]7)C=C6)C=C5)cc3)c2)nnc1[C@@H]1CCCN1C(=O)c1ccccc1Cl
REMARK SMILES IDX 14 1 15 2 13 3 9 4 10 5 82 6 11 7 12 8 8 9 6 10 7 11 5 13
REMARK SMILES IDX 4 14 3 15 1 16 2 17 85 18 83 19 84 20 86 21 87 22 90 23
REMARK SMILES IDX 88 24 89 25 91 26 92 27 93 28 94 29 98 30 95 31 97 32 99 33
REMARK SMILES IDX 96 34 16 35 17 36 18 37 19 38 20 39 21 40 22 41 23 42 81 43
REMARK SMILES IDX 24 44 80 45 25 46 26 47 27 48 74 49 28 50 79 51 73 52 75 53
REMARK SMILES IDX 29 54 78 55 72 56 71 57 30 59 60 60 41 61 59 62 42 63 45 64
REMARK SMILES IDX 58 65 76 66 43 67 44 68 57 70 77 71 46 72 31 73 32 74 40 75
REMARK SMILES IDX 33 76 39 77 34 78 35 79 36 80 37 81 38 82 61 83 62 84 70 85
REMARK SMILES IDX 63 86 69 87 64 88 65 89 66 90 67 91 68 92 47 93 48 94 56 95
REMARK SMILES IDX 49 96 55 97 50 98 51 99 52 100 53 101 54 102
REMARK H PARENT 8 12 75 58 45 69
REMARK Flexibility Score: inf
ROOT
ATOM      1  C   UNL A   1      38.142  22.840  25.898  1.00  0.00     0.338 C 
ATOM      2  O   UNL A   1      38.186  23.860  26.573  1.00  0.00    -0.246 OA
ENDROOT
BRANCH   1   3
ATOM      3  C   UNL A   1      36.956  22.483  25.075  1.00  0.00     0.062 A 
ATOM      4  C   UNL A   1      35.088  21.036  24.707  1.00  0.00     0.042 A 
ATOM      5  C   UNL A   1      34.537  21.920  23.785  1.00  0.00     0.026 A 
ATOM      6  C   UNL A   1      36.367  21.236  25.205  1.00  0.00     0.041 A 
ATOM      7  C   UNL A   1      35.184  23.128  23.544  1.00  0.00     0.003 A 
ATOM      8  C   UNL A   1      36.345  23.441  24.254  1.00  0.00     0.016 A 
BRANCH   4   9
ATOM      9  N   UNL A   1      34.263  20.060  25.263  1.00  0.00    -0.325 N 
ATOM     10  C   UNL A   1      32.901  20.158  25.387  1.00  0.00     0.234 C 
ATOM     11  O   UNL A   1      32.290  19.122  25.682  1.00  0.00    -0.274 OA
ATOM     12  H   UNL A   1      34.691  19.238  25.594  1.00  0.00     0.169 HD
BRANCH  10  13
ATOM     13  C   UNL A   1      32.118  21.398  24.983  1.00  0.00     0.178 C 
BRANCH  13  14
ATOM     14  S   UNL A   1      31.535  22.558  26.204  1.00  0.00    -0.076 SA
BRANCH  14  15
ATOM     15  C   UNL A   1      32.064  24.169  25.901  1.00  0.00     0.191 A 
ATOM     16  C   UNL A   1      30.146  25.200  24.630  1.00  0.00     0.154 C 
ATOM     17  N   UNL A   1      31.514  25.081  25.045  1.00  0.00    -0.307 N 
ATOM     18  C   UNL A   1      32.552  25.908  24.673  1.00  0.00     0.156 A 
ATOM     19  N   UNL A   1      33.281  24.563  26.215  1.00  0.00    -0.123 NA
ATOM     20  N   UNL A   1      33.582  25.662  25.457  1.00  0.00    -0.132 NA
BRANCH  18  21
ATOM     21  C   UNL A   1      32.567  26.880  23.549  1.00  0.00     0.154 C 
ATOM     22  C   UNL A   1      33.875  26.856  22.750  1.00  0.00     0.035 C 
ATOM     23  N   UNL A   1      32.389  28.290  23.927  1.00  0.00    -0.328 N 
ATOM     24  C   UNL A   1      33.941  28.237  22.118  1.00  0.00     0.024 C 
ATOM     25  C   UNL A   1      33.229  29.148  23.107  1.00  0.00     0.120 C 
BRANCH  23  26
ATOM     26  C   UNL A   1      31.384  28.895  24.676  1.00  0.00     0.255 C 
ATOM     27  O   UNL A   1      31.350  28.845  25.905  1.00  0.00    -0.269 OA
BRANCH  26  28
ATOM     28  C   UNL A   1      30.230  29.526  24.016  1.00  0.00     0.058 A 
ATOM     29  C   UNL A   1      29.551  28.852  22.997  1.00  0.00     0.015 A 
ATOM     30  C   UNL A   1      29.902  30.858  24.311  1.00  0.00     0.053 A 
ATOM     31  C   UNL A   1      28.490  29.483  22.337  1.00  0.00     0.001 A 
ATOM     32  C   UNL A   1      28.837  31.477  23.653  1.00  0.00     0.021 A 
ATOM     33  Cl  UNL A   1      30.772  31.794  25.477  1.00  0.00    -0.083 Cl
ATOM     34  C   UNL A   1      28.118  30.783  22.681  1.00  0.00     0.002 A 
ENDBRANCH  26  28
ENDBRANCH  23  26
ENDBRANCH  18  21
ENDBRANCH  14  15
ENDBRANCH  13  14
ENDBRANCH  10  13
ENDBRANCH   4   9
ENDBRANCH   1   3
BRANCH   1  35
ATOM     35  O   UNL A   1      39.130  21.929  25.750  1.00  0.00    -0.458 OA
BRANCH  35  36
ATOM     36  C   UNL A   1      40.059  21.791  26.842  1.00  0.00     0.275 C 
BRANCH  36  37
ATOM     37  C   UNL A   1      41.487  22.047  26.363  1.00  0.00     0.275 C 
BRANCH  37  38
ATOM     38  O   UNL A   1      42.075  23.122  27.119  1.00  0.00    -0.458 OA
BRANCH  38  39
ATOM     39  C   UNL A   1      42.160  24.300  26.457  1.00  0.00     0.338 C 
ATOM     40  O   UNL A   1      42.424  24.480  25.281  1.00  0.00    -0.246 OA
BRANCH  39  41
ATOM     41  C   UNL A   1      41.737  25.392  27.342  1.00  0.00     0.060 A 
ATOM     42  C   UNL A   1      42.509  26.546  27.347  1.00  0.00     0.016 A 
ATOM     43  C   UNL A   1      40.723  25.231  28.276  1.00  0.00     0.016 A 
ATOM     44  C   UNL A   1      42.364  27.500  28.340  1.00  0.00     0.010 A 
ATOM     45  C   UNL A   1      40.496  26.248  29.212  1.00  0.00     0.010 A 
ATOM     46  C   UNL A   1      41.342  27.374  29.279  1.00  0.00    -0.014 A 
BRANCH  46  47
ATOM     47  C   UNL A   1      41.205  28.396  30.348  1.00  0.00     0.031 A 
ATOM     48  C   UNL A   1      42.144  28.381  31.523  1.00  0.00     0.074 A 
ATOM     49  C   UNL A   1      40.262  29.356  30.253  1.00  0.00     0.049 A 
ATOM     50  N   UNL A   1      42.094  29.075  32.630  1.00  0.00    -0.248 NA
ATOM     51  C   UNL A   1      43.280  27.449  31.447  1.00  0.00     0.031 C 
ATOM     52  C   UNL A   1      39.331  29.526  29.135  1.00  0.00     0.029 A 
ATOM     53  N   UNL A   1      39.932  30.373  31.114  1.00  0.00    -0.354 N 
ATOM     54  C   UNL A   1      43.150  28.618  33.410  1.00  0.00     0.074 A 
ATOM     55  C   UNL A   1      43.813  27.579  32.653  1.00  0.00     0.031 C 
ATOM     56  C   UNL A   1      38.555  30.594  29.364  1.00  0.00     0.029 A 
ATOM     57  C   UNL A   1      38.860  31.123  30.688  1.00  0.00     0.049 A 
ATOM     58  H   UNL A   1      40.413  30.548  31.954  1.00  0.00     0.167 HD
ATOM     59  C   UNL A   1      43.526  29.025  34.647  1.00  0.00     0.031 A 
ATOM     60  C   UNL A   1      38.157  32.088  31.310  1.00  0.00     0.031 A 
ATOM     61  C   UNL A   1      42.863  30.073  35.380  1.00  0.00     0.049 A 
ATOM     62  C   UNL A   1      38.551  32.487  32.702  1.00  0.00     0.074 A 
ATOM     63  C   UNL A   1      43.167  30.573  36.634  1.00  0.00     0.029 A 
ATOM     64  N   UNL A   1      41.758  30.781  34.925  1.00  0.00    -0.354 N 
ATOM     65  N   UNL A   1      39.530  32.024  33.443  1.00  0.00    -0.248 NA
ATOM     66  C   UNL A   1      37.744  33.530  33.344  1.00  0.00     0.031 C 
ATOM     67  C   UNL A   1      42.209  31.539  36.962  1.00  0.00     0.029 A 
ATOM     68  C   UNL A   1      41.350  31.693  35.884  1.00  0.00     0.049 A 
ATOM     69  H   UNL A   1      41.328  30.653  34.048  1.00  0.00     0.167 HD
ATOM     70  C   UNL A   1      39.462  32.726  34.639  1.00  0.00     0.074 A 
ATOM     71  C   UNL A   1      38.362  33.662  34.510  1.00  0.00     0.031 C 
ATOM     72  C   UNL A   1      40.238  32.604  35.746  1.00  0.00     0.031 A 
BRANCH  59  73
ATOM     73  C   UNL A   1      44.663  28.280  35.301  1.00  0.00    -0.014 A 
ATOM     74  C   UNL A   1      44.446  27.133  36.088  1.00  0.00     0.010 A 
ATOM     75  C   UNL A   1      45.978  28.756  35.143  1.00  0.00     0.010 A 
ATOM     76  C   UNL A   1      45.510  26.524  36.761  1.00  0.00     0.020 A 
ATOM     77  C   UNL A   1      47.050  28.128  35.784  1.00  0.00     0.020 A 
ATOM     78  C   UNL A   1      46.804  27.033  36.613  1.00  0.00     0.054 A 
BRANCH  78  79
ATOM     79  S   UNL A   1      48.161  26.243  37.521  1.00  0.00     0.124 S 
ATOM     80  O   UNL A   1      48.543  27.293  38.464  1.00  0.00    -0.237 OA
ATOM     81  O   UNL A   1      47.515  25.075  38.112  1.00  0.00    -0.237 OA
ATOM     82  O   UNL A   1      49.147  25.949  36.485  1.00  0.00    -0.744 OA
ENDBRANCH  78  79
ENDBRANCH  59  73
BRANCH  60  83
ATOM     83  C   UNL A   1      36.980  32.688  30.623  1.00  0.00    -0.014 A 
ATOM     84  C   UNL A   1      35.683  32.207  30.863  1.00  0.00     0.010 A 
ATOM     85  C   UNL A   1      37.151  33.803  29.779  1.00  0.00     0.010 A 
ATOM     86  C   UNL A   1      34.577  32.838  30.285  1.00  0.00     0.020 A 
ATOM     87  C   UNL A   1      36.047  34.456  29.226  1.00  0.00     0.020 A 
ATOM     88  C   UNL A   1      34.765  33.968  29.482  1.00  0.00     0.054 A 
BRANCH  88  89
ATOM     89  S   UNL A   1      33.308  34.833  28.835  1.00  0.00     0.124 S 
ATOM     90  O   UNL A   1      32.782  33.868  27.876  1.00  0.00    -0.237 OA
ATOM     91  O   UNL A   1      32.503  35.035  30.038  1.00  0.00    -0.237 OA
ATOM     92  O   UNL A   1      33.864  36.055  28.255  1.00  0.00    -0.744 OA
ENDBRANCH  88  89
ENDBRANCH  60  83
BRANCH  72  93
ATOM     93  C   UNL A   1      39.936  33.526  36.898  1.00  0.00    -0.014 A 
ATOM     94  C   UNL A   1      38.953  33.205  37.851  1.00  0.00     0.010 A 
ATOM     95  C   UNL A   1      40.675  34.714  37.049  1.00  0.00     0.010 A 
ATOM     96  C   UNL A   1      38.688  34.075  38.912  1.00  0.00     0.020 A 
ATOM     97  C   UNL A   1      40.436  35.569  38.126  1.00  0.00     0.020 A 
ATOM     98  C   UNL A   1      39.432  35.253  39.042  1.00  0.00     0.054 A 
BRANCH  98  99
ATOM     99  S   UNL A   1      39.092  36.349  40.446  1.00  0.00     0.124 S 
ATOM    100  O   UNL A   1      38.194  35.531  41.258  1.00  0.00    -0.237 OA
ATOM    101  O   UNL A   1      40.422  36.570  41.009  1.00  0.00    -0.237 OA
ATOM    102  O   UNL A   1      38.478  37.522  39.830  1.00  0.00    -0.744 OA
ENDBRANCH  98  99
ENDBRANCH  72  93
ENDBRANCH  46  47
ENDBRANCH  39  41
ENDBRANCH  38  39
ENDBRANCH  37  38
ENDBRANCH  36  37
ENDBRANCH  35  36
ENDBRANCH   1  35
TORSDOF 21
ENDMDL
MODEL 3
REMARK VINA RESULT:     -12.1      0.884      7.742
REMARK SMILES Cn1c(SCC(=O)Nc2cccc(C(=O)OCCOC(=O)c3ccc(-c4c5nc(c(-c6ccc(S(=O)(=O)[O-])cc6)c6ccc([nH]6)c(-c6ccc(S(=O)(=O)[O-])cc6)c6nc(c(-c7ccc(S(=O)(=O)[O-])cc7)c7ccc4[nH]7)C=C6)C=C5)cc3)c2)nnc1[C@@H]1CCCN1C(=O)c1ccccc1Cl
REMARK SMILES IDX 14 1 15 2 13 3 9 4 10 5 82 6 11 7 12 8 8 9 6 10 7 11 5 13
REMARK SMILES IDX 4 14 3 15 1 16 2 17 85 18 83 19 84 20 86 21 87 22 90 23
REMARK SMILES IDX 88 24 89 25 91 26 92 27 93 28 94 29 98 30 95 31 97 32 99 33
REMARK SMILES IDX 96 34 16 35 17 36 18 37 19 38 20 39 21 40 22 41 23 42 81 43
REMARK SMILES IDX 24 44 80 45 25 46 26 47 27 48 74 49 28 50 79 51 73 52 75 53
REMARK SMILES IDX 29 54 78 55 72 56 71 57 30 59 60 60 41 61 59 62 42 63 45 64
REMARK SMILES IDX 58 65 76 66 43 67 44 68 57 70 77 71 46 72 31 73 32 74 40 75
REMARK SMILES IDX 33 76 39 77 34 78 35 79 36 80 37 81 38 82 61 83 62 84 70 85
REMARK SMILES IDX 63 86 69 87 64 88 65 89 66 90 67 91 68 92 47 93 48 94 56 95
REMARK SMILES IDX 49 96 55 97 50 98 51 99 52 100 53 101 54 102
REMARK H PARENT 8 12 75 58 45 69
REMARK Flexibility Score: inf
ROOT
ATOM      1  C   UNL A   1      34.145  32.531  28.106  1.00  0.00     0.338 C 
ATOM      2  O   UNL A   1      33.469  33.474  27.717  1.00  0.00    -0.246 OA
ENDROOT
BRANCH   1   3
ATOM      3  C   UNL A   1      33.917  31.140  27.633  1.00  0.00     0.062 A 
ATOM      4  C   UNL A   1      32.567  29.600  26.399  1.00  0.00     0.042 A 
ATOM      5  C   UNL A   1      33.569  28.636  26.433  1.00  0.00     0.026 A 
ATOM      6  C   UNL A   1      32.676  30.765  27.144  1.00  0.00     0.041 A 
ATOM      7  C   UNL A   1      34.783  28.951  27.034  1.00  0.00     0.003 A 
ATOM      8  C   UNL A   1      34.982  30.232  27.555  1.00  0.00     0.016 A 
BRANCH   4   9
ATOM      9  N   UNL A   1      31.547  29.463  25.458  1.00  0.00    -0.325 N 
ATOM     10  C   UNL A   1      31.589  28.632  24.368  1.00  0.00     0.234 C 
ATOM     11  O   UNL A   1      30.523  28.448  23.765  1.00  0.00    -0.274 OA
ATOM     12  H   UNL A   1      30.736  30.005  25.585  1.00  0.00     0.169 HD
BRANCH  10  13
ATOM     13  C   UNL A   1      32.805  27.791  24.012  1.00  0.00     0.178 C 
BRANCH  13  14
ATOM     14  S   UNL A   1      32.791  26.703  22.600  1.00  0.00    -0.076 SA
BRANCH  14  15
ATOM     15  C   UNL A   1      33.349  25.116  22.975  1.00  0.00     0.191 A 
ATOM     16  C   UNL A   1      33.283  25.039  25.494  1.00  0.00     0.154 C 
ATOM     17  N   UNL A   1      33.734  24.634  24.194  1.00  0.00    -0.307 N 
ATOM     18  C   UNL A   1      34.638  23.630  23.923  1.00  0.00     0.156 A 
ATOM     19  N   UNL A   1      33.796  24.306  22.038  1.00  0.00    -0.123 NA
ATOM     20  N   UNL A   1      34.592  23.365  22.632  1.00  0.00    -0.132 NA
BRANCH  18  21
ATOM     21  C   UNL A   1      35.568  22.976  24.879  1.00  0.00     0.154 C 
ATOM     22  C   UNL A   1      37.041  23.119  24.481  1.00  0.00     0.035 C 
ATOM     23  N   UNL A   1      35.373  21.530  25.067  1.00  0.00    -0.328 N 
ATOM     24  C   UNL A   1      37.718  21.942  25.164  1.00  0.00     0.024 C 
ATOM     25  C   UNL A   1      36.653  20.857  25.210  1.00  0.00     0.120 C 
BRANCH  23  26
ATOM     26  C   UNL A   1      34.227  20.820  25.413  1.00  0.00     0.255 C 
ATOM     27  O   UNL A   1      33.627  21.002  26.472  1.00  0.00    -0.269 OA
BRANCH  26  28
ATOM     28  C   UNL A   1      33.743  19.714  24.571  1.00  0.00     0.058 A 
ATOM     29  C   UNL A   1      34.414  18.487  24.574  1.00  0.00     0.015 A 
ATOM     30  C   UNL A   1      32.700  19.937  23.661  1.00  0.00     0.053 A 
ATOM     31  C   UNL A   1      33.981  17.460  23.728  1.00  0.00     0.001 A 
ATOM     32  C   UNL A   1      32.269  18.903  22.826  1.00  0.00     0.021 A 
ATOM     33  Cl  UNL A   1      31.900  21.464  23.518  1.00  0.00    -0.083 Cl
ATOM     34  C   UNL A   1      32.896  17.659  22.874  1.00  0.00     0.002 A 
ENDBRANCH  26  28
ENDBRANCH  23  26
ENDBRANCH  18  21
ENDBRANCH  14  15
ENDBRANCH  13  14
ENDBRANCH  10  13
ENDBRANCH   4   9
ENDBRANCH   1   3
BRANCH   1  35
ATOM     35  O   UNL A   1      35.198  32.591  28.953  1.00  0.00    -0.458 OA
BRANCH  35  36
ATOM     36  C   UNL A   1      34.899  32.716  30.357  1.00  0.00     0.275 C 
BRANCH  36  37
ATOM     37  C   UNL A   1      35.887  31.897  31.188  1.00  0.00     0.275 C 
BRANCH  37  38
ATOM     38  O   UNL A   1      36.289  30.723  30.458  1.00  0.00    -0.458 OA
BRANCH  38  39
ATOM     39  C   UNL A   1      36.970  29.808  31.188  1.00  0.00     0.338 C 
ATOM     40  O   UNL A   1      36.658  29.325  32.262  1.00  0.00    -0.246 OA
BRANCH  39  41
ATOM     41  C   UNL A   1      38.130  29.335  30.422  1.00  0.00     0.060 A 
ATOM     42  C   UNL A   1      39.153  28.716  31.129  1.00  0.00     0.016 A 
ATOM     43  C   UNL A   1      38.304  29.647  29.081  1.00  0.00     0.016 A 
ATOM     44  C   UNL A   1      40.393  28.500  30.554  1.00  0.00     0.010 A 
ATOM     45  C   UNL A   1      39.519  29.325  28.462  1.00  0.00     0.010 A 
ATOM     46  C   UNL A   1      40.590  28.786  29.204  1.00  0.00    -0.014 A 
BRANCH  46  47
ATOM     47  C   UNL A   1      41.929  28.563  28.600  1.00  0.00     0.031 A 
ATOM     48  C   UNL A   1      42.279  27.217  28.030  1.00  0.00     0.074 A 
ATOM     49  C   UNL A   1      42.820  29.573  28.533  1.00  0.00     0.049 A 
ATOM     50  N   UNL A   1      43.434  26.771  27.610  1.00  0.00    -0.248 NA
ATOM     51  C   UNL A   1      41.186  26.235  27.938  1.00  0.00     0.031 C 
ATOM     52  C   UNL A   1      42.584  30.947  28.987  1.00  0.00     0.029 A 
ATOM     53  N   UNL A   1      44.106  29.601  28.054  1.00  0.00    -0.354 N 
ATOM     54  C   UNL A   1      43.224  25.441  27.265  1.00  0.00     0.074 A 
ATOM     55  C   UNL A   1      41.834  25.150  27.539  1.00  0.00     0.031 C 
ATOM     56  C   UNL A   1      43.675  31.686  28.743  1.00  0.00     0.029 A 
ATOM     57  C   UNL A   1      44.721  30.821  28.212  1.00  0.00     0.049 A 
ATOM     58  H   UNL A   1      44.545  28.825  27.639  1.00  0.00     0.167 HD
ATOM     59  C   UNL A   1      44.112  24.545  26.771  1.00  0.00     0.031 A 
ATOM     60  C   UNL A   1      45.999  31.196  28.012  1.00  0.00     0.031 A 
ATOM     61  C   UNL A   1      45.490  24.856  26.489  1.00  0.00     0.049 A 
ATOM     62  C   UNL A   1      46.984  30.176  27.520  1.00  0.00     0.074 A 
ATOM     63  C   UNL A   1      46.473  24.029  25.977  1.00  0.00     0.029 A 
ATOM     64  N   UNL A   1      46.081  26.095  26.699  1.00  0.00    -0.354 N 
ATOM     65  N   UNL A   1      46.781  28.912  27.230  1.00  0.00    -0.248 NA
ATOM     66  C   UNL A   1      48.367  30.628  27.335  1.00  0.00     0.031 C 
ATOM     67  C   UNL A   1      47.672  24.750  25.935  1.00  0.00     0.029 A 
ATOM     68  C   UNL A   1      47.421  26.048  26.354  1.00  0.00     0.049 A 
ATOM     69  H   UNL A   1      45.614  26.892  27.042  1.00  0.00     0.167 HD
ATOM     70  C   UNL A   1      48.012  28.417  26.819  1.00  0.00     0.074 A 
ATOM     71  C   UNL A   1      48.945  29.527  26.874  1.00  0.00     0.031 C 
ATOM     72  C   UNL A   1      48.341  27.158  26.435  1.00  0.00     0.031 A 
BRANCH  59  73
ATOM     73  C   UNL A   1      43.627  23.130  26.576  1.00  0.00    -0.014 A 
ATOM     74  C   UNL A   1      42.672  22.546  27.430  1.00  0.00     0.010 A 
ATOM     75  C   UNL A   1      44.160  22.358  25.526  1.00  0.00     0.010 A 
ATOM     76  C   UNL A   1      42.317  21.201  27.282  1.00  0.00     0.020 A 
ATOM     77  C   UNL A   1      43.780  21.024  25.352  1.00  0.00     0.020 A 
ATOM     78  C   UNL A   1      42.883  20.446  26.250  1.00  0.00     0.054 A 
BRANCH  78  79
ATOM     79  S   UNL A   1      42.429  18.696  26.100  1.00  0.00     0.124 S 
ATOM     80  O   UNL A   1      41.010  18.782  25.758  1.00  0.00    -0.237 OA
ATOM     81  O   UNL A   1      43.305  18.228  25.029  1.00  0.00    -0.237 OA
ATOM     82  O   UNL A   1      42.718  18.147  27.422  1.00  0.00    -0.744 OA
ENDBRANCH  78  79
ENDBRANCH  59  73
BRANCH  60  83
ATOM     83  C   UNL A   1      46.408  32.590  28.339  1.00  0.00    -0.014 A 
ATOM     84  C   UNL A   1      46.892  32.918  29.615  1.00  0.00     0.010 A 
ATOM     85  C   UNL A   1      46.385  33.583  27.339  1.00  0.00     0.010 A 
ATOM     86  C   UNL A   1      47.360  34.209  29.883  1.00  0.00     0.020 A 
ATOM     87  C   UNL A   1      46.883  34.863  27.592  1.00  0.00     0.020 A 
ATOM     88  C   UNL A   1      47.367  35.168  28.865  1.00  0.00     0.054 A 
BRANCH  88  89
ATOM     89  S   UNL A   1      48.081  36.801  29.207  1.00  0.00     0.124 S 
ATOM     90  O   UNL A   1      47.486  37.620  28.157  1.00  0.00    -0.237 OA
ATOM     91  O   UNL A   1      47.612  37.070  30.564  1.00  0.00    -0.237 OA
ATOM     92  O   UNL A   1      49.521  36.577  29.088  1.00  0.00    -0.744 OA
ENDBRANCH  88  89
ENDBRANCH  60  83
BRANCH  72  93
ATOM     93  C   UNL A   1      49.769  26.920  26.021  1.00  0.00    -0.014 A 
ATOM     94  C   UNL A   1      50.757  26.585  26.964  1.00  0.00     0.010 A 
ATOM     95  C   UNL A   1      50.120  26.999  24.660  1.00  0.00     0.010 A 
ATOM     96  C   UNL A   1      52.077  26.369  26.558  1.00  0.00     0.020 A 
ATOM     97  C   UNL A   1      51.430  26.751  24.247  1.00  0.00     0.020 A 
ATOM     98  C   UNL A   1      52.405  26.454  25.200  1.00  0.00     0.054 A 
BRANCH  98  99
ATOM     99  S   UNL A   1      54.117  26.138  24.695  1.00  0.00     0.124 S 
ATOM    100  O   UNL A   1      54.088  26.501  23.281  1.00  0.00    -0.237 OA
ATOM    101  O   UNL A   1      54.877  27.037  25.560  1.00  0.00    -0.237 OA
ATOM    102  O   UNL A   1      54.302  24.715  24.969  1.00  0.00    -0.744 OA
ENDBRANCH  98  99
ENDBRANCH  72  93
ENDBRANCH  46  47
ENDBRANCH  39  41
ENDBRANCH  38  39
ENDBRANCH  37  38
ENDBRANCH  36  37
ENDBRANCH  35  36
ENDBRANCH   1  35
TORSDOF 21
ENDMDL
