MODEL 1
REMARK VINA RESULT:     -11.2      0.000      0.000
REMARK SMILES CC[NH+]1CC[NH+]([C@@H]2CC(=O)N(c3ccc(C(=O)OCCOC(=O)c4ccc(-c5c6nc(c(-c7ccc(S(=O)(=O)[O-])cc7)c7ccc([nH]7)c(-c7ccc(S(=O)(=O)[O-])cc7)c7nc(c(-c8ccc(S(=O)(=O)[O-])cc8)c8ccc5[nH]8)C=C7)C=C6)cc4)cc3)C2=O)CC1
REMARK SMILES IDX 19 1 18 2 16 3 17 4 15 5 12 6 13 7 85 8 14 9 84 10 11 11
REMARK SMILES IDX 7 12 8 13 86 14 9 15 87 16 10 17 6 18 3 19 4 20 89 21 5 23
REMARK SMILES IDX 88 24 2 26 1 27 20 28 21 29 22 30 23 31 24 32 25 33 83 34
REMARK SMILES IDX 26 35 82 36 27 37 28 38 29 39 76 40 30 41 81 42 75 43 77 44
REMARK SMILES IDX 31 45 80 46 74 47 73 48 32 50 62 51 43 52 61 53 44 54 47 55
REMARK SMILES IDX 60 56 78 57 45 58 46 59 59 61 79 62 48 63 33 64 34 65 42 66
REMARK SMILES IDX 35 67 41 68 36 69 37 70 38 71 39 72 40 73 63 74 64 75 72 76
REMARK SMILES IDX 65 77 71 78 66 79 67 80 68 81 69 82 70 83 49 84 50 85 58 86
REMARK SMILES IDX 51 87 57 88 52 89 53 90 54 91 55 92 56 93
REMARK H PARENT 3 22 6 25 77 49 47 60
REMARK Flexibility Score: inf
ROOT
ATOM      1  C   UNL A   1      43.526  23.201  26.120  1.00  0.00     0.275 C 
ENDROOT
BRANCH   1   2
ATOM      2  O   UNL A   1      42.234  22.625  25.844  1.00  0.00    -0.458 OA
BRANCH   2   3
ATOM      3  C   UNL A   1      41.437  22.448  26.928  1.00  0.00     0.338 C 
ATOM      4  O   UNL A   1      41.796  22.244  28.071  1.00  0.00    -0.246 OA
BRANCH   3   5
ATOM      5  C   UNL A   1      40.018  22.637  26.555  1.00  0.00     0.060 A 
ATOM      6  C   UNL A   1      37.359  22.903  25.676  1.00  0.00     0.052 A 
ATOM      7  C   UNL A   1      38.000  21.665  25.630  1.00  0.00     0.028 A 
ATOM      8  C   UNL A   1      38.064  24.007  26.183  1.00  0.00     0.028 A 
ATOM      9  C   UNL A   1      39.326  21.549  26.023  1.00  0.00     0.018 A 
ATOM     10  C   UNL A   1      39.379  23.871  26.652  1.00  0.00     0.018 A 
BRANCH   6  11
ATOM     11  N   UNL A   1      36.065  23.016  25.118  1.00  0.00    -0.245 N 
ATOM     12  C   UNL A   1      33.723  22.846  24.937  1.00  0.00     0.285 C 
ATOM     13  C   UNL A   1      34.337  22.939  23.548  1.00  0.00     0.176 C 
ATOM     14  C   UNL A   1      34.909  23.026  25.870  1.00  0.00     0.292 C 
ATOM     15  C   UNL A   1      35.813  23.037  23.772  1.00  0.00     0.240 C 
ATOM     16  O   UNL A   1      34.811  23.175  27.082  1.00  0.00    -0.267 OA
ATOM     17  O   UNL A   1      36.612  23.071  22.845  1.00  0.00    -0.274 OA
BRANCH  12  18
ATOM     18  N   UNL A   1      32.909  21.676  25.316  1.00  0.00    -0.315 N 
ATOM     19  N   UNL A   1      33.124  19.073  23.833  1.00  0.00    -0.326 N 
ATOM     20  C   UNL A   1      32.362  20.209  23.298  1.00  0.00     0.324 C 
ATOM     21  C   UNL A   1      34.136  19.512  24.811  1.00  0.00     0.324 C 
ATOM     22  H   UNL A   1      33.588  18.704  23.003  1.00  0.00     0.348 HD
ATOM     23  C   UNL A   1      31.901  21.270  24.329  1.00  0.00     0.325 C 
ATOM     24  C   UNL A   1      33.598  20.499  25.867  1.00  0.00     0.325 C 
ATOM     25  H   UNL A   1      32.427  22.085  26.117  1.00  0.00     0.349 HD
BRANCH  19  26
ATOM     26  C   UNL A   1      32.367  17.905  24.305  1.00  0.00     0.259 C 
ATOM     27  C   UNL A   1      33.038  16.537  24.335  1.00  0.00     0.071 C 
ENDBRANCH  19  26
ENDBRANCH  12  18
ENDBRANCH   6  11
ENDBRANCH   3   5
ENDBRANCH   2   3
ENDBRANCH   1   2
BRANCH   1  28
ATOM     28  C   UNL A   1      43.926  24.225  25.055  1.00  0.00     0.275 C 
BRANCH  28  29
ATOM     29  O   UNL A   1      43.927  25.565  25.583  1.00  0.00    -0.458 OA
BRANCH  29  30
ATOM     30  C   UNL A   1      42.703  26.110  25.753  1.00  0.00     0.338 C 
ATOM     31  O   UNL A   1      41.779  26.115  24.957  1.00  0.00    -0.246 OA
BRANCH  30  32
ATOM     32  C   UNL A   1      42.580  26.688  27.099  1.00  0.00     0.060 A 
ATOM     33  C   UNL A   1      41.882  25.973  28.065  1.00  0.00     0.016 A 
ATOM     34  C   UNL A   1      42.973  27.998  27.348  1.00  0.00     0.016 A 
ATOM     35  C   UNL A   1      41.424  26.610  29.214  1.00  0.00     0.010 A 
ATOM     36  C   UNL A   1      42.646  28.587  28.575  1.00  0.00     0.010 A 
ATOM     37  C   UNL A   1      41.828  27.917  29.506  1.00  0.00    -0.014 A 
BRANCH  37  38
ATOM     38  C   UNL A   1      41.416  28.585  30.776  1.00  0.00     0.031 A 
ATOM     39  C   UNL A   1      40.199  29.477  30.800  1.00  0.00     0.074 A 
ATOM     40  C   UNL A   1      42.154  28.431  31.897  1.00  0.00     0.049 A 
ATOM     41  N   UNL A   1      39.831  30.348  31.705  1.00  0.00    -0.248 NA
ATOM     42  C   UNL A   1      39.285  29.396  29.647  1.00  0.00     0.031 C 
ATOM     43  C   UNL A   1      43.322  27.555  32.041  1.00  0.00     0.029 A 
ATOM     44  N   UNL A   1      42.041  29.022  33.134  1.00  0.00    -0.354 N 
ATOM     45  C   UNL A   1      38.694  30.970  31.197  1.00  0.00     0.074 A 
ATOM     46  C   UNL A   1      38.423  30.370  29.910  1.00  0.00     0.031 C 
ATOM     47  C   UNL A   1      43.798  27.648  33.291  1.00  0.00     0.029 A 
ATOM     48  C   UNL A   1      43.048  28.671  34.005  1.00  0.00     0.049 A 
ATOM     49  H   UNL A   1      41.310  29.636  33.374  1.00  0.00     0.167 HD
ATOM     50  C   UNL A   1      37.956  31.960  31.754  1.00  0.00     0.031 A 
ATOM     51  C   UNL A   1      43.385  29.162  35.213  1.00  0.00     0.031 A 
ATOM     52  C   UNL A   1      38.206  32.508  33.062  1.00  0.00     0.049 A 
ATOM     53  C   UNL A   1      42.579  30.295  35.783  1.00  0.00     0.074 A 
ATOM     54  C   UNL A   1      37.489  33.483  33.735  1.00  0.00     0.029 A 
ATOM     55  N   UNL A   1      39.242  32.123  33.898  1.00  0.00    -0.354 N 
ATOM     56  N   UNL A   1      41.523  30.888  35.281  1.00  0.00    -0.248 NA
ATOM     57  C   UNL A   1      43.017  30.837  37.077  1.00  0.00     0.031 C 
ATOM     58  C   UNL A   1      38.128  33.731  34.952  1.00  0.00     0.029 A 
ATOM     59  C   UNL A   1      39.200  32.860  35.068  1.00  0.00     0.049 A 
ATOM     60  H   UNL A   1      39.909  31.429  33.690  1.00  0.00     0.167 HD
ATOM     61  C   UNL A   1      41.149  31.845  36.216  1.00  0.00     0.074 A 
ATOM     62  C   UNL A   1      42.085  31.748  37.316  1.00  0.00     0.031 C 
ATOM     63  C   UNL A   1      40.121  32.727  36.168  1.00  0.00     0.031 A 
BRANCH  50  64
ATOM     64  C   UNL A   1      36.832  32.563  30.949  1.00  0.00    -0.014 A 
ATOM     65  C   UNL A   1      35.515  32.085  31.039  1.00  0.00     0.010 A 
ATOM     66  C   UNL A   1      37.092  33.706  30.167  1.00  0.00     0.010 A 
ATOM     67  C   UNL A   1      34.480  32.730  30.351  1.00  0.00     0.020 A 
ATOM     68  C   UNL A   1      36.058  34.369  29.501  1.00  0.00     0.020 A 
ATOM     69  C   UNL A   1      34.758  33.872  29.591  1.00  0.00     0.054 A 
BRANCH  69  70
ATOM     70  S   UNL A   1      33.386  34.729  28.769  1.00  0.00     0.124 S 
ATOM     71  O   UNL A   1      34.078  35.807  28.068  1.00  0.00    -0.237 OA
ATOM     72  O   UNL A   1      32.822  33.686  27.916  1.00  0.00    -0.237 OA
ATOM     73  O   UNL A   1      32.529  35.156  29.874  1.00  0.00    -0.744 OA
ENDBRANCH  69  70
ENDBRANCH  50  64
BRANCH  51  74
ATOM     74  C   UNL A   1      44.581  28.641  35.935  1.00  0.00    -0.014 A 
ATOM     75  C   UNL A   1      45.856  29.178  35.690  1.00  0.00     0.010 A 
ATOM     76  C   UNL A   1      44.453  27.582  36.855  1.00  0.00     0.010 A 
ATOM     77  C   UNL A   1      46.985  28.640  36.318  1.00  0.00     0.020 A 
ATOM     78  C   UNL A   1      45.572  27.067  37.513  1.00  0.00     0.020 A 
ATOM     79  C   UNL A   1      46.835  27.584  37.222  1.00  0.00     0.054 A 
BRANCH  79  80
ATOM     80  S   UNL A   1      48.311  26.901  38.024  1.00  0.00     0.124 S 
ATOM     81  O   UNL A   1      49.378  27.677  37.402  1.00  0.00    -0.237 OA
ATOM     82  O   UNL A   1      48.062  27.182  39.436  1.00  0.00    -0.237 OA
ATOM     83  O   UNL A   1      48.273  25.485  37.662  1.00  0.00    -0.744 OA
ENDBRANCH  79  80
ENDBRANCH  51  74
BRANCH  63  84
ATOM     84  C   UNL A   1      39.898  33.604  37.369  1.00  0.00    -0.014 A 
ATOM     85  C   UNL A   1      40.445  34.895  37.448  1.00  0.00     0.010 A 
ATOM     86  C   UNL A   1      39.053  33.149  38.399  1.00  0.00     0.010 A 
ATOM     87  C   UNL A   1      40.163  35.712  38.546  1.00  0.00     0.020 A 
ATOM     88  C   UNL A   1      38.745  33.973  39.482  1.00  0.00     0.020 A 
ATOM     89  C   UNL A   1      39.308  35.248  39.552  1.00  0.00     0.054 A 
BRANCH  89  90
ATOM     90  S   UNL A   1      38.897  36.356  40.927  1.00  0.00     0.124 S 
ATOM     91  O   UNL A   1      37.827  35.623  41.599  1.00  0.00    -0.237 OA
ATOM     92  O   UNL A   1      40.158  36.440  41.658  1.00  0.00    -0.237 OA
ATOM     93  O   UNL A   1      38.484  37.591  40.265  1.00  0.00    -0.744 OA
ENDBRANCH  89  90
ENDBRANCH  63  84
ENDBRANCH  37  38
ENDBRANCH  30  32
ENDBRANCH  29  30
ENDBRANCH  28  29
ENDBRANCH   1  28
TORSDOF 17
ENDMDL
MODEL 2
REMARK VINA RESULT:     -11.0      1.273      2.297
REMARK SMILES CC[NH+]1CC[NH+]([C@@H]2CC(=O)N(c3ccc(C(=O)OCCOC(=O)c4ccc(-c5c6nc(c(-c7ccc(S(=O)(=O)[O-])cc7)c7ccc([nH]7)c(-c7ccc(S(=O)(=O)[O-])cc7)c7nc(c(-c8ccc(S(=O)(=O)[O-])cc8)c8ccc5[nH]8)C=C7)C=C6)cc4)cc3)C2=O)CC1
REMARK SMILES IDX 19 1 18 2 16 3 17 4 15 5 12 6 13 7 85 8 14 9 84 10 11 11
REMARK SMILES IDX 7 12 8 13 86 14 9 15 87 16 10 17 6 18 3 19 4 20 89 21 5 23
REMARK SMILES IDX 88 24 2 26 1 27 20 28 21 29 22 30 23 31 24 32 25 33 83 34
REMARK SMILES IDX 26 35 82 36 27 37 28 38 29 39 76 40 30 41 81 42 75 43 77 44
REMARK SMILES IDX 31 45 80 46 74 47 73 48 32 50 62 51 43 52 61 53 44 54 47 55
REMARK SMILES IDX 60 56 78 57 45 58 46 59 59 61 79 62 48 63 33 64 34 65 42 66
REMARK SMILES IDX 35 67 41 68 36 69 37 70 38 71 39 72 40 73 63 74 64 75 72 76
REMARK SMILES IDX 65 77 71 78 66 79 67 80 68 81 69 82 70 83 49 84 50 85 58 86
REMARK SMILES IDX 51 87 57 88 52 89 53 90 54 91 55 92 56 93
REMARK H PARENT 3 22 6 25 77 49 47 60
REMARK Flexibility Score: inf
ROOT
ATOM      1  C   UNL A   1      43.258  22.912  25.899  1.00  0.00     0.275 C 
ENDROOT
BRANCH   1   2
ATOM      2  O   UNL A   1      41.967  22.275  25.834  1.00  0.00    -0.458 OA
BRANCH   2   3
ATOM      3  C   UNL A   1      41.146  22.523  26.886  1.00  0.00     0.338 C 
ATOM      4  O   UNL A   1      41.480  22.793  28.023  1.00  0.00    -0.246 OA
BRANCH   3   5
ATOM      5  C   UNL A   1      39.734  22.522  26.445  1.00  0.00     0.060 A 
ATOM      6  C   UNL A   1      37.111  22.448  25.431  1.00  0.00     0.052 A 
ATOM      7  C   UNL A   1      37.941  21.332  25.329  1.00  0.00     0.028 A 
ATOM      8  C   UNL A   1      37.607  23.600  26.062  1.00  0.00     0.028 A 
ATOM      9  C   UNL A   1      39.249  21.389  25.791  1.00  0.00     0.018 A 
ATOM     10  C   UNL A   1      38.904  23.629  26.597  1.00  0.00     0.018 A 
BRANCH   6  11
ATOM     11  N   UNL A   1      35.843  22.407  24.807  1.00  0.00    -0.245 N 
ATOM     12  C   UNL A   1      34.097  22.971  23.331  1.00  0.00     0.285 C 
ATOM     13  C   UNL A   1      33.525  22.266  24.552  1.00  0.00     0.176 C 
ATOM     14  C   UNL A   1      35.600  22.901  23.542  1.00  0.00     0.292 C 
ATOM     15  C   UNL A   1      34.704  21.958  25.420  1.00  0.00     0.240 C 
ATOM     16  O   UNL A   1      36.427  23.219  22.695  1.00  0.00    -0.267 OA
ATOM     17  O   UNL A   1      34.584  21.434  26.520  1.00  0.00    -0.274 OA
BRANCH  12  18
ATOM     18  N   UNL A   1      33.662  24.339  22.987  1.00  0.00    -0.315 N 
ATOM     19  N   UNL A   1      31.604  25.784  24.629  1.00  0.00    -0.326 N 
ATOM     20  C   UNL A   1      31.231  24.753  23.652  1.00  0.00     0.324 C 
ATOM     21  C   UNL A   1      33.003  25.633  25.069  1.00  0.00     0.324 C 
ATOM     22  H   UNL A   1      30.977  25.590  25.410  1.00  0.00     0.348 HD
ATOM     23  C   UNL A   1      32.268  24.456  22.540  1.00  0.00     0.325 C 
ATOM     24  C   UNL A   1      34.003  25.430  23.913  1.00  0.00     0.325 C 
ATOM     25  H   UNL A   1      34.271  24.490  22.183  1.00  0.00     0.349 HD
BRANCH  19  26
ATOM     26  C   UNL A   1      31.271  27.179  24.310  1.00  0.00     0.259 C 
ATOM     27  C   UNL A   1      30.357  27.484  23.129  1.00  0.00     0.071 C 
ENDBRANCH  19  26
ENDBRANCH  12  18
ENDBRANCH   6  11
ENDBRANCH   3   5
ENDBRANCH   2   3
ENDBRANCH   1   2
BRANCH   1  28
ATOM     28  C   UNL A   1      43.262  24.254  25.163  1.00  0.00     0.275 C 
BRANCH  28  29
ATOM     29  O   UNL A   1      42.129  25.063  25.530  1.00  0.00    -0.458 OA
BRANCH  29  30
ATOM     30  C   UNL A   1      42.362  26.393  25.544  1.00  0.00     0.338 C 
ATOM     31  O   UNL A   1      42.591  27.115  24.587  1.00  0.00    -0.246 OA
BRANCH  30  32
ATOM     32  C   UNL A   1      42.256  26.919  26.913  1.00  0.00     0.060 A 
ATOM     33  C   UNL A   1      41.481  26.220  27.831  1.00  0.00     0.016 A 
ATOM     34  C   UNL A   1      42.747  28.181  27.229  1.00  0.00     0.016 A 
ATOM     35  C   UNL A   1      41.051  26.841  29.000  1.00  0.00     0.010 A 
ATOM     36  C   UNL A   1      42.441  28.739  28.476  1.00  0.00     0.010 A 
ATOM     37  C   UNL A   1      41.551  28.097  29.360  1.00  0.00    -0.014 A 
BRANCH  37  38
ATOM     38  C   UNL A   1      41.166  28.738  30.651  1.00  0.00     0.031 A 
ATOM     39  C   UNL A   1      39.969  29.655  30.712  1.00  0.00     0.074 A 
ATOM     40  C   UNL A   1      41.911  28.538  31.761  1.00  0.00     0.049 A 
ATOM     41  N   UNL A   1      39.629  30.509  31.643  1.00  0.00    -0.248 NA
ATOM     42  C   UNL A   1      39.043  29.625  29.566  1.00  0.00     0.031 C 
ATOM     43  C   UNL A   1      43.061  27.633  31.870  1.00  0.00     0.029 A 
ATOM     44  N   UNL A   1      41.823  29.097  33.014  1.00  0.00    -0.354 N 
ATOM     45  C   UNL A   1      38.501  31.169  31.164  1.00  0.00     0.074 A 
ATOM     46  C   UNL A   1      38.205  30.610  29.864  1.00  0.00     0.031 C 
ATOM     47  C   UNL A   1      43.551  27.681  33.117  1.00  0.00     0.029 A 
ATOM     48  C   UNL A   1      42.830  28.701  33.865  1.00  0.00     0.049 A 
ATOM     49  H   UNL A   1      41.107  29.720  33.278  1.00  0.00     0.167 HD
ATOM     50  C   UNL A   1      37.790  32.159  31.755  1.00  0.00     0.031 A 
ATOM     51  C   UNL A   1      43.189  29.152  35.082  1.00  0.00     0.031 A 
ATOM     52  C   UNL A   1      38.064  32.666  33.075  1.00  0.00     0.049 A 
ATOM     53  C   UNL A   1      42.413  30.286  35.691  1.00  0.00     0.074 A 
ATOM     54  C   UNL A   1      37.375  33.637  33.781  1.00  0.00     0.029 A 
ATOM     55  N   UNL A   1      39.100  32.236  33.890  1.00  0.00    -0.354 N 
ATOM     56  N   UNL A   1      41.366  30.915  35.216  1.00  0.00    -0.248 NA
ATOM     57  C   UNL A   1      42.875  30.782  36.995  1.00  0.00     0.031 C 
ATOM     58  C   UNL A   1      38.031  33.838  34.998  1.00  0.00     0.029 A 
ATOM     59  C   UNL A   1      39.085  32.941  35.080  1.00  0.00     0.049 A 
ATOM     60  H   UNL A   1      39.749  31.533  33.657  1.00  0.00     0.167 HD
ATOM     61  C   UNL A   1      41.022  31.854  36.180  1.00  0.00     0.074 A 
ATOM     62  C   UNL A   1      41.965  31.706  37.268  1.00  0.00     0.031 C 
ATOM     63  C   UNL A   1      40.012  32.758  36.166  1.00  0.00     0.031 A 
BRANCH  50  64
ATOM     64  C   UNL A   1      36.672  32.808  30.978  1.00  0.00    -0.014 A 
ATOM     65  C   UNL A   1      35.323  32.511  31.231  1.00  0.00     0.010 A 
ATOM     66  C   UNL A   1      36.987  33.818  30.047  1.00  0.00     0.010 A 
ATOM     67  C   UNL A   1      34.309  33.203  30.557  1.00  0.00     0.020 A 
ATOM     68  C   UNL A   1      35.977  34.529  29.393  1.00  0.00     0.020 A 
ATOM     69  C   UNL A   1      34.643  34.213  29.647  1.00  0.00     0.054 A 
BRANCH  69  70
ATOM     70  S   UNL A   1      33.307  35.141  28.843  1.00  0.00     0.124 S 
ATOM     71  O   UNL A   1      32.514  35.583  29.987  1.00  0.00    -0.237 OA
ATOM     72  O   UNL A   1      34.030  36.196  28.137  1.00  0.00    -0.237 OA
ATOM     73  O   UNL A   1      32.662  34.150  27.985  1.00  0.00    -0.744 OA
ENDBRANCH  69  70
ENDBRANCH  50  64
BRANCH  51  74
ATOM     74  C   UNL A   1      44.380  28.585  35.778  1.00  0.00    -0.014 A 
ATOM     75  C   UNL A   1      45.654  29.148  35.591  1.00  0.00     0.010 A 
ATOM     76  C   UNL A   1      44.249  27.459  36.613  1.00  0.00     0.010 A 
ATOM     77  C   UNL A   1      46.779  28.572  36.190  1.00  0.00     0.020 A 
ATOM     78  C   UNL A   1      45.364  26.902  37.245  1.00  0.00     0.020 A 
ATOM     79  C   UNL A   1      46.626  27.449  37.010  1.00  0.00     0.054 A 
BRANCH  79  80
ATOM     80  S   UNL A   1      48.098  26.717  37.777  1.00  0.00     0.124 S 
ATOM     81  O   UNL A   1      49.142  27.657  37.383  1.00  0.00    -0.237 OA
ATOM     82  O   UNL A   1      47.748  26.717  39.195  1.00  0.00    -0.237 OA
ATOM     83  O   UNL A   1      48.181  25.393  37.163  1.00  0.00    -0.744 OA
ENDBRANCH  79  80
ENDBRANCH  51  74
BRANCH  63  84
ATOM     84  C   UNL A   1      39.820  33.607  37.392  1.00  0.00    -0.014 A 
ATOM     85  C   UNL A   1      40.383  34.890  37.494  1.00  0.00     0.010 A 
ATOM     86  C   UNL A   1      38.989  33.135  38.426  1.00  0.00     0.010 A 
ATOM     87  C   UNL A   1      40.128  35.682  38.617  1.00  0.00     0.020 A 
ATOM     88  C   UNL A   1      38.709  33.934  39.534  1.00  0.00     0.020 A 
ATOM     89  C   UNL A   1      39.287  35.201  39.626  1.00  0.00     0.054 A 
BRANCH  89  90
ATOM     90  S   UNL A   1      38.911  36.279  41.036  1.00  0.00     0.124 S 
ATOM     91  O   UNL A   1      37.792  35.580  41.663  1.00  0.00    -0.237 OA
ATOM     92  O   UNL A   1      40.162  36.266  41.789  1.00  0.00    -0.237 OA
ATOM     93  O   UNL A   1      38.577  37.558  40.415  1.00  0.00    -0.744 OA
ENDBRANCH  89  90
ENDBRANCH  63  84
ENDBRANCH  37  38
ENDBRANCH  30  32
ENDBRANCH  29  30
ENDBRANCH  28  29
ENDBRANCH   1  28
TORSDOF 17
ENDMDL
MODEL 3
REMARK VINA RESULT:     -11.0      1.692      2.797
REMARK SMILES CC[NH+]1CC[NH+]([C@@H]2CC(=O)N(c3ccc(C(=O)OCCOC(=O)c4ccc(-c5c6nc(c(-c7ccc(S(=O)(=O)[O-])cc7)c7ccc([nH]7)c(-c7ccc(S(=O)(=O)[O-])cc7)c7nc(c(-c8ccc(S(=O)(=O)[O-])cc8)c8ccc5[nH]8)C=C7)C=C6)cc4)cc3)C2=O)CC1
REMARK SMILES IDX 19 1 18 2 16 3 17 4 15 5 12 6 13 7 85 8 14 9 84 10 11 11
REMARK SMILES IDX 7 12 8 13 86 14 9 15 87 16 10 17 6 18 3 19 4 20 89 21 5 23
REMARK SMILES IDX 88 24 2 26 1 27 20 28 21 29 22 30 23 31 24 32 25 33 83 34
REMARK SMILES IDX 26 35 82 36 27 37 28 38 29 39 76 40 30 41 81 42 75 43 77 44
REMARK SMILES IDX 31 45 80 46 74 47 73 48 32 50 62 51 43 52 61 53 44 54 47 55
REMARK SMILES IDX 60 56 78 57 45 58 46 59 59 61 79 62 48 63 33 64 34 65 42 66
REMARK SMILES IDX 35 67 41 68 36 69 37 70 38 71 39 72 40 73 63 74 64 75 72 76
REMARK SMILES IDX 65 77 71 78 66 79 67 80 68 81 69 82 70 83 49 84 50 85 58 86
REMARK SMILES IDX 51 87 57 88 52 89 53 90 54 91 55 92 56 93
REMARK H PARENT 3 22 6 25 77 49 47 60
REMARK Flexibility Score: inf
ROOT
ATOM      1  C   UNL A   1      42.714  22.626  26.100  1.00  0.00     0.275 C 
ENDROOT
BRANCH   1   2
ATOM      2  O   UNL A   1      41.446  22.070  25.701  1.00  0.00    -0.458 OA
BRANCH   2   3
ATOM      3  C   UNL A   1      40.557  21.876  26.708  1.00  0.00     0.338 C 
ATOM      4  O   UNL A   1      40.812  21.563  27.855  1.00  0.00    -0.246 OA
BRANCH   3   5
ATOM      5  C   UNL A   1      39.188  22.199  26.252  1.00  0.00     0.060 A 
ATOM      6  C   UNL A   1      36.547  22.885  25.565  1.00  0.00     0.052 A 
ATOM      7  C   UNL A   1      37.383  23.815  26.185  1.00  0.00     0.028 A 
ATOM      8  C   UNL A   1      37.057  21.608  25.279  1.00  0.00     0.028 A 
ATOM      9  C   UNL A   1      38.670  23.457  26.561  1.00  0.00     0.018 A 
ATOM     10  C   UNL A   1      38.384  21.274  25.592  1.00  0.00     0.018 A 
BRANCH   6  11
ATOM     11  N   UNL A   1      35.196  23.233  25.343  1.00  0.00    -0.245 N 
ATOM     12  C   UNL A   1      33.321  24.265  24.360  1.00  0.00     0.285 C 
ATOM     13  C   UNL A   1      32.986  23.853  25.786  1.00  0.00     0.176 C 
ATOM     14  C   UNL A   1      34.720  23.713  24.141  1.00  0.00     0.292 C 
ATOM     15  C   UNL A   1      34.233  23.218  26.317  1.00  0.00     0.240 C 
ATOM     16  O   UNL A   1      35.288  23.695  23.055  1.00  0.00    -0.267 OA
ATOM     17  O   UNL A   1      34.320  22.821  27.472  1.00  0.00    -0.274 OA
BRANCH  12  18
ATOM     18  N   UNL A   1      33.227  25.680  23.951  1.00  0.00    -0.315 N 
ATOM     19  N   UNL A   1      31.443  27.612  25.401  1.00  0.00    -0.326 N 
ATOM     20  C   UNL A   1      30.914  26.650  24.426  1.00  0.00     0.324 C 
ATOM     21  C   UNL A   1      32.741  27.172  25.945  1.00  0.00     0.324 C 
ATOM     22  H   UNL A   1      30.739  27.594  26.139  1.00  0.00     0.348 HD
ATOM     23  C   UNL A   1      31.928  26.085  23.401  1.00  0.00     0.325 C 
ATOM     24  C   UNL A   1      33.743  26.705  24.870  1.00  0.00     0.325 C 
ATOM     25  H   UNL A   1      33.906  25.658  23.190  1.00  0.00     0.349 HD
BRANCH  19  26
ATOM     26  C   UNL A   1      31.454  29.032  25.023  1.00  0.00     0.259 C 
ATOM     27  C   UNL A   1      30.586  29.509  23.864  1.00  0.00     0.071 C 
ENDBRANCH  19  26
ENDBRANCH  12  18
ENDBRANCH   6  11
ENDBRANCH   3   5
ENDBRANCH   2   3
ENDBRANCH   1   2
BRANCH   1  28
ATOM     28  C   UNL A   1      42.980  23.970  25.418  1.00  0.00     0.275 C 
BRANCH  28  29
ATOM     29  O   UNL A   1      41.899  24.896  25.634  1.00  0.00    -0.458 OA
BRANCH  29  30
ATOM     30  C   UNL A   1      42.260  26.197  25.649  1.00  0.00     0.338 C 
ATOM     31  O   UNL A   1      42.589  26.885  24.697  1.00  0.00    -0.246 OA
BRANCH  30  32
ATOM     32  C   UNL A   1      42.160  26.742  27.011  1.00  0.00     0.060 A 
ATOM     33  C   UNL A   1      41.354  26.082  27.930  1.00  0.00     0.016 A 
ATOM     34  C   UNL A   1      42.693  27.989  27.318  1.00  0.00     0.016 A 
ATOM     35  C   UNL A   1      40.935  26.730  29.087  1.00  0.00     0.010 A 
ATOM     36  C   UNL A   1      42.396  28.572  28.555  1.00  0.00     0.010 A 
ATOM     37  C   UNL A   1      41.476  27.972  29.438  1.00  0.00    -0.014 A 
BRANCH  37  38
ATOM     38  C   UNL A   1      41.102  28.641  30.718  1.00  0.00     0.031 A 
ATOM     39  C   UNL A   1      39.915  29.572  30.766  1.00  0.00     0.074 A 
ATOM     40  C   UNL A   1      41.850  28.455  31.828  1.00  0.00     0.049 A 
ATOM     41  N   UNL A   1      39.587  30.446  31.683  1.00  0.00    -0.248 NA
ATOM     42  C   UNL A   1      38.984  29.530  29.624  1.00  0.00     0.031 C 
ATOM     43  C   UNL A   1      42.991  27.541  31.950  1.00  0.00     0.029 A 
ATOM     44  N   UNL A   1      41.772  29.038  33.071  1.00  0.00    -0.354 N 
ATOM     45  C   UNL A   1      38.463  31.108  31.195  1.00  0.00     0.074 A 
ATOM     46  C   UNL A   1      38.157  30.528  29.907  1.00  0.00     0.031 C 
ATOM     47  C   UNL A   1      43.486  27.608  33.194  1.00  0.00     0.029 A 
ATOM     48  C   UNL A   1      42.779  28.648  33.926  1.00  0.00     0.049 A 
ATOM     49  H   UNL A   1      41.064  29.673  33.326  1.00  0.00     0.167 HD
ATOM     50  C   UNL A   1      37.765  32.117  31.770  1.00  0.00     0.031 A 
ATOM     51  C   UNL A   1      43.147  29.118  35.133  1.00  0.00     0.031 A 
ATOM     52  C   UNL A   1      38.049  32.645  33.079  1.00  0.00     0.049 A 
ATOM     53  C   UNL A   1      42.385  30.272  35.724  1.00  0.00     0.074 A 
ATOM     54  C   UNL A   1      37.373  33.636  33.769  1.00  0.00     0.029 A 
ATOM     55  N   UNL A   1      39.084  32.221  33.898  1.00  0.00    -0.354 N 
ATOM     56  N   UNL A   1      41.342  30.902  35.240  1.00  0.00    -0.248 NA
ATOM     57  C   UNL A   1      42.857  30.788  37.016  1.00  0.00     0.031 C 
ATOM     58  C   UNL A   1      38.035  33.853  34.980  1.00  0.00     0.029 A 
ATOM     59  C   UNL A   1      39.081  32.948  35.074  1.00  0.00     0.049 A 
ATOM     60  H   UNL A   1      39.725  31.507  33.676  1.00  0.00     0.167 HD
ATOM     61  C   UNL A   1      41.011  31.862  36.188  1.00  0.00     0.074 A 
ATOM     62  C   UNL A   1      41.957  31.726  37.275  1.00  0.00     0.031 C 
ATOM     63  C   UNL A   1      40.011  32.777  36.161  1.00  0.00     0.031 A 
BRANCH  50  64
ATOM     64  C   UNL A   1      36.651  32.762  30.985  1.00  0.00    -0.014 A 
ATOM     65  C   UNL A   1      35.299  32.522  31.281  1.00  0.00     0.010 A 
ATOM     66  C   UNL A   1      36.975  33.713  29.998  1.00  0.00     0.010 A 
ATOM     67  C   UNL A   1      34.292  33.212  30.595  1.00  0.00     0.020 A 
ATOM     68  C   UNL A   1      35.974  34.424  29.330  1.00  0.00     0.020 A 
ATOM     69  C   UNL A   1      34.637  34.164  29.628  1.00  0.00     0.054 A 
BRANCH  69  70
ATOM     70  S   UNL A   1      33.313  35.094  28.807  1.00  0.00     0.124 S 
ATOM     71  O   UNL A   1      34.064  36.118  28.084  1.00  0.00    -0.237 OA
ATOM     72  O   UNL A   1      32.677  34.077  27.973  1.00  0.00    -0.237 OA
ATOM     73  O   UNL A   1      32.496  35.588  29.913  1.00  0.00    -0.744 OA
ENDBRANCH  69  70
ENDBRANCH  50  64
BRANCH  51  74
ATOM     74  C   UNL A   1      44.335  28.553  35.835  1.00  0.00    -0.014 A 
ATOM     75  C   UNL A   1      45.632  28.985  35.509  1.00  0.00     0.010 A 
ATOM     76  C   UNL A   1      44.176  27.556  36.817  1.00  0.00     0.010 A 
ATOM     77  C   UNL A   1      46.747  28.403  36.121  1.00  0.00     0.020 A 
ATOM     78  C   UNL A   1      45.284  26.999  37.458  1.00  0.00     0.020 A 
ATOM     79  C   UNL A   1      46.566  27.410  37.088  1.00  0.00     0.054 A 
BRANCH  79  80
ATOM     80  S   UNL A   1      48.026  26.668  37.867  1.00  0.00     0.124 S 
ATOM     81  O   UNL A   1      47.903  25.270  37.470  1.00  0.00    -0.237 OA
ATOM     82  O   UNL A   1      49.124  27.409  37.251  1.00  0.00    -0.237 OA
ATOM     83  O   UNL A   1      47.826  26.935  39.291  1.00  0.00    -0.744 OA
ENDBRANCH  79  80
ENDBRANCH  51  74
BRANCH  63  84
ATOM     84  C   UNL A   1      39.832  33.650  37.371  1.00  0.00    -0.014 A 
ATOM     85  C   UNL A   1      40.362  34.949  37.425  1.00  0.00     0.010 A 
ATOM     86  C   UNL A   1      39.045  33.181  38.440  1.00  0.00     0.010 A 
ATOM     87  C   UNL A   1      40.119  35.762  38.535  1.00  0.00     0.020 A 
ATOM     88  C   UNL A   1      38.776  34.000  39.537  1.00  0.00     0.020 A 
ATOM     89  C   UNL A   1      39.322  35.284  39.581  1.00  0.00     0.054 A 
BRANCH  89  90
ATOM     90  S   UNL A   1      38.959  36.386  40.975  1.00  0.00     0.124 S 
ATOM     91  O   UNL A   1      37.862  35.686  41.639  1.00  0.00    -0.237 OA
ATOM     92  O   UNL A   1      40.224  36.407  41.703  1.00  0.00    -0.237 OA
ATOM     93  O   UNL A   1      38.594  37.647  40.334  1.00  0.00    -0.744 OA
ENDBRANCH  89  90
ENDBRANCH  63  84
ENDBRANCH  37  38
ENDBRANCH  30  32
ENDBRANCH  29  30
ENDBRANCH  28  29
ENDBRANCH   1  28
TORSDOF 17
ENDMDL
