MODEL 1
REMARK VINA RESULT:     -10.9      0.000      0.000
REMARK SMILES C[C@]1(C(=O)OCCOC(=O)c2ccc(-c3c4nc(c(-c5ccc(S(=O)(=O)[O-])cc5)c5ccc([nH]5)c(-c5ccc(S(=O)(=O)[O-])cc5)c5nc(c(-c6ccc(S(=O)(=O)[O-])cc6)c6ccc3[nH]6)C=C5)C=C4)cc2)CCN(c2ccc([N+](=O)[O-])c(N)n2)C1
REMARK SMILES IDX 7 1 6 2 5 3 3 4 4 5 2 6 1 7 71 8 84 9 72 10 73 11 74 12
REMARK SMILES IDX 75 13 83 14 76 15 81 16 77 17 82 18 78 21 79 22 80 23 8 24
REMARK SMILES IDX 9 25 10 26 11 27 12 28 70 29 13 30 69 31 14 32 15 33 16 34
REMARK SMILES IDX 63 35 17 36 68 37 62 38 64 39 18 40 67 41 61 42 60 43 19 45
REMARK SMILES IDX 49 46 30 47 48 48 31 49 34 50 47 51 65 52 32 53 33 54 46 56
REMARK SMILES IDX 66 57 35 58 20 59 21 60 29 61 22 62 28 63 23 64 24 65 25 66
REMARK SMILES IDX 26 67 27 68 50 69 51 70 59 71 52 72 58 73 53 74 54 75 55 76
REMARK SMILES IDX 56 77 57 78 36 79 37 80 45 81 38 82 44 83 39 84 40 85 41 86
REMARK SMILES IDX 42 87 43 88
REMARK H PARENT 82 19 82 20 64 44 34 55
REMARK Flexibility Score: inf
ROOT
ATOM      1  C   UNL A   1      32.633  28.317  26.172  1.00  0.00     0.275 C 
ENDROOT
BRANCH   1   2
ATOM      2  C   UNL A   1      31.944  27.037  26.635  1.00  0.00     0.274 C 
BRANCH   2   3
ATOM      3  O   UNL A   1      32.645  25.864  26.176  1.00  0.00    -0.462 OA
BRANCH   3   4
ATOM      4  C   UNL A   1      31.929  24.704  26.205  1.00  0.00     0.313 C 
ATOM      5  O   UNL A   1      31.401  24.242  27.207  1.00  0.00    -0.252 OA
BRANCH   4   6
ATOM      6  C   UNL A   1      31.854  24.057  24.833  1.00  0.00     0.084 C 
ATOM      7  C   UNL A   1      30.701  24.650  24.017  1.00  0.00     0.026 C 
ATOM      8  C   UNL A   1      33.190  24.166  24.087  1.00  0.00     0.042 C 
ATOM      9  C   UNL A   1      31.697  22.535  25.012  1.00  0.00     0.136 C 
ATOM     10  C   UNL A   1      33.228  22.938  23.182  1.00  0.00     0.119 C 
ATOM     11  N   UNL A   1      32.431  21.949  23.892  1.00  0.00    -0.355 N 
BRANCH  11  12
ATOM     12  C   UNL A   1      32.778  20.619  23.902  1.00  0.00     0.131 A 
ATOM     13  C   UNL A   1      33.800  20.149  24.726  1.00  0.00     0.054 A 
ATOM     14  N   UNL A   1      32.119  19.776  23.073  1.00  0.00    -0.207 NA
ATOM     15  C   UNL A   1      34.160  18.804  24.689  1.00  0.00     0.093 A 
ATOM     16  C   UNL A   1      32.487  18.478  22.994  1.00  0.00     0.204 A 
ATOM     17  C   UNL A   1      33.493  17.967  23.800  1.00  0.00     0.311 A 
BRANCH  16  18
ATOM     18  N   UNL A   1      31.731  17.733  22.107  1.00  0.00    -0.378 N 
ATOM     19  H   UNL A   1      30.795  17.518  22.319  1.00  0.00     0.158 HD
ATOM     20  H   UNL A   1      32.131  17.417  21.265  1.00  0.00     0.158 HD
ENDBRANCH  16  18
BRANCH  17  21
ATOM     21  N   UNL A   1      33.875  16.573  23.715  1.00  0.00     0.066 N 
ATOM     22  O   UNL A   1      34.333  16.170  22.635  1.00  0.00    -0.258 OA
ATOM     23  O   UNL A   1      33.696  15.860  24.717  1.00  0.00    -0.258 OA
ENDBRANCH  17  21
ENDBRANCH  11  12
ENDBRANCH   4   6
ENDBRANCH   3   4
ENDBRANCH   2   3
ENDBRANCH   1   2
BRANCH   1  24
ATOM     24  O   UNL A   1      33.921  28.446  26.798  1.00  0.00    -0.458 OA
BRANCH  24  25
ATOM     25  C   UNL A   1      34.158  29.637  27.396  1.00  0.00     0.338 C 
ATOM     26  O   UNL A   1      33.370  30.553  27.556  1.00  0.00    -0.246 OA
BRANCH  25  27
ATOM     27  C   UNL A   1      35.553  29.703  27.856  1.00  0.00     0.060 A 
ATOM     28  C   UNL A   1      36.570  30.011  26.953  1.00  0.00     0.016 A 
ATOM     29  C   UNL A   1      35.862  29.285  29.151  1.00  0.00     0.016 A 
ATOM     30  C   UNL A   1      37.901  29.799  27.309  1.00  0.00     0.010 A 
ATOM     31  C   UNL A   1      37.201  29.148  29.531  1.00  0.00     0.010 A 
ATOM     32  C   UNL A   1      38.230  29.348  28.596  1.00  0.00    -0.014 A 
BRANCH  32  33
ATOM     33  C   UNL A   1      39.637  28.994  28.927  1.00  0.00     0.031 A 
ATOM     34  C   UNL A   1      40.495  29.967  29.697  1.00  0.00     0.074 A 
ATOM     35  C   UNL A   1      40.141  27.793  28.583  1.00  0.00     0.049 A 
ATOM     36  N   UNL A   1      41.768  29.889  29.993  1.00  0.00    -0.248 NA
ATOM     37  C   UNL A   1      39.839  31.190  30.188  1.00  0.00     0.031 C 
ATOM     38  C   UNL A   1      39.416  26.739  27.870  1.00  0.00     0.029 A 
ATOM     39  N   UNL A   1      41.381  27.251  28.809  1.00  0.00    -0.354 N 
ATOM     40  C   UNL A   1      42.078  31.075  30.650  1.00  0.00     0.074 A 
ATOM     41  C   UNL A   1      40.859  31.853  30.716  1.00  0.00     0.031 C 
ATOM     42  C   UNL A   1      40.209  25.662  27.758  1.00  0.00     0.029 A 
ATOM     43  C   UNL A   1      41.513  25.967  28.339  1.00  0.00     0.049 A 
ATOM     44  H   UNL A   1      42.107  27.737  29.263  1.00  0.00     0.167 HD
ATOM     45  C   UNL A   1      43.269  31.487  31.148  1.00  0.00     0.031 A 
ATOM     46  C   UNL A   1      42.568  25.130  28.360  1.00  0.00     0.031 A 
ATOM     47  C   UNL A   1      44.472  30.702  31.132  1.00  0.00     0.049 A 
ATOM     48  C   UNL A   1      43.868  25.591  28.953  1.00  0.00     0.074 A 
ATOM     49  C   UNL A   1      45.732  31.040  31.598  1.00  0.00     0.029 A 
ATOM     50  N   UNL A   1      44.561  29.408  30.646  1.00  0.00    -0.354 N 
ATOM     51  N   UNL A   1      44.158  26.746  29.499  1.00  0.00    -0.248 NA
ATOM     52  C   UNL A   1      44.985  24.637  28.918  1.00  0.00     0.031 C 
ATOM     53  C   UNL A   1      46.585  29.950  31.385  1.00  0.00     0.029 A 
ATOM     54  C   UNL A   1      45.849  28.928  30.807  1.00  0.00     0.049 A 
ATOM     55  H   UNL A   1      43.817  28.903  30.244  1.00  0.00     0.167 HD
ATOM     56  C   UNL A   1      45.497  26.664  29.865  1.00  0.00     0.074 A 
ATOM     57  C   UNL A   1      45.950  25.334  29.505  1.00  0.00     0.031 C 
ATOM     58  C   UNL A   1      46.284  27.609  30.434  1.00  0.00     0.031 A 
BRANCH  45  59
ATOM     59  C   UNL A   1      43.327  32.876  31.719  1.00  0.00    -0.014 A 
ATOM     60  C   UNL A   1      43.635  33.984  30.912  1.00  0.00     0.010 A 
ATOM     61  C   UNL A   1      43.065  33.070  33.087  1.00  0.00     0.010 A 
ATOM     62  C   UNL A   1      43.721  35.262  31.474  1.00  0.00     0.020 A 
ATOM     63  C   UNL A   1      43.133  34.348  33.648  1.00  0.00     0.020 A 
ATOM     64  C   UNL A   1      43.482  35.434  32.841  1.00  0.00     0.054 A 
BRANCH  64  65
ATOM     65  S   UNL A   1      43.598  37.096  33.559  1.00  0.00     0.124 S 
ATOM     66  O   UNL A   1      42.416  37.134  34.416  1.00  0.00    -0.237 OA
ATOM     67  O   UNL A   1      44.880  37.062  34.259  1.00  0.00    -0.237 OA
ATOM     68  O   UNL A   1      43.554  37.976  32.394  1.00  0.00    -0.744 OA
ENDBRANCH  64  65
ENDBRANCH  45  59
BRANCH  46  69
ATOM     69  C   UNL A   1      42.436  23.769  27.782  1.00  0.00    -0.014 A 
ATOM     70  C   UNL A   1      42.745  23.540  26.430  1.00  0.00     0.010 A 
ATOM     71  C   UNL A   1      42.035  22.691  28.591  1.00  0.00     0.010 A 
ATOM     72  C   UNL A   1      42.658  22.252  25.896  1.00  0.00     0.020 A 
ATOM     73  C   UNL A   1      41.966  21.400  28.064  1.00  0.00     0.020 A 
ATOM     74  C   UNL A   1      42.271  21.189  26.717  1.00  0.00     0.054 A 
BRANCH  74  75
ATOM     75  S   UNL A   1      42.248  19.504  26.042  1.00  0.00     0.124 S 
ATOM     76  O   UNL A   1      42.684  18.715  27.190  1.00  0.00    -0.237 OA
ATOM     77  O   UNL A   1      40.852  19.332  25.648  1.00  0.00    -0.237 OA
ATOM     78  O   UNL A   1      43.194  19.577  24.931  1.00  0.00    -0.744 OA
ENDBRANCH  74  75
ENDBRANCH  46  69
BRANCH  58  79
ATOM     79  C   UNL A   1      47.713  27.230  30.697  1.00  0.00    -0.014 A 
ATOM     80  C   UNL A   1      48.056  26.484  31.838  1.00  0.00     0.010 A 
ATOM     81  C   UNL A   1      48.717  27.608  29.789  1.00  0.00     0.010 A 
ATOM     82  C   UNL A   1      49.390  26.152  32.087  1.00  0.00     0.020 A 
ATOM     83  C   UNL A   1      50.051  27.265  30.029  1.00  0.00     0.020 A 
ATOM     84  C   UNL A   1      50.380  26.555  31.186  1.00  0.00     0.054 A 
BRANCH  84  85
ATOM     85  S   UNL A   1      52.107  26.102  31.510  1.00  0.00     0.124 S 
ATOM     86  O   UNL A   1      51.958  24.849  32.245  1.00  0.00    -0.237 OA
ATOM     87  O   UNL A   1      52.673  25.980  30.169  1.00  0.00    -0.237 OA
ATOM     88  O   UNL A   1      52.613  27.228  32.292  1.00  0.00    -0.744 OA
ENDBRANCH  84  85
ENDBRANCH  58  79
ENDBRANCH  32  33
ENDBRANCH  25  27
ENDBRANCH  24  25
ENDBRANCH   1  24
TORSDOF 17
ENDMDL
MODEL 2
REMARK VINA RESULT:     -10.9      4.671      7.949
REMARK SMILES C[C@]1(C(=O)OCCOC(=O)c2ccc(-c3c4nc(c(-c5ccc(S(=O)(=O)[O-])cc5)c5ccc([nH]5)c(-c5ccc(S(=O)(=O)[O-])cc5)c5nc(c(-c6ccc(S(=O)(=O)[O-])cc6)c6ccc3[nH]6)C=C5)C=C4)cc2)CCN(c2ccc([N+](=O)[O-])c(N)n2)C1
REMARK SMILES IDX 7 1 6 2 5 3 3 4 4 5 2 6 1 7 71 8 84 9 72 10 73 11 74 12
REMARK SMILES IDX 75 13 83 14 76 15 81 16 77 17 82 18 78 21 79 22 80 23 8 24
REMARK SMILES IDX 9 25 10 26 11 27 12 28 70 29 13 30 69 31 14 32 15 33 16 34
REMARK SMILES IDX 63 35 17 36 68 37 62 38 64 39 18 40 67 41 61 42 60 43 19 45
REMARK SMILES IDX 49 46 30 47 48 48 31 49 34 50 47 51 65 52 32 53 33 54 46 56
REMARK SMILES IDX 66 57 35 58 20 59 21 60 29 61 22 62 28 63 23 64 24 65 25 66
REMARK SMILES IDX 26 67 27 68 50 69 51 70 59 71 52 72 58 73 53 74 54 75 55 76
REMARK SMILES IDX 56 77 57 78 36 79 37 80 45 81 38 82 44 83 39 84 40 85 41 86
REMARK SMILES IDX 42 87 43 88
REMARK H PARENT 82 19 82 20 64 44 34 55
REMARK Flexibility Score: inf
ROOT
ATOM      1  C   UNL A   1      34.762  33.235  27.985  1.00  0.00     0.275 C 
ENDROOT
BRANCH   1   2
ATOM      2  C   UNL A   1      35.174  34.407  28.871  1.00  0.00     0.274 C 
BRANCH   2   3
ATOM      3  O   UNL A   1      35.193  34.037  30.263  1.00  0.00    -0.462 OA
BRANCH   3   4
ATOM      4  C   UNL A   1      34.231  34.614  31.037  1.00  0.00     0.313 C 
ATOM      5  O   UNL A   1      33.105  34.893  30.648  1.00  0.00    -0.252 OA
BRANCH   4   6
ATOM      6  C   UNL A   1      34.723  34.857  32.454  1.00  0.00     0.084 C 
ATOM      7  C   UNL A   1      34.520  36.323  32.853  1.00  0.00     0.026 C 
ATOM      8  C   UNL A   1      34.056  33.902  33.451  1.00  0.00     0.042 C 
ATOM      9  C   UNL A   1      36.205  34.447  32.540  1.00  0.00     0.136 C 
ATOM     10  C   UNL A   1      35.089  33.721  34.561  1.00  0.00     0.119 C 
ATOM     11  N   UNL A   1      36.366  33.911  33.890  1.00  0.00    -0.355 N 
BRANCH  11  12
ATOM     12  C   UNL A   1      37.469  33.158  34.217  1.00  0.00     0.131 A 
ATOM     13  C   UNL A   1      38.704  33.394  33.616  1.00  0.00     0.054 A 
ATOM     14  N   UNL A   1      37.322  32.162  35.122  1.00  0.00    -0.207 NA
ATOM     15  C   UNL A   1      39.797  32.592  33.933  1.00  0.00     0.093 A 
ATOM     16  C   UNL A   1      38.361  31.347  35.408  1.00  0.00     0.204 A 
ATOM     17  C   UNL A   1      39.610  31.549  34.838  1.00  0.00     0.311 A 
BRANCH  16  18
ATOM     18  N   UNL A   1      38.071  30.373  36.346  1.00  0.00    -0.378 N 
ATOM     19  H   UNL A   1      37.833  30.632  37.264  1.00  0.00     0.158 HD
ATOM     20  H   UNL A   1      38.104  29.422  36.094  1.00  0.00     0.158 HD
ENDBRANCH  16  18
BRANCH  17  21
ATOM     21  N   UNL A   1      40.721  30.677  35.155  1.00  0.00     0.066 N 
ATOM     22  O   UNL A   1      41.379  30.221  34.208  1.00  0.00    -0.258 OA
ATOM     23  O   UNL A   1      40.931  30.417  36.352  1.00  0.00    -0.258 OA
ENDBRANCH  17  21
ENDBRANCH  11  12
ENDBRANCH   4   6
ENDBRANCH   3   4
ENDBRANCH   2   3
ENDBRANCH   1   2
BRANCH   1  24
ATOM     24  O   UNL A   1      34.474  32.078  28.789  1.00  0.00    -0.458 OA
BRANCH  24  25
ATOM     25  C   UNL A   1      34.419  30.905  28.117  1.00  0.00     0.338 C 
ATOM     26  O   UNL A   1      33.490  30.475  27.456  1.00  0.00    -0.246 OA
BRANCH  25  27
ATOM     27  C   UNL A   1      35.680  30.167  28.284  1.00  0.00     0.060 A 
ATOM     28  C   UNL A   1      36.009  29.624  29.527  1.00  0.00     0.016 A 
ATOM     29  C   UNL A   1      36.613  30.171  27.247  1.00  0.00     0.016 A 
ATOM     30  C   UNL A   1      37.308  29.179  29.766  1.00  0.00     0.010 A 
ATOM     31  C   UNL A   1      37.892  29.652  27.467  1.00  0.00     0.010 A 
ATOM     32  C   UNL A   1      38.269  29.204  28.744  1.00  0.00    -0.014 A 
BRANCH  32  33
ATOM     33  C   UNL A   1      39.685  28.857  29.041  1.00  0.00     0.031 A 
ATOM     34  C   UNL A   1      40.553  29.828  29.802  1.00  0.00     0.074 A 
ATOM     35  C   UNL A   1      40.190  27.663  28.675  1.00  0.00     0.049 A 
ATOM     36  N   UNL A   1      41.832  29.756  30.071  1.00  0.00    -0.248 NA
ATOM     37  C   UNL A   1      39.899  31.041  30.320  1.00  0.00     0.031 C 
ATOM     38  C   UNL A   1      39.457  26.611  27.966  1.00  0.00     0.029 A 
ATOM     39  N   UNL A   1      41.438  27.128  28.868  1.00  0.00    -0.354 N 
ATOM     40  C   UNL A   1      42.148  30.938  30.732  1.00  0.00     0.074 A 
ATOM     41  C   UNL A   1      40.925  31.706  30.832  1.00  0.00     0.031 C 
ATOM     42  C   UNL A   1      40.255  25.540  27.826  1.00  0.00     0.029 A 
ATOM     43  C   UNL A   1      41.569  25.849  28.383  1.00  0.00     0.049 A 
ATOM     44  H   UNL A   1      42.171  27.614  29.311  1.00  0.00     0.167 HD
ATOM     45  C   UNL A   1      43.346  31.353  31.209  1.00  0.00     0.031 A 
ATOM     46  C   UNL A   1      42.630  25.019  28.373  1.00  0.00     0.031 A 
ATOM     47  C   UNL A   1      44.554  30.577  31.159  1.00  0.00     0.049 A 
ATOM     48  C   UNL A   1      43.939  25.483  28.942  1.00  0.00     0.074 A 
ATOM     49  C   UNL A   1      45.822  30.919  31.602  1.00  0.00     0.029 A 
ATOM     50  N   UNL A   1      44.642  29.288  30.659  1.00  0.00    -0.354 N 
ATOM     51  N   UNL A   1      44.233  26.636  29.494  1.00  0.00    -0.248 NA
ATOM     52  C   UNL A   1      45.062  24.538  28.874  1.00  0.00     0.031 C 
ATOM     53  C   UNL A   1      46.678  29.837  31.359  1.00  0.00     0.029 A 
ATOM     54  C   UNL A   1      45.936  28.816  30.787  1.00  0.00     0.049 A 
ATOM     55  H   UNL A   1      43.892  28.782  30.268  1.00  0.00     0.167 HD
ATOM     56  C   UNL A   1      45.579  26.559  29.830  1.00  0.00     0.074 A 
ATOM     57  C   UNL A   1      46.034  25.236  29.446  1.00  0.00     0.031 C 
ATOM     58  C   UNL A   1      46.372  27.504  30.392  1.00  0.00     0.031 A 
BRANCH  45  59
ATOM     59  C   UNL A   1      43.407  32.737  31.793  1.00  0.00    -0.014 A 
ATOM     60  C   UNL A   1      43.503  33.872  30.970  1.00  0.00     0.010 A 
ATOM     61  C   UNL A   1      43.364  32.898  33.189  1.00  0.00     0.010 A 
ATOM     62  C   UNL A   1      43.597  35.147  31.538  1.00  0.00     0.020 A 
ATOM     63  C   UNL A   1      43.440  34.171  33.759  1.00  0.00     0.020 A 
ATOM     64  C   UNL A   1      43.578  35.287  32.929  1.00  0.00     0.054 A 
BRANCH  64  65
ATOM     65  S   UNL A   1      43.702  36.946  33.654  1.00  0.00     0.124 S 
ATOM     66  O   UNL A   1      42.450  37.040  34.400  1.00  0.00    -0.237 OA
ATOM     67  O   UNL A   1      44.912  36.858  34.469  1.00  0.00    -0.237 OA
ATOM     68  O   UNL A   1      43.804  37.822  32.490  1.00  0.00    -0.744 OA
ENDBRANCH  64  65
ENDBRANCH  45  59
BRANCH  46  69
ATOM     69  C   UNL A   1      42.494  23.664  27.783  1.00  0.00    -0.014 A 
ATOM     70  C   UNL A   1      42.803  23.445  26.430  1.00  0.00     0.010 A 
ATOM     71  C   UNL A   1      42.092  22.580  28.584  1.00  0.00     0.010 A 
ATOM     72  C   UNL A   1      42.713  22.161  25.885  1.00  0.00     0.020 A 
ATOM     73  C   UNL A   1      42.020  21.293  28.047  1.00  0.00     0.020 A 
ATOM     74  C   UNL A   1      42.325  21.093  26.698  1.00  0.00     0.054 A 
BRANCH  74  75
ATOM     75  S   UNL A   1      42.298  19.413  26.010  1.00  0.00     0.124 S 
ATOM     76  O   UNL A   1      40.883  19.239  25.695  1.00  0.00    -0.237 OA
ATOM     77  O   UNL A   1      43.193  19.519  24.861  1.00  0.00    -0.237 OA
ATOM     78  O   UNL A   1      42.806  18.594  27.108  1.00  0.00    -0.744 OA
ENDBRANCH  74  75
ENDBRANCH  46  69
BRANCH  58  79
ATOM     79  C   UNL A   1      47.809  27.133  30.620  1.00  0.00    -0.014 A 
ATOM     80  C   UNL A   1      48.233  26.653  31.872  1.00  0.00     0.010 A 
ATOM     81  C   UNL A   1      48.738  27.248  29.572  1.00  0.00     0.010 A 
ATOM     82  C   UNL A   1      49.575  26.329  32.083  1.00  0.00     0.020 A 
ATOM     83  C   UNL A   1      50.079  26.911  29.777  1.00  0.00     0.020 A 
ATOM     84  C   UNL A   1      50.492  26.470  31.038  1.00  0.00     0.054 A 
BRANCH  84  85
ATOM     85  S   UNL A   1      52.229  26.028  31.319  1.00  0.00     0.124 S 
ATOM     86  O   UNL A   1      52.787  26.130  29.973  1.00  0.00    -0.237 OA
ATOM     87  O   UNL A   1      52.679  27.047  32.265  1.00  0.00    -0.237 OA
ATOM     88  O   UNL A   1      52.152  24.675  31.863  1.00  0.00    -0.744 OA
ENDBRANCH  84  85
ENDBRANCH  58  79
ENDBRANCH  32  33
ENDBRANCH  25  27
ENDBRANCH  24  25
ENDBRANCH   1  24
TORSDOF 17
ENDMDL
MODEL 3
REMARK VINA RESULT:     -10.7      1.203      1.961
REMARK SMILES C[C@]1(C(=O)OCCOC(=O)c2ccc(-c3c4nc(c(-c5ccc(S(=O)(=O)[O-])cc5)c5ccc([nH]5)c(-c5ccc(S(=O)(=O)[O-])cc5)c5nc(c(-c6ccc(S(=O)(=O)[O-])cc6)c6ccc3[nH]6)C=C5)C=C4)cc2)CCN(c2ccc([N+](=O)[O-])c(N)n2)C1
REMARK SMILES IDX 7 1 6 2 5 3 3 4 4 5 2 6 1 7 71 8 84 9 72 10 73 11 74 12
REMARK SMILES IDX 75 13 83 14 76 15 81 16 77 17 82 18 78 21 79 22 80 23 8 24
REMARK SMILES IDX 9 25 10 26 11 27 12 28 70 29 13 30 69 31 14 32 15 33 16 34
REMARK SMILES IDX 63 35 17 36 68 37 62 38 64 39 18 40 67 41 61 42 60 43 19 45
REMARK SMILES IDX 49 46 30 47 48 48 31 49 34 50 47 51 65 52 32 53 33 54 46 56
REMARK SMILES IDX 66 57 35 58 20 59 21 60 29 61 22 62 28 63 23 64 24 65 25 66
REMARK SMILES IDX 26 67 27 68 50 69 51 70 59 71 52 72 58 73 53 74 54 75 55 76
REMARK SMILES IDX 56 77 57 78 36 79 37 80 45 81 38 82 44 83 39 84 40 85 41 86
REMARK SMILES IDX 42 87 43 88
REMARK H PARENT 82 19 82 20 64 44 34 55
REMARK Flexibility Score: inf
ROOT
ATOM      1  C   UNL A   1      32.841  30.360  26.434  1.00  0.00     0.275 C 
ENDROOT
BRANCH   1   2
ATOM      2  C   UNL A   1      31.720  29.346  26.222  1.00  0.00     0.274 C 
BRANCH   2   3
ATOM      3  O   UNL A   1      31.864  28.656  24.966  1.00  0.00    -0.462 OA
BRANCH   3   4
ATOM      4  C   UNL A   1      31.693  27.304  25.016  1.00  0.00     0.313 C 
ATOM      5  O   UNL A   1      30.657  26.750  25.358  1.00  0.00    -0.252 OA
BRANCH   4   6
ATOM      6  C   UNL A   1      32.946  26.564  24.580  1.00  0.00     0.084 C 
ATOM      7  C   UNL A   1      33.654  27.317  23.450  1.00  0.00     0.026 C 
ATOM      8  C   UNL A   1      33.885  26.305  25.764  1.00  0.00     0.042 C 
ATOM      9  C   UNL A   1      32.552  25.137  24.150  1.00  0.00     0.136 C 
ATOM     10  C   UNL A   1      34.622  25.019  25.398  1.00  0.00     0.119 C 
ATOM     11  N   UNL A   1      33.683  24.302  24.550  1.00  0.00    -0.355 N 
BRANCH  11  12
ATOM     12  C   UNL A   1      33.553  22.935  24.617  1.00  0.00     0.131 A 
ATOM     13  C   UNL A   1      32.302  22.326  24.523  1.00  0.00     0.054 A 
ATOM     14  N   UNL A   1      34.669  22.191  24.801  1.00  0.00    -0.207 NA
ATOM     15  C   UNL A   1      32.192  20.942  24.634  1.00  0.00     0.093 A 
ATOM     16  C   UNL A   1      34.574  20.852  24.955  1.00  0.00     0.204 A 
ATOM     17  C   UNL A   1      33.350  20.204  24.862  1.00  0.00     0.311 A 
BRANCH  16  18
ATOM     18  N   UNL A   1      35.789  20.219  25.138  1.00  0.00    -0.378 N 
ATOM     19  H   UNL A   1      35.815  19.285  25.446  1.00  0.00     0.158 HD
ATOM     20  H   UNL A   1      36.628  20.702  24.959  1.00  0.00     0.158 HD
ENDBRANCH  16  18
BRANCH  17  21
ATOM     21  N   UNL A   1      33.257  18.768  25.019  1.00  0.00     0.066 N 
ATOM     22  O   UNL A   1      34.161  18.079  24.523  1.00  0.00    -0.258 OA
ATOM     23  O   UNL A   1      32.266  18.312  25.613  1.00  0.00    -0.258 OA
ENDBRANCH  17  21
ENDBRANCH  11  12
ENDBRANCH   4   6
ENDBRANCH   3   4
ENDBRANCH   2   3
ENDBRANCH   1   2
BRANCH   1  24
ATOM     24  O   UNL A   1      33.512  30.110  27.680  1.00  0.00    -0.458 OA
BRANCH  24  25
ATOM     25  C   UNL A   1      34.537  30.947  27.964  1.00  0.00     0.338 C 
ATOM     26  O   UNL A   1      34.498  32.162  28.044  1.00  0.00    -0.246 OA
BRANCH  25  27
ATOM     27  C   UNL A   1      35.773  30.179  28.180  1.00  0.00     0.060 A 
ATOM     28  C   UNL A   1      36.029  29.608  29.427  1.00  0.00     0.016 A 
ATOM     29  C   UNL A   1      36.755  30.180  27.189  1.00  0.00     0.016 A 
ATOM     30  C   UNL A   1      37.305  29.131  29.721  1.00  0.00     0.010 A 
ATOM     31  C   UNL A   1      38.011  29.630  27.461  1.00  0.00     0.010 A 
ATOM     32  C   UNL A   1      38.315  29.153  28.748  1.00  0.00    -0.014 A 
BRANCH  32  33
ATOM     33  C   UNL A   1      39.708  28.771  29.107  1.00  0.00     0.031 A 
ATOM     34  C   UNL A   1      40.550  29.701  29.944  1.00  0.00     0.074 A 
ATOM     35  C   UNL A   1      40.212  27.580  28.729  1.00  0.00     0.049 A 
ATOM     36  N   UNL A   1      41.812  29.598  30.277  1.00  0.00    -0.248 NA
ATOM     37  C   UNL A   1      39.889  30.909  30.467  1.00  0.00     0.031 C 
ATOM     38  C   UNL A   1      39.500  26.565  27.949  1.00  0.00     0.029 A 
ATOM     39  N   UNL A   1      41.439  27.017  28.969  1.00  0.00    -0.354 N 
ATOM     40  C   UNL A   1      42.112  30.752  30.993  1.00  0.00     0.074 A 
ATOM     41  C   UNL A   1      40.898  31.539  31.054  1.00  0.00     0.031 C 
ATOM     42  C   UNL A   1      40.287  25.485  27.816  1.00  0.00     0.029 A 
ATOM     43  C   UNL A   1      41.574  25.752  28.450  1.00  0.00     0.049 A 
ATOM     44  H   UNL A   1      42.155  27.475  29.466  1.00  0.00     0.167 HD
ATOM     45  C   UNL A   1      43.289  31.130  31.545  1.00  0.00     0.031 A 
ATOM     46  C   UNL A   1      42.620  24.904  28.468  1.00  0.00     0.031 A 
ATOM     47  C   UNL A   1      44.486  30.333  31.533  1.00  0.00     0.049 A 
ATOM     48  C   UNL A   1      43.905  25.326  29.120  1.00  0.00     0.074 A 
ATOM     49  C   UNL A   1      45.733  30.638  32.053  1.00  0.00     0.029 A 
ATOM     50  N   UNL A   1      44.578  29.060  30.996  1.00  0.00    -0.354 N 
ATOM     51  N   UNL A   1      44.188  26.454  29.724  1.00  0.00    -0.248 NA
ATOM     52  C   UNL A   1      45.014  24.363  29.080  1.00  0.00     0.031 C 
ATOM     53  C   UNL A   1      46.583  29.550  31.820  1.00  0.00     0.029 A 
ATOM     54  C   UNL A   1      45.856  28.560  31.177  1.00  0.00     0.049 A 
ATOM     55  H   UNL A   1      43.842  28.580  30.550  1.00  0.00     0.167 HD
ATOM     56  C   UNL A   1      45.513  26.342  30.128  1.00  0.00     0.074 A 
ATOM     57  C   UNL A   1      45.966  25.024  29.726  1.00  0.00     0.031 C 
ATOM     58  C   UNL A   1      46.291  27.254  30.761  1.00  0.00     0.031 A 
BRANCH  45  59
ATOM     59  C   UNL A   1      43.342  32.493  32.176  1.00  0.00    -0.014 A 
ATOM     60  C   UNL A   1      43.156  32.665  33.558  1.00  0.00     0.010 A 
ATOM     61  C   UNL A   1      43.583  33.618  31.367  1.00  0.00     0.010 A 
ATOM     62  C   UNL A   1      43.170  33.947  34.116  1.00  0.00     0.020 A 
ATOM     63  C   UNL A   1      43.616  34.898  31.924  1.00  0.00     0.020 A 
ATOM     64  C   UNL A   1      43.388  35.057  33.293  1.00  0.00     0.054 A 
BRANCH  64  65
ATOM     65  S   UNL A   1      43.403  36.716  34.028  1.00  0.00     0.124 S 
ATOM     66  O   UNL A   1      43.592  37.562  32.853  1.00  0.00    -0.237 OA
ATOM     67  O   UNL A   1      42.089  36.806  34.661  1.00  0.00    -0.237 OA
ATOM     68  O   UNL A   1      44.532  36.670  34.953  1.00  0.00    -0.744 OA
ENDBRANCH  64  65
ENDBRANCH  45  59
BRANCH  46  69
ATOM     69  C   UNL A   1      42.494  23.570  27.829  1.00  0.00    -0.014 A 
ATOM     70  C   UNL A   1      42.943  23.370  26.512  1.00  0.00     0.010 A 
ATOM     71  C   UNL A   1      41.958  22.488  28.547  1.00  0.00     0.010 A 
ATOM     72  C   UNL A   1      42.860  22.106  25.923  1.00  0.00     0.020 A 
ATOM     73  C   UNL A   1      41.892  21.218  27.968  1.00  0.00     0.020 A 
ATOM     74  C   UNL A   1      42.337  21.037  26.657  1.00  0.00     0.054 A 
BRANCH  74  75
ATOM     75  S   UNL A   1      42.316  19.377  25.921  1.00  0.00     0.124 S 
ATOM     76  O   UNL A   1      42.851  18.561  27.006  1.00  0.00    -0.237 OA
ATOM     77  O   UNL A   1      40.902  19.176  25.616  1.00  0.00    -0.237 OA
ATOM     78  O   UNL A   1      43.181  19.519  24.752  1.00  0.00    -0.744 OA
ENDBRANCH  74  75
ENDBRANCH  46  69
BRANCH  58  79
ATOM     79  C   UNL A   1      47.707  26.850  31.052  1.00  0.00    -0.014 A 
ATOM     80  C   UNL A   1      48.729  27.107  30.121  1.00  0.00     0.010 A 
ATOM     81  C   UNL A   1      48.022  26.224  32.270  1.00  0.00     0.010 A 
ATOM     82  C   UNL A   1      50.041  26.711  30.390  1.00  0.00     0.020 A 
ATOM     83  C   UNL A   1      49.337  25.839  32.547  1.00  0.00     0.020 A 
ATOM     84  C   UNL A   1      50.335  26.070  31.596  1.00  0.00     0.054 A 
BRANCH  84  85
ATOM     85  S   UNL A   1      52.046  25.576  31.942  1.00  0.00     0.124 S 
ATOM     86  O   UNL A   1      51.900  24.147  32.205  1.00  0.00    -0.237 OA
ATOM     87  O   UNL A   1      52.745  25.919  30.705  1.00  0.00    -0.237 OA
ATOM     88  O   UNL A   1      52.409  26.391  33.099  1.00  0.00    -0.744 OA
ENDBRANCH  84  85
ENDBRANCH  58  79
ENDBRANCH  32  33
ENDBRANCH  25  27
ENDBRANCH  24  25
ENDBRANCH   1  24
TORSDOF 17
ENDMDL
