MODEL 1
REMARK VINA RESULT:     -11.2      0.000      0.000
REMARK SMILES CC(=O)c1nnn(-c2ccc(C(=O)OCCOC(=O)c3ccc(-c4c5nc(c(-c6ccc(S(=O)(=O)[O-])cc6)c6ccc([nH]6)c(-c6ccc(S(=O)(=O)[O-])cc6)c6nc(c(-c7ccc(S(=O)(=O)[O-])cc7)c7ccc4[nH]7)C=C6)C=C5)cc3)cc2)c1C
REMARK SMILES IDX 16 1 15 2 14 3 12 4 13 5 11 6 8 7 9 8 81 9 10 10 80 11 7 12
REMARK SMILES IDX 4 13 5 14 82 15 6 16 83 17 2 18 1 19 3 20 17 21 18 22 19 23
REMARK SMILES IDX 20 24 21 25 79 26 22 27 78 28 23 29 24 30 25 31 72 32 26 33
REMARK SMILES IDX 77 34 71 35 73 36 27 37 76 38 70 39 69 40 28 42 58 43 39 44
REMARK SMILES IDX 57 45 40 46 43 47 56 48 74 49 41 50 42 51 55 53 75 54 44 55
REMARK SMILES IDX 29 56 30 57 38 58 31 59 37 60 32 61 33 62 34 63 35 64 36 65
REMARK SMILES IDX 59 66 60 67 68 68 61 69 67 70 62 71 63 72 64 73 65 74 66 75
REMARK SMILES IDX 45 76 46 77 54 78 47 79 53 80 48 81 49 82 50 83 51 84 52 85
REMARK H PARENT 73 41 43 52
REMARK Flexibility Score: inf
ROOT
ATOM      1  C   UNL A   1      40.787  20.411  27.097  1.00  0.00     0.275 C 
ENDROOT
BRANCH   1   2
ATOM      2  C   UNL A   1      41.583  19.670  26.033  1.00  0.00     0.275 C 
BRANCH   2   3
ATOM      3  O   UNL A   1      42.996  19.809  26.254  1.00  0.00    -0.458 OA
BRANCH   3   4
ATOM      4  C   UNL A   1      43.728  20.229  25.183  1.00  0.00     0.338 C 
ATOM      5  O   UNL A   1      43.951  19.606  24.172  1.00  0.00    -0.246 OA
BRANCH   4   6
ATOM      6  C   UNL A   1      44.197  21.624  25.410  1.00  0.00     0.060 A 
ATOM      7  C   UNL A   1      45.207  24.207  25.505  1.00  0.00     0.067 A 
ATOM      8  C   UNL A   1      43.968  23.992  24.900  1.00  0.00     0.029 A 
ATOM      9  C   UNL A   1      45.864  23.175  26.190  1.00  0.00     0.029 A 
ATOM     10  C   UNL A   1      43.477  22.685  24.832  1.00  0.00     0.018 A 
ATOM     11  C   UNL A   1      45.353  21.885  26.150  1.00  0.00     0.018 A 
BRANCH   7  12
ATOM     12  N   UNL A   1      45.895  25.416  25.286  1.00  0.00    -0.217 N 
ATOM     13  C   UNL A   1      46.628  27.467  25.412  1.00  0.00     0.151 A 
ATOM     14  N   UNL A   1      47.132  26.868  24.282  1.00  0.00    -0.126 NA
ATOM     15  C   UNL A   1      45.891  26.530  26.120  1.00  0.00     0.073 A 
ATOM     16  N   UNL A   1      46.782  25.588  24.291  1.00  0.00    -0.061 NA
ATOM     17  C   UNL A   1      45.251  26.518  27.461  1.00  0.00     0.069 C 
BRANCH  13  18
ATOM     18  C   UNL A   1      46.938  28.856  25.732  1.00  0.00     0.181 C 
ATOM     19  C   UNL A   1      47.903  29.148  26.852  1.00  0.00     0.095 C 
ATOM     20  O   UNL A   1      46.433  29.791  25.109  1.00  0.00    -0.293 OA
ENDBRANCH  13  18
ENDBRANCH   7  12
ENDBRANCH   4   6
ENDBRANCH   3   4
ENDBRANCH   2   3
ENDBRANCH   1   2
BRANCH   1  21
ATOM     21  O   UNL A   1      41.092  21.804  27.088  1.00  0.00    -0.458 OA
BRANCH  21  22
ATOM     22  C   UNL A   1      40.036  22.621  26.880  1.00  0.00     0.338 C 
ATOM     23  O   UNL A   1      38.932  22.308  26.464  1.00  0.00    -0.246 OA
BRANCH  22  24
ATOM     24  C   UNL A   1      40.469  24.010  27.031  1.00  0.00     0.060 A 
ATOM     25  C   UNL A   1      41.681  24.235  27.691  1.00  0.00     0.016 A 
ATOM     26  C   UNL A   1      39.545  25.040  26.802  1.00  0.00     0.016 A 
ATOM     27  C   UNL A   1      41.877  25.457  28.298  1.00  0.00     0.010 A 
ATOM     28  C   UNL A   1      39.737  26.253  27.416  1.00  0.00     0.010 A 
ATOM     29  C   UNL A   1      40.858  26.413  28.226  1.00  0.00    -0.014 A 
BRANCH  29  30
ATOM     30  C   UNL A   1      41.013  27.631  28.988  1.00  0.00     0.031 A 
ATOM     31  C   UNL A   1      42.085  28.515  28.482  1.00  0.00     0.074 A 
ATOM     32  C   UNL A   1      40.168  27.972  29.978  1.00  0.00     0.049 A 
ATOM     33  N   UNL A   1      43.187  28.843  29.067  1.00  0.00    -0.248 NA
ATOM     34  C   UNL A   1      41.982  28.962  27.083  1.00  0.00     0.031 C 
ATOM     35  C   UNL A   1      38.902  27.336  30.355  1.00  0.00     0.029 A 
ATOM     36  N   UNL A   1      40.213  29.063  30.781  1.00  0.00    -0.354 N 
ATOM     37  C   UNL A   1      43.839  29.695  28.185  1.00  0.00     0.074 A 
ATOM     38  C   UNL A   1      43.145  29.593  26.926  1.00  0.00     0.031 C 
ATOM     39  C   UNL A   1      38.193  28.191  31.127  1.00  0.00     0.029 A 
ATOM     40  C   UNL A   1      39.013  29.358  31.409  1.00  0.00     0.049 A 
ATOM     41  H   UNL A   1      41.029  29.601  30.907  1.00  0.00     0.167 HD
ATOM     42  C   UNL A   1      44.762  30.600  28.610  1.00  0.00     0.031 A 
ATOM     43  C   UNL A   1      38.704  30.524  32.032  1.00  0.00     0.031 A 
ATOM     44  C   UNL A   1      45.222  30.316  29.941  1.00  0.00     0.049 A 
ATOM     45  C   UNL A   1      39.987  31.211  32.335  1.00  0.00     0.074 A 
ATOM     46  C   UNL A   1      45.885  29.256  30.527  1.00  0.00     0.029 A 
ATOM     47  N   UNL A   1      44.651  31.028  30.970  1.00  0.00    -0.354 N 
ATOM     48  N   UNL A   1      40.870  30.749  33.176  1.00  0.00    -0.248 NA
ATOM     49  C   UNL A   1      40.497  32.169  31.364  1.00  0.00     0.031 C 
ATOM     50  C   UNL A   1      45.291  29.118  31.814  1.00  0.00     0.029 A 
ATOM     51  C   UNL A   1      44.344  30.135  31.965  1.00  0.00     0.049 A 
ATOM     52  H   UNL A   1      44.492  32.000  30.989  1.00  0.00     0.167 HD
ATOM     53  C   UNL A   1      42.100  31.024  32.593  1.00  0.00     0.074 A 
ATOM     54  C   UNL A   1      41.809  31.980  31.528  1.00  0.00     0.031 C 
ATOM     55  C   UNL A   1      43.197  30.247  32.843  1.00  0.00     0.031 A 
BRANCH  42  56
ATOM     56  C   UNL A   1      44.947  31.946  27.961  1.00  0.00    -0.014 A 
ATOM     57  C   UNL A   1      46.229  32.320  27.516  1.00  0.00     0.010 A 
ATOM     58  C   UNL A   1      43.966  32.958  28.021  1.00  0.00     0.010 A 
ATOM     59  C   UNL A   1      46.526  33.655  27.210  1.00  0.00     0.020 A 
ATOM     60  C   UNL A   1      44.238  34.280  27.674  1.00  0.00     0.020 A 
ATOM     61  C   UNL A   1      45.529  34.626  27.304  1.00  0.00     0.054 A 
BRANCH  61  62
ATOM     62  S   UNL A   1      45.947  36.363  27.021  1.00  0.00     0.124 S 
ATOM     63  O   UNL A   1      46.697  36.691  28.229  1.00  0.00    -0.237 OA
ATOM     64  O   UNL A   1      46.726  36.296  25.788  1.00  0.00    -0.237 OA
ATOM     65  O   UNL A   1      44.644  37.013  26.896  1.00  0.00    -0.744 OA
ENDBRANCH  61  62
ENDBRANCH  42  56
BRANCH  43  66
ATOM     66  C   UNL A   1      37.392  31.222  32.032  1.00  0.00    -0.014 A 
ATOM     67  C   UNL A   1      36.821  31.697  33.227  1.00  0.00     0.010 A 
ATOM     68  C   UNL A   1      36.828  31.666  30.816  1.00  0.00     0.010 A 
ATOM     69  C   UNL A   1      35.763  32.624  33.205  1.00  0.00     0.020 A 
ATOM     70  C   UNL A   1      35.771  32.582  30.786  1.00  0.00     0.020 A 
ATOM     71  C   UNL A   1      35.258  33.077  31.983  1.00  0.00     0.054 A 
BRANCH  71  72
ATOM     72  S   UNL A   1      34.016  34.404  31.961  1.00  0.00     0.124 S 
ATOM     73  O   UNL A   1      34.792  35.562  32.395  1.00  0.00    -0.237 OA
ATOM     74  O   UNL A   1      33.590  34.416  30.565  1.00  0.00    -0.237 OA
ATOM     75  O   UNL A   1      33.004  33.946  32.911  1.00  0.00    -0.744 OA
ENDBRANCH  71  72
ENDBRANCH  43  66
BRANCH  55  76
ATOM     76  C   UNL A   1      43.133  29.240  33.968  1.00  0.00    -0.014 A 
ATOM     77  C   UNL A   1      43.275  29.581  35.327  1.00  0.00     0.010 A 
ATOM     78  C   UNL A   1      42.704  27.941  33.642  1.00  0.00     0.010 A 
ATOM     79  C   UNL A   1      42.993  28.642  36.333  1.00  0.00     0.020 A 
ATOM     80  C   UNL A   1      42.407  27.008  34.638  1.00  0.00     0.020 A 
ATOM     81  C   UNL A   1      42.552  27.363  35.980  1.00  0.00     0.054 A 
BRANCH  81  82
ATOM     82  S   UNL A   1      42.094  26.182  37.281  1.00  0.00     0.124 S 
ATOM     83  O   UNL A   1      42.176  24.898  36.588  1.00  0.00    -0.237 OA
ATOM     84  O   UNL A   1      43.112  26.410  38.303  1.00  0.00    -0.237 OA
ATOM     85  O   UNL A   1      40.743  26.591  37.664  1.00  0.00    -0.744 OA
ENDBRANCH  81  82
ENDBRANCH  55  76
ENDBRANCH  29  30
ENDBRANCH  22  24
ENDBRANCH  21  22
ENDBRANCH   1  21
TORSDOF 16
ENDMDL
MODEL 2
REMARK VINA RESULT:     -10.3      3.426      6.016
REMARK SMILES CC(=O)c1nnn(-c2ccc(C(=O)OCCOC(=O)c3ccc(-c4c5nc(c(-c6ccc(S(=O)(=O)[O-])cc6)c6ccc([nH]6)c(-c6ccc(S(=O)(=O)[O-])cc6)c6nc(c(-c7ccc(S(=O)(=O)[O-])cc7)c7ccc4[nH]7)C=C6)C=C5)cc3)cc2)c1C
REMARK SMILES IDX 16 1 15 2 14 3 12 4 13 5 11 6 8 7 9 8 81 9 10 10 80 11 7 12
REMARK SMILES IDX 4 13 5 14 82 15 6 16 83 17 2 18 1 19 3 20 17 21 18 22 19 23
REMARK SMILES IDX 20 24 21 25 79 26 22 27 78 28 23 29 24 30 25 31 72 32 26 33
REMARK SMILES IDX 77 34 71 35 73 36 27 37 76 38 70 39 69 40 28 42 58 43 39 44
REMARK SMILES IDX 57 45 40 46 43 47 56 48 74 49 41 50 42 51 55 53 75 54 44 55
REMARK SMILES IDX 29 56 30 57 38 58 31 59 37 60 32 61 33 62 34 63 35 64 36 65
REMARK SMILES IDX 59 66 60 67 68 68 61 69 67 70 62 71 63 72 64 73 65 74 66 75
REMARK SMILES IDX 45 76 46 77 54 78 47 79 53 80 48 81 49 82 50 83 51 84 52 85
REMARK H PARENT 73 41 43 52
REMARK Flexibility Score: inf
ROOT
ATOM      1  C   UNL A   1      43.751  18.666  25.047  1.00  0.00     0.275 C 
ENDROOT
BRANCH   1   2
ATOM      2  C   UNL A   1      42.710  18.603  26.155  1.00  0.00     0.275 C 
BRANCH   2   3
ATOM      3  O   UNL A   1      41.513  19.303  25.781  1.00  0.00    -0.458 OA
BRANCH   3   4
ATOM      4  C   UNL A   1      41.265  20.463  26.455  1.00  0.00     0.338 C 
ATOM      5  O   UNL A   1      42.023  21.041  27.198  1.00  0.00    -0.246 OA
BRANCH   4   6
ATOM      6  C   UNL A   1      39.908  20.966  26.110  1.00  0.00     0.060 A 
ATOM      7  C   UNL A   1      37.500  21.943  25.135  1.00  0.00     0.067 A 
ATOM      8  C   UNL A   1      37.787  20.586  24.980  1.00  0.00     0.029 A 
ATOM      9  C   UNL A   1      38.331  22.773  25.901  1.00  0.00     0.029 A 
ATOM     10  C   UNL A   1      39.012  20.106  25.449  1.00  0.00     0.018 A 
ATOM     11  C   UNL A   1      39.531  22.280  26.397  1.00  0.00     0.018 A 
BRANCH   7  12
ATOM     12  N   UNL A   1      36.468  22.534  24.381  1.00  0.00    -0.217 N 
ATOM     13  C   UNL A   1      34.554  23.338  23.709  1.00  0.00     0.151 A 
ATOM     14  N   UNL A   1      35.441  23.324  22.658  1.00  0.00    -0.126 NA
ATOM     15  C   UNL A   1      35.214  22.909  24.851  1.00  0.00     0.073 A 
ATOM     16  N   UNL A   1      36.631  22.955  23.115  1.00  0.00    -0.061 NA
ATOM     17  C   UNL A   1      34.856  22.859  26.292  1.00  0.00     0.069 C 
BRANCH  13  18
ATOM     18  C   UNL A   1      33.184  23.805  23.534  1.00  0.00     0.181 C 
ATOM     19  C   UNL A   1      32.148  22.844  23.011  1.00  0.00     0.095 C 
ATOM     20  O   UNL A   1      32.855  24.961  23.805  1.00  0.00    -0.293 OA
ENDBRANCH  13  18
ENDBRANCH   7  12
ENDBRANCH   4   6
ENDBRANCH   3   4
ENDBRANCH   2   3
ENDBRANCH   1   2
BRANCH   1  21
ATOM     21  O   UNL A   1      43.823  19.974  24.486  1.00  0.00    -0.458 OA
BRANCH  21  22
ATOM     22  C   UNL A   1      45.069  20.486  24.380  1.00  0.00     0.338 C 
ATOM     23  O   UNL A   1      46.115  19.865  24.273  1.00  0.00    -0.246 OA
BRANCH  22  24
ATOM     24  C   UNL A   1      45.017  21.928  24.626  1.00  0.00     0.060 A 
ATOM     25  C   UNL A   1      46.112  22.507  25.272  1.00  0.00     0.016 A 
ATOM     26  C   UNL A   1      43.790  22.596  24.496  1.00  0.00     0.016 A 
ATOM     27  C   UNL A   1      45.914  23.682  25.965  1.00  0.00     0.010 A 
ATOM     28  C   UNL A   1      43.592  23.761  25.195  1.00  0.00     0.010 A 
ATOM     29  C   UNL A   1      44.632  24.239  25.988  1.00  0.00    -0.014 A 
BRANCH  29  30
ATOM     30  C   UNL A   1      44.404  25.388  26.836  1.00  0.00     0.031 A 
ATOM     31  C   UNL A   1      45.399  26.466  26.654  1.00  0.00     0.074 A 
ATOM     32  C   UNL A   1      43.312  25.501  27.614  1.00  0.00     0.049 A 
ATOM     33  N   UNL A   1      46.269  26.896  27.504  1.00  0.00    -0.248 NA
ATOM     34  C   UNL A   1      45.542  27.027  25.301  1.00  0.00     0.031 C 
ATOM     35  C   UNL A   1      42.118  24.650  27.640  1.00  0.00     0.029 A 
ATOM     36  N   UNL A   1      42.991  26.504  28.468  1.00  0.00    -0.354 N 
ATOM     37  C   UNL A   1      46.951  27.918  26.855  1.00  0.00     0.074 A 
ATOM     38  C   UNL A   1      46.587  27.835  25.463  1.00  0.00     0.031 C 
ATOM     39  C   UNL A   1      41.120  25.312  28.270  1.00  0.00     0.029 A 
ATOM     40  C   UNL A   1      41.647  26.555  28.807  1.00  0.00     0.049 A 
ATOM     41  H   UNL A   1      43.655  27.143  28.816  1.00  0.00     0.167 HD
ATOM     42  C   UNL A   1      47.590  28.904  27.541  1.00  0.00     0.031 A 
ATOM     43  C   UNL A   1      41.015  27.596  29.407  1.00  0.00     0.031 A 
ATOM     44  C   UNL A   1      47.777  28.564  28.924  1.00  0.00     0.049 A 
ATOM     45  C   UNL A   1      42.063  28.434  30.047  1.00  0.00     0.074 A 
ATOM     46  C   UNL A   1      48.459  27.563  29.588  1.00  0.00     0.029 A 
ATOM     47  N   UNL A   1      46.878  29.080  29.827  1.00  0.00    -0.354 N 
ATOM     48  N   UNL A   1      42.797  28.029  31.046  1.00  0.00    -0.248 NA
ATOM     49  C   UNL A   1      42.612  29.547  29.285  1.00  0.00     0.031 C 
ATOM     50  C   UNL A   1      47.621  27.215  30.685  1.00  0.00     0.029 A 
ATOM     51  C   UNL A   1      46.508  28.059  30.665  1.00  0.00     0.049 A 
ATOM     52  H   UNL A   1      46.558  30.011  29.865  1.00  0.00     0.167 HD
ATOM     53  C   UNL A   1      44.064  28.539  30.791  1.00  0.00     0.074 A 
ATOM     54  C   UNL A   1      43.865  29.540  29.746  1.00  0.00     0.031 C 
ATOM     55  C   UNL A   1      45.189  27.914  31.249  1.00  0.00     0.031 A 
BRANCH  42  56
ATOM     56  C   UNL A   1      47.689  30.319  27.036  1.00  0.00    -0.014 A 
ATOM     57  C   UNL A   1      48.928  30.983  27.099  1.00  0.00     0.010 A 
ATOM     58  C   UNL A   1      46.551  31.106  26.756  1.00  0.00     0.010 A 
ATOM     59  C   UNL A   1      49.011  32.374  26.954  1.00  0.00     0.020 A 
ATOM     60  C   UNL A   1      46.628  32.484  26.563  1.00  0.00     0.020 A 
ATOM     61  C   UNL A   1      47.856  33.114  26.699  1.00  0.00     0.054 A 
BRANCH  61  62
ATOM     62  S   UNL A   1      47.952  34.919  26.629  1.00  0.00     0.124 S 
ATOM     63  O   UNL A   1      48.688  35.228  27.851  1.00  0.00    -0.237 OA
ATOM     64  O   UNL A   1      48.673  35.142  25.379  1.00  0.00    -0.237 OA
ATOM     65  O   UNL A   1      46.551  35.336  26.619  1.00  0.00    -0.744 OA
ENDBRANCH  61  62
ENDBRANCH  42  56
BRANCH  43  66
ATOM     66  C   UNL A   1      39.640  28.088  29.135  1.00  0.00    -0.014 A 
ATOM     67  C   UNL A   1      38.684  28.179  30.163  1.00  0.00     0.010 A 
ATOM     68  C   UNL A   1      39.347  28.729  27.912  1.00  0.00     0.010 A 
ATOM     69  C   UNL A   1      37.507  28.930  29.992  1.00  0.00     0.020 A 
ATOM     70  C   UNL A   1      38.175  29.472  27.731  1.00  0.00     0.020 A 
ATOM     71  C   UNL A   1      37.270  29.590  28.783  1.00  0.00     0.054 A 
BRANCH  71  72
ATOM     72  S   UNL A   1      35.839  30.701  28.631  1.00  0.00     0.124 S 
ATOM     73  O   UNL A   1      34.832  29.831  28.031  1.00  0.00    -0.237 OA
ATOM     74  O   UNL A   1      35.593  31.093  30.015  1.00  0.00    -0.237 OA
ATOM     75  O   UNL A   1      36.327  31.773  27.764  1.00  0.00    -0.744 OA
ENDBRANCH  71  72
ENDBRANCH  43  66
BRANCH  55  76
ATOM     76  C   UNL A   1      45.042  26.804  32.264  1.00  0.00    -0.014 A 
ATOM     77  C   UNL A   1      44.966  27.025  33.654  1.00  0.00     0.010 A 
ATOM     78  C   UNL A   1      44.761  25.517  31.772  1.00  0.00     0.010 A 
ATOM     79  C   UNL A   1      44.615  25.981  34.526  1.00  0.00     0.020 A 
ATOM     80  C   UNL A   1      44.396  24.479  32.632  1.00  0.00     0.020 A 
ATOM     81  C   UNL A   1      44.324  24.716  34.006  1.00  0.00     0.054 A 
BRANCH  81  82
ATOM     82  S   UNL A   1      43.776  23.392  35.123  1.00  0.00     0.124 S 
ATOM     83  O   UNL A   1      42.335  23.618  35.199  1.00  0.00    -0.237 OA
ATOM     84  O   UNL A   1      44.186  22.180  34.419  1.00  0.00    -0.237 OA
ATOM     85  O   UNL A   1      44.508  23.656  36.361  1.00  0.00    -0.744 OA
ENDBRANCH  81  82
ENDBRANCH  55  76
ENDBRANCH  29  30
ENDBRANCH  22  24
ENDBRANCH  21  22
ENDBRANCH   1  21
TORSDOF 16
ENDMDL
MODEL 3
REMARK VINA RESULT:     -10.0      4.161      6.487
REMARK SMILES CC(=O)c1nnn(-c2ccc(C(=O)OCCOC(=O)c3ccc(-c4c5nc(c(-c6ccc(S(=O)(=O)[O-])cc6)c6ccc([nH]6)c(-c6ccc(S(=O)(=O)[O-])cc6)c6nc(c(-c7ccc(S(=O)(=O)[O-])cc7)c7ccc4[nH]7)C=C6)C=C5)cc3)cc2)c1C
REMARK SMILES IDX 16 1 15 2 14 3 12 4 13 5 11 6 8 7 9 8 81 9 10 10 80 11 7 12
REMARK SMILES IDX 4 13 5 14 82 15 6 16 83 17 2 18 1 19 3 20 17 21 18 22 19 23
REMARK SMILES IDX 20 24 21 25 79 26 22 27 78 28 23 29 24 30 25 31 72 32 26 33
REMARK SMILES IDX 77 34 71 35 73 36 27 37 76 38 70 39 69 40 28 42 58 43 39 44
REMARK SMILES IDX 57 45 40 46 43 47 56 48 74 49 41 50 42 51 55 53 75 54 44 55
REMARK SMILES IDX 29 56 30 57 38 58 31 59 37 60 32 61 33 62 34 63 35 64 36 65
REMARK SMILES IDX 59 66 60 67 68 68 61 69 67 70 62 71 63 72 64 73 65 74 66 75
REMARK SMILES IDX 45 76 46 77 54 78 47 79 53 80 48 81 49 82 50 83 51 84 52 85
REMARK H PARENT 73 41 43 52
REMARK Flexibility Score: inf
ROOT
ATOM      1  C   UNL A   1      37.927  21.954  25.174  1.00  0.00     0.275 C 
ENDROOT
BRANCH   1   2
ATOM      2  C   UNL A   1      36.604  21.232  25.387  1.00  0.00     0.275 C 
BRANCH   2   3
ATOM      3  O   UNL A   1      35.611  21.688  24.455  1.00  0.00    -0.458 OA
BRANCH   3   4
ATOM      4  C   UNL A   1      34.312  21.522  24.839  1.00  0.00     0.338 C 
ATOM      5  O   UNL A   1      33.848  20.568  25.419  1.00  0.00    -0.246 OA
BRANCH   4   6
ATOM      6  C   UNL A   1      33.522  22.730  24.480  1.00  0.00     0.060 A 
ATOM      7  C   UNL A   1      32.359  25.136  23.729  1.00  0.00     0.067 A 
ATOM      8  C   UNL A   1      32.665  24.200  22.740  1.00  0.00     0.029 A 
ATOM      9  C   UNL A   1      32.487  24.817  25.088  1.00  0.00     0.029 A 
ATOM     10  C   UNL A   1      33.275  23.002  23.122  1.00  0.00     0.018 A 
ATOM     11  C   UNL A   1      33.061  23.610  25.463  1.00  0.00     0.018 A 
BRANCH   7  12
ATOM     12  N   UNL A   1      32.084  26.470  23.372  1.00  0.00    -0.217 N 
ATOM     13  C   UNL A   1      31.092  28.339  22.837  1.00  0.00     0.151 A 
ATOM     14  N   UNL A   1      32.453  28.486  22.703  1.00  0.00    -0.126 NA
ATOM     15  C   UNL A   1      30.831  27.074  23.343  1.00  0.00     0.073 A 
ATOM     16  N   UNL A   1      33.043  27.386  23.154  1.00  0.00    -0.061 NA
ATOM     17  C   UNL A   1      29.608  26.395  23.843  1.00  0.00     0.069 C 
BRANCH  13  18
ATOM     18  C   UNL A   1      30.180  29.431  22.519  1.00  0.00     0.181 C 
ATOM     19  C   UNL A   1      29.590  30.240  23.645  1.00  0.00     0.095 C 
ATOM     20  O   UNL A   1      29.884  29.708  21.356  1.00  0.00    -0.293 OA
ENDBRANCH  13  18
ENDBRANCH   7  12
ENDBRANCH   4   6
ENDBRANCH   3   4
ENDBRANCH   2   3
ENDBRANCH   1   2
BRANCH   1  21
ATOM     21  O   UNL A   1      38.253  22.766  26.299  1.00  0.00    -0.458 OA
BRANCH  21  22
ATOM     22  C   UNL A   1      39.502  22.598  26.785  1.00  0.00     0.338 C 
ATOM     23  O   UNL A   1      40.006  21.558  27.181  1.00  0.00    -0.246 OA
BRANCH  22  24
ATOM     24  C   UNL A   1      40.124  23.910  26.972  1.00  0.00     0.060 A 
ATOM     25  C   UNL A   1      41.260  23.970  27.785  1.00  0.00     0.016 A 
ATOM     26  C   UNL A   1      39.410  25.060  26.604  1.00  0.00     0.016 A 
ATOM     27  C   UNL A   1      41.563  25.168  28.394  1.00  0.00     0.010 A 
ATOM     28  C   UNL A   1      39.707  26.250  27.221  1.00  0.00     0.010 A 
ATOM     29  C   UNL A   1      40.724  26.265  28.171  1.00  0.00    -0.014 A 
BRANCH  29  30
ATOM     30  C   UNL A   1      40.967  27.473  28.928  1.00  0.00     0.031 A 
ATOM     31  C   UNL A   1      42.074  28.295  28.395  1.00  0.00     0.074 A 
ATOM     32  C   UNL A   1      40.168  27.860  29.939  1.00  0.00     0.049 A 
ATOM     33  N   UNL A   1      43.207  28.559  28.952  1.00  0.00    -0.248 NA
ATOM     34  C   UNL A   1      41.962  28.749  26.999  1.00  0.00     0.031 C 
ATOM     35  C   UNL A   1      38.878  27.295  30.349  1.00  0.00     0.029 A 
ATOM     36  N   UNL A   1      40.295  28.946  30.740  1.00  0.00    -0.354 N 
ATOM     37  C   UNL A   1      43.884  29.375  28.054  1.00  0.00     0.074 A 
ATOM     38  C   UNL A   1      43.154  29.313  26.813  1.00  0.00     0.031 C 
ATOM     39  C   UNL A   1      38.238  28.189  31.138  1.00  0.00     0.029 A 
ATOM     40  C   UNL A   1      39.129  29.308  31.399  1.00  0.00     0.049 A 
ATOM     41  H   UNL A   1      41.142  29.436  30.845  1.00  0.00     0.167 HD
ATOM     42  C   UNL A   1      44.867  30.225  28.454  1.00  0.00     0.031 A 
ATOM     43  C   UNL A   1      38.903  30.488  32.029  1.00  0.00     0.031 A 
ATOM     44  C   UNL A   1      45.344  29.914  29.774  1.00  0.00     0.049 A 
ATOM     45  C   UNL A   1      40.230  31.101  32.299  1.00  0.00     0.074 A 
ATOM     46  C   UNL A   1      45.961  28.818  30.343  1.00  0.00     0.029 A 
ATOM     47  N   UNL A   1      44.840  30.656  30.816  1.00  0.00    -0.354 N 
ATOM     48  N   UNL A   1      41.106  30.589  33.117  1.00  0.00    -0.248 NA
ATOM     49  C   UNL A   1      40.769  32.030  31.315  1.00  0.00     0.031 C 
ATOM     50  C   UNL A   1      45.392  28.713  31.645  1.00  0.00     0.029 A 
ATOM     51  C   UNL A   1      44.508  29.781  31.819  1.00  0.00     0.049 A 
ATOM     52  H   UNL A   1      44.737  31.636  30.839  1.00  0.00     0.167 HD
ATOM     53  C   UNL A   1      42.335  30.795  32.504  1.00  0.00     0.074 A 
ATOM     54  C   UNL A   1      42.072  31.767  31.445  1.00  0.00     0.031 C 
ATOM     55  C   UNL A   1      43.392  29.957  32.726  1.00  0.00     0.031 A 
BRANCH  42  56
ATOM     56  C   UNL A   1      45.111  31.559  27.801  1.00  0.00    -0.014 A 
ATOM     57  C   UNL A   1      46.433  31.944  27.505  1.00  0.00     0.010 A 
ATOM     58  C   UNL A   1      44.117  32.556  27.717  1.00  0.00     0.010 A 
ATOM     59  C   UNL A   1      46.747  33.277  27.205  1.00  0.00     0.020 A 
ATOM     60  C   UNL A   1      44.411  33.874  27.373  1.00  0.00     0.020 A 
ATOM     61  C   UNL A   1      45.733  34.233  27.154  1.00  0.00     0.054 A 
BRANCH  61  62
ATOM     62  S   UNL A   1      46.159  35.970  26.882  1.00  0.00     0.124 S 
ATOM     63  O   UNL A   1      46.961  36.271  28.065  1.00  0.00    -0.237 OA
ATOM     64  O   UNL A   1      46.887  35.915  25.618  1.00  0.00    -0.237 OA
ATOM     65  O   UNL A   1      44.859  36.635  26.820  1.00  0.00    -0.744 OA
ENDBRANCH  61  62
ENDBRANCH  42  56
BRANCH  43  66
ATOM     66  C   UNL A   1      37.633  31.259  32.061  1.00  0.00    -0.014 A 
ATOM     67  C   UNL A   1      37.045  31.639  33.281  1.00  0.00     0.010 A 
ATOM     68  C   UNL A   1      37.141  31.861  30.883  1.00  0.00     0.010 A 
ATOM     69  C   UNL A   1      36.041  32.624  33.325  1.00  0.00     0.020 A 
ATOM     70  C   UNL A   1      36.139  32.837  30.918  1.00  0.00     0.020 A 
ATOM     71  C   UNL A   1      35.609  33.232  32.144  1.00  0.00     0.054 A 
BRANCH  71  72
ATOM     72  S   UNL A   1      34.445  34.626  32.224  1.00  0.00     0.124 S 
ATOM     73  O   UNL A   1      34.237  34.939  30.813  1.00  0.00    -0.237 OA
ATOM     74  O   UNL A   1      33.300  34.044  32.918  1.00  0.00    -0.237 OA
ATOM     75  O   UNL A   1      35.175  35.642  32.982  1.00  0.00    -0.744 OA
ENDBRANCH  71  72
ENDBRANCH  43  66
BRANCH  55  76
ATOM     76  C   UNL A   1      43.300  28.954  33.852  1.00  0.00    -0.014 A 
ATOM     77  C   UNL A   1      43.730  29.219  35.168  1.00  0.00     0.010 A 
ATOM     78  C   UNL A   1      42.559  27.783  33.610  1.00  0.00     0.010 A 
ATOM     79  C   UNL A   1      43.422  28.332  36.213  1.00  0.00     0.020 A 
ATOM     80  C   UNL A   1      42.236  26.906  34.648  1.00  0.00     0.020 A 
ATOM     81  C   UNL A   1      42.669  27.184  35.945  1.00  0.00     0.054 A 
BRANCH  81  82
ATOM     82  S   UNL A   1      42.189  26.088  37.311  1.00  0.00     0.124 S 
ATOM     83  O   UNL A   1      43.086  26.507  38.385  1.00  0.00    -0.237 OA
ATOM     84  O   UNL A   1      40.779  26.412  37.509  1.00  0.00    -0.237 OA
ATOM     85  O   UNL A   1      42.439  24.746  36.786  1.00  0.00    -0.744 OA
ENDBRANCH  81  82
ENDBRANCH  55  76
ENDBRANCH  29  30
ENDBRANCH  22  24
ENDBRANCH  21  22
ENDBRANCH   1  21
TORSDOF 16
ENDMDL
