MODEL 1
REMARK VINA RESULT:     -10.4      0.000      0.000
REMARK SMILES Cc1cc(Br)cnc1Sc1nc(CC(=O)OCCOC(=O)c2ccc(-c3c4nc(c(-c5ccc(S(=O)(=O)[O-])cc5)c5ccc([nH]5)c(-c5ccc(S(=O)(=O)[O-])cc5)c5nc(c(-c6ccc(S(=O)(=O)[O-])cc6)c6ccc3[nH]6)C=C5)C=C4)cc2)cs1
REMARK SMILES IDX 17 1 16 2 14 3 15 4 13 5 12 6 10 7 11 8 83 9 82 10 9 11 8 12
REMARK SMILES IDX 1 13 2 14 3 15 4 16 7 17 5 18 6 19 18 20 19 21 20 22 21 23
REMARK SMILES IDX 22 24 23 25 81 26 24 27 80 28 25 29 26 30 27 31 74 32 28 33
REMARK SMILES IDX 79 34 73 35 75 36 29 37 78 38 72 39 71 40 30 42 60 43 41 44
REMARK SMILES IDX 59 45 42 46 45 47 58 48 76 49 43 50 44 51 57 53 77 54 46 55
REMARK SMILES IDX 31 56 32 57 40 58 33 59 39 60 34 61 35 62 36 63 37 64 38 65
REMARK SMILES IDX 61 66 62 67 70 68 63 69 69 70 64 71 65 72 66 73 67 74 68 75
REMARK SMILES IDX 47 76 48 77 56 78 49 79 55 80 50 81 51 82 52 83 53 84 54 85
REMARK H PARENT 75 41 45 52
REMARK Flexibility Score: inf
ROOT
ATOM      1  C   UNL A   1      36.463  20.832  25.149  1.00  0.00     0.274 C 
ENDROOT
BRANCH   1   2
ATOM      2  O   UNL A   1      35.679  21.487  26.165  1.00  0.00    -0.462 OA
BRANCH   2   3
ATOM      3  C   UNL A   1      34.339  21.261  26.119  1.00  0.00     0.312 C 
ATOM      4  O   UNL A   1      33.783  20.566  25.275  1.00  0.00    -0.252 OA
BRANCH   3   5
ATOM      5  C   UNL A   1      33.563  22.029  27.158  1.00  0.00     0.179 C 
BRANCH   5   6
ATOM      6  C   UNL A   1      32.948  23.315  26.712  1.00  0.00     0.064 A 
ATOM      7  C   UNL A   1      33.027  25.218  25.566  1.00  0.00     0.156 A 
ATOM      8  N   UNL A   1      33.748  24.205  25.994  1.00  0.00    -0.234 NA
ATOM      9  S   UNL A   1      31.389  25.229  26.082  1.00  0.00    -0.116 S 
ATOM     10  C   UNL A   1      31.627  23.705  26.819  1.00  0.00     0.092 A 
BRANCH   7  11
ATOM     11  S   UNL A   1      33.645  26.491  24.563  1.00  0.00    -0.039 SA
BRANCH  11  12
ATOM     12  C   UNL A   1      32.229  27.481  24.135  1.00  0.00     0.106 A 
ATOM     13  C   UNL A   1      32.218  29.178  26.085  1.00  0.00     0.047 C 
ATOM     14  C   UNL A   1      31.724  28.621  24.783  1.00  0.00    -0.017 A 
ATOM     15  C   UNL A   1      30.648  29.307  24.178  1.00  0.00     0.023 A 
ATOM     16  C   UNL A   1      30.149  28.895  22.953  1.00  0.00     0.036 A 
ATOM     17  N   UNL A   1      31.721  27.078  22.933  1.00  0.00    -0.248 NA
ATOM     18  Br  UNL A   1      28.761  29.841  22.103  1.00  0.00    -0.049 Br
ATOM     19  C   UNL A   1      30.715  27.784  22.371  1.00  0.00     0.128 A 
ENDBRANCH  11  12
ENDBRANCH   7  11
ENDBRANCH   5   6
ENDBRANCH   3   5
ENDBRANCH   2   3
ENDBRANCH   1   2
BRANCH   1  20
ATOM     20  C   UNL A   1      37.867  21.425  25.051  1.00  0.00     0.275 C 
BRANCH  20  21
ATOM     21  O   UNL A   1      38.038  22.476  26.018  1.00  0.00    -0.458 OA
BRANCH  21  22
ATOM     22  C   UNL A   1      39.317  22.751  26.352  1.00  0.00     0.338 C 
ATOM     23  O   UNL A   1      40.290  22.029  26.228  1.00  0.00    -0.246 OA
BRANCH  22  24
ATOM     24  C   UNL A   1      39.419  24.122  26.869  1.00  0.00     0.060 A 
ATOM     25  C   UNL A   1      40.107  25.085  26.128  1.00  0.00     0.016 A 
ATOM     26  C   UNL A   1      38.977  24.398  28.163  1.00  0.00     0.016 A 
ATOM     27  C   UNL A   1      40.404  26.319  26.705  1.00  0.00     0.010 A 
ATOM     28  C   UNL A   1      39.245  25.647  28.726  1.00  0.00     0.010 A 
ATOM     29  C   UNL A   1      39.995  26.600  28.017  1.00  0.00    -0.014 A 
BRANCH  29  30
ATOM     30  C   UNL A   1      40.419  27.861  28.676  1.00  0.00     0.031 A 
ATOM     31  C   UNL A   1      41.813  27.989  29.227  1.00  0.00     0.074 A 
ATOM     32  C   UNL A   1      39.561  28.890  28.778  1.00  0.00     0.049 A 
ATOM     33  N   UNL A   1      42.361  28.994  29.862  1.00  0.00    -0.248 NA
ATOM     34  C   UNL A   1      42.702  26.830  29.050  1.00  0.00     0.031 C 
ATOM     35  C   UNL A   1      38.185  28.898  28.282  1.00  0.00     0.029 A 
ATOM     36  N   UNL A   1      39.723  30.132  29.341  1.00  0.00    -0.354 N 
ATOM     37  C   UNL A   1      43.649  28.582  30.183  1.00  0.00     0.074 A 
ATOM     38  C   UNL A   1      43.794  27.230  29.686  1.00  0.00     0.031 C 
ATOM     39  C   UNL A   1      37.629  30.088  28.560  1.00  0.00     0.029 A 
ATOM     40  C   UNL A   1      38.598  30.915  29.273  1.00  0.00     0.049 A 
ATOM     41  H   UNL A   1      40.566  30.431  29.752  1.00  0.00     0.167 HD
ATOM     42  C   UNL A   1      44.624  29.263  30.833  1.00  0.00     0.031 A 
ATOM     43  C   UNL A   1      38.368  32.156  29.743  1.00  0.00     0.031 A 
ATOM     44  C   UNL A   1      44.488  30.607  31.327  1.00  0.00     0.049 A 
ATOM     45  C   UNL A   1      39.466  32.901  30.445  1.00  0.00     0.074 A 
ATOM     46  C   UNL A   1      45.426  31.385  31.984  1.00  0.00     0.029 A 
ATOM     47  N   UNL A   1      43.339  31.374  31.218  1.00  0.00    -0.354 N 
ATOM     48  N   UNL A   1      40.683  32.502  30.724  1.00  0.00    -0.248 NA
ATOM     49  C   UNL A   1      39.162  34.271  30.880  1.00  0.00     0.031 C 
ATOM     50  C   UNL A   1      44.833  32.616  32.294  1.00  0.00     0.029 A 
ATOM     51  C   UNL A   1      43.540  32.614  31.801  1.00  0.00     0.049 A 
ATOM     52  H   UNL A   1      42.503  31.081  30.791  1.00  0.00     0.167 HD
ATOM     53  C   UNL A   1      41.298  33.577  31.357  1.00  0.00     0.074 A 
ATOM     54  C   UNL A   1      40.321  34.647  31.406  1.00  0.00     0.031 C 
ATOM     55  C   UNL A   1      42.557  33.668  31.849  1.00  0.00     0.031 A 
BRANCH  42  56
ATOM     56  C   UNL A   1      45.914  28.529  31.076  1.00  0.00    -0.014 A 
ATOM     57  C   UNL A   1      46.932  28.508  30.106  1.00  0.00     0.010 A 
ATOM     58  C   UNL A   1      46.098  27.827  32.281  1.00  0.00     0.010 A 
ATOM     59  C   UNL A   1      48.088  27.748  30.311  1.00  0.00     0.020 A 
ATOM     60  C   UNL A   1      47.261  27.084  32.498  1.00  0.00     0.020 A 
ATOM     61  C   UNL A   1      48.236  27.027  31.500  1.00  0.00     0.054 A 
BRANCH  61  62
ATOM     62  S   UNL A   1      49.725  26.019  31.740  1.00  0.00     0.124 S 
ATOM     63  O   UNL A   1      50.033  25.614  30.371  1.00  0.00    -0.237 OA
ATOM     64  O   UNL A   1      50.665  26.961  32.342  1.00  0.00    -0.237 OA
ATOM     65  O   UNL A   1      49.274  24.946  32.623  1.00  0.00    -0.744 OA
ENDBRANCH  61  62
ENDBRANCH  42  56
BRANCH  43  66
ATOM     66  C   UNL A   1      37.028  32.766  29.543  1.00  0.00    -0.014 A 
ATOM     67  C   UNL A   1      36.111  32.830  30.606  1.00  0.00     0.010 A 
ATOM     68  C   UNL A   1      36.693  33.343  28.305  1.00  0.00     0.010 A 
ATOM     69  C   UNL A   1      34.881  33.473  30.436  1.00  0.00     0.020 A 
ATOM     70  C   UNL A   1      35.472  34.002  28.138  1.00  0.00     0.020 A 
ATOM     71  C   UNL A   1      34.574  34.061  29.205  1.00  0.00     0.054 A 
BRANCH  71  72
ATOM     72  S   UNL A   1      33.020  34.984  29.034  1.00  0.00     0.124 S 
ATOM     73  O   UNL A   1      32.488  34.936  30.392  1.00  0.00    -0.237 OA
ATOM     74  O   UNL A   1      33.475  36.296  28.579  1.00  0.00    -0.237 OA
ATOM     75  O   UNL A   1      32.277  34.214  28.038  1.00  0.00    -0.744 OA
ENDBRANCH  71  72
ENDBRANCH  43  66
BRANCH  55  76
ATOM     76  C   UNL A   1      42.956  34.980  32.465  1.00  0.00    -0.014 A 
ATOM     77  C   UNL A   1      43.580  35.981  31.698  1.00  0.00     0.010 A 
ATOM     78  C   UNL A   1      42.684  35.222  33.823  1.00  0.00     0.010 A 
ATOM     79  C   UNL A   1      43.961  37.188  32.290  1.00  0.00     0.020 A 
ATOM     80  C   UNL A   1      43.048  36.436  34.414  1.00  0.00     0.020 A 
ATOM     81  C   UNL A   1      43.701  37.404  33.648  1.00  0.00     0.054 A 
BRANCH  81  82
ATOM     82  S   UNL A   1      44.186  38.983  34.400  1.00  0.00     0.124 S 
ATOM     83  O   UNL A   1      43.144  39.882  33.915  1.00  0.00    -0.237 OA
ATOM     84  O   UNL A   1      44.144  38.690  35.831  1.00  0.00    -0.237 OA
ATOM     85  O   UNL A   1      45.522  39.223  33.860  1.00  0.00    -0.744 OA
ENDBRANCH  81  82
ENDBRANCH  55  76
ENDBRANCH  29  30
ENDBRANCH  22  24
ENDBRANCH  21  22
ENDBRANCH  20  21
ENDBRANCH   1  20
TORSDOF 17
ENDMDL
MODEL 2
REMARK VINA RESULT:     -10.2      5.213     10.731
REMARK SMILES Cc1cc(Br)cnc1Sc1nc(CC(=O)OCCOC(=O)c2ccc(-c3c4nc(c(-c5ccc(S(=O)(=O)[O-])cc5)c5ccc([nH]5)c(-c5ccc(S(=O)(=O)[O-])cc5)c5nc(c(-c6ccc(S(=O)(=O)[O-])cc6)c6ccc3[nH]6)C=C5)C=C4)cc2)cs1
REMARK SMILES IDX 17 1 16 2 14 3 15 4 13 5 12 6 10 7 11 8 83 9 82 10 9 11 8 12
REMARK SMILES IDX 1 13 2 14 3 15 4 16 7 17 5 18 6 19 18 20 19 21 20 22 21 23
REMARK SMILES IDX 22 24 23 25 81 26 24 27 80 28 25 29 26 30 27 31 74 32 28 33
REMARK SMILES IDX 79 34 73 35 75 36 29 37 78 38 72 39 71 40 30 42 60 43 41 44
REMARK SMILES IDX 59 45 42 46 45 47 58 48 76 49 43 50 44 51 57 53 77 54 46 55
REMARK SMILES IDX 31 56 32 57 40 58 33 59 39 60 34 61 35 62 36 63 37 64 38 65
REMARK SMILES IDX 61 66 62 67 70 68 63 69 69 70 64 71 65 72 66 73 67 74 68 75
REMARK SMILES IDX 47 76 48 77 56 78 49 79 55 80 50 81 51 82 52 83 53 84 54 85
REMARK H PARENT 75 41 45 52
REMARK Flexibility Score: inf
ROOT
ATOM      1  C   UNL A   1      44.836  25.335  25.157  1.00  0.00     0.274 C 
ENDROOT
BRANCH   1   2
ATOM      2  O   UNL A   1      45.880  24.497  24.623  1.00  0.00    -0.462 OA
BRANCH   2   3
ATOM      3  C   UNL A   1      45.868  23.201  25.033  1.00  0.00     0.312 C 
ATOM      4  O   UNL A   1      46.399  22.795  26.063  1.00  0.00    -0.252 OA
BRANCH   3   5
ATOM      5  C   UNL A   1      45.215  22.264  24.050  1.00  0.00     0.179 C 
BRANCH   5   6
ATOM      6  C   UNL A   1      44.683  20.983  24.606  1.00  0.00     0.064 A 
ATOM      7  C   UNL A   1      43.373  19.864  26.009  1.00  0.00     0.156 A 
ATOM      8  N   UNL A   1      43.858  21.053  25.728  1.00  0.00    -0.234 NA
ATOM      9  S   UNL A   1      43.954  18.580  25.028  1.00  0.00    -0.116 S 
ATOM     10  C   UNL A   1      44.811  19.712  24.078  1.00  0.00     0.092 A 
BRANCH   7  11
ATOM     11  S   UNL A   1      42.236  19.557  27.283  1.00  0.00    -0.039 SA
BRANCH  11  12
ATOM     12  C   UNL A   1      40.989  20.815  27.112  1.00  0.00     0.106 A 
ATOM     13  C   UNL A   1      41.932  22.648  28.672  1.00  0.00     0.047 C 
ATOM     14  C   UNL A   1      40.954  22.102  27.674  1.00  0.00    -0.017 A 
ATOM     15  C   UNL A   1      39.905  22.967  27.290  1.00  0.00     0.023 A 
ATOM     16  C   UNL A   1      38.976  22.569  26.343  1.00  0.00     0.036 A 
ATOM     17  N   UNL A   1      40.061  20.431  26.186  1.00  0.00    -0.248 NA
ATOM     18  Br  UNL A   1      37.613  23.737  25.771  1.00  0.00    -0.049 Br
ATOM     19  C   UNL A   1      39.094  21.303  25.819  1.00  0.00     0.128 A 
ENDBRANCH  11  12
ENDBRANCH   7  11
ENDBRANCH   5   6
ENDBRANCH   3   5
ENDBRANCH   2   3
ENDBRANCH   1   2
BRANCH   1  20
ATOM     20  C   UNL A   1      43.453  24.733  24.919  1.00  0.00     0.275 C 
BRANCH  20  21
ATOM     21  O   UNL A   1      42.656  24.813  26.114  1.00  0.00    -0.458 OA
BRANCH  21  22
ATOM     22  C   UNL A   1      41.766  25.828  26.148  1.00  0.00     0.338 C 
ATOM     23  O   UNL A   1      41.027  26.199  25.253  1.00  0.00    -0.246 OA
BRANCH  22  24
ATOM     24  C   UNL A   1      41.751  26.441  27.482  1.00  0.00     0.060 A 
ATOM     25  C   UNL A   1      40.720  26.127  28.370  1.00  0.00     0.016 A 
ATOM     26  C   UNL A   1      42.667  27.452  27.778  1.00  0.00     0.016 A 
ATOM     27  C   UNL A   1      40.570  26.866  29.542  1.00  0.00     0.010 A 
ATOM     28  C   UNL A   1      42.534  28.167  28.970  1.00  0.00     0.010 A 
ATOM     29  C   UNL A   1      41.462  27.907  29.840  1.00  0.00    -0.014 A 
BRANCH  29  30
ATOM     30  C   UNL A   1      41.228  28.775  31.021  1.00  0.00     0.031 A 
ATOM     31  C   UNL A   1      40.091  29.761  31.016  1.00  0.00     0.074 A 
ATOM     32  C   UNL A   1      42.029  28.680  32.097  1.00  0.00     0.049 A 
ATOM     33  N   UNL A   1      39.744  30.624  31.937  1.00  0.00    -0.248 NA
ATOM     34  C   UNL A   1      39.242  29.783  29.815  1.00  0.00     0.031 C 
ATOM     35  C   UNL A   1      43.161  27.764  32.231  1.00  0.00     0.029 A 
ATOM     36  N   UNL A   1      42.011  29.370  33.283  1.00  0.00    -0.354 N 
ATOM     37  C   UNL A   1      38.654  31.311  31.418  1.00  0.00     0.074 A 
ATOM     38  C   UNL A   1      38.408  30.774  30.096  1.00  0.00     0.031 C 
ATOM     39  C   UNL A   1      43.728  27.946  33.434  1.00  0.00     0.029 A 
ATOM     40  C   UNL A   1      43.016  29.007  34.144  1.00  0.00     0.049 A 
ATOM     41  H   UNL A   1      41.340  30.059  33.496  1.00  0.00     0.167 HD
ATOM     42  C   UNL A   1      37.921  32.301  31.985  1.00  0.00     0.031 A 
ATOM     43  C   UNL A   1      43.338  29.480  35.362  1.00  0.00     0.031 A 
ATOM     44  C   UNL A   1      38.157  32.838  33.298  1.00  0.00     0.049 A 
ATOM     45  C   UNL A   1      42.504  30.564  35.982  1.00  0.00     0.074 A 
ATOM     46  C   UNL A   1      37.458  33.830  33.965  1.00  0.00     0.029 A 
ATOM     47  N   UNL A   1      39.173  32.426  34.147  1.00  0.00    -0.354 N 
ATOM     48  N   UNL A   1      41.466  31.190  35.483  1.00  0.00    -0.248 NA
ATOM     49  C   UNL A   1      42.878  30.994  37.337  1.00  0.00     0.031 C 
ATOM     50  C   UNL A   1      38.069  34.035  35.209  1.00  0.00     0.029 A 
ATOM     51  C   UNL A   1      39.125  33.147  35.329  1.00  0.00     0.049 A 
ATOM     52  H   UNL A   1      39.832  31.725  33.941  1.00  0.00     0.167 HD
ATOM     53  C   UNL A   1      41.052  32.080  36.468  1.00  0.00     0.074 A 
ATOM     54  C   UNL A   1      41.945  31.900  37.596  1.00  0.00     0.031 C 
ATOM     55  C   UNL A   1      40.024  32.963  36.440  1.00  0.00     0.031 A 
BRANCH  42  56
ATOM     56  C   UNL A   1      36.815  32.887  31.151  1.00  0.00    -0.014 A 
ATOM     57  C   UNL A   1      37.096  33.740  30.068  1.00  0.00     0.010 A 
ATOM     58  C   UNL A   1      35.476  32.605  31.475  1.00  0.00     0.010 A 
ATOM     59  C   UNL A   1      36.055  34.347  29.360  1.00  0.00     0.020 A 
ATOM     60  C   UNL A   1      34.433  33.193  30.755  1.00  0.00     0.020 A 
ATOM     61  C   UNL A   1      34.730  34.082  29.720  1.00  0.00     0.054 A 
BRANCH  61  62
ATOM     62  S   UNL A   1      33.389  34.903  28.814  1.00  0.00     0.124 S 
ATOM     63  O   UNL A   1      34.076  36.063  28.252  1.00  0.00    -0.237 OA
ATOM     64  O   UNL A   1      32.978  33.888  27.847  1.00  0.00    -0.237 OA
ATOM     65  O   UNL A   1      32.406  35.201  29.852  1.00  0.00    -0.744 OA
ENDBRANCH  61  62
ENDBRANCH  42  56
BRANCH  43  66
ATOM     66  C   UNL A   1      44.509  28.907  36.073  1.00  0.00    -0.014 A 
ATOM     67  C   UNL A   1      44.359  27.777  36.895  1.00  0.00     0.010 A 
ATOM     68  C   UNL A   1      45.791  29.453  35.875  1.00  0.00     0.010 A 
ATOM     69  C   UNL A   1      45.476  27.194  37.500  1.00  0.00     0.020 A 
ATOM     70  C   UNL A   1      46.911  28.860  36.465  1.00  0.00     0.020 A 
ATOM     71  C   UNL A   1      46.746  27.736  37.275  1.00  0.00     0.054 A 
BRANCH  71  72
ATOM     72  S   UNL A   1      48.196  26.904  37.981  1.00  0.00     0.124 S 
ATOM     73  O   UNL A   1      48.604  26.026  36.888  1.00  0.00    -0.237 OA
ATOM     74  O   UNL A   1      49.097  28.018  38.266  1.00  0.00    -0.237 OA
ATOM     75  O   UNL A   1      47.659  26.232  39.162  1.00  0.00    -0.744 OA
ENDBRANCH  71  72
ENDBRANCH  43  66
BRANCH  55  76
ATOM     76  C   UNL A   1      39.797  33.786  37.678  1.00  0.00    -0.014 A 
ATOM     77  C   UNL A   1      38.951  33.333  38.705  1.00  0.00     0.010 A 
ATOM     78  C   UNL A   1      40.456  35.020  37.822  1.00  0.00     0.010 A 
ATOM     79  C   UNL A   1      38.737  34.119  39.841  1.00  0.00     0.020 A 
ATOM     80  C   UNL A   1      40.258  35.801  38.965  1.00  0.00     0.020 A 
ATOM     81  C   UNL A   1      39.386  35.354  39.958  1.00  0.00     0.054 A 
BRANCH  81  82
ATOM     82  S   UNL A   1      39.112  36.357  41.446  1.00  0.00     0.124 S 
ATOM     83  O   UNL A   1      38.827  37.670  40.876  1.00  0.00    -0.237 OA
ATOM     84  O   UNL A   1      37.980  35.692  42.086  1.00  0.00    -0.237 OA
ATOM     85  O   UNL A   1      40.378  36.250  42.169  1.00  0.00    -0.744 OA
ENDBRANCH  81  82
ENDBRANCH  55  76
ENDBRANCH  29  30
ENDBRANCH  22  24
ENDBRANCH  21  22
ENDBRANCH  20  21
ENDBRANCH   1  20
TORSDOF 17
ENDMDL
MODEL 3
REMARK VINA RESULT:     -10.2      3.399      4.072
REMARK SMILES Cc1cc(Br)cnc1Sc1nc(CC(=O)OCCOC(=O)c2ccc(-c3c4nc(c(-c5ccc(S(=O)(=O)[O-])cc5)c5ccc([nH]5)c(-c5ccc(S(=O)(=O)[O-])cc5)c5nc(c(-c6ccc(S(=O)(=O)[O-])cc6)c6ccc3[nH]6)C=C5)C=C4)cc2)cs1
REMARK SMILES IDX 17 1 16 2 14 3 15 4 13 5 12 6 10 7 11 8 83 9 82 10 9 11 8 12
REMARK SMILES IDX 1 13 2 14 3 15 4 16 7 17 5 18 6 19 18 20 19 21 20 22 21 23
REMARK SMILES IDX 22 24 23 25 81 26 24 27 80 28 25 29 26 30 27 31 74 32 28 33
REMARK SMILES IDX 79 34 73 35 75 36 29 37 78 38 72 39 71 40 30 42 60 43 41 44
REMARK SMILES IDX 59 45 42 46 45 47 58 48 76 49 43 50 44 51 57 53 77 54 46 55
REMARK SMILES IDX 31 56 32 57 40 58 33 59 39 60 34 61 35 62 36 63 37 64 38 65
REMARK SMILES IDX 61 66 62 67 70 68 63 69 69 70 64 71 65 72 66 73 67 74 68 75
REMARK SMILES IDX 47 76 48 77 56 78 49 79 55 80 50 81 51 82 52 83 53 84 54 85
REMARK H PARENT 75 41 45 52
REMARK Flexibility Score: inf
ROOT
ATOM      1  C   UNL A   1      39.040  21.550  26.223  1.00  0.00     0.274 C 
ENDROOT
BRANCH   1   2
ATOM      2  O   UNL A   1      38.172  22.278  25.331  1.00  0.00    -0.462 OA
BRANCH   2   3
ATOM      3  C   UNL A   1      36.855  22.297  25.670  1.00  0.00     0.312 C 
ATOM      4  O   UNL A   1      36.124  21.312  25.661  1.00  0.00    -0.252 OA
BRANCH   3   5
ATOM      5  C   UNL A   1      36.333  23.677  25.974  1.00  0.00     0.179 C 
BRANCH   5   6
ATOM      6  C   UNL A   1      34.890  23.922  25.672  1.00  0.00     0.064 A 
ATOM      7  C   UNL A   1      33.245  24.346  24.240  1.00  0.00     0.156 A 
ATOM      8  N   UNL A   1      34.552  24.299  24.372  1.00  0.00    -0.234 NA
ATOM      9  S   UNL A   1      32.347  24.055  25.674  1.00  0.00    -0.116 S 
ATOM     10  C   UNL A   1      33.804  23.711  26.500  1.00  0.00     0.092 A 
BRANCH   7  11
ATOM     11  S   UNL A   1      32.434  24.692  22.746  1.00  0.00    -0.039 SA
BRANCH  11  12
ATOM     12  C   UNL A   1      31.759  26.327  22.946  1.00  0.00     0.106 A 
ATOM     13  C   UNL A   1      33.829  27.777  22.401  1.00  0.00     0.047 C 
ATOM     14  C   UNL A   1      32.381  27.569  22.731  1.00  0.00    -0.017 A 
ATOM     15  C   UNL A   1      31.593  28.735  22.845  1.00  0.00     0.023 A 
ATOM     16  C   UNL A   1      30.235  28.645  23.106  1.00  0.00     0.036 A 
ATOM     17  N   UNL A   1      30.421  26.252  23.213  1.00  0.00    -0.248 NA
ATOM     18  Br  UNL A   1      29.159  30.189  23.192  1.00  0.00    -0.049 Br
ATOM     19  C   UNL A   1      29.696  27.391  23.278  1.00  0.00     0.128 A 
ENDBRANCH  11  12
ENDBRANCH   7  11
ENDBRANCH   5   6
ENDBRANCH   3   5
ENDBRANCH   2   3
ENDBRANCH   1   2
BRANCH   1  20
ATOM     20  C   UNL A   1      40.338  22.308  26.490  1.00  0.00     0.275 C 
BRANCH  20  21
ATOM     21  O   UNL A   1      40.069  23.704  26.710  1.00  0.00    -0.458 OA
BRANCH  21  22
ATOM     22  C   UNL A   1      41.160  24.490  26.838  1.00  0.00     0.338 C 
ATOM     23  O   UNL A   1      42.257  24.328  26.332  1.00  0.00    -0.246 OA
BRANCH  22  24
ATOM     24  C   UNL A   1      40.843  25.660  27.666  1.00  0.00     0.060 A 
ATOM     25  C   UNL A   1      41.737  26.734  27.707  1.00  0.00     0.016 A 
ATOM     26  C   UNL A   1      39.746  25.611  28.526  1.00  0.00     0.016 A 
ATOM     27  C   UNL A   1      41.561  27.742  28.655  1.00  0.00     0.010 A 
ATOM     28  C   UNL A   1      39.553  26.639  29.450  1.00  0.00     0.010 A 
ATOM     29  C   UNL A   1      40.481  27.690  29.548  1.00  0.00    -0.014 A 
BRANCH  29  30
ATOM     30  C   UNL A   1      40.366  28.692  30.637  1.00  0.00     0.031 A 
ATOM     31  C   UNL A   1      41.279  28.615  31.830  1.00  0.00     0.074 A 
ATOM     32  C   UNL A   1      39.449  29.672  30.557  1.00  0.00     0.049 A 
ATOM     33  N   UNL A   1      41.314  29.377  32.894  1.00  0.00    -0.248 NA
ATOM     34  C   UNL A   1      42.276  27.532  31.829  1.00  0.00     0.031 C 
ATOM     35  C   UNL A   1      38.508  29.862  29.454  1.00  0.00     0.029 A 
ATOM     36  N   UNL A   1      39.158  30.691  31.429  1.00  0.00    -0.354 N 
ATOM     37  C   UNL A   1      42.315  28.852  33.702  1.00  0.00     0.074 A 
ATOM     38  C   UNL A   1      42.853  27.699  33.011  1.00  0.00     0.031 C 
ATOM     39  C   UNL A   1      37.744  30.936  29.714  1.00  0.00     0.029 A 
ATOM     40  C   UNL A   1      38.125  31.493  31.010  1.00  0.00     0.049 A 
ATOM     41  H   UNL A   1      39.644  30.834  32.273  1.00  0.00     0.167 HD
ATOM     42  C   UNL A   1      42.751  29.287  34.910  1.00  0.00     0.031 A 
ATOM     43  C   UNL A   1      37.542  32.550  31.605  1.00  0.00     0.031 A 
ATOM     44  C   UNL A   1      42.224  30.433  35.601  1.00  0.00     0.049 A 
ATOM     45  C   UNL A   1      38.050  33.028  32.935  1.00  0.00     0.074 A 
ATOM     46  C   UNL A   1      42.612  30.960  36.821  1.00  0.00     0.029 A 
ATOM     47  N   UNL A   1      41.193  31.232  35.131  1.00  0.00    -0.354 N 
ATOM     48  N   UNL A   1      39.009  32.530  33.676  1.00  0.00    -0.248 NA
ATOM     49  C   UNL A   1      37.404  34.221  33.500  1.00  0.00     0.031 C 
ATOM     50  C   UNL A   1      41.796  32.064  37.100  1.00  0.00     0.029 A 
ATOM     51  C   UNL A   1      40.925  32.243  36.038  1.00  0.00     0.049 A 
ATOM     52  H   UNL A   1      40.720  31.099  34.279  1.00  0.00     0.167 HD
ATOM     53  C   UNL A   1      39.094  33.357  34.791  1.00  0.00     0.074 A 
ATOM     54  C   UNL A   1      38.096  34.394  34.618  1.00  0.00     0.031 C 
ATOM     55  C   UNL A   1      39.925  33.265  35.858  1.00  0.00     0.031 A 
BRANCH  42  56
ATOM     56  C   UNL A   1      43.833  28.478  35.570  1.00  0.00    -0.014 A 
ATOM     57  C   UNL A   1      43.521  27.442  36.469  1.00  0.00     0.010 A 
ATOM     58  C   UNL A   1      45.182  28.779  35.309  1.00  0.00     0.010 A 
ATOM     59  C   UNL A   1      44.539  26.760  37.141  1.00  0.00     0.020 A 
ATOM     60  C   UNL A   1      46.203  28.084  35.963  1.00  0.00     0.020 A 
ATOM     61  C   UNL A   1      45.874  27.099  36.896  1.00  0.00     0.054 A 
BRANCH  61  62
ATOM     62  S   UNL A   1      47.184  26.228  37.800  1.00  0.00     0.124 S 
ATOM     63  O   UNL A   1      48.221  27.253  37.881  1.00  0.00    -0.237 OA
ATOM     64  O   UNL A   1      46.538  25.887  39.065  1.00  0.00    -0.237 OA
ATOM     65  O   UNL A   1      47.497  25.090  36.939  1.00  0.00    -0.744 OA
ENDBRANCH  61  62
ENDBRANCH  42  56
BRANCH  43  66
ATOM     66  C   UNL A   1      36.411  33.229  30.923  1.00  0.00    -0.014 A 
ATOM     67  C   UNL A   1      35.206  33.464  31.606  1.00  0.00     0.010 A 
ATOM     68  C   UNL A   1      36.563  33.703  29.607  1.00  0.00     0.010 A 
ATOM     69  C   UNL A   1      34.172  34.171  30.986  1.00  0.00     0.020 A 
ATOM     70  C   UNL A   1      35.537  34.426  28.992  1.00  0.00     0.020 A 
ATOM     71  C   UNL A   1      34.348  34.654  29.686  1.00  0.00     0.054 A 
BRANCH  71  72
ATOM     72  S   UNL A   1      33.038  35.662  28.936  1.00  0.00     0.124 S 
ATOM     73  O   UNL A   1      32.439  34.727  27.989  1.00  0.00    -0.237 OA
ATOM     74  O   UNL A   1      32.208  36.016  30.086  1.00  0.00    -0.237 OA
ATOM     75  O   UNL A   1      33.769  36.779  28.341  1.00  0.00    -0.744 OA
ENDBRANCH  71  72
ENDBRANCH  43  66
BRANCH  55  76
ATOM     76  C   UNL A   1      39.803  34.331  36.912  1.00  0.00    -0.014 A 
ATOM     77  C   UNL A   1      38.972  34.151  38.032  1.00  0.00     0.010 A 
ATOM     78  C   UNL A   1      40.546  35.518  36.788  1.00  0.00     0.010 A 
ATOM     79  C   UNL A   1      38.856  35.160  38.993  1.00  0.00     0.020 A 
ATOM     80  C   UNL A   1      40.445  36.521  37.756  1.00  0.00     0.020 A 
ATOM     81  C   UNL A   1      39.587  36.343  38.843  1.00  0.00     0.054 A 
BRANCH  81  82
ATOM     82  S   UNL A   1      39.440  37.638  40.106  1.00  0.00     0.124 S 
ATOM     83  O   UNL A   1      38.300  38.408  39.618  1.00  0.00    -0.237 OA
ATOM     84  O   UNL A   1      39.204  36.876  41.330  1.00  0.00    -0.237 OA
ATOM     85  O   UNL A   1      40.730  38.323  40.046  1.00  0.00    -0.744 OA
ENDBRANCH  81  82
ENDBRANCH  55  76
ENDBRANCH  29  30
ENDBRANCH  22  24
ENDBRANCH  21  22
ENDBRANCH  20  21
ENDBRANCH   1  20
TORSDOF 17
ENDMDL
