MODEL 1
REMARK VINA RESULT:      -9.7      0.000      0.000
REMARK SMILES CCC[C@@H](C)[C@H](NS(=O)(=O)c1ccc(C)c(C)c1)C(=O)OCCOC(=O)c1ccc(-c2c3nc(c(-c4ccc(S(=O)(=O)[O-])cc4)c4ccc([nH]4)c(-c4ccc(S(=O)(=O)[O-])cc4)c4nc(c(-c5ccc(S(=O)(=O)[O-])cc5)c5ccc2[nH]5)C=C4)C=C3)cc1
REMARK SMILES IDX 22 1 21 2 19 3 20 4 6 5 4 6 5 7 3 8 2 9 1 10 7 11 8 13 9 14
REMARK SMILES IDX 10 15 11 16 12 17 18 18 13 19 16 20 14 21 17 22 15 23 23 24
REMARK SMILES IDX 24 25 25 26 26 27 27 28 28 29 86 30 29 31 85 32 30 33 31 34
REMARK SMILES IDX 32 35 79 36 33 37 84 38 78 39 80 40 34 41 83 42 77 43 76 44
REMARK SMILES IDX 35 46 65 47 46 48 64 49 47 50 50 51 63 52 81 53 48 54 49 55
REMARK SMILES IDX 62 57 82 58 51 59 36 60 37 61 45 62 38 63 44 64 39 65 40 66
REMARK SMILES IDX 41 67 42 68 43 69 66 70 67 71 75 72 68 73 74 74 69 75 70 76
REMARK SMILES IDX 71 77 72 78 73 79 52 80 53 81 61 82 54 83 60 84 55 85 56 86
REMARK SMILES IDX 57 87 58 88 59 89
REMARK H PARENT 7 12 80 45 50 56
REMARK Flexibility Score: inf
ROOT
ATOM      1  C   UNL A   1      32.180  30.448  26.007  1.00  0.00     0.274 C 
ENDROOT
BRANCH   1   2
ATOM      2  O   UNL A   1      31.398  29.247  25.883  1.00  0.00    -0.461 OA
BRANCH   2   3
ATOM      3  C   UNL A   1      31.173  28.825  24.610  1.00  0.00     0.324 C 
ATOM      4  O   UNL A   1      30.592  29.505  23.767  1.00  0.00    -0.250 OA
BRANCH   3   5
ATOM      5  C   UNL A   1      31.561  27.372  24.360  1.00  0.00     0.182 C 
BRANCH   5   6
ATOM      6  C   UNL A   1      31.554  26.726  25.785  1.00  0.00     0.015 C 
ATOM      7  C   UNL A   1      32.953  26.330  26.268  1.00  0.00     0.010 C 
BRANCH   6   8
ATOM      8  C   UNL A   1      30.531  25.582  25.926  1.00  0.00     0.005 C 
BRANCH   8   9
ATOM      9  C   UNL A   1      30.995  24.234  25.339  1.00  0.00    -0.003 C 
ATOM     10  C   UNL A   1      31.176  23.125  26.370  1.00  0.00     0.004 C 
ENDBRANCH   8   9
ENDBRANCH   6   8
ENDBRANCH   5   6
BRANCH   5  11
ATOM     11  N   UNL A   1      32.849  27.117  23.628  1.00  0.00    -0.197 NA
ATOM     12  H   UNL A   1      33.522  26.779  24.314  1.00  0.00     0.142 HD
BRANCH  11  13
ATOM     13  S   UNL A   1      32.847  26.003  22.332  1.00  0.00     0.241 S 
ATOM     14  O   UNL A   1      31.434  25.757  22.112  1.00  0.00    -0.207 OA
ATOM     15  O   UNL A   1      33.690  26.508  21.275  1.00  0.00    -0.207 OA
BRANCH  13  16
ATOM     16  C   UNL A   1      33.526  24.465  22.918  1.00  0.00     0.082 A 
ATOM     17  C   UNL A   1      33.008  23.249  22.504  1.00  0.00     0.022 A 
ATOM     18  C   UNL A   1      34.555  24.478  23.868  1.00  0.00     0.025 A 
ATOM     19  C   UNL A   1      33.309  22.087  23.217  1.00  0.00     0.005 A 
ATOM     20  C   UNL A   1      34.960  23.283  24.504  1.00  0.00    -0.047 A 
ATOM     21  C   UNL A   1      34.230  22.104  24.268  1.00  0.00    -0.048 A 
ATOM     22  C   UNL A   1      36.152  23.318  25.419  1.00  0.00     0.044 C 
ATOM     23  C   UNL A   1      34.391  20.857  25.094  1.00  0.00     0.044 C 
ENDBRANCH  13  16
ENDBRANCH  11  13
ENDBRANCH   5  11
ENDBRANCH   3   5
ENDBRANCH   2   3
ENDBRANCH   1   2
BRANCH   1  24
ATOM     24  C   UNL A   1      33.587  30.202  26.572  1.00  0.00     0.275 C 
BRANCH  24  25
ATOM     25  O   UNL A   1      33.736  30.559  27.960  1.00  0.00    -0.458 OA
BRANCH  25  26
ATOM     26  C   UNL A   1      34.644  31.532  28.183  1.00  0.00     0.338 C 
ATOM     27  O   UNL A   1      34.501  32.725  27.997  1.00  0.00    -0.246 OA
BRANCH  26  28
ATOM     28  C   UNL A   1      35.895  31.055  28.740  1.00  0.00     0.060 A 
ATOM     29  C   UNL A   1      37.071  31.724  28.397  1.00  0.00     0.016 A 
ATOM     30  C   UNL A   1      35.911  29.821  29.390  1.00  0.00     0.016 A 
ATOM     31  C   UNL A   1      38.291  31.171  28.752  1.00  0.00     0.010 A 
ATOM     32  C   UNL A   1      37.131  29.281  29.771  1.00  0.00     0.010 A 
ATOM     33  C   UNL A   1      38.318  29.971  29.478  1.00  0.00    -0.014 A 
BRANCH  33  34
ATOM     34  C   UNL A   1      39.568  29.572  30.142  1.00  0.00     0.031 A 
ATOM     35  C   UNL A   1      40.426  28.473  29.613  1.00  0.00     0.074 A 
ATOM     36  C   UNL A   1      39.862  30.231  31.278  1.00  0.00     0.049 A 
ATOM     37  N   UNL A   1      41.517  27.975  30.132  1.00  0.00    -0.248 NA
ATOM     38  C   UNL A   1      40.008  27.842  28.352  1.00  0.00     0.031 C 
ATOM     39  C   UNL A   1      39.051  31.315  31.850  1.00  0.00     0.029 A 
ATOM     40  N   UNL A   1      40.902  30.099  32.152  1.00  0.00    -0.354 N 
ATOM     41  C   UNL A   1      41.912  26.957  29.275  1.00  0.00     0.074 A 
ATOM     42  C   UNL A   1      40.939  26.906  28.203  1.00  0.00     0.031 C 
ATOM     43  C   UNL A   1      39.637  31.763  32.966  1.00  0.00     0.029 A 
ATOM     44  C   UNL A   1      40.827  30.963  33.216  1.00  0.00     0.049 A 
ATOM     45  H   UNL A   1      41.631  29.450  32.031  1.00  0.00     0.167 HD
ATOM     46  C   UNL A   1      42.986  26.142  29.395  1.00  0.00     0.031 A 
ATOM     47  C   UNL A   1      41.621  31.083  34.293  1.00  0.00     0.031 A 
ATOM     48  C   UNL A   1      43.919  26.215  30.494  1.00  0.00     0.049 A 
ATOM     49  C   UNL A   1      42.796  30.166  34.399  1.00  0.00     0.074 A 
ATOM     50  C   UNL A   1      45.052  25.453  30.718  1.00  0.00     0.029 A 
ATOM     51  N   UNL A   1      43.816  27.101  31.559  1.00  0.00    -0.354 N 
ATOM     52  N   UNL A   1      43.170  29.218  33.571  1.00  0.00    -0.248 NA
ATOM     53  C   UNL A   1      43.657  30.329  35.574  1.00  0.00     0.031 C 
ATOM     54  C   UNL A   1      45.609  25.851  31.940  1.00  0.00     0.029 A 
ATOM     55  C   UNL A   1      44.852  26.893  32.455  1.00  0.00     0.049 A 
ATOM     56  H   UNL A   1      43.111  27.780  31.663  1.00  0.00     0.167 HD
ATOM     57  C   UNL A   1      44.313  28.664  34.126  1.00  0.00     0.074 A 
ATOM     58  C   UNL A   1      44.581  29.406  35.346  1.00  0.00     0.031 C 
ATOM     59  C   UNL A   1      45.069  27.634  33.673  1.00  0.00     0.031 A 
BRANCH  46  60
ATOM     60  C   UNL A   1      43.181  25.080  28.345  1.00  0.00    -0.014 A 
ATOM     61  C   UNL A   1      44.052  25.275  27.257  1.00  0.00     0.010 A 
ATOM     62  C   UNL A   1      42.507  23.852  28.465  1.00  0.00     0.010 A 
ATOM     63  C   UNL A   1      44.216  24.275  26.293  1.00  0.00     0.020 A 
ATOM     64  C   UNL A   1      42.683  22.842  27.513  1.00  0.00     0.020 A 
ATOM     65  C   UNL A   1      43.525  23.066  26.423  1.00  0.00     0.054 A 
BRANCH  65  66
ATOM     66  S   UNL A   1      43.764  21.778  25.166  1.00  0.00     0.124 S 
ATOM     67  O   UNL A   1      42.739  20.805  25.535  1.00  0.00    -0.237 OA
ATOM     68  O   UNL A   1      43.525  22.497  23.916  1.00  0.00    -0.237 OA
ATOM     69  O   UNL A   1      45.141  21.341  25.375  1.00  0.00    -0.744 OA
ENDBRANCH  65  66
ENDBRANCH  46  60
BRANCH  47  70
ATOM     70  C   UNL A   1      41.294  32.101  35.322  1.00  0.00    -0.014 A 
ATOM     71  C   UNL A   1      41.920  33.357  35.305  1.00  0.00     0.010 A 
ATOM     72  C   UNL A   1      40.267  31.857  36.254  1.00  0.00     0.010 A 
ATOM     73  C   UNL A   1      41.520  34.357  36.196  1.00  0.00     0.020 A 
ATOM     74  C   UNL A   1      39.848  32.861  37.130  1.00  0.00     0.020 A 
ATOM     75  C   UNL A   1      40.481  34.105  37.098  1.00  0.00     0.054 A 
BRANCH  75  76
ATOM     76  S   UNL A   1      39.908  35.445  38.179  1.00  0.00     0.124 S 
ATOM     77  O   UNL A   1      41.052  35.628  39.066  1.00  0.00    -0.237 OA
ATOM     78  O   UNL A   1      39.658  36.532  37.236  1.00  0.00    -0.237 OA
ATOM     79  O   UNL A   1      38.709  34.889  38.805  1.00  0.00    -0.744 OA
ENDBRANCH  75  76
ENDBRANCH  47  70
BRANCH  59  80
ATOM     80  C   UNL A   1      46.253  27.264  34.518  1.00  0.00    -0.014 A 
ATOM     81  C   UNL A   1      46.136  26.297  35.532  1.00  0.00     0.010 A 
ATOM     82  C   UNL A   1      47.493  27.883  34.288  1.00  0.00     0.010 A 
ATOM     83  C   UNL A   1      47.235  25.982  36.330  1.00  0.00     0.020 A 
ATOM     84  C   UNL A   1      48.600  27.553  35.071  1.00  0.00     0.020 A 
ATOM     85  C   UNL A   1      48.460  26.617  36.098  1.00  0.00     0.054 A 
BRANCH  85  86
ATOM     86  S   UNL A   1      49.882  26.177  37.132  1.00  0.00     0.124 S 
ATOM     87  O   UNL A   1      50.971  26.887  36.466  1.00  0.00    -0.237 OA
ATOM     88  O   UNL A   1      49.502  26.697  38.444  1.00  0.00    -0.237 OA
ATOM     89  O   UNL A   1      49.938  24.720  37.039  1.00  0.00    -0.744 OA
ENDBRANCH  85  86
ENDBRANCH  59  80
ENDBRANCH  33  34
ENDBRANCH  26  28
ENDBRANCH  25  26
ENDBRANCH  24  25
ENDBRANCH   1  24
TORSDOF 20
ENDMDL
MODEL 2
REMARK VINA RESULT:      -9.6      1.089      8.410
REMARK SMILES CCC[C@@H](C)[C@H](NS(=O)(=O)c1ccc(C)c(C)c1)C(=O)OCCOC(=O)c1ccc(-c2c3nc(c(-c4ccc(S(=O)(=O)[O-])cc4)c4ccc([nH]4)c(-c4ccc(S(=O)(=O)[O-])cc4)c4nc(c(-c5ccc(S(=O)(=O)[O-])cc5)c5ccc2[nH]5)C=C4)C=C3)cc1
REMARK SMILES IDX 22 1 21 2 19 3 20 4 6 5 4 6 5 7 3 8 2 9 1 10 7 11 8 13 9 14
REMARK SMILES IDX 10 15 11 16 12 17 18 18 13 19 16 20 14 21 17 22 15 23 23 24
REMARK SMILES IDX 24 25 25 26 26 27 27 28 28 29 86 30 29 31 85 32 30 33 31 34
REMARK SMILES IDX 32 35 79 36 33 37 84 38 78 39 80 40 34 41 83 42 77 43 76 44
REMARK SMILES IDX 35 46 65 47 46 48 64 49 47 50 50 51 63 52 81 53 48 54 49 55
REMARK SMILES IDX 62 57 82 58 51 59 36 60 37 61 45 62 38 63 44 64 39 65 40 66
REMARK SMILES IDX 41 67 42 68 43 69 66 70 67 71 75 72 68 73 74 74 69 75 70 76
REMARK SMILES IDX 71 77 72 78 73 79 52 80 53 81 61 82 54 83 60 84 55 85 56 86
REMARK SMILES IDX 57 87 58 88 59 89
REMARK H PARENT 7 12 80 45 50 56
REMARK Flexibility Score: inf
ROOT
ATOM      1  C   UNL A   1      32.304  28.862  27.150  1.00  0.00     0.274 C 
ENDROOT
BRANCH   1   2
ATOM      2  O   UNL A   1      32.190  28.220  25.867  1.00  0.00    -0.461 OA
BRANCH   2   3
ATOM      3  C   UNL A   1      31.364  27.141  25.825  1.00  0.00     0.324 C 
ATOM      4  O   UNL A   1      30.883  26.619  26.828  1.00  0.00    -0.250 OA
BRANCH   3   5
ATOM      5  C   UNL A   1      31.209  26.532  24.436  1.00  0.00     0.182 C 
BRANCH   5   6
ATOM      6  C   UNL A   1      29.995  27.301  23.817  1.00  0.00     0.015 C 
ATOM      7  C   UNL A   1      28.687  26.504  23.879  1.00  0.00     0.010 C 
BRANCH   6   8
ATOM      8  C   UNL A   1      30.284  27.858  22.409  1.00  0.00     0.005 C 
BRANCH   8   9
ATOM      9  C   UNL A   1      29.899  29.337  22.215  1.00  0.00    -0.003 C 
ATOM     10  C   UNL A   1      29.594  30.085  23.510  1.00  0.00     0.004 C 
ENDBRANCH   8   9
ENDBRANCH   6   8
ENDBRANCH   5   6
BRANCH   5  11
ATOM     11  N   UNL A   1      31.038  25.041  24.351  1.00  0.00    -0.197 NA
ATOM     12  H   UNL A   1      30.093  24.865  24.011  1.00  0.00     0.142 HD
BRANCH  11  13
ATOM     13  S   UNL A   1      32.104  24.150  23.355  1.00  0.00     0.241 S 
ATOM     14  O   UNL A   1      31.395  22.902  23.147  1.00  0.00    -0.207 OA
ATOM     15  O   UNL A   1      32.507  24.974  22.240  1.00  0.00    -0.207 OA
BRANCH  13  16
ATOM     16  C   UNL A   1      33.548  23.739  24.311  1.00  0.00     0.082 A 
ATOM     17  C   UNL A   1      34.259  24.712  24.993  1.00  0.00     0.022 A 
ATOM     18  C   UNL A   1      34.019  22.419  24.323  1.00  0.00     0.025 A 
ATOM     19  C   UNL A   1      35.553  24.442  25.441  1.00  0.00     0.005 A 
ATOM     20  C   UNL A   1      35.275  22.111  24.893  1.00  0.00    -0.047 A 
ATOM     21  C   UNL A   1      36.101  23.160  25.331  1.00  0.00    -0.048 A 
ATOM     22  C   UNL A   1      35.686  20.669  25.001  1.00  0.00     0.044 C 
ATOM     23  C   UNL A   1      37.550  22.974  25.688  1.00  0.00     0.044 C 
ENDBRANCH  13  16
ENDBRANCH  11  13
ENDBRANCH   5  11
ENDBRANCH   3   5
ENDBRANCH   2   3
ENDBRANCH   1   2
BRANCH   1  24
ATOM     24  C   UNL A   1      32.520  30.379  27.054  1.00  0.00     0.275 C 
BRANCH  24  25
ATOM     25  O   UNL A   1      33.886  30.765  26.804  1.00  0.00    -0.458 OA
BRANCH  25  26
ATOM     26  C   UNL A   1      34.393  31.618  27.720  1.00  0.00     0.338 C 
ATOM     27  O   UNL A   1      33.945  32.702  28.039  1.00  0.00    -0.246 OA
BRANCH  26  28
ATOM     28  C   UNL A   1      35.577  31.122  28.395  1.00  0.00     0.060 A 
ATOM     29  C   UNL A   1      36.776  31.817  28.224  1.00  0.00     0.016 A 
ATOM     30  C   UNL A   1      35.534  29.857  28.979  1.00  0.00     0.016 A 
ATOM     31  C   UNL A   1      37.953  31.256  28.692  1.00  0.00     0.010 A 
ATOM     32  C   UNL A   1      36.710  29.308  29.473  1.00  0.00     0.010 A 
ATOM     33  C   UNL A   1      37.913  30.021  29.355  1.00  0.00    -0.014 A 
BRANCH  33  34
ATOM     34  C   UNL A   1      39.083  29.599  30.140  1.00  0.00     0.031 A 
ATOM     35  C   UNL A   1      39.469  30.281  31.408  1.00  0.00     0.074 A 
ATOM     36  C   UNL A   1      39.803  28.589  29.617  1.00  0.00     0.049 A 
ATOM     37  N   UNL A   1      40.511  30.056  32.165  1.00  0.00    -0.248 NA
ATOM     38  C   UNL A   1      38.591  31.359  31.886  1.00  0.00     0.031 C 
ATOM     39  C   UNL A   1      39.474  27.886  28.369  1.00  0.00     0.029 A 
ATOM     40  N   UNL A   1      40.944  27.979  30.051  1.00  0.00    -0.354 N 
ATOM     41  C   UNL A   1      40.428  30.975  33.202  1.00  0.00     0.074 A 
ATOM     42  C   UNL A   1      39.236  31.764  32.975  1.00  0.00     0.031 C 
ATOM     43  C   UNL A   1      40.381  26.927  28.152  1.00  0.00     0.029 A 
ATOM     44  C   UNL A   1      41.379  26.986  29.209  1.00  0.00     0.049 A 
ATOM     45  H   UNL A   1      41.407  28.227  30.883  1.00  0.00     0.167 HD
ATOM     46  C   UNL A   1      41.288  31.136  34.236  1.00  0.00     0.031 A 
ATOM     47  C   UNL A   1      42.481  26.219  29.270  1.00  0.00     0.031 A 
ATOM     48  C   UNL A   1      42.478  30.339  34.411  1.00  0.00     0.049 A 
ATOM     49  C   UNL A   1      43.412  26.425  30.421  1.00  0.00     0.074 A 
ATOM     50  C   UNL A   1      43.418  30.400  35.425  1.00  0.00     0.029 A 
ATOM     51  N   UNL A   1      42.894  29.340  33.540  1.00  0.00    -0.354 N 
ATOM     52  N   UNL A   1      43.313  27.285  31.407  1.00  0.00    -0.248 NA
ATOM     53  C   UNL A   1      44.595  25.563  30.474  1.00  0.00     0.031 C 
ATOM     54  C   UNL A   1      44.423  29.466  35.143  1.00  0.00     0.029 A 
ATOM     55  C   UNL A   1      44.087  28.790  33.980  1.00  0.00     0.049 A 
ATOM     56  H   UNL A   1      42.412  29.061  32.729  1.00  0.00     0.167 HD
ATOM     57  C   UNL A   1      44.428  27.073  32.203  1.00  0.00     0.074 A 
ATOM     58  C   UNL A   1      45.169  25.982  31.594  1.00  0.00     0.031 C 
ATOM     59  C   UNL A   1      44.809  27.723  33.330  1.00  0.00     0.031 A 
BRANCH  46  60
ATOM     60  C   UNL A   1      40.999  32.238  35.222  1.00  0.00    -0.014 A 
ATOM     61  C   UNL A   1      41.469  33.548  35.017  1.00  0.00     0.010 A 
ATOM     62  C   UNL A   1      40.216  31.966  36.358  1.00  0.00     0.010 A 
ATOM     63  C   UNL A   1      41.191  34.555  35.947  1.00  0.00     0.020 A 
ATOM     64  C   UNL A   1      39.919  32.975  37.281  1.00  0.00     0.020 A 
ATOM     65  C   UNL A   1      40.423  34.261  37.078  1.00  0.00     0.054 A 
BRANCH  65  66
ATOM     66  S   UNL A   1      40.064  35.586  38.265  1.00  0.00     0.124 S 
ATOM     67  O   UNL A   1      39.800  36.719  37.380  1.00  0.00    -0.237 OA
ATOM     68  O   UNL A   1      38.903  35.070  38.986  1.00  0.00    -0.237 OA
ATOM     69  O   UNL A   1      41.289  35.686  39.054  1.00  0.00    -0.744 OA
ENDBRANCH  65  66
ENDBRANCH  46  60
BRANCH  47  70
ATOM     70  C   UNL A   1      42.726  25.221  28.200  1.00  0.00    -0.014 A 
ATOM     71  C   UNL A   1      43.621  25.502  27.156  1.00  0.00     0.010 A 
ATOM     72  C   UNL A   1      42.153  23.937  28.287  1.00  0.00     0.010 A 
ATOM     73  C   UNL A   1      43.946  24.515  26.220  1.00  0.00     0.020 A 
ATOM     74  C   UNL A   1      42.494  22.942  27.369  1.00  0.00     0.020 A 
ATOM     75  C   UNL A   1      43.386  23.239  26.337  1.00  0.00     0.054 A 
BRANCH  75  76
ATOM     76  S   UNL A   1      43.895  21.944  25.174  1.00  0.00     0.124 S 
ATOM     77  O   UNL A   1      45.273  21.694  25.582  1.00  0.00    -0.237 OA
ATOM     78  O   UNL A   1      42.947  20.868  25.455  1.00  0.00    -0.237 OA
ATOM     79  O   UNL A   1      43.731  22.577  23.866  1.00  0.00    -0.744 OA
ENDBRANCH  75  76
ENDBRANCH  47  70
BRANCH  59  80
ATOM     80  C   UNL A   1      46.088  27.256  33.960  1.00  0.00    -0.014 A 
ATOM     81  C   UNL A   1      47.324  27.783  33.548  1.00  0.00     0.010 A 
ATOM     82  C   UNL A   1      46.050  26.289  34.979  1.00  0.00     0.010 A 
ATOM     83  C   UNL A   1      48.509  27.320  34.120  1.00  0.00     0.020 A 
ATOM     84  C   UNL A   1      47.233  25.841  35.569  1.00  0.00     0.020 A 
ATOM     85  C   UNL A   1      48.456  26.347  35.123  1.00  0.00     0.054 A 
BRANCH  85  86
ATOM     86  S   UNL A   1      50.006  25.775  35.870  1.00  0.00     0.124 S 
ATOM     87  O   UNL A   1      50.943  26.816  35.455  1.00  0.00    -0.237 OA
ATOM     88  O   UNL A   1      49.687  25.748  37.295  1.00  0.00    -0.237 OA
ATOM     89  O   UNL A   1      50.218  24.464  35.261  1.00  0.00    -0.744 OA
ENDBRANCH  85  86
ENDBRANCH  59  80
ENDBRANCH  33  34
ENDBRANCH  26  28
ENDBRANCH  25  26
ENDBRANCH  24  25
ENDBRANCH   1  24
TORSDOF 20
ENDMDL
MODEL 3
REMARK VINA RESULT:      -9.4      0.962      8.260
REMARK SMILES CCC[C@@H](C)[C@H](NS(=O)(=O)c1ccc(C)c(C)c1)C(=O)OCCOC(=O)c1ccc(-c2c3nc(c(-c4ccc(S(=O)(=O)[O-])cc4)c4ccc([nH]4)c(-c4ccc(S(=O)(=O)[O-])cc4)c4nc(c(-c5ccc(S(=O)(=O)[O-])cc5)c5ccc2[nH]5)C=C4)C=C3)cc1
REMARK SMILES IDX 22 1 21 2 19 3 20 4 6 5 4 6 5 7 3 8 2 9 1 10 7 11 8 13 9 14
REMARK SMILES IDX 10 15 11 16 12 17 18 18 13 19 16 20 14 21 17 22 15 23 23 24
REMARK SMILES IDX 24 25 25 26 26 27 27 28 28 29 86 30 29 31 85 32 30 33 31 34
REMARK SMILES IDX 32 35 79 36 33 37 84 38 78 39 80 40 34 41 83 42 77 43 76 44
REMARK SMILES IDX 35 46 65 47 46 48 64 49 47 50 50 51 63 52 81 53 48 54 49 55
REMARK SMILES IDX 62 57 82 58 51 59 36 60 37 61 45 62 38 63 44 64 39 65 40 66
REMARK SMILES IDX 41 67 42 68 43 69 66 70 67 71 75 72 68 73 74 74 69 75 70 76
REMARK SMILES IDX 71 77 72 78 73 79 52 80 53 81 61 82 54 83 60 84 55 85 56 86
REMARK SMILES IDX 57 87 58 88 59 89
REMARK H PARENT 7 12 80 45 50 56
REMARK Flexibility Score: inf
ROOT
ATOM      1  C   UNL A   1      32.819  29.448  25.732  1.00  0.00     0.274 C 
ENDROOT
BRANCH   1   2
ATOM      2  O   UNL A   1      32.669  28.037  25.966  1.00  0.00    -0.461 OA
BRANCH   2   3
ATOM      3  C   UNL A   1      31.833  27.389  25.112  1.00  0.00     0.324 C 
ATOM      4  O   UNL A   1      30.731  27.824  24.785  1.00  0.00    -0.250 OA
BRANCH   3   5
ATOM      5  C   UNL A   1      32.309  25.995  24.715  1.00  0.00     0.182 C 
BRANCH   5   6
ATOM      6  C   UNL A   1      33.068  25.478  25.981  1.00  0.00     0.015 C 
ATOM      7  C   UNL A   1      34.574  25.312  25.749  1.00  0.00     0.010 C 
BRANCH   6   8
ATOM      8  C   UNL A   1      32.422  24.224  26.604  1.00  0.00     0.005 C 
BRANCH   8   9
ATOM      9  C   UNL A   1      31.178  23.709  25.856  1.00  0.00    -0.003 C 
ATOM     10  C   UNL A   1      30.232  22.867  26.708  1.00  0.00     0.004 C 
ENDBRANCH   8   9
ENDBRANCH   6   8
ENDBRANCH   5   6
BRANCH   5  11
ATOM     11  N   UNL A   1      33.140  25.879  23.468  1.00  0.00    -0.197 NA
ATOM     12  H   UNL A   1      34.080  25.610  23.757  1.00  0.00     0.142 HD
BRANCH  11  13
ATOM     13  S   UNL A   1      32.652  24.775  22.258  1.00  0.00     0.241 S 
ATOM     14  O   UNL A   1      31.207  24.902  22.261  1.00  0.00    -0.207 OA
ATOM     15  O   UNL A   1      33.420  25.017  21.060  1.00  0.00    -0.207 OA
BRANCH  13  16
ATOM     16  C   UNL A   1      32.998  23.127  22.834  1.00  0.00     0.082 A 
ATOM     17  C   UNL A   1      32.099  22.093  22.633  1.00  0.00     0.022 A 
ATOM     18  C   UNL A   1      34.168  22.879  23.564  1.00  0.00     0.025 A 
ATOM     19  C   UNL A   1      32.218  20.916  23.373  1.00  0.00     0.005 A 
ATOM     20  C   UNL A   1      34.359  21.638  24.212  1.00  0.00    -0.047 A 
ATOM     21  C   UNL A   1      33.307  20.705  24.224  1.00  0.00    -0.048 A 
ATOM     22  C   UNL A   1      35.680  21.364  24.876  1.00  0.00     0.044 C 
ATOM     23  C   UNL A   1      33.295  19.488  25.108  1.00  0.00     0.044 C 
ENDBRANCH  13  16
ENDBRANCH  11  13
ENDBRANCH   5  11
ENDBRANCH   3   5
ENDBRANCH   2   3
ENDBRANCH   1   2
BRANCH   1  24
ATOM     24  C   UNL A   1      33.962  30.080  26.540  1.00  0.00     0.275 C 
BRANCH  24  25
ATOM     25  O   UNL A   1      33.544  30.684  27.780  1.00  0.00    -0.458 OA
BRANCH  25  26
ATOM     26  C   UNL A   1      34.354  31.675  28.209  1.00  0.00     0.338 C 
ATOM     27  O   UNL A   1      34.136  32.871  28.167  1.00  0.00    -0.246 OA
BRANCH  26  28
ATOM     28  C   UNL A   1      35.588  31.209  28.811  1.00  0.00     0.060 A 
ATOM     29  C   UNL A   1      36.792  31.762  28.369  1.00  0.00     0.016 A 
ATOM     30  C   UNL A   1      35.551  30.073  29.618  1.00  0.00     0.016 A 
ATOM     31  C   UNL A   1      37.987  31.196  28.782  1.00  0.00     0.010 A 
ATOM     32  C   UNL A   1      36.749  29.523  30.055  1.00  0.00     0.010 A 
ATOM     33  C   UNL A   1      37.965  30.103  29.660  1.00  0.00    -0.014 A 
BRANCH  33  34
ATOM     34  C   UNL A   1      39.204  29.728  30.358  1.00  0.00     0.031 A 
ATOM     35  C   UNL A   1      39.688  30.470  31.558  1.00  0.00     0.074 A 
ATOM     36  C   UNL A   1      39.891  28.706  29.818  1.00  0.00     0.049 A 
ATOM     37  N   UNL A   1      40.793  30.289  32.230  1.00  0.00    -0.248 NA
ATOM     38  C   UNL A   1      38.837  31.557  32.064  1.00  0.00     0.031 C 
ATOM     39  C   UNL A   1      39.468  27.945  28.634  1.00  0.00     0.029 A 
ATOM     40  N   UNL A   1      41.075  28.127  30.177  1.00  0.00    -0.354 N 
ATOM     41  C   UNL A   1      40.786  31.251  33.231  1.00  0.00     0.074 A 
ATOM     42  C   UNL A   1      39.567  32.016  33.075  1.00  0.00     0.031 C 
ATOM     43  C   UNL A   1      40.367  26.988  28.380  1.00  0.00     0.029 A 
ATOM     44  C   UNL A   1      41.451  27.104  29.343  1.00  0.00     0.049 A 
ATOM     45  H   UNL A   1      41.604  28.416  30.954  1.00  0.00     0.167 HD
ATOM     46  C   UNL A   1      41.729  31.467  34.180  1.00  0.00     0.031 A 
ATOM     47  C   UNL A   1      42.565  26.353  29.341  1.00  0.00     0.031 A 
ATOM     48  C   UNL A   1      42.942  30.692  34.284  1.00  0.00     0.049 A 
ATOM     49  C   UNL A   1      43.588  26.619  30.397  1.00  0.00     0.074 A 
ATOM     50  C   UNL A   1      43.964  30.808  35.210  1.00  0.00     0.029 A 
ATOM     51  N   UNL A   1      43.297  29.660  33.424  1.00  0.00    -0.354 N 
ATOM     52  N   UNL A   1      43.562  27.521  31.351  1.00  0.00    -0.248 NA
ATOM     53  C   UNL A   1      44.785  25.774  30.384  1.00  0.00     0.031 C 
ATOM     54  C   UNL A   1      44.955  29.874  34.882  1.00  0.00     0.029 A 
ATOM     55  C   UNL A   1      44.531  29.144  33.781  1.00  0.00     0.049 A 
ATOM     56  H   UNL A   1      42.750  29.342  32.670  1.00  0.00     0.167 HD
ATOM     57  C   UNL A   1      44.744  27.356  32.055  1.00  0.00     0.074 A 
ATOM     58  C   UNL A   1      45.447  26.248  31.431  1.00  0.00     0.031 C 
ATOM     59  C   UNL A   1      45.210  28.058  33.117  1.00  0.00     0.031 A 
BRANCH  46  60
ATOM     60  C   UNL A   1      41.509  32.606  35.139  1.00  0.00    -0.014 A 
ATOM     61  C   UNL A   1      41.967  33.906  34.853  1.00  0.00     0.010 A 
ATOM     62  C   UNL A   1      40.805  32.382  36.336  1.00  0.00     0.010 A 
ATOM     63  C   UNL A   1      41.754  34.949  35.760  1.00  0.00     0.020 A 
ATOM     64  C   UNL A   1      40.572  33.426  37.237  1.00  0.00     0.020 A 
ATOM     65  C   UNL A   1      41.063  34.702  36.951  1.00  0.00     0.054 A 
BRANCH  65  66
ATOM     66  S   UNL A   1      40.787  36.074  38.107  1.00  0.00     0.124 S 
ATOM     67  O   UNL A   1      40.490  35.364  39.349  1.00  0.00    -0.237 OA
ATOM     68  O   UNL A   1      42.064  36.783  38.079  1.00  0.00    -0.237 OA
ATOM     69  O   UNL A   1      39.662  36.799  37.522  1.00  0.00    -0.744 OA
ENDBRANCH  65  66
ENDBRANCH  46  60
BRANCH  47  70
ATOM     70  C   UNL A   1      42.733  25.312  28.296  1.00  0.00    -0.014 A 
ATOM     71  C   UNL A   1      43.381  25.614  27.088  1.00  0.00     0.010 A 
ATOM     72  C   UNL A   1      42.349  23.983  28.557  1.00  0.00     0.010 A 
ATOM     73  C   UNL A   1      43.649  24.604  26.160  1.00  0.00     0.020 A 
ATOM     74  C   UNL A   1      42.637  22.967  27.643  1.00  0.00     0.020 A 
ATOM     75  C   UNL A   1      43.282  23.285  26.447  1.00  0.00     0.054 A 
BRANCH  75  76
ATOM     76  S   UNL A   1      43.727  21.973  25.276  1.00  0.00     0.124 S 
ATOM     77  O   UNL A   1      42.728  20.951  25.571  1.00  0.00    -0.237 OA
ATOM     78  O   UNL A   1      43.590  22.638  23.982  1.00  0.00    -0.237 OA
ATOM     79  O   UNL A   1      45.100  21.635  25.649  1.00  0.00    -0.744 OA
ENDBRANCH  75  76
ENDBRANCH  47  70
BRANCH  59  80
ATOM     80  C   UNL A   1      46.546  27.634  33.654  1.00  0.00    -0.014 A 
ATOM     81  C   UNL A   1      46.637  26.648  34.652  1.00  0.00     0.010 A 
ATOM     82  C   UNL A   1      47.718  28.220  33.147  1.00  0.00     0.010 A 
ATOM     83  C   UNL A   1      47.882  26.282  35.164  1.00  0.00     0.020 A 
ATOM     84  C   UNL A   1      48.966  27.839  33.642  1.00  0.00     0.020 A 
ATOM     85  C   UNL A   1      49.039  26.885  34.660  1.00  0.00     0.054 A 
BRANCH  85  86
ATOM     86  S   UNL A   1      50.648  26.380  35.323  1.00  0.00     0.124 S 
ATOM     87  O   UNL A   1      51.483  27.535  35.003  1.00  0.00    -0.237 OA
ATOM     88  O   UNL A   1      50.366  26.182  36.742  1.00  0.00    -0.237 OA
ATOM     89  O   UNL A   1      50.959  25.160  34.580  1.00  0.00    -0.744 OA
ENDBRANCH  85  86
ENDBRANCH  59  80
ENDBRANCH  33  34
ENDBRANCH  26  28
ENDBRANCH  25  26
ENDBRANCH  24  25
ENDBRANCH   1  24
TORSDOF 20
ENDMDL
