MODEL 1
REMARK VINA RESULT:     -14.3      0.000      0.000
REMARK SMILES Cc1cccc(N2C(=O)/C(=C/c3ccc(C(=O)OCCOC(=O)c4ccc(-c5c6nc(c(-c7ccc(S(=O)(=O)[O-])cc7)c7ccc([nH]7)c(-c7ccc(S(=O)(=O)[O-])cc7)c7nc(c(-c8ccc(S(=O)(=O)[O-])cc8)c8ccc5[nH]8)C=C7)C=C6)cc4)cc3)c3ccccc3C2=O)c1
REMARK SMILES IDX 20 1 19 2 18 3 16 4 17 5 15 6 12 7 13 8 85 9 14 10 84 11
REMARK SMILES IDX 11 12 7 13 8 14 92 15 9 16 10 17 91 18 93 19 86 20 90 21
REMARK SMILES IDX 87 22 89 23 88 24 6 25 1 26 2 27 3 28 94 29 4 30 5 31 21 32
REMARK SMILES IDX 22 33 23 34 24 35 25 36 83 37 26 38 82 39 27 40 28 41 29 42
REMARK SMILES IDX 76 43 30 44 81 45 75 46 77 47 31 48 80 49 74 50 73 51 32 53
REMARK SMILES IDX 62 54 43 55 61 56 44 57 47 58 60 59 78 60 45 61 46 62 59 64
REMARK SMILES IDX 79 65 48 66 33 67 34 68 42 69 35 70 41 71 36 72 37 73 38 74
REMARK SMILES IDX 39 75 40 76 63 77 64 78 72 79 65 80 71 81 66 82 67 83 68 84
REMARK SMILES IDX 69 85 70 86 49 87 50 88 58 89 51 90 57 91 52 92 53 93 54 94
REMARK SMILES IDX 55 95 56 96
REMARK H PARENT 77 52 47 63
REMARK Flexibility Score: inf
ROOT
ATOM      1  C   UNL A   1      33.796  29.723  27.219  1.00  0.00     0.275 C 
ENDROOT
BRANCH   1   2
ATOM      2  C   UNL A   1      33.128  29.604  25.834  1.00  0.00     0.275 C 
BRANCH   2   3
ATOM      3  O   UNL A   1      32.421  28.365  25.681  1.00  0.00    -0.458 OA
BRANCH   3   4
ATOM      4  C   UNL A   1      31.451  28.404  24.726  1.00  0.00     0.338 C 
ATOM      5  O   UNL A   1      30.897  29.410  24.343  1.00  0.00    -0.246 OA
BRANCH   4   6
ATOM      6  C   UNL A   1      31.087  27.040  24.242  1.00  0.00     0.060 A 
ATOM      7  C   UNL A   1      30.863  24.338  23.578  1.00  0.00    -0.025 A 
ATOM      8  C   UNL A   1      31.133  25.276  22.578  1.00  0.00     0.009 A 
ATOM      9  C   UNL A   1      30.495  24.772  24.856  1.00  0.00     0.009 A 
ATOM     10  C   UNL A   1      31.257  26.627  22.914  1.00  0.00     0.016 A 
ATOM     11  C   UNL A   1      30.630  26.118  25.193  1.00  0.00     0.016 A 
BRANCH   7  12
ATOM     12  C   UNL A   1      31.219  22.928  23.355  1.00  0.00     0.022 C 
ATOM     13  N   UNL A   1      33.263  20.269  24.611  1.00  0.00    -0.242 N 
ATOM     14  C   UNL A   1      32.540  20.908  23.578  1.00  0.00     0.265 C 
ATOM     15  C   UNL A   1      33.755  20.997  25.721  1.00  0.00     0.265 C 
ATOM     16  O   UNL A   1      31.967  20.371  22.630  1.00  0.00    -0.268 OA
ATOM     17  C   UNL A   1      32.407  22.392  23.729  1.00  0.00     0.049 C 
ATOM     18  C   UNL A   1      34.039  22.439  25.518  1.00  0.00     0.048 A 
ATOM     19  O   UNL A   1      34.025  20.565  26.840  1.00  0.00    -0.268 OA
ATOM     20  C   UNL A   1      33.479  23.102  24.436  1.00  0.00    -0.000 A 
ATOM     21  C   UNL A   1      34.893  23.122  26.400  1.00  0.00     0.014 A 
ATOM     22  C   UNL A   1      33.908  24.405  24.145  1.00  0.00     0.010 A 
ATOM     23  C   UNL A   1      35.226  24.455  26.165  1.00  0.00     0.001 A 
ATOM     24  C   UNL A   1      34.755  25.089  25.020  1.00  0.00     0.001 A 
BRANCH  13  25
ATOM     25  C   UNL A   1      33.417  18.812  24.575  1.00  0.00     0.053 A 
ATOM     26  C   UNL A   1      31.780  15.702  26.126  1.00  0.00     0.044 C 
ATOM     27  C   UNL A   1      32.691  16.559  25.299  1.00  0.00    -0.049 A 
ATOM     28  C   UNL A   1      33.670  15.970  24.503  1.00  0.00     0.003 A 
ATOM     29  C   UNL A   1      32.561  17.961  25.307  1.00  0.00     0.030 A 
ATOM     30  C   UNL A   1      34.513  16.773  23.748  1.00  0.00     0.002 A 
ATOM     31  C   UNL A   1      34.389  18.169  23.792  1.00  0.00     0.027 A 
ENDBRANCH  13  25
ENDBRANCH   7  12
ENDBRANCH   4   6
ENDBRANCH   3   4
ENDBRANCH   2   3
ENDBRANCH   1   2
BRANCH   1  32
ATOM     32  O   UNL A   1      35.216  29.473  27.322  1.00  0.00    -0.458 OA
BRANCH  32  33
ATOM     33  C   UNL A   1      36.000  30.518  27.714  1.00  0.00     0.338 C 
ATOM     34  O   UNL A   1      35.588  31.654  27.865  1.00  0.00    -0.246 OA
BRANCH  33  35
ATOM     35  C   UNL A   1      37.277  29.955  28.244  1.00  0.00     0.060 A 
ATOM     36  C   UNL A   1      37.268  29.127  29.375  1.00  0.00     0.016 A 
ATOM     37  C   UNL A   1      38.393  29.988  27.404  1.00  0.00     0.016 A 
ATOM     38  C   UNL A   1      38.321  28.236  29.596  1.00  0.00     0.010 A 
ATOM     39  C   UNL A   1      39.354  29.021  27.539  1.00  0.00     0.010 A 
ATOM     40  C   UNL A   1      39.338  28.161  28.645  1.00  0.00    -0.014 A 
BRANCH  40  41
ATOM     41  C   UNL A   1      40.597  27.456  28.827  1.00  0.00     0.031 A 
ATOM     42  C   UNL A   1      40.831  26.062  28.413  1.00  0.00     0.074 A 
ATOM     43  C   UNL A   1      41.577  28.279  29.266  1.00  0.00     0.049 A 
ATOM     44  N   UNL A   1      41.724  25.297  28.942  1.00  0.00    -0.248 NA
ATOM     45  C   UNL A   1      40.059  25.383  27.376  1.00  0.00     0.031 C 
ATOM     46  C   UNL A   1      43.014  28.105  29.280  1.00  0.00     0.029 A 
ATOM     47  N   UNL A   1      41.377  29.489  29.949  1.00  0.00    -0.354 N 
ATOM     48  C   UNL A   1      41.873  24.205  28.106  1.00  0.00     0.074 A 
ATOM     49  C   UNL A   1      40.717  24.223  27.247  1.00  0.00     0.031 C 
ATOM     50  C   UNL A   1      43.528  28.962  30.186  1.00  0.00     0.029 A 
ATOM     51  C   UNL A   1      42.403  29.588  30.877  1.00  0.00     0.049 A 
ATOM     52  H   UNL A   1      40.652  30.138  29.800  1.00  0.00     0.167 HD
ATOM     53  C   UNL A   1      43.063  23.537  28.089  1.00  0.00     0.031 A 
ATOM     54  C   UNL A   1      42.144  29.531  32.217  1.00  0.00     0.031 A 
ATOM     55  C   UNL A   1      43.996  24.163  29.018  1.00  0.00     0.049 A 
ATOM     56  C   UNL A   1      42.851  28.341  32.808  1.00  0.00     0.074 A 
ATOM     57  C   UNL A   1      44.993  25.100  28.805  1.00  0.00     0.029 A 
ATOM     58  N   UNL A   1      43.749  24.132  30.381  1.00  0.00    -0.354 N 
ATOM     59  N   UNL A   1      43.035  27.214  32.177  1.00  0.00    -0.248 NA
ATOM     60  C   UNL A   1      43.471  28.369  34.126  1.00  0.00     0.031 C 
ATOM     61  C   UNL A   1      45.285  25.704  30.049  1.00  0.00     0.029 A 
ATOM     62  C   UNL A   1      44.480  25.117  31.012  1.00  0.00     0.049 A 
ATOM     63  H   UNL A   1      43.142  23.501  30.832  1.00  0.00     0.167 HD
ATOM     64  C   UNL A   1      43.883  26.432  32.917  1.00  0.00     0.074 A 
ATOM     65  C   UNL A   1      44.083  27.174  34.150  1.00  0.00     0.031 C 
ATOM     66  C   UNL A   1      44.426  25.272  32.452  1.00  0.00     0.031 A 
BRANCH  53  67
ATOM     67  C   UNL A   1      43.538  22.574  27.017  1.00  0.00    -0.014 A 
ATOM     68  C   UNL A   1      42.799  21.386  26.812  1.00  0.00     0.010 A 
ATOM     69  C   UNL A   1      44.676  22.739  26.207  1.00  0.00     0.010 A 
ATOM     70  C   UNL A   1      43.207  20.381  25.926  1.00  0.00     0.020 A 
ATOM     71  C   UNL A   1      45.104  21.733  25.315  1.00  0.00     0.020 A 
ATOM     72  C   UNL A   1      44.373  20.552  25.194  1.00  0.00     0.054 A 
BRANCH  72  73
ATOM     73  S   UNL A   1      44.892  19.215  24.084  1.00  0.00     0.124 S 
ATOM     74  O   UNL A   1      46.329  19.137  24.340  1.00  0.00    -0.237 OA
ATOM     75  O   UNL A   1      44.107  18.081  24.564  1.00  0.00    -0.237 OA
ATOM     76  O   UNL A   1      44.527  19.704  22.756  1.00  0.00    -0.744 OA
ENDBRANCH  72  73
ENDBRANCH  53  67
BRANCH  54  77
ATOM     77  C   UNL A   1      40.783  30.010  32.629  1.00  0.00    -0.014 A 
ATOM     78  C   UNL A   1      40.498  31.389  32.505  1.00  0.00     0.010 A 
ATOM     79  C   UNL A   1      39.702  29.121  32.785  1.00  0.00     0.010 A 
ATOM     80  C   UNL A   1      39.179  31.854  32.425  1.00  0.00     0.020 A 
ATOM     81  C   UNL A   1      38.374  29.588  32.720  1.00  0.00     0.020 A 
ATOM     82  C   UNL A   1      38.124  30.945  32.501  1.00  0.00     0.054 A 
BRANCH  82  83
ATOM     83  S   UNL A   1      36.447  31.546  32.119  1.00  0.00     0.124 S 
ATOM     84  O   UNL A   1      36.683  32.419  30.974  1.00  0.00    -0.237 OA
ATOM     85  O   UNL A   1      35.740  30.301  31.828  1.00  0.00    -0.237 OA
ATOM     86  O   UNL A   1      36.039  32.218  33.351  1.00  0.00    -0.744 OA
ENDBRANCH  82  83
ENDBRANCH  54  77
BRANCH  66  87
ATOM     87  C   UNL A   1      45.108  24.224  33.290  1.00  0.00    -0.014 A 
ATOM     88  C   UNL A   1      46.369  24.401  33.871  1.00  0.00     0.010 A 
ATOM     89  C   UNL A   1      44.390  23.053  33.642  1.00  0.00     0.010 A 
ATOM     90  C   UNL A   1      46.924  23.420  34.701  1.00  0.00     0.020 A 
ATOM     91  C   UNL A   1      44.910  22.096  34.512  1.00  0.00     0.020 A 
ATOM     92  C   UNL A   1      46.192  22.273  35.011  1.00  0.00     0.054 A 
BRANCH  92  93
ATOM     93  S   UNL A   1      46.910  21.038  36.114  1.00  0.00     0.124 S 
ATOM     94  O   UNL A   1      46.123  21.233  37.329  1.00  0.00    -0.237 OA
ATOM     95  O   UNL A   1      46.663  19.786  35.403  1.00  0.00    -0.237 OA
ATOM     96  O   UNL A   1      48.313  21.429  36.205  1.00  0.00    -0.744 OA
ENDBRANCH  92  93
ENDBRANCH  66  87
ENDBRANCH  40  41
ENDBRANCH  33  35
ENDBRANCH  32  33
ENDBRANCH   1  32
TORSDOF 16
ENDMDL
MODEL 2
REMARK VINA RESULT:     -14.1      4.479     11.263
REMARK SMILES Cc1cccc(N2C(=O)/C(=C/c3ccc(C(=O)OCCOC(=O)c4ccc(-c5c6nc(c(-c7ccc(S(=O)(=O)[O-])cc7)c7ccc([nH]7)c(-c7ccc(S(=O)(=O)[O-])cc7)c7nc(c(-c8ccc(S(=O)(=O)[O-])cc8)c8ccc5[nH]8)C=C7)C=C6)cc4)cc3)c3ccccc3C2=O)c1
REMARK SMILES IDX 20 1 19 2 18 3 16 4 17 5 15 6 12 7 13 8 85 9 14 10 84 11
REMARK SMILES IDX 11 12 7 13 8 14 92 15 9 16 10 17 91 18 93 19 86 20 90 21
REMARK SMILES IDX 87 22 89 23 88 24 6 25 1 26 2 27 3 28 94 29 4 30 5 31 21 32
REMARK SMILES IDX 22 33 23 34 24 35 25 36 83 37 26 38 82 39 27 40 28 41 29 42
REMARK SMILES IDX 76 43 30 44 81 45 75 46 77 47 31 48 80 49 74 50 73 51 32 53
REMARK SMILES IDX 62 54 43 55 61 56 44 57 47 58 60 59 78 60 45 61 46 62 59 64
REMARK SMILES IDX 79 65 48 66 33 67 34 68 42 69 35 70 41 71 36 72 37 73 38 74
REMARK SMILES IDX 39 75 40 76 63 77 64 78 72 79 65 80 71 81 66 82 67 83 68 84
REMARK SMILES IDX 69 85 70 86 49 87 50 88 58 89 51 90 57 91 52 92 53 93 54 94
REMARK SMILES IDX 55 95 56 96
REMARK H PARENT 77 52 47 63
REMARK Flexibility Score: inf
ROOT
ATOM      1  C   UNL A   1      37.078  23.679  26.401  1.00  0.00     0.275 C 
ENDROOT
BRANCH   1   2
ATOM      2  C   UNL A   1      36.649  22.378  25.693  1.00  0.00     0.275 C 
BRANCH   2   3
ATOM      3  O   UNL A   1      35.674  22.618  24.668  1.00  0.00    -0.458 OA
BRANCH   3   4
ATOM      4  C   UNL A   1      34.660  21.710  24.656  1.00  0.00     0.338 C 
ATOM      5  O   UNL A   1      34.782  20.533  24.909  1.00  0.00    -0.246 OA
BRANCH   4   6
ATOM      6  C   UNL A   1      33.369  22.320  24.221  1.00  0.00     0.060 A 
ATOM      7  C   UNL A   1      31.194  23.927  23.527  1.00  0.00    -0.025 A 
ATOM      8  C   UNL A   1      31.121  23.117  24.663  1.00  0.00     0.009 A 
ATOM      9  C   UNL A   1      32.256  23.769  22.630  1.00  0.00     0.009 A 
ATOM     10  C   UNL A   1      32.216  22.322  25.017  1.00  0.00     0.016 A 
ATOM     11  C   UNL A   1      33.352  22.986  22.988  1.00  0.00     0.016 A 
BRANCH   7  12
ATOM     12  C   UNL A   1      30.310  25.097  23.420  1.00  0.00     0.022 C 
ATOM     13  N   UNL A   1      30.312  28.678  23.365  1.00  0.00    -0.242 N 
ATOM     14  C   UNL A   1      29.684  27.432  23.596  1.00  0.00     0.265 C 
ATOM     15  C   UNL A   1      31.721  28.808  23.399  1.00  0.00     0.265 C 
ATOM     16  O   UNL A   1      28.487  27.171  23.480  1.00  0.00    -0.268 OA
ATOM     17  C   UNL A   1      30.617  26.312  23.937  1.00  0.00     0.049 C 
ATOM     18  C   UNL A   1      32.474  27.840  24.235  1.00  0.00     0.048 A 
ATOM     19  O   UNL A   1      32.408  29.666  22.849  1.00  0.00    -0.268 OA
ATOM     20  C   UNL A   1      31.867  26.655  24.625  1.00  0.00    -0.000 A 
ATOM     21  C   UNL A   1      33.782  28.135  24.653  1.00  0.00     0.014 A 
ATOM     22  C   UNL A   1      32.513  25.845  25.571  1.00  0.00     0.010 A 
ATOM     23  C   UNL A   1      34.461  27.266  25.506  1.00  0.00     0.001 A 
ATOM     24  C   UNL A   1      33.815  26.133  25.987  1.00  0.00     0.001 A 
BRANCH  13  25
ATOM     25  C   UNL A   1      29.488  29.830  22.987  1.00  0.00     0.053 A 
ATOM     26  C   UNL A   1      27.843  31.287  19.836  1.00  0.00     0.044 C 
ATOM     27  C   UNL A   1      28.258  31.116  21.267  1.00  0.00    -0.049 A 
ATOM     28  C   UNL A   1      27.858  32.045  22.224  1.00  0.00     0.003 A 
ATOM     29  C   UNL A   1      29.042  30.015  21.662  1.00  0.00     0.030 A 
ATOM     30  C   UNL A   1      28.254  31.882  23.544  1.00  0.00     0.002 A 
ATOM     31  C   UNL A   1      29.060  30.796  23.913  1.00  0.00     0.027 A 
ENDBRANCH  13  25
ENDBRANCH   7  12
ENDBRANCH   4   6
ENDBRANCH   3   4
ENDBRANCH   2   3
ENDBRANCH   1   2
BRANCH   1  32
ATOM     32  O   UNL A   1      38.399  24.203  26.139  1.00  0.00    -0.458 OA
BRANCH  32  33
ATOM     33  C   UNL A   1      39.360  23.954  27.075  1.00  0.00     0.338 C 
ATOM     34  O   UNL A   1      39.926  22.881  27.194  1.00  0.00    -0.246 OA
BRANCH  33  35
ATOM     35  C   UNL A   1      39.810  25.266  27.627  1.00  0.00     0.060 A 
ATOM     36  C   UNL A   1      40.259  26.277  26.765  1.00  0.00     0.016 A 
ATOM     37  C   UNL A   1      39.450  25.569  28.941  1.00  0.00     0.016 A 
ATOM     38  C   UNL A   1      40.226  27.611  27.178  1.00  0.00     0.010 A 
ATOM     39  C   UNL A   1      39.282  26.881  29.298  1.00  0.00     0.010 A 
ATOM     40  C   UNL A   1      39.692  27.904  28.433  1.00  0.00    -0.014 A 
BRANCH  40  41
ATOM     41  C   UNL A   1      39.782  29.197  29.093  1.00  0.00     0.031 A 
ATOM     42  C   UNL A   1      38.741  30.236  29.021  1.00  0.00     0.074 A 
ATOM     43  C   UNL A   1      40.853  29.268  29.916  1.00  0.00     0.049 A 
ATOM     44  N   UNL A   1      38.970  31.493  29.196  1.00  0.00    -0.248 NA
ATOM     45  C   UNL A   1      37.340  29.961  28.719  1.00  0.00     0.031 C 
ATOM     46  C   UNL A   1      41.158  30.198  30.983  1.00  0.00     0.029 A 
ATOM     47  N   UNL A   1      42.011  28.481  29.814  1.00  0.00    -0.354 N 
ATOM     48  C   UNL A   1      37.745  32.110  29.376  1.00  0.00     0.074 A 
ATOM     49  C   UNL A   1      36.768  31.157  28.914  1.00  0.00     0.031 C 
ATOM     50  C   UNL A   1      42.487  30.151  31.210  1.00  0.00     0.029 A 
ATOM     51  C   UNL A   1      43.073  29.297  30.178  1.00  0.00     0.049 A 
ATOM     52  H   UNL A   1      42.060  27.538  29.538  1.00  0.00     0.167 HD
ATOM     53  C   UNL A   1      37.681  33.266  30.098  1.00  0.00     0.031 A 
ATOM     54  C   UNL A   1      44.018  29.666  29.264  1.00  0.00     0.031 A 
ATOM     55  C   UNL A   1      39.013  33.632  30.565  1.00  0.00     0.049 A 
ATOM     56  C   UNL A   1      44.007  31.164  29.115  1.00  0.00     0.074 A 
ATOM     57  C   UNL A   1      39.643  33.399  31.776  1.00  0.00     0.029 A 
ATOM     58  N   UNL A   1      39.994  33.996  29.657  1.00  0.00    -0.354 N 
ATOM     59  N   UNL A   1      42.931  31.898  29.206  1.00  0.00    -0.248 NA
ATOM     60  C   UNL A   1      45.222  31.946  28.934  1.00  0.00     0.031 C 
ATOM     61  C   UNL A   1      41.034  33.539  31.568  1.00  0.00     0.029 A 
ATOM     62  C   UNL A   1      41.239  33.875  30.239  1.00  0.00     0.049 A 
ATOM     63  H   UNL A   1      39.828  34.296  28.734  1.00  0.00     0.167 HD
ATOM     64  C   UNL A   1      43.303  33.216  29.230  1.00  0.00     0.074 A 
ATOM     65  C   UNL A   1      44.738  33.197  29.002  1.00  0.00     0.031 C 
ATOM     66  C   UNL A   1      42.438  34.232  29.507  1.00  0.00     0.031 A 
BRANCH  53  67
ATOM     67  C   UNL A   1      36.433  33.882  30.700  1.00  0.00    -0.014 A 
ATOM     68  C   UNL A   1      35.315  34.087  29.858  1.00  0.00     0.010 A 
ATOM     69  C   UNL A   1      36.282  34.300  32.035  1.00  0.00     0.010 A 
ATOM     70  C   UNL A   1      34.154  34.743  30.283  1.00  0.00     0.020 A 
ATOM     71  C   UNL A   1      35.120  34.969  32.477  1.00  0.00     0.020 A 
ATOM     72  C   UNL A   1      34.070  35.200  31.590  1.00  0.00     0.054 A 
BRANCH  72  73
ATOM     73  S   UNL A   1      32.566  36.079  32.095  1.00  0.00     0.124 S 
ATOM     74  O   UNL A   1      33.059  36.956  33.156  1.00  0.00    -0.237 OA
ATOM     75  O   UNL A   1      32.161  36.751  30.864  1.00  0.00    -0.237 OA
ATOM     76  O   UNL A   1      31.673  35.012  32.542  1.00  0.00    -0.744 OA
ENDBRANCH  72  73
ENDBRANCH  53  67
BRANCH  54  77
ATOM     77  C   UNL A   1      44.237  28.696  28.140  1.00  0.00    -0.014 A 
ATOM     78  C   UNL A   1      44.713  27.404  28.461  1.00  0.00     0.010 A 
ATOM     79  C   UNL A   1      43.667  28.895  26.868  1.00  0.00     0.010 A 
ATOM     80  C   UNL A   1      44.524  26.324  27.590  1.00  0.00     0.020 A 
ATOM     81  C   UNL A   1      43.488  27.813  25.985  1.00  0.00     0.020 A 
ATOM     82  C   UNL A   1      43.882  26.529  26.369  1.00  0.00     0.054 A 
BRANCH  82  83
ATOM     83  S   UNL A   1      43.410  25.065  25.393  1.00  0.00     0.124 S 
ATOM     84  O   UNL A   1      44.638  24.769  24.662  1.00  0.00    -0.237 OA
ATOM     85  O   UNL A   1      43.053  24.108  26.439  1.00  0.00    -0.237 OA
ATOM     86  O   UNL A   1      42.293  25.543  24.582  1.00  0.00    -0.744 OA
ENDBRANCH  82  83
ENDBRANCH  54  77
BRANCH  66  87
ATOM     87  C   UNL A   1      42.691  35.695  29.260  1.00  0.00    -0.014 A 
ATOM     88  C   UNL A   1      42.036  36.434  28.268  1.00  0.00     0.010 A 
ATOM     89  C   UNL A   1      43.518  36.410  30.162  1.00  0.00     0.010 A 
ATOM     90  C   UNL A   1      42.257  37.809  28.131  1.00  0.00     0.020 A 
ATOM     91  C   UNL A   1      43.701  37.788  30.070  1.00  0.00     0.020 A 
ATOM     92  C   UNL A   1      43.092  38.475  29.029  1.00  0.00     0.054 A 
BRANCH  92  93
ATOM     93  S   UNL A   1      43.334  40.255  28.858  1.00  0.00     0.124 S 
ATOM     94  O   UNL A   1      44.767  40.385  29.113  1.00  0.00    -0.237 OA
ATOM     95  O   UNL A   1      42.919  40.509  27.481  1.00  0.00    -0.237 OA
ATOM     96  O   UNL A   1      42.460  40.822  29.880  1.00  0.00    -0.744 OA
ENDBRANCH  92  93
ENDBRANCH  66  87
ENDBRANCH  40  41
ENDBRANCH  33  35
ENDBRANCH  32  33
ENDBRANCH   1  32
TORSDOF 16
ENDMDL
MODEL 3
REMARK VINA RESULT:     -13.7      4.382     10.919
REMARK SMILES Cc1cccc(N2C(=O)/C(=C/c3ccc(C(=O)OCCOC(=O)c4ccc(-c5c6nc(c(-c7ccc(S(=O)(=O)[O-])cc7)c7ccc([nH]7)c(-c7ccc(S(=O)(=O)[O-])cc7)c7nc(c(-c8ccc(S(=O)(=O)[O-])cc8)c8ccc5[nH]8)C=C7)C=C6)cc4)cc3)c3ccccc3C2=O)c1
REMARK SMILES IDX 20 1 19 2 18 3 16 4 17 5 15 6 12 7 13 8 85 9 14 10 84 11
REMARK SMILES IDX 11 12 7 13 8 14 92 15 9 16 10 17 91 18 93 19 86 20 90 21
REMARK SMILES IDX 87 22 89 23 88 24 6 25 1 26 2 27 3 28 94 29 4 30 5 31 21 32
REMARK SMILES IDX 22 33 23 34 24 35 25 36 83 37 26 38 82 39 27 40 28 41 29 42
REMARK SMILES IDX 76 43 30 44 81 45 75 46 77 47 31 48 80 49 74 50 73 51 32 53
REMARK SMILES IDX 62 54 43 55 61 56 44 57 47 58 60 59 78 60 45 61 46 62 59 64
REMARK SMILES IDX 79 65 48 66 33 67 34 68 42 69 35 70 41 71 36 72 37 73 38 74
REMARK SMILES IDX 39 75 40 76 63 77 64 78 72 79 65 80 71 81 66 82 67 83 68 84
REMARK SMILES IDX 69 85 70 86 49 87 50 88 58 89 51 90 57 91 52 92 53 93 54 94
REMARK SMILES IDX 55 95 56 96
REMARK H PARENT 77 52 47 63
REMARK Flexibility Score: inf
ROOT
ATOM      1  C   UNL A   1      41.358  23.450  26.334  1.00  0.00     0.275 C 
ENDROOT
BRANCH   1   2
ATOM      2  C   UNL A   1      40.666  22.077  26.224  1.00  0.00     0.275 C 
BRANCH   2   3
ATOM      3  O   UNL A   1      39.258  22.159  26.488  1.00  0.00    -0.458 OA
BRANCH   3   4
ATOM      4  C   UNL A   1      38.502  21.374  25.672  1.00  0.00     0.338 C 
ATOM      5  O   UNL A   1      38.838  20.291  25.249  1.00  0.00    -0.246 OA
BRANCH   4   6
ATOM      6  C   UNL A   1      37.219  22.035  25.291  1.00  0.00     0.060 A 
ATOM      7  C   UNL A   1      35.138  23.670  24.402  1.00  0.00    -0.025 A 
ATOM      8  C   UNL A   1      35.323  23.468  25.772  1.00  0.00     0.009 A 
ATOM      9  C   UNL A   1      35.849  22.889  23.484  1.00  0.00     0.009 A 
ATOM     10  C   UNL A   1      36.374  22.660  26.216  1.00  0.00     0.016 A 
ATOM     11  C   UNL A   1      36.904  22.092  23.926  1.00  0.00     0.016 A 
BRANCH   7  12
ATOM     12  C   UNL A   1      34.405  24.859  23.943  1.00  0.00     0.022 C 
ATOM     13  N   UNL A   1      31.429  26.771  24.506  1.00  0.00    -0.242 N 
ATOM     14  C   UNL A   1      32.499  26.334  23.690  1.00  0.00     0.265 C 
ATOM     15  C   UNL A   1      30.992  26.006  25.614  1.00  0.00     0.265 C 
ATOM     16  O   UNL A   1      33.041  26.959  22.778  1.00  0.00    -0.268 OA
ATOM     17  C   UNL A   1      33.061  24.995  24.054  1.00  0.00     0.049 C 
ATOM     18  C   UNL A   1      31.220  24.541  25.563  1.00  0.00     0.048 A 
ATOM     19  O   UNL A   1      30.394  26.407  26.610  1.00  0.00    -0.268 OA
ATOM     20  C   UNL A   1      32.154  24.024  24.677  1.00  0.00    -0.000 A 
ATOM     21  C   UNL A   1      30.475  23.681  26.386  1.00  0.00     0.014 A 
ATOM     22  C   UNL A   1      32.219  22.634  24.499  1.00  0.00     0.010 A 
ATOM     23  C   UNL A   1      30.629  22.300  26.282  1.00  0.00     0.001 A 
ATOM     24  C   UNL A   1      31.482  21.775  25.317  1.00  0.00     0.001 A 
BRANCH  13  25
ATOM     25  C   UNL A   1      30.835  28.086  24.253  1.00  0.00     0.053 A 
ATOM     26  C   UNL A   1      27.998  29.614  22.161  1.00  0.00     0.044 C 
ATOM     27  C   UNL A   1      29.145  29.496  23.119  1.00  0.00    -0.049 A 
ATOM     28  C   UNL A   1      29.634  30.629  23.764  1.00  0.00     0.003 A 
ATOM     29  C   UNL A   1      29.731  28.244  23.389  1.00  0.00     0.030 A 
ATOM     30  C   UNL A   1      30.701  30.510  24.642  1.00  0.00     0.002 A 
ATOM     31  C   UNL A   1      31.292  29.260  24.875  1.00  0.00     0.027 A 
ENDBRANCH  13  25
ENDBRANCH   7  12
ENDBRANCH   4   6
ENDBRANCH   3   4
ENDBRANCH   2   3
ENDBRANCH   1   2
BRANCH   1  32
ATOM     32  O   UNL A   1      40.555  24.599  26.686  1.00  0.00    -0.458 OA
BRANCH  32  33
ATOM     33  C   UNL A   1      40.952  25.806  26.190  1.00  0.00     0.338 C 
ATOM     34  O   UNL A   1      41.375  25.967  25.058  1.00  0.00    -0.246 OA
BRANCH  33  35
ATOM     35  C   UNL A   1      40.445  26.866  27.110  1.00  0.00     0.060 A 
ATOM     36  C   UNL A   1      39.623  26.526  28.195  1.00  0.00     0.016 A 
ATOM     37  C   UNL A   1      41.078  28.111  27.070  1.00  0.00     0.016 A 
ATOM     38  C   UNL A   1      39.537  27.378  29.298  1.00  0.00     0.010 A 
ATOM     39  C   UNL A   1      41.108  28.878  28.204  1.00  0.00     0.010 A 
ATOM     40  C   UNL A   1      40.321  28.531  29.310  1.00  0.00    -0.014 A 
BRANCH  40  41
ATOM     41  C   UNL A   1      40.188  29.617  30.269  1.00  0.00     0.031 A 
ATOM     42  C   UNL A   1      39.273  30.759  30.103  1.00  0.00     0.074 A 
ATOM     43  C   UNL A   1      40.877  29.372  31.406  1.00  0.00     0.049 A 
ATOM     44  N   UNL A   1      39.448  31.906  30.664  1.00  0.00    -0.248 NA
ATOM     45  C   UNL A   1      38.078  30.725  29.264  1.00  0.00     0.031 C 
ATOM     46  C   UNL A   1      40.785  29.989  32.713  1.00  0.00     0.029 A 
ATOM     47  N   UNL A   1      41.972  28.501  31.522  1.00  0.00    -0.354 N 
ATOM     48  C   UNL A   1      38.259  32.603  30.550  1.00  0.00     0.074 A 
ATOM     49  C   UNL A   1      37.502  31.903  29.543  1.00  0.00     0.031 C 
ATOM     50  C   UNL A   1      41.932  29.737  33.375  1.00  0.00     0.029 A 
ATOM     51  C   UNL A   1      42.840  29.082  32.436  1.00  0.00     0.049 A 
ATOM     52  H   UNL A   1      42.099  27.647  31.049  1.00  0.00     0.167 HD
ATOM     53  C   UNL A   1      37.957  33.561  31.474  1.00  0.00     0.031 A 
ATOM     54  C   UNL A   1      44.066  29.540  32.043  1.00  0.00     0.031 A 
ATOM     55  C   UNL A   1      39.027  33.652  32.460  1.00  0.00     0.049 A 
ATOM     56  C   UNL A   1      44.145  31.022  32.291  1.00  0.00     0.074 A 
ATOM     57  C   UNL A   1      39.156  33.075  33.712  1.00  0.00     0.029 A 
ATOM     58  N   UNL A   1      40.284  34.100  32.085  1.00  0.00    -0.354 N 
ATOM     59  N   UNL A   1      43.130  31.835  32.181  1.00  0.00    -0.248 NA
ATOM     60  C   UNL A   1      45.358  31.678  32.759  1.00  0.00     0.031 C 
ATOM     61  C   UNL A   1      40.527  33.096  34.054  1.00  0.00     0.029 A 
ATOM     62  C   UNL A   1      41.219  33.704  33.018  1.00  0.00     0.049 A 
ATOM     63  H   UNL A   1      40.480  34.621  31.273  1.00  0.00     0.167 HD
ATOM     64  C   UNL A   1      43.496  33.060  32.672  1.00  0.00     0.074 A 
ATOM     65  C   UNL A   1      44.912  32.928  32.971  1.00  0.00     0.031 C 
ATOM     66  C   UNL A   1      42.613  34.078  32.876  1.00  0.00     0.031 A 
BRANCH  53  67
ATOM     67  C   UNL A   1      36.589  34.162  31.731  1.00  0.00    -0.014 A 
ATOM     68  C   UNL A   1      35.599  34.024  30.731  1.00  0.00     0.010 A 
ATOM     69  C   UNL A   1      36.206  34.877  32.881  1.00  0.00     0.010 A 
ATOM     70  C   UNL A   1      34.340  34.630  30.819  1.00  0.00     0.020 A 
ATOM     71  C   UNL A   1      34.943  35.499  32.982  1.00  0.00     0.020 A 
ATOM     72  C   UNL A   1      34.024  35.384  31.940  1.00  0.00     0.054 A 
BRANCH  72  73
ATOM     73  S   UNL A   1      32.399  36.185  32.004  1.00  0.00     0.124 S 
ATOM     74  O   UNL A   1      32.640  37.309  32.907  1.00  0.00    -0.237 OA
ATOM     75  O   UNL A   1      32.165  36.542  30.608  1.00  0.00    -0.237 OA
ATOM     76  O   UNL A   1      31.519  35.146  32.534  1.00  0.00    -0.744 OA
ENDBRANCH  72  73
ENDBRANCH  53  67
BRANCH  54  77
ATOM     77  C   UNL A   1      44.666  28.836  30.861  1.00  0.00    -0.014 A 
ATOM     78  C   UNL A   1      44.996  27.468  30.999  1.00  0.00     0.010 A 
ATOM     79  C   UNL A   1      44.580  29.370  29.561  1.00  0.00     0.010 A 
ATOM     80  C   UNL A   1      45.123  26.636  29.880  1.00  0.00     0.020 A 
ATOM     81  C   UNL A   1      44.723  28.538  28.434  1.00  0.00     0.020 A 
ATOM     82  C   UNL A   1      44.954  27.170  28.603  1.00  0.00     0.054 A 
BRANCH  82  83
ATOM     83  S   UNL A   1      44.854  26.014  27.198  1.00  0.00     0.124 S 
ATOM     84  O   UNL A   1      46.245  25.608  27.031  1.00  0.00    -0.237 OA
ATOM     85  O   UNL A   1      43.954  24.986  27.718  1.00  0.00    -0.237 OA
ATOM     86  O   UNL A   1      44.303  26.835  26.123  1.00  0.00    -0.744 OA
ENDBRANCH  82  83
ENDBRANCH  54  77
BRANCH  66  87
ATOM     87  C   UNL A   1      42.973  35.519  33.120  1.00  0.00    -0.014 A 
ATOM     88  C   UNL A   1      43.730  36.286  32.227  1.00  0.00     0.010 A 
ATOM     89  C   UNL A   1      42.400  36.191  34.228  1.00  0.00     0.010 A 
ATOM     90  C   UNL A   1      43.974  37.642  32.470  1.00  0.00     0.020 A 
ATOM     91  C   UNL A   1      42.589  37.554  34.450  1.00  0.00     0.020 A 
ATOM     92  C   UNL A   1      43.406  38.265  33.582  1.00  0.00     0.054 A 
BRANCH  92  93
ATOM     93  S   UNL A   1      43.700  40.025  33.857  1.00  0.00     0.124 S 
ATOM     94  O   UNL A   1      44.704  40.320  32.838  1.00  0.00    -0.237 OA
ATOM     95  O   UNL A   1      42.383  40.613  33.627  1.00  0.00    -0.237 OA
ATOM     96  O   UNL A   1      44.170  40.085  35.238  1.00  0.00    -0.744 OA
ENDBRANCH  92  93
ENDBRANCH  66  87
ENDBRANCH  40  41
ENDBRANCH  33  35
ENDBRANCH  32  33
ENDBRANCH   1  32
TORSDOF 16
ENDMDL
