MODEL 1
REMARK VINA RESULT:     -12.9      0.000      0.000
REMARK SMILES O=C(OCCOC(=O)c1ccc(-n2cc(CSc3nc4ccccc4c(=O)n3-c3ccc(Cl)cc3)nn2)cc1)c1ccc(-c2c3nc(c(-c4ccc(S(=O)(=O)[O-])cc4)c4ccc([nH]4)c(-c4ccc(S(=O)(=O)[O-])cc4)c4nc(c(-c5ccc(S(=O)(=O)[O-])cc5)c5ccc2[nH]5)C=C4)C=C3)cc1
REMARK SMILES IDX 5 1 4 2 3 3 2 4 1 5 40 6 41 7 99 8 42 9 98 10 43 11 44 12
REMARK SMILES IDX 45 13 92 14 46 15 97 16 91 17 93 18 47 19 96 20 90 21 89 22
REMARK SMILES IDX 48 24 78 25 59 26 77 27 60 28 63 29 76 30 94 31 61 32 62 33
REMARK SMILES IDX 75 35 95 36 64 37 49 38 50 39 58 40 51 41 57 42 52 43 53 44
REMARK SMILES IDX 54 45 55 46 56 47 79 48 80 49 88 50 81 51 87 52 82 53 83 54
REMARK SMILES IDX 84 55 85 56 86 57 65 58 66 59 74 60 67 61 73 62 68 63 69 64
REMARK SMILES IDX 70 65 71 66 72 67 6 68 7 69 8 70 9 71 10 72 39 73 11 74
REMARK SMILES IDX 38 75 12 76 13 77 14 78 37 79 15 80 36 81 16 82 17 83 18 84
REMARK SMILES IDX 19 85 28 86 20 87 26 88 21 89 25 90 27 91 22 92 24 93 23 94
REMARK SMILES IDX 29 95 30 96 35 97 31 98 34 99 32 100 33 101
REMARK H PARENT 93 23 63 34
REMARK Flexibility Score: inf
ROOT
ATOM      1  C   UNL A   1      34.116  33.744  27.881  1.00  0.00     0.275 C 
ENDROOT
BRANCH   1   2
ATOM      2  C   UNL A   1      33.703  34.609  29.072  1.00  0.00     0.275 C 
BRANCH   2   3
ATOM      3  O   UNL A   1      33.787  34.021  30.388  1.00  0.00    -0.458 OA
BRANCH   3   4
ATOM      4  C   UNL A   1      34.790  34.384  31.216  1.00  0.00     0.338 C 
ATOM      5  O   UNL A   1      34.699  35.262  32.058  1.00  0.00    -0.246 OA
BRANCH   4   6
ATOM      6  C   UNL A   1      35.933  33.439  31.157  1.00  0.00     0.060 A 
ATOM      7  C   UNL A   1      37.251  33.871  30.990  1.00  0.00     0.016 A 
ATOM      8  C   UNL A   1      35.659  32.070  31.293  1.00  0.00     0.016 A 
ATOM      9  C   UNL A   1      38.274  32.938  30.892  1.00  0.00     0.010 A 
ATOM     10  C   UNL A   1      36.687  31.137  31.210  1.00  0.00     0.010 A 
ATOM     11  C   UNL A   1      37.991  31.567  30.970  1.00  0.00    -0.014 A 
BRANCH  11  12
ATOM     12  C   UNL A   1      39.109  30.628  30.892  1.00  0.00     0.031 A 
ATOM     13  C   UNL A   1      39.797  30.358  32.185  1.00  0.00     0.074 A 
ATOM     14  C   UNL A   1      39.481  29.952  29.785  1.00  0.00     0.049 A 
ATOM     15  N   UNL A   1      40.953  30.789  32.571  1.00  0.00    -0.248 NA
ATOM     16  C   UNL A   1      39.060  29.617  33.216  1.00  0.00     0.031 C 
ATOM     17  C   UNL A   1      38.795  29.849  28.497  1.00  0.00     0.029 A 
ATOM     18  N   UNL A   1      40.553  29.125  29.624  1.00  0.00    -0.354 N 
ATOM     19  C   UNL A   1      41.186  30.211  33.817  1.00  0.00     0.074 A 
ATOM     20  C   UNL A   1      39.932  29.633  34.226  1.00  0.00     0.031 C 
ATOM     21  C   UNL A   1      39.343  28.840  27.776  1.00  0.00     0.029 A 
ATOM     22  C   UNL A   1      40.513  28.340  28.478  1.00  0.00     0.049 A 
ATOM     23  H   UNL A   1      41.297  29.088  30.268  1.00  0.00     0.167 HD
ATOM     24  C   UNL A   1      42.442  30.066  34.329  1.00  0.00     0.031 A 
ATOM     25  C   UNL A   1      41.368  27.337  28.149  1.00  0.00     0.031 A 
ATOM     26  C   UNL A   1      43.409  30.834  33.591  1.00  0.00     0.049 A 
ATOM     27  C   UNL A   1      42.621  27.557  28.911  1.00  0.00     0.074 A 
ATOM     28  C   UNL A   1      43.568  32.173  33.291  1.00  0.00     0.029 A 
ATOM     29  N   UNL A   1      44.190  30.150  32.688  1.00  0.00    -0.354 N 
ATOM     30  N   UNL A   1      43.420  28.563  28.693  1.00  0.00    -0.248 NA
ATOM     31  C   UNL A   1      42.761  26.919  30.210  1.00  0.00     0.031 C 
ATOM     32  C   UNL A   1      43.998  32.187  31.932  1.00  0.00     0.029 A 
ATOM     33  C   UNL A   1      44.160  30.864  31.518  1.00  0.00     0.049 A 
ATOM     34  H   UNL A   1      44.677  29.310  32.851  1.00  0.00     0.167 HD
ATOM     35  C   UNL A   1      43.836  28.963  29.953  1.00  0.00     0.074 A 
ATOM     36  C   UNL A   1      43.473  27.858  30.839  1.00  0.00     0.031 C 
ATOM     37  C   UNL A   1      44.190  30.259  30.205  1.00  0.00     0.031 A 
BRANCH  24  38
ATOM     38  C   UNL A   1      42.866  28.941  35.246  1.00  0.00    -0.014 A 
ATOM     39  C   UNL A   1      43.705  29.238  36.341  1.00  0.00     0.010 A 
ATOM     40  C   UNL A   1      42.708  27.580  34.914  1.00  0.00     0.010 A 
ATOM     41  C   UNL A   1      44.411  28.232  37.014  1.00  0.00     0.020 A 
ATOM     42  C   UNL A   1      43.375  26.565  35.607  1.00  0.00     0.020 A 
ATOM     43  C   UNL A   1      44.251  26.902  36.630  1.00  0.00     0.054 A 
BRANCH  43  44
ATOM     44  S   UNL A   1      45.247  25.624  37.437  1.00  0.00     0.124 S 
ATOM     45  O   UNL A   1      45.012  24.469  36.575  1.00  0.00    -0.237 OA
ATOM     46  O   UNL A   1      46.589  26.194  37.379  1.00  0.00    -0.237 OA
ATOM     47  O   UNL A   1      44.671  25.534  38.777  1.00  0.00    -0.744 OA
ENDBRANCH  43  44
ENDBRANCH  24  38
BRANCH  25  48
ATOM     48  C   UNL A   1      41.081  26.058  27.451  1.00  0.00    -0.014 A 
ATOM     49  C   UNL A   1      42.115  25.306  26.856  1.00  0.00     0.010 A 
ATOM     50  C   UNL A   1      39.836  25.424  27.638  1.00  0.00     0.010 A 
ATOM     51  C   UNL A   1      41.929  23.951  26.527  1.00  0.00     0.020 A 
ATOM     52  C   UNL A   1      39.644  24.076  27.310  1.00  0.00     0.020 A 
ATOM     53  C   UNL A   1      40.700  23.338  26.781  1.00  0.00     0.054 A 
BRANCH  53  54
ATOM     54  S   UNL A   1      40.527  21.543  26.541  1.00  0.00     0.124 S 
ATOM     55  O   UNL A   1      39.192  21.432  25.959  1.00  0.00    -0.237 OA
ATOM     56  O   UNL A   1      41.635  21.232  25.642  1.00  0.00    -0.237 OA
ATOM     57  O   UNL A   1      40.660  20.999  27.892  1.00  0.00    -0.744 OA
ENDBRANCH  53  54
ENDBRANCH  25  48
BRANCH  37  58
ATOM     58  C   UNL A   1      44.418  31.194  29.041  1.00  0.00    -0.014 A 
ATOM     59  C   UNL A   1      43.393  31.846  28.328  1.00  0.00     0.010 A 
ATOM     60  C   UNL A   1      45.753  31.525  28.745  1.00  0.00     0.010 A 
ATOM     61  C   UNL A   1      43.701  32.769  27.316  1.00  0.00     0.020 A 
ATOM     62  C   UNL A   1      46.065  32.459  27.757  1.00  0.00     0.020 A 
ATOM     63  C   UNL A   1      45.038  33.063  27.034  1.00  0.00     0.054 A 
BRANCH  63  64
ATOM     64  S   UNL A   1      45.437  34.260  25.730  1.00  0.00     0.124 S 
ATOM     65  O   UNL A   1      46.890  34.148  25.632  1.00  0.00    -0.237 OA
ATOM     66  O   UNL A   1      44.688  33.753  24.583  1.00  0.00    -0.237 OA
ATOM     67  O   UNL A   1      44.951  35.532  26.262  1.00  0.00    -0.744 OA
ENDBRANCH  63  64
ENDBRANCH  37  58
ENDBRANCH  11  12
ENDBRANCH   4   6
ENDBRANCH   3   4
ENDBRANCH   2   3
ENDBRANCH   1   2
BRANCH   1  68
ATOM     68  O   UNL A   1      33.578  32.422  28.033  1.00  0.00    -0.458 OA
BRANCH  68  69
ATOM     69  C   UNL A   1      34.411  31.400  27.705  1.00  0.00     0.338 C 
ATOM     70  O   UNL A   1      35.611  31.329  27.853  1.00  0.00    -0.246 OA
BRANCH  69  71
ATOM     71  C   UNL A   1      33.561  30.316  27.184  1.00  0.00     0.060 A 
ATOM     72  C   UNL A   1      33.973  28.989  27.347  1.00  0.00     0.018 A 
ATOM     73  C   UNL A   1      32.348  30.624  26.560  1.00  0.00     0.018 A 
ATOM     74  C   UNL A   1      33.154  27.953  26.903  1.00  0.00     0.029 A 
ATOM     75  C   UNL A   1      31.510  29.591  26.140  1.00  0.00     0.029 A 
ATOM     76  C   UNL A   1      31.919  28.262  26.318  1.00  0.00     0.066 A 
BRANCH  76  77
ATOM     77  N   UNL A   1      31.121  27.225  25.809  1.00  0.00    -0.220 N 
ATOM     78  C   UNL A   1      31.002  25.970  26.364  1.00  0.00     0.141 A 
ATOM     79  N   UNL A   1      30.629  27.217  24.563  1.00  0.00    -0.062 NA
ATOM     80  C   UNL A   1      30.443  25.183  25.387  1.00  0.00     0.093 A 
ATOM     81  N   UNL A   1      30.119  26.016  24.334  1.00  0.00    -0.134 NA
BRANCH  80  82
ATOM     82  C   UNL A   1      30.418  23.723  25.103  1.00  0.00     0.138 C 
BRANCH  82  83
ATOM     83  S   UNL A   1      31.088  22.382  26.067  1.00  0.00    -0.081 SA
BRANCH  83  84
ATOM     84  C   UNL A   1      32.312  21.442  25.276  1.00  0.00     0.176 A 
ATOM     85  N   UNL A   1      31.952  20.198  25.149  1.00  0.00    -0.223 NA
ATOM     86  N   UNL A   1      33.533  21.894  24.802  1.00  0.00    -0.255 N 
ATOM     87  C   UNL A   1      32.885  19.273  24.678  1.00  0.00     0.079 A 
ATOM     88  C   UNL A   1      34.576  20.971  24.978  1.00  0.00     0.266 A 
ATOM     89  C   UNL A   1      32.494  18.006  24.252  1.00  0.00     0.029 A 
ATOM     90  C   UNL A   1      34.237  19.562  24.758  1.00  0.00     0.066 A 
ATOM     91  O   UNL A   1      35.727  21.235  25.326  1.00  0.00    -0.268 OA
ATOM     92  C   UNL A   1      33.459  17.027  23.984  1.00  0.00     0.002 A 
ATOM     93  C   UNL A   1      35.212  18.580  24.564  1.00  0.00     0.016 A 
ATOM     94  C   UNL A   1      34.814  17.302  24.182  1.00  0.00     0.001 A 
BRANCH  86  95
ATOM     95  C   UNL A   1      33.854  23.214  24.282  1.00  0.00     0.051 A 
ATOM     96  C   UNL A   1      34.365  24.206  25.149  1.00  0.00     0.028 A 
ATOM     97  C   UNL A   1      33.657  23.616  22.957  1.00  0.00     0.028 A 
ATOM     98  C   UNL A   1      34.410  25.557  24.792  1.00  0.00     0.022 A 
ATOM     99  C   UNL A   1      33.644  24.973  22.602  1.00  0.00     0.022 A 
ATOM    100  C   UNL A   1      33.978  25.943  23.536  1.00  0.00     0.041 A 
ATOM    101  Cl  UNL A   1      33.860  27.609  23.140  1.00  0.00    -0.084 Cl
ENDBRANCH  86  95
ENDBRANCH  83  84
ENDBRANCH  82  83
ENDBRANCH  80  82
ENDBRANCH  76  77
ENDBRANCH  69  71
ENDBRANCH  68  69
ENDBRANCH   1  68
TORSDOF 19
ENDMDL
MODEL 2
REMARK VINA RESULT:     -12.7      3.032      9.968
REMARK SMILES O=C(OCCOC(=O)c1ccc(-n2cc(CSc3nc4ccccc4c(=O)n3-c3ccc(Cl)cc3)nn2)cc1)c1ccc(-c2c3nc(c(-c4ccc(S(=O)(=O)[O-])cc4)c4ccc([nH]4)c(-c4ccc(S(=O)(=O)[O-])cc4)c4nc(c(-c5ccc(S(=O)(=O)[O-])cc5)c5ccc2[nH]5)C=C4)C=C3)cc1
REMARK SMILES IDX 5 1 4 2 3 3 2 4 1 5 40 6 41 7 99 8 42 9 98 10 43 11 44 12
REMARK SMILES IDX 45 13 92 14 46 15 97 16 91 17 93 18 47 19 96 20 90 21 89 22
REMARK SMILES IDX 48 24 78 25 59 26 77 27 60 28 63 29 76 30 94 31 61 32 62 33
REMARK SMILES IDX 75 35 95 36 64 37 49 38 50 39 58 40 51 41 57 42 52 43 53 44
REMARK SMILES IDX 54 45 55 46 56 47 79 48 80 49 88 50 81 51 87 52 82 53 83 54
REMARK SMILES IDX 84 55 85 56 86 57 65 58 66 59 74 60 67 61 73 62 68 63 69 64
REMARK SMILES IDX 70 65 71 66 72 67 6 68 7 69 8 70 9 71 10 72 39 73 11 74
REMARK SMILES IDX 38 75 12 76 13 77 14 78 37 79 15 80 36 81 16 82 17 83 18 84
REMARK SMILES IDX 19 85 28 86 20 87 26 88 21 89 25 90 27 91 22 92 24 93 23 94
REMARK SMILES IDX 29 95 30 96 35 97 31 98 34 99 32 100 33 101
REMARK H PARENT 93 23 63 34
REMARK Flexibility Score: inf
ROOT
ATOM      1  C   UNL A   1      42.692  18.669  25.787  1.00  0.00     0.275 C 
ENDROOT
BRANCH   1   2
ATOM      2  C   UNL A   1      43.994  18.856  25.008  1.00  0.00     0.275 C 
BRANCH   2   3
ATOM      3  O   UNL A   1      44.235  20.145  24.405  1.00  0.00    -0.458 OA
BRANCH   3   4
ATOM      4  C   UNL A   1      45.320  20.860  24.775  1.00  0.00     0.338 C 
ATOM      5  O   UNL A   1      46.465  20.580  24.459  1.00  0.00    -0.246 OA
BRANCH   4   6
ATOM      6  C   UNL A   1      44.950  22.154  25.399  1.00  0.00     0.060 A 
ATOM      7  C   UNL A   1      45.664  22.696  26.471  1.00  0.00     0.016 A 
ATOM      8  C   UNL A   1      43.854  22.849  24.868  1.00  0.00     0.016 A 
ATOM      9  C   UNL A   1      45.241  23.887  27.048  1.00  0.00     0.010 A 
ATOM     10  C   UNL A   1      43.441  24.048  25.437  1.00  0.00     0.010 A 
ATOM     11  C   UNL A   1      44.110  24.550  26.552  1.00  0.00    -0.014 A 
BRANCH  11  12
ATOM     12  C   UNL A   1      43.727  25.815  27.176  1.00  0.00     0.031 A 
ATOM     13  C   UNL A   1      44.688  26.935  26.975  1.00  0.00     0.074 A 
ATOM     14  C   UNL A   1      42.562  26.045  27.818  1.00  0.00     0.049 A 
ATOM     15  N   UNL A   1      45.510  27.436  27.838  1.00  0.00    -0.248 NA
ATOM     16  C   UNL A   1      44.835  27.481  25.621  1.00  0.00     0.031 C 
ATOM     17  C   UNL A   1      41.373  25.196  27.896  1.00  0.00     0.029 A 
ATOM     18  N   UNL A   1      42.174  27.170  28.484  1.00  0.00    -0.354 N 
ATOM     19  C   UNL A   1      46.141  28.500  27.198  1.00  0.00     0.074 A 
ATOM     20  C   UNL A   1      45.803  28.382  25.803  1.00  0.00     0.031 C 
ATOM     21  C   UNL A   1      40.333  25.922  28.372  1.00  0.00     0.029 A 
ATOM     22  C   UNL A   1      40.819  27.230  28.782  1.00  0.00     0.049 A 
ATOM     23  H   UNL A   1      42.805  27.883  28.734  1.00  0.00     0.167 HD
ATOM     24  C   UNL A   1      46.725  29.522  27.888  1.00  0.00     0.031 A 
ATOM     25  C   UNL A   1      40.146  28.288  29.303  1.00  0.00     0.031 A 
ATOM     26  C   UNL A   1      46.867  29.208  29.286  1.00  0.00     0.049 A 
ATOM     27  C   UNL A   1      41.142  29.152  29.982  1.00  0.00     0.074 A 
ATOM     28  C   UNL A   1      47.507  28.214  30.001  1.00  0.00     0.029 A 
ATOM     29  N   UNL A   1      45.944  29.757  30.145  1.00  0.00    -0.354 N 
ATOM     30  N   UNL A   1      41.784  28.790  31.057  1.00  0.00    -0.248 NA
ATOM     31  C   UNL A   1      41.755  30.230  29.223  1.00  0.00     0.031 C 
ATOM     32  C   UNL A   1      46.593  27.877  31.042  1.00  0.00     0.029 A 
ATOM     33  C   UNL A   1      45.501  28.741  30.951  1.00  0.00     0.049 A 
ATOM     34  H   UNL A   1      45.659  30.699  30.176  1.00  0.00     0.167 HD
ATOM     35  C   UNL A   1      43.074  29.264  30.875  1.00  0.00     0.074 A 
ATOM     36  C   UNL A   1      42.972  30.221  29.774  1.00  0.00     0.031 C 
ATOM     37  C   UNL A   1      44.147  28.642  31.449  1.00  0.00     0.031 A 
BRANCH  24  38
ATOM     38  C   UNL A   1      46.814  30.947  27.392  1.00  0.00    -0.014 A 
ATOM     39  C   UNL A   1      47.992  31.682  27.645  1.00  0.00     0.010 A 
ATOM     40  C   UNL A   1      45.694  31.675  26.942  1.00  0.00     0.010 A 
ATOM     41  C   UNL A   1      48.021  33.079  27.534  1.00  0.00     0.020 A 
ATOM     42  C   UNL A   1      45.725  33.064  26.786  1.00  0.00     0.020 A 
ATOM     43  C   UNL A   1      46.879  33.761  27.118  1.00  0.00     0.054 A 
BRANCH  43  44
ATOM     44  S   UNL A   1      46.896  35.570  27.079  1.00  0.00     0.124 S 
ATOM     45  O   UNL A   1      46.645  35.844  25.667  1.00  0.00    -0.237 OA
ATOM     46  O   UNL A   1      45.810  35.910  27.993  1.00  0.00    -0.237 OA
ATOM     47  O   UNL A   1      48.235  35.911  27.556  1.00  0.00    -0.744 OA
ENDBRANCH  43  44
ENDBRANCH  24  38
BRANCH  25  48
ATOM     48  C   UNL A   1      38.765  28.750  29.016  1.00  0.00    -0.014 A 
ATOM     49  C   UNL A   1      37.824  28.922  30.052  1.00  0.00     0.010 A 
ATOM     50  C   UNL A   1      38.465  29.317  27.761  1.00  0.00     0.010 A 
ATOM     51  C   UNL A   1      36.664  29.692  29.857  1.00  0.00     0.020 A 
ATOM     52  C   UNL A   1      37.310  30.082  27.560  1.00  0.00     0.020 A 
ATOM     53  C   UNL A   1      36.426  30.289  28.617  1.00  0.00     0.054 A 
BRANCH  53  54
ATOM     54  S   UNL A   1      35.033  31.443  28.428  1.00  0.00     0.124 S 
ATOM     55  O   UNL A   1      33.993  30.588  27.862  1.00  0.00    -0.237 OA
ATOM     56  O   UNL A   1      34.804  31.895  29.798  1.00  0.00    -0.237 OA
ATOM     57  O   UNL A   1      35.553  32.467  27.522  1.00  0.00    -0.744 OA
ENDBRANCH  53  54
ENDBRANCH  25  48
BRANCH  37  58
ATOM     58  C   UNL A   1      43.903  27.615  32.530  1.00  0.00    -0.014 A 
ATOM     59  C   UNL A   1      43.240  27.878  33.745  1.00  0.00     0.010 A 
ATOM     60  C   UNL A   1      44.251  26.285  32.233  1.00  0.00     0.010 A 
ATOM     61  C   UNL A   1      42.977  26.842  34.655  1.00  0.00     0.020 A 
ATOM     62  C   UNL A   1      43.971  25.247  33.123  1.00  0.00     0.020 A 
ATOM     63  C   UNL A   1      43.352  25.533  34.338  1.00  0.00     0.054 A 
BRANCH  63  64
ATOM     64  S   UNL A   1      43.008  24.192  35.511  1.00  0.00     0.124 S 
ATOM     65  O   UNL A   1      41.607  24.423  35.854  1.00  0.00    -0.237 OA
ATOM     66  O   UNL A   1      43.274  22.993  34.721  1.00  0.00    -0.237 OA
ATOM     67  O   UNL A   1      43.956  24.429  36.599  1.00  0.00    -0.744 OA
ENDBRANCH  63  64
ENDBRANCH  37  58
ENDBRANCH  11  12
ENDBRANCH   4   6
ENDBRANCH   3   4
ENDBRANCH   2   3
ENDBRANCH   1   2
BRANCH   1  68
ATOM     68  O   UNL A   1      41.801  19.758  25.507  1.00  0.00    -0.458 OA
BRANCH  68  69
ATOM     69  C   UNL A   1      41.554  20.606  26.539  1.00  0.00     0.338 C 
ATOM     70  O   UNL A   1      42.287  20.910  27.455  1.00  0.00    -0.246 OA
BRANCH  69  71
ATOM     71  C   UNL A   1      40.215  21.174  26.308  1.00  0.00     0.060 A 
ATOM     72  C   UNL A   1      39.963  22.498  26.681  1.00  0.00     0.018 A 
ATOM     73  C   UNL A   1      39.228  20.395  25.697  1.00  0.00     0.018 A 
ATOM     74  C   UNL A   1      38.715  23.062  26.422  1.00  0.00     0.029 A 
ATOM     75  C   UNL A   1      37.987  20.963  25.408  1.00  0.00     0.029 A 
ATOM     76  C   UNL A   1      37.742  22.295  25.770  1.00  0.00     0.066 A 
BRANCH  76  77
ATOM     77  N   UNL A   1      36.462  22.836  25.566  1.00  0.00    -0.220 N 
ATOM     78  C   UNL A   1      36.203  24.075  25.025  1.00  0.00     0.141 A 
ATOM     79  N   UNL A   1      35.357  22.359  26.155  1.00  0.00    -0.062 NA
ATOM     80  C   UNL A   1      34.893  24.351  25.338  1.00  0.00     0.093 A 
ATOM     81  N   UNL A   1      34.374  23.218  25.932  1.00  0.00    -0.134 NA
BRANCH  80  82
ATOM     82  C   UNL A   1      34.087  25.594  25.471  1.00  0.00     0.138 C 
BRANCH  82  83
ATOM     83  S   UNL A   1      33.829  26.896  24.282  1.00  0.00    -0.081 SA
BRANCH  83  84
ATOM     84  C   UNL A   1      32.211  27.035  23.676  1.00  0.00     0.176 A 
ATOM     85  N   UNL A   1      31.989  28.214  23.172  1.00  0.00    -0.223 NA
ATOM     86  N   UNL A   1      31.232  26.054  23.680  1.00  0.00    -0.255 N 
ATOM     87  C   UNL A   1      30.689  28.547  22.785  1.00  0.00     0.079 A 
ATOM     88  C   UNL A   1      29.943  26.554  23.928  1.00  0.00     0.266 A 
ATOM     89  C   UNL A   1      30.435  29.661  21.989  1.00  0.00     0.029 A 
ATOM     90  C   UNL A   1      29.618  27.841  23.306  1.00  0.00     0.066 A 
ATOM     91  O   UNL A   1      29.085  26.027  24.637  1.00  0.00    -0.268 OA
ATOM     92  C   UNL A   1      29.118  30.094  21.788  1.00  0.00     0.002 A 
ATOM     93  C   UNL A   1      28.303  28.297  23.176  1.00  0.00     0.016 A 
ATOM     94  C   UNL A   1      28.058  29.437  22.418  1.00  0.00     0.001 A 
BRANCH  86  95
ATOM     95  C   UNL A   1      31.413  24.614  23.587  1.00  0.00     0.051 A 
ATOM     96  C   UNL A   1      30.911  23.775  24.606  1.00  0.00     0.028 A 
ATOM     97  C   UNL A   1      32.101  23.965  22.557  1.00  0.00     0.028 A 
ATOM     98  C   UNL A   1      31.302  22.439  24.732  1.00  0.00     0.022 A 
ATOM     99  C   UNL A   1      32.548  22.642  22.700  1.00  0.00     0.022 A 
ATOM    100  C   UNL A   1      32.182  21.898  23.812  1.00  0.00     0.041 A 
ATOM    101  Cl  UNL A   1      32.811  20.318  24.046  1.00  0.00    -0.084 Cl
ENDBRANCH  86  95
ENDBRANCH  83  84
ENDBRANCH  82  83
ENDBRANCH  80  82
ENDBRANCH  76  77
ENDBRANCH  69  71
ENDBRANCH  68  69
ENDBRANCH   1  68
TORSDOF 19
ENDMDL
MODEL 3
REMARK VINA RESULT:     -12.4      2.997      9.768
REMARK SMILES O=C(OCCOC(=O)c1ccc(-n2cc(CSc3nc4ccccc4c(=O)n3-c3ccc(Cl)cc3)nn2)cc1)c1ccc(-c2c3nc(c(-c4ccc(S(=O)(=O)[O-])cc4)c4ccc([nH]4)c(-c4ccc(S(=O)(=O)[O-])cc4)c4nc(c(-c5ccc(S(=O)(=O)[O-])cc5)c5ccc2[nH]5)C=C4)C=C3)cc1
REMARK SMILES IDX 5 1 4 2 3 3 2 4 1 5 40 6 41 7 99 8 42 9 98 10 43 11 44 12
REMARK SMILES IDX 45 13 92 14 46 15 97 16 91 17 93 18 47 19 96 20 90 21 89 22
REMARK SMILES IDX 48 24 78 25 59 26 77 27 60 28 63 29 76 30 94 31 61 32 62 33
REMARK SMILES IDX 75 35 95 36 64 37 49 38 50 39 58 40 51 41 57 42 52 43 53 44
REMARK SMILES IDX 54 45 55 46 56 47 79 48 80 49 88 50 81 51 87 52 82 53 83 54
REMARK SMILES IDX 84 55 85 56 86 57 65 58 66 59 74 60 67 61 73 62 68 63 69 64
REMARK SMILES IDX 70 65 71 66 72 67 6 68 7 69 8 70 9 71 10 72 39 73 11 74
REMARK SMILES IDX 38 75 12 76 13 77 14 78 37 79 15 80 36 81 16 82 17 83 18 84
REMARK SMILES IDX 19 85 28 86 20 87 26 88 21 89 25 90 27 91 22 92 24 93 23 94
REMARK SMILES IDX 29 95 30 96 35 97 31 98 34 99 32 100 33 101
REMARK H PARENT 93 23 63 34
REMARK Flexibility Score: inf
ROOT
ATOM      1  C   UNL A   1      45.582  18.531  25.463  1.00  0.00     0.275 C 
ENDROOT
BRANCH   1   2
ATOM      2  C   UNL A   1      46.416  19.724  24.995  1.00  0.00     0.275 C 
BRANCH   2   3
ATOM      3  O   UNL A   1      46.056  21.030  25.493  1.00  0.00    -0.458 OA
BRANCH   3   4
ATOM      4  C   UNL A   1      45.345  21.868  24.708  1.00  0.00     0.338 C 
ATOM      5  O   UNL A   1      44.915  21.574  23.605  1.00  0.00    -0.246 OA
BRANCH   4   6
ATOM      6  C   UNL A   1      44.935  23.097  25.431  1.00  0.00     0.060 A 
ATOM      7  C   UNL A   1      45.434  23.422  26.695  1.00  0.00     0.016 A 
ATOM      8  C   UNL A   1      44.027  23.958  24.797  1.00  0.00     0.016 A 
ATOM      9  C   UNL A   1      44.976  24.560  27.345  1.00  0.00     0.010 A 
ATOM     10  C   UNL A   1      43.580  25.105  25.444  1.00  0.00     0.010 A 
ATOM     11  C   UNL A   1      44.024  25.388  26.735  1.00  0.00    -0.014 A 
BRANCH  11  12
ATOM     12  C   UNL A   1      43.598  26.590  27.449  1.00  0.00     0.031 A 
ATOM     13  C   UNL A   1      44.533  27.746  27.353  1.00  0.00     0.074 A 
ATOM     14  C   UNL A   1      42.419  26.739  28.088  1.00  0.00     0.049 A 
ATOM     15  N   UNL A   1      45.329  28.197  28.266  1.00  0.00    -0.248 NA
ATOM     16  C   UNL A   1      44.685  28.401  26.049  1.00  0.00     0.031 C 
ATOM     17  C   UNL A   1      41.251  25.857  28.079  1.00  0.00     0.029 A 
ATOM     18  N   UNL A   1      41.992  27.799  28.833  1.00  0.00    -0.354 N 
ATOM     19  C   UNL A   1      45.941  29.325  27.722  1.00  0.00     0.074 A 
ATOM     20  C   UNL A   1      45.627  29.308  26.317  1.00  0.00     0.031 C 
ATOM     21  C   UNL A   1      40.186  26.518  28.594  1.00  0.00     0.029 A 
ATOM     22  C   UNL A   1      40.631  27.800  29.113  1.00  0.00     0.049 A 
ATOM     23  H   UNL A   1      42.601  28.504  29.149  1.00  0.00     0.167 HD
ATOM     24  C   UNL A   1      46.487  30.303  28.500  1.00  0.00     0.031 A 
ATOM     25  C   UNL A   1      39.924  28.797  29.705  1.00  0.00     0.031 A 
ATOM     26  C   UNL A   1      46.617  29.883  29.870  1.00  0.00     0.049 A 
ATOM     27  C   UNL A   1      40.887  29.630  30.466  1.00  0.00     0.074 A 
ATOM     28  C   UNL A   1      47.273  28.852  30.516  1.00  0.00     0.029 A 
ATOM     29  N   UNL A   1      45.669  30.339  30.755  1.00  0.00    -0.354 N 
ATOM     30  N   UNL A   1      41.523  29.200  31.520  1.00  0.00    -0.248 NA
ATOM     31  C   UNL A   1      41.482  30.779  29.804  1.00  0.00     0.031 C 
ATOM     32  C   UNL A   1      46.353  28.411  31.512  1.00  0.00     0.029 A 
ATOM     33  C   UNL A   1      45.240  29.252  31.471  1.00  0.00     0.049 A 
ATOM     34  H   UNL A   1      45.358  31.268  30.855  1.00  0.00     0.167 HD
ATOM     35  C   UNL A   1      42.802  29.719  31.396  1.00  0.00     0.074 A 
ATOM     36  C   UNL A   1      42.691  30.757  30.372  1.00  0.00     0.031 C 
ATOM     37  C   UNL A   1      43.882  29.080  31.937  1.00  0.00     0.031 A 
BRANCH  24  38
ATOM     38  C   UNL A   1      46.547  31.764  28.118  1.00  0.00    -0.014 A 
ATOM     39  C   UNL A   1      47.805  32.347  27.856  1.00  0.00     0.010 A 
ATOM     40  C   UNL A   1      45.459  32.646  28.282  1.00  0.00     0.010 A 
ATOM     41  C   UNL A   1      47.978  33.738  27.841  1.00  0.00     0.020 A 
ATOM     42  C   UNL A   1      45.613  34.034  28.227  1.00  0.00     0.020 A 
ATOM     43  C   UNL A   1      46.879  34.571  28.043  1.00  0.00     0.054 A 
BRANCH  43  44
ATOM     44  S   UNL A   1      47.132  36.361  28.126  1.00  0.00     0.124 S 
ATOM     45  O   UNL A   1      46.770  36.781  26.776  1.00  0.00    -0.237 OA
ATOM     46  O   UNL A   1      46.206  36.756  29.183  1.00  0.00    -0.237 OA
ATOM     47  O   UNL A   1      48.548  36.493  28.465  1.00  0.00    -0.744 OA
ENDBRANCH  43  44
ENDBRANCH  24  38
BRANCH  25  48
ATOM     48  C   UNL A   1      38.535  29.246  29.431  1.00  0.00    -0.014 A 
ATOM     49  C   UNL A   1      37.708  29.724  30.468  1.00  0.00     0.010 A 
ATOM     50  C   UNL A   1      38.130  29.493  28.104  1.00  0.00     0.010 A 
ATOM     51  C   UNL A   1      36.557  30.482  30.185  1.00  0.00     0.020 A 
ATOM     52  C   UNL A   1      36.983  30.244  27.817  1.00  0.00     0.020 A 
ATOM     53  C   UNL A   1      36.215  30.759  28.859  1.00  0.00     0.054 A 
BRANCH  53  54
ATOM     54  S   UNL A   1      34.845  31.901  28.505  1.00  0.00     0.124 S 
ATOM     55  O   UNL A   1      35.462  32.854  27.585  1.00  0.00    -0.237 OA
ATOM     56  O   UNL A   1      33.837  31.021  27.921  1.00  0.00    -0.237 OA
ATOM     57  O   UNL A   1      34.501  32.445  29.818  1.00  0.00    -0.744 OA
ENDBRANCH  53  54
ENDBRANCH  25  48
BRANCH  37  58
ATOM     58  C   UNL A   1      43.649  27.965  32.930  1.00  0.00    -0.014 A 
ATOM     59  C   UNL A   1      43.807  26.595  32.643  1.00  0.00     0.010 A 
ATOM     60  C   UNL A   1      43.384  28.343  34.259  1.00  0.00     0.010 A 
ATOM     61  C   UNL A   1      43.657  25.631  33.652  1.00  0.00     0.020 A 
ATOM     62  C   UNL A   1      43.258  27.392  35.271  1.00  0.00     0.020 A 
ATOM     63  C   UNL A   1      43.376  26.038  34.960  1.00  0.00     0.054 A 
BRANCH  63  64
ATOM     64  S   UNL A   1      43.187  24.794  36.267  1.00  0.00     0.124 S 
ATOM     65  O   UNL A   1      42.456  23.729  35.585  1.00  0.00    -0.237 OA
ATOM     66  O   UNL A   1      44.570  24.482  36.622  1.00  0.00    -0.237 OA
ATOM     67  O   UNL A   1      42.432  25.492  37.307  1.00  0.00    -0.744 OA
ENDBRANCH  63  64
ENDBRANCH  37  58
ENDBRANCH  11  12
ENDBRANCH   4   6
ENDBRANCH   3   4
ENDBRANCH   2   3
ENDBRANCH   1   2
BRANCH   1  68
ATOM     68  O   UNL A   1      44.191  18.790  25.224  1.00  0.00    -0.458 OA
BRANCH  68  69
ATOM     69  C   UNL A   1      43.335  18.385  26.198  1.00  0.00     0.338 C 
ATOM     70  O   UNL A   1      43.438  17.436  26.943  1.00  0.00    -0.246 OA
BRANCH  69  71
ATOM     71  C   UNL A   1      42.249  19.379  26.245  1.00  0.00     0.060 A 
ATOM     72  C   UNL A   1      42.557  20.709  26.551  1.00  0.00     0.018 A 
ATOM     73  C   UNL A   1      40.938  18.988  25.957  1.00  0.00     0.018 A 
ATOM     74  C   UNL A   1      41.545  21.668  26.549  1.00  0.00     0.029 A 
ATOM     75  C   UNL A   1      39.927  19.948  25.924  1.00  0.00     0.029 A 
ATOM     76  C   UNL A   1      40.241  21.283  26.218  1.00  0.00     0.066 A 
BRANCH  76  77
ATOM     77  N   UNL A   1      39.207  22.232  26.279  1.00  0.00    -0.220 N 
ATOM     78  C   UNL A   1      37.945  22.064  25.756  1.00  0.00     0.141 A 
ATOM     79  N   UNL A   1      39.409  23.524  26.569  1.00  0.00    -0.062 NA
ATOM     80  C   UNL A   1      37.392  23.322  25.708  1.00  0.00     0.093 A 
ATOM     81  N   UNL A   1      38.281  24.177  26.328  1.00  0.00    -0.134 NA
BRANCH  80  82
ATOM     82  C   UNL A   1      36.307  23.960  24.915  1.00  0.00     0.138 C 
BRANCH  82  83
ATOM     83  S   UNL A   1      34.584  24.155  25.327  1.00  0.00    -0.081 SA
BRANCH  83  84
ATOM     84  C   UNL A   1      33.551  22.860  24.814  1.00  0.00     0.176 A 
ATOM     85  N   UNL A   1      33.796  21.763  25.470  1.00  0.00    -0.223 NA
ATOM     86  N   UNL A   1      32.559  22.919  23.848  1.00  0.00    -0.255 N 
ATOM     87  C   UNL A   1      33.164  20.585  25.071  1.00  0.00     0.079 A 
ATOM     88  C   UNL A   1      32.465  21.750  23.074  1.00  0.00     0.266 A 
ATOM     89  C   UNL A   1      33.157  19.456  25.887  1.00  0.00     0.029 A 
ATOM     90  C   UNL A   1      32.648  20.484  23.790  1.00  0.00     0.066 A 
ATOM     91  O   UNL A   1      32.275  21.699  21.859  1.00  0.00    -0.268 OA
ATOM     92  C   UNL A   1      32.704  18.230  25.386  1.00  0.00     0.002 A 
ATOM     93  C   UNL A   1      32.258  19.257  23.249  1.00  0.00     0.016 A 
ATOM     94  C   UNL A   1      32.296  18.123  24.054  1.00  0.00     0.001 A 
BRANCH  86  95
ATOM     95  C   UNL A   1      31.732  24.059  23.487  1.00  0.00     0.051 A 
ATOM     96  C   UNL A   1      32.128  24.906  22.428  1.00  0.00     0.028 A 
ATOM     97  C   UNL A   1      30.556  24.428  24.146  1.00  0.00     0.028 A 
ATOM     98  C   UNL A   1      31.553  26.166  22.227  1.00  0.00     0.022 A 
ATOM     99  C   UNL A   1      30.006  25.710  23.993  1.00  0.00     0.022 A 
ATOM    100  C   UNL A   1      30.538  26.591  23.063  1.00  0.00     0.041 A 
ATOM    101  Cl  UNL A   1      29.940  28.196  22.946  1.00  0.00    -0.084 Cl
ENDBRANCH  86  95
ENDBRANCH  83  84
ENDBRANCH  82  83
ENDBRANCH  80  82
ENDBRANCH  76  77
ENDBRANCH  69  71
ENDBRANCH  68  69
ENDBRANCH   1  68
TORSDOF 19
ENDMDL
