MODEL 1
REMARK VINA RESULT:     -11.2      0.000      0.000
REMARK SMILES O=C(N[C@@H](Cc1c[nH]c2ccccc12)C(=O)N[C@@H](CO)C(=O)OCCOC(=O)c1ccc(-c2c3nc(c(-c4ccc(S(=O)(=O)[O-])cc4)c4ccc([nH]4)c(-c4ccc(S(=O)(=O)[O-])cc4)c4nc(c(-c5ccc(S(=O)(=O)[O-])cc5)c5ccc2[nH]5)C=C4)C=C3)cc1)c1ccc(F)cc1
REMARK SMILES IDX 24 1 23 2 21 3 22 4 18 5 17 6 15 7 16 8 4 10 3 11 1 12 2 13
REMARK SMILES IDX 89 15 90 16 95 17 91 18 94 19 92 20 93 21 5 22 6 23 7 24
REMARK SMILES IDX 14 25 8 26 9 27 13 28 10 30 12 31 11 32 19 33 20 34 25 36
REMARK SMILES IDX 26 37 27 38 28 39 29 40 30 41 88 42 31 43 87 44 32 45 33 46
REMARK SMILES IDX 34 47 81 48 35 49 86 50 80 51 82 52 36 53 85 54 79 55 78 56
REMARK SMILES IDX 37 58 67 59 48 60 66 61 49 62 52 63 65 64 83 65 50 66 51 67
REMARK SMILES IDX 64 69 84 70 53 71 38 72 39 73 47 74 40 75 46 76 41 77 42 78
REMARK SMILES IDX 43 79 44 80 45 81 68 82 69 83 77 84 70 85 76 86 71 87 72 88
REMARK SMILES IDX 73 89 74 90 75 91 54 92 55 93 63 94 56 95 62 96 57 97 58 98
REMARK SMILES IDX 59 99 60 100 61 101
REMARK H PARENT 17 9 3 14 8 29 20 35 82 57 52 68
REMARK Flexibility Score: inf
ROOT
ATOM      1  C   UNL A   1      31.610  28.973  25.877  1.00  0.00     0.274 C 
ENDROOT
BRANCH   1   2
ATOM      2  O   UNL A   1      31.139  29.372  24.577  1.00  0.00    -0.460 OA
BRANCH   2   3
ATOM      3  C   UNL A   1      31.852  28.825  23.542  1.00  0.00     0.331 C 
ATOM      4  O   UNL A   1      33.071  28.900  23.430  1.00  0.00    -0.250 OA
BRANCH   3   5
ATOM      5  C   UNL A   1      30.969  27.986  22.607  1.00  0.00     0.218 C 
BRANCH   5   6
ATOM      6  N   UNL A   1      31.615  27.225  21.555  1.00  0.00    -0.339 N 
ATOM      7  C   UNL A   1      32.369  26.099  21.641  1.00  0.00     0.243 C 
ATOM      8  O   UNL A   1      32.961  25.801  20.593  1.00  0.00    -0.273 OA
ATOM      9  H   UNL A   1      31.487  27.576  20.644  1.00  0.00     0.164 HD
BRANCH   7  10
ATOM     10  C   UNL A   1      32.639  25.276  22.954  1.00  0.00     0.176 C 
BRANCH  10  11
ATOM     11  N   UNL A   1      33.243  26.045  24.038  1.00  0.00    -0.340 N 
ATOM     12  O   UNL A   1      34.395  26.402  25.928  1.00  0.00    -0.269 OA
ATOM     13  C   UNL A   1      34.216  25.684  24.946  1.00  0.00     0.251 C 
ATOM     14  H   UNL A   1      32.904  26.964  24.137  1.00  0.00     0.164 HD
BRANCH  13  15
ATOM     15  C   UNL A   1      35.064  24.468  24.797  1.00  0.00     0.040 A 
ATOM     16  C   UNL A   1      35.305  23.890  23.545  1.00  0.00     0.017 A 
ATOM     17  C   UNL A   1      35.786  24.009  25.913  1.00  0.00     0.017 A 
ATOM     18  C   UNL A   1      36.229  22.845  23.415  1.00  0.00     0.040 A 
ATOM     19  C   UNL A   1      36.713  22.968  25.779  1.00  0.00     0.040 A 
ATOM     20  C   UNL A   1      36.927  22.398  24.530  1.00  0.00     0.123 A 
ATOM     21  F   UNL A   1      37.842  21.429  24.390  1.00  0.00    -0.207 F 
ENDBRANCH  13  15
ENDBRANCH  10  11
BRANCH  10  22
ATOM     22  C   UNL A   1      31.664  24.172  23.420  1.00  0.00     0.072 C 
BRANCH  22  23
ATOM     23  C   UNL A   1      32.006  22.764  23.855  1.00  0.00    -0.020 A 
ATOM     24  C   UNL A   1      32.121  21.577  23.156  1.00  0.00     0.087 A 
ATOM     25  C   UNL A   1      32.370  22.436  25.215  1.00  0.00     0.003 A 
ATOM     26  N   UNL A   1      32.788  20.673  23.957  1.00  0.00    -0.361 N 
ATOM     27  C   UNL A   1      32.984  21.192  25.213  1.00  0.00     0.046 A 
ATOM     28  C   UNL A   1      32.292  23.112  26.444  1.00  0.00     0.010 A 
ATOM     29  H   UNL A   1      33.084  19.779  23.667  1.00  0.00     0.166 HD
ATOM     30  C   UNL A   1      33.634  20.670  26.343  1.00  0.00     0.026 A 
ATOM     31  C   UNL A   1      32.875  22.595  27.601  1.00  0.00     0.001 A 
ATOM     32  C   UNL A   1      33.575  21.401  27.537  1.00  0.00     0.002 A 
ENDBRANCH  22  23
ENDBRANCH  10  22
ENDBRANCH   7  10
ENDBRANCH   5   6
BRANCH   5  33
ATOM     33  C   UNL A   1      29.905  27.183  23.356  1.00  0.00     0.193 C 
BRANCH  33  34
ATOM     34  O   UNL A   1      28.635  27.821  23.334  1.00  0.00    -0.394 OA
ATOM     35  H   UNL A   1      28.324  27.891  22.418  1.00  0.00     0.210 HD
ENDBRANCH  33  34
ENDBRANCH   5  33
ENDBRANCH   3   5
ENDBRANCH   2   3
ENDBRANCH   1   2
BRANCH   1  36
ATOM     36  C   UNL A   1      32.371  30.099  26.589  1.00  0.00     0.275 C 
BRANCH  36  37
ATOM     37  O   UNL A   1      33.770  29.804  26.787  1.00  0.00    -0.458 OA
BRANCH  37  38
ATOM     38  C   UNL A   1      34.432  30.619  27.651  1.00  0.00     0.338 C 
ATOM     39  O   UNL A   1      33.999  31.634  28.163  1.00  0.00    -0.246 OA
BRANCH  38  40
ATOM     40  C   UNL A   1      35.727  30.003  28.043  1.00  0.00     0.060 A 
ATOM     41  C   UNL A   1      36.697  29.899  27.044  1.00  0.00     0.016 A 
ATOM     42  C   UNL A   1      36.046  29.619  29.351  1.00  0.00     0.016 A 
ATOM     43  C   UNL A   1      38.025  29.637  27.377  1.00  0.00     0.010 A 
ATOM     44  C   UNL A   1      37.363  29.230  29.664  1.00  0.00     0.010 A 
ATOM     45  C   UNL A   1      38.376  29.297  28.690  1.00  0.00    -0.014 A 
BRANCH  45  46
ATOM     46  C   UNL A   1      39.770  28.847  28.943  1.00  0.00     0.031 A 
ATOM     47  C   UNL A   1      40.671  29.799  29.682  1.00  0.00     0.074 A 
ATOM     48  C   UNL A   1      40.192  27.591  28.676  1.00  0.00     0.049 A 
ATOM     49  N   UNL A   1      41.929  29.671  30.002  1.00  0.00    -0.248 NA
ATOM     50  C   UNL A   1      40.049  31.045  30.169  1.00  0.00     0.031 C 
ATOM     51  C   UNL A   1      39.356  26.499  28.178  1.00  0.00     0.029 A 
ATOM     52  N   UNL A   1      41.430  27.006  28.823  1.00  0.00    -0.354 N 
ATOM     53  C   UNL A   1      42.243  30.812  30.730  1.00  0.00     0.074 A 
ATOM     54  C   UNL A   1      41.042  31.605  30.836  1.00  0.00     0.031 C 
ATOM     55  C   UNL A   1      40.101  25.383  28.062  1.00  0.00     0.029 A 
ATOM     56  C   UNL A   1      41.484  25.691  28.407  1.00  0.00     0.049 A 
ATOM     57  H   UNL A   1      42.208  27.484  29.192  1.00  0.00     0.167 HD
ATOM     58  C   UNL A   1      43.439  31.191  31.232  1.00  0.00     0.031 A 
ATOM     59  C   UNL A   1      42.538  24.853  28.281  1.00  0.00     0.031 A 
ATOM     60  C   UNL A   1      44.645  30.443  31.032  1.00  0.00     0.049 A 
ATOM     61  C   UNL A   1      43.907  25.388  28.638  1.00  0.00     0.074 A 
ATOM     62  C   UNL A   1      45.944  30.800  31.334  1.00  0.00     0.029 A 
ATOM     63  N   UNL A   1      44.691  29.181  30.456  1.00  0.00    -0.354 N 
ATOM     64  N   UNL A   1      44.221  26.526  29.216  1.00  0.00    -0.248 NA
ATOM     65  C   UNL A   1      45.067  24.549  28.300  1.00  0.00     0.031 C 
ATOM     66  C   UNL A   1      46.784  29.775  30.886  1.00  0.00     0.029 A 
ATOM     67  C   UNL A   1      46.001  28.754  30.367  1.00  0.00     0.049 A 
ATOM     68  H   UNL A   1      43.907  28.668  30.155  1.00  0.00     0.167 HD
ATOM     69  C   UNL A   1      45.607  26.530  29.323  1.00  0.00     0.074 A 
ATOM     70  C   UNL A   1      46.073  25.275  28.772  1.00  0.00     0.031 C 
ATOM     71  C   UNL A   1      46.425  27.489  29.822  1.00  0.00     0.031 A 
BRANCH  58  72
ATOM     72  C   UNL A   1      43.492  32.534  31.903  1.00  0.00    -0.014 A 
ATOM     73  C   UNL A   1      43.738  33.711  31.172  1.00  0.00     0.010 A 
ATOM     74  C   UNL A   1      43.364  32.605  33.301  1.00  0.00     0.010 A 
ATOM     75  C   UNL A   1      43.894  34.931  31.836  1.00  0.00     0.020 A 
ATOM     76  C   UNL A   1      43.495  33.826  33.965  1.00  0.00     0.020 A 
ATOM     77  C   UNL A   1      43.778  34.978  33.230  1.00  0.00     0.054 A 
BRANCH  77  78
ATOM     78  S   UNL A   1      43.995  36.570  34.071  1.00  0.00     0.124 S 
ATOM     79  O   UNL A   1      45.444  36.624  34.247  1.00  0.00    -0.237 OA
ATOM     80  O   UNL A   1      43.443  37.519  33.106  1.00  0.00    -0.237 OA
ATOM     81  O   UNL A   1      43.225  36.420  35.303  1.00  0.00    -0.744 OA
ENDBRANCH  77  78
ENDBRANCH  58  72
BRANCH  59  82
ATOM     82  C   UNL A   1      42.392  23.480  27.696  1.00  0.00    -0.014 A 
ATOM     83  C   UNL A   1      42.085  22.365  28.500  1.00  0.00     0.010 A 
ATOM     84  C   UNL A   1      42.646  23.262  26.328  1.00  0.00     0.010 A 
ATOM     85  C   UNL A   1      42.067  21.070  27.959  1.00  0.00     0.020 A 
ATOM     86  C   UNL A   1      42.598  21.976  25.775  1.00  0.00     0.020 A 
ATOM     87  C   UNL A   1      42.326  20.883  26.598  1.00  0.00     0.054 A 
BRANCH  87  88
ATOM     88  S   UNL A   1      42.298  19.201  25.912  1.00  0.00     0.124 S 
ATOM     89  O   UNL A   1      42.842  18.412  27.014  1.00  0.00    -0.237 OA
ATOM     90  O   UNL A   1      40.879  18.998  25.630  1.00  0.00    -0.237 OA
ATOM     91  O   UNL A   1      43.154  19.298  24.732  1.00  0.00    -0.744 OA
ENDBRANCH  87  88
ENDBRANCH  59  82
BRANCH  71  92
ATOM     92  C   UNL A   1      47.903  27.216  29.825  1.00  0.00    -0.014 A 
ATOM     93  C   UNL A   1      48.726  27.695  28.793  1.00  0.00     0.010 A 
ATOM     94  C   UNL A   1      48.483  26.584  30.939  1.00  0.00     0.010 A 
ATOM     95  C   UNL A   1      50.113  27.546  28.876  1.00  0.00     0.020 A 
ATOM     96  C   UNL A   1      49.870  26.459  31.039  1.00  0.00     0.020 A 
ATOM     97  C   UNL A   1      50.676  26.939  30.004  1.00  0.00     0.054 A 
BRANCH  97  98
ATOM     98  S   UNL A   1      52.482  26.855  30.136  1.00  0.00     0.124 S 
ATOM     99  O   UNL A   1      52.662  25.976  31.288  1.00  0.00    -0.237 OA
ATOM    100  O   UNL A   1      52.869  26.288  28.847  1.00  0.00    -0.237 OA
ATOM    101  O   UNL A   1      52.880  28.245  30.344  1.00  0.00    -0.744 OA
ENDBRANCH  97  98
ENDBRANCH  71  92
ENDBRANCH  45  46
ENDBRANCH  38  40
ENDBRANCH  37  38
ENDBRANCH  36  37
ENDBRANCH   1  36
TORSDOF 22
ENDMDL
MODEL 2
REMARK VINA RESULT:     -10.5      3.015      8.256
REMARK SMILES O=C(N[C@@H](Cc1c[nH]c2ccccc12)C(=O)N[C@@H](CO)C(=O)OCCOC(=O)c1ccc(-c2c3nc(c(-c4ccc(S(=O)(=O)[O-])cc4)c4ccc([nH]4)c(-c4ccc(S(=O)(=O)[O-])cc4)c4nc(c(-c5ccc(S(=O)(=O)[O-])cc5)c5ccc2[nH]5)C=C4)C=C3)cc1)c1ccc(F)cc1
REMARK SMILES IDX 24 1 23 2 21 3 22 4 18 5 17 6 15 7 16 8 4 10 3 11 1 12 2 13
REMARK SMILES IDX 89 15 90 16 95 17 91 18 94 19 92 20 93 21 5 22 6 23 7 24
REMARK SMILES IDX 14 25 8 26 9 27 13 28 10 30 12 31 11 32 19 33 20 34 25 36
REMARK SMILES IDX 26 37 27 38 28 39 29 40 30 41 88 42 31 43 87 44 32 45 33 46
REMARK SMILES IDX 34 47 81 48 35 49 86 50 80 51 82 52 36 53 85 54 79 55 78 56
REMARK SMILES IDX 37 58 67 59 48 60 66 61 49 62 52 63 65 64 83 65 50 66 51 67
REMARK SMILES IDX 64 69 84 70 53 71 38 72 39 73 47 74 40 75 46 76 41 77 42 78
REMARK SMILES IDX 43 79 44 80 45 81 68 82 69 83 77 84 70 85 76 86 71 87 72 88
REMARK SMILES IDX 73 89 74 90 75 91 54 92 55 93 63 94 56 95 62 96 57 97 58 98
REMARK SMILES IDX 59 99 60 100 61 101
REMARK H PARENT 17 9 3 14 8 29 20 35 82 57 52 68
REMARK Flexibility Score: inf
ROOT
ATOM      1  C   UNL A   1      31.990  28.346  25.875  1.00  0.00     0.274 C 
ENDROOT
BRANCH   1   2
ATOM      2  O   UNL A   1      31.346  28.874  24.700  1.00  0.00    -0.460 OA
BRANCH   2   3
ATOM      3  C   UNL A   1      31.996  28.570  23.533  1.00  0.00     0.331 C 
ATOM      4  O   UNL A   1      33.186  28.788  23.330  1.00  0.00    -0.250 OA
BRANCH   3   5
ATOM      5  C   UNL A   1      31.101  27.797  22.553  1.00  0.00     0.218 C 
BRANCH   5   6
ATOM      6  N   UNL A   1      31.740  27.036  21.496  1.00  0.00    -0.339 N 
ATOM      7  C   UNL A   1      32.489  25.906  21.576  1.00  0.00     0.243 C 
ATOM      8  O   UNL A   1      33.075  25.608  20.526  1.00  0.00    -0.273 OA
ATOM      9  H   UNL A   1      31.610  27.390  20.587  1.00  0.00     0.164 HD
BRANCH   7  10
ATOM     10  C   UNL A   1      32.758  25.078  22.886  1.00  0.00     0.176 C 
BRANCH  10  11
ATOM     11  N   UNL A   1      33.371  25.840  23.970  1.00  0.00    -0.340 N 
ATOM     12  O   UNL A   1      34.526  26.182  25.860  1.00  0.00    -0.269 OA
ATOM     13  C   UNL A   1      34.339  25.466  24.878  1.00  0.00     0.251 C 
ATOM     14  H   UNL A   1      33.044  26.763  24.068  1.00  0.00     0.164 HD
BRANCH  13  15
ATOM     15  C   UNL A   1      35.172  24.240  24.731  1.00  0.00     0.040 A 
ATOM     16  C   UNL A   1      35.454  23.691  23.475  1.00  0.00     0.017 A 
ATOM     17  C   UNL A   1      35.838  23.738  25.863  1.00  0.00     0.017 A 
ATOM     18  C   UNL A   1      36.364  22.632  23.354  1.00  0.00     0.040 A 
ATOM     19  C   UNL A   1      36.753  22.684  25.738  1.00  0.00     0.040 A 
ATOM     20  C   UNL A   1      37.008  22.143  24.484  1.00  0.00     0.123 A 
ATOM     21  F   UNL A   1      37.910  21.161  24.355  1.00  0.00    -0.207 F 
ENDBRANCH  13  15
ENDBRANCH  10  11
BRANCH  10  22
ATOM     22  C   UNL A   1      31.778  23.977  23.353  1.00  0.00     0.072 C 
BRANCH  22  23
ATOM     23  C   UNL A   1      32.119  22.584  23.831  1.00  0.00    -0.020 A 
ATOM     24  C   UNL A   1      32.265  21.382  23.164  1.00  0.00     0.087 A 
ATOM     25  C   UNL A   1      32.441  22.291  25.210  1.00  0.00     0.003 A 
ATOM     26  N   UNL A   1      32.914  20.503  24.008  1.00  0.00    -0.361 N 
ATOM     27  C   UNL A   1      33.065  21.053  25.257  1.00  0.00     0.046 A 
ATOM     28  C   UNL A   1      32.319  22.995  26.420  1.00  0.00     0.010 A 
ATOM     29  H   UNL A   1      33.226  19.605  23.749  1.00  0.00     0.166 HD
ATOM     30  C   UNL A   1      33.684  20.564  26.419  1.00  0.00     0.026 A 
ATOM     31  C   UNL A   1      32.869  22.511  27.606  1.00  0.00     0.001 A 
ATOM     32  C   UNL A   1      33.580  21.322  27.593  1.00  0.00     0.002 A 
ENDBRANCH  22  23
ENDBRANCH  10  22
ENDBRANCH   7  10
ENDBRANCH   5   6
BRANCH   5  33
ATOM     33  C   UNL A   1      29.984  27.024  23.253  1.00  0.00     0.193 C 
BRANCH  33  34
ATOM     34  O   UNL A   1      28.857  27.842  23.535  1.00  0.00    -0.394 OA
ATOM     35  H   UNL A   1      28.855  28.608  22.938  1.00  0.00     0.210 HD
ENDBRANCH  33  34
ENDBRANCH   5  33
ENDBRANCH   3   5
ENDBRANCH   2   3
ENDBRANCH   1   2
BRANCH   1  36
ATOM     36  C   UNL A   1      32.400  29.450  26.857  1.00  0.00     0.275 C 
BRANCH  36  37
ATOM     37  O   UNL A   1      33.823  29.502  27.093  1.00  0.00    -0.458 OA
BRANCH  37  38
ATOM     38  C   UNL A   1      34.347  30.742  27.289  1.00  0.00     0.338 C 
ATOM     39  O   UNL A   1      33.839  31.800  26.972  1.00  0.00    -0.246 OA
BRANCH  38  40
ATOM     40  C   UNL A   1      35.572  30.650  28.127  1.00  0.00     0.060 A 
ATOM     41  C   UNL A   1      35.566  29.686  29.137  1.00  0.00     0.016 A 
ATOM     42  C   UNL A   1      36.734  31.396  27.898  1.00  0.00     0.016 A 
ATOM     43  C   UNL A   1      36.757  29.309  29.757  1.00  0.00     0.010 A 
ATOM     44  C   UNL A   1      37.908  31.100  28.618  1.00  0.00     0.010 A 
ATOM     45  C   UNL A   1      37.943  30.012  29.508  1.00  0.00    -0.014 A 
BRANCH  45  46
ATOM     46  C   UNL A   1      39.133  29.684  30.337  1.00  0.00     0.031 A 
ATOM     47  C   UNL A   1      40.038  28.595  29.829  1.00  0.00     0.074 A 
ATOM     48  C   UNL A   1      39.497  30.415  31.413  1.00  0.00     0.049 A 
ATOM     49  N   UNL A   1      41.116  28.095  30.367  1.00  0.00    -0.248 NA
ATOM     50  C   UNL A   1      39.707  28.030  28.507  1.00  0.00     0.031 C 
ATOM     51  C   UNL A   1      38.840  31.638  31.875  1.00  0.00     0.029 A 
ATOM     52  N   UNL A   1      40.539  30.257  32.299  1.00  0.00    -0.354 N 
ATOM     53  C   UNL A   1      41.591  27.165  29.449  1.00  0.00     0.074 A 
ATOM     54  C   UNL A   1      40.709  27.193  28.307  1.00  0.00     0.031 C 
ATOM     55  C   UNL A   1      39.491  32.116  32.952  1.00  0.00     0.029 A 
ATOM     56  C   UNL A   1      40.570  31.201  33.307  1.00  0.00     0.049 A 
ATOM     57  H   UNL A   1      41.204  29.535  32.221  1.00  0.00     0.167 HD
ATOM     58  C   UNL A   1      42.645  26.329  29.563  1.00  0.00     0.031 A 
ATOM     59  C   UNL A   1      41.351  31.284  34.407  1.00  0.00     0.031 A 
ATOM     60  C   UNL A   1      43.452  26.241  30.745  1.00  0.00     0.049 A 
ATOM     61  C   UNL A   1      42.378  30.194  34.624  1.00  0.00     0.074 A 
ATOM     62  C   UNL A   1      44.433  25.320  31.055  1.00  0.00     0.029 A 
ATOM     63  N   UNL A   1      43.348  27.109  31.823  1.00  0.00    -0.354 N 
ATOM     64  N   UNL A   1      42.744  29.234  33.804  1.00  0.00    -0.248 NA
ATOM     65  C   UNL A   1      43.074  30.174  35.919  1.00  0.00     0.031 C 
ATOM     66  C   UNL A   1      44.884  25.598  32.350  1.00  0.00     0.029 A 
ATOM     67  C   UNL A   1      44.230  26.730  32.815  1.00  0.00     0.049 A 
ATOM     68  H   UNL A   1      42.737  27.878  31.873  1.00  0.00     0.167 HD
ATOM     69  C   UNL A   1      43.720  28.509  34.478  1.00  0.00     0.074 A 
ATOM     70  C   UNL A   1      43.905  29.151  35.763  1.00  0.00     0.031 C 
ATOM     71  C   UNL A   1      44.396  27.404  34.078  1.00  0.00     0.031 A 
BRANCH  58  72
ATOM     72  C   UNL A   1      42.863  25.364  28.433  1.00  0.00    -0.014 A 
ATOM     73  C   UNL A   1      42.227  24.109  28.406  1.00  0.00     0.010 A 
ATOM     74  C   UNL A   1      43.779  25.694  27.419  1.00  0.00     0.010 A 
ATOM     75  C   UNL A   1      42.534  23.186  27.402  1.00  0.00     0.020 A 
ATOM     76  C   UNL A   1      44.070  24.784  26.401  1.00  0.00     0.020 A 
ATOM     77  C   UNL A   1      43.460  23.529  26.409  1.00  0.00     0.054 A 
BRANCH  77  78
ATOM     78  S   UNL A   1      43.851  22.312  25.123  1.00  0.00     0.124 S 
ATOM     79  O   UNL A   1      42.938  21.221  25.453  1.00  0.00    -0.237 OA
ATOM     80  O   UNL A   1      43.545  23.038  23.892  1.00  0.00    -0.237 OA
ATOM     81  O   UNL A   1      45.266  22.024  25.337  1.00  0.00    -0.744 OA
ENDBRANCH  77  78
ENDBRANCH  58  72
BRANCH  59  82
ATOM     82  C   UNL A   1      41.143  32.343  35.448  1.00  0.00    -0.014 A 
ATOM     83  C   UNL A   1      40.181  32.196  36.467  1.00  0.00     0.010 A 
ATOM     84  C   UNL A   1      41.855  33.557  35.376  1.00  0.00     0.010 A 
ATOM     85  C   UNL A   1      39.916  33.244  37.363  1.00  0.00     0.020 A 
ATOM     86  C   UNL A   1      41.618  34.593  36.288  1.00  0.00     0.020 A 
ATOM     87  C   UNL A   1      40.636  34.438  37.266  1.00  0.00     0.054 A 
BRANCH  87  88
ATOM     88  S   UNL A   1      40.282  35.784  38.434  1.00  0.00     0.124 S 
ATOM     89  O   UNL A   1      41.581  35.989  39.067  1.00  0.00    -0.237 OA
ATOM     90  O   UNL A   1      39.833  36.859  37.552  1.00  0.00    -0.237 OA
ATOM     91  O   UNL A   1      39.247  35.224  39.300  1.00  0.00    -0.744 OA
ENDBRANCH  87  88
ENDBRANCH  59  82
BRANCH  71  92
ATOM     92  C   UNL A   1      45.418  26.831  35.019  1.00  0.00    -0.014 A 
ATOM     93  C   UNL A   1      45.073  25.819  35.930  1.00  0.00     0.010 A 
ATOM     94  C   UNL A   1      46.763  27.223  34.895  1.00  0.00     0.010 A 
ATOM     95  C   UNL A   1      46.061  25.205  36.704  1.00  0.00     0.020 A 
ATOM     96  C   UNL A   1      47.757  26.594  35.647  1.00  0.00     0.020 A 
ATOM     97  C   UNL A   1      47.398  25.590  36.549  1.00  0.00     0.054 A 
BRANCH  97  98
ATOM     98  S   UNL A   1      48.671  24.705  37.488  1.00  0.00     0.124 S 
ATOM     99  O   UNL A   1      48.080  24.645  38.821  1.00  0.00    -0.237 OA
ATOM    100  O   UNL A   1      48.758  23.428  36.782  1.00  0.00    -0.237 OA
ATOM    101  O   UNL A   1      49.849  25.559  37.365  1.00  0.00    -0.744 OA
ENDBRANCH  97  98
ENDBRANCH  71  92
ENDBRANCH  45  46
ENDBRANCH  38  40
ENDBRANCH  37  38
ENDBRANCH  36  37
ENDBRANCH   1  36
TORSDOF 22
ENDMDL
MODEL 3
REMARK VINA RESULT:     -10.2      4.279      9.381
REMARK SMILES O=C(N[C@@H](Cc1c[nH]c2ccccc12)C(=O)N[C@@H](CO)C(=O)OCCOC(=O)c1ccc(-c2c3nc(c(-c4ccc(S(=O)(=O)[O-])cc4)c4ccc([nH]4)c(-c4ccc(S(=O)(=O)[O-])cc4)c4nc(c(-c5ccc(S(=O)(=O)[O-])cc5)c5ccc2[nH]5)C=C4)C=C3)cc1)c1ccc(F)cc1
REMARK SMILES IDX 24 1 23 2 21 3 22 4 18 5 17 6 15 7 16 8 4 10 3 11 1 12 2 13
REMARK SMILES IDX 89 15 90 16 95 17 91 18 94 19 92 20 93 21 5 22 6 23 7 24
REMARK SMILES IDX 14 25 8 26 9 27 13 28 10 30 12 31 11 32 19 33 20 34 25 36
REMARK SMILES IDX 26 37 27 38 28 39 29 40 30 41 88 42 31 43 87 44 32 45 33 46
REMARK SMILES IDX 34 47 81 48 35 49 86 50 80 51 82 52 36 53 85 54 79 55 78 56
REMARK SMILES IDX 37 58 67 59 48 60 66 61 49 62 52 63 65 64 83 65 50 66 51 67
REMARK SMILES IDX 64 69 84 70 53 71 38 72 39 73 47 74 40 75 46 76 41 77 42 78
REMARK SMILES IDX 43 79 44 80 45 81 68 82 69 83 77 84 70 85 76 86 71 87 72 88
REMARK SMILES IDX 73 89 74 90 75 91 54 92 55 93 63 94 56 95 62 96 57 97 58 98
REMARK SMILES IDX 59 99 60 100 61 101
REMARK H PARENT 17 9 3 14 8 29 20 35 82 57 52 68
REMARK Flexibility Score: inf
ROOT
ATOM      1  C   UNL A   1      33.068  31.432  27.490  1.00  0.00     0.274 C 
ENDROOT
BRANCH   1   2
ATOM      2  O   UNL A   1      33.152  30.767  26.216  1.00  0.00    -0.460 OA
BRANCH   2   3
ATOM      3  C   UNL A   1      32.024  30.064  25.887  1.00  0.00     0.331 C 
ATOM      4  O   UNL A   1      31.089  30.525  25.239  1.00  0.00    -0.250 OA
BRANCH   3   5
ATOM      5  C   UNL A   1      32.116  28.588  26.300  1.00  0.00     0.218 C 
BRANCH   5   6
ATOM      6  N   UNL A   1      33.277  27.828  25.876  1.00  0.00    -0.339 N 
ATOM      7  C   UNL A   1      33.344  26.598  25.305  1.00  0.00     0.243 C 
ATOM      8  O   UNL A   1      34.488  26.124  25.251  1.00  0.00    -0.273 OA
ATOM      9  H   UNL A   1      34.144  28.271  26.022  1.00  0.00     0.164 HD
BRANCH   7  10
ATOM     10  C   UNL A   1      32.112  25.725  24.867  1.00  0.00     0.176 C 
BRANCH  10  11
ATOM     11  N   UNL A   1      31.280  25.251  25.969  1.00  0.00    -0.340 N 
ATOM     12  O   UNL A   1      30.221  23.763  27.269  1.00  0.00    -0.269 OA
ATOM     13  C   UNL A   1      31.164  23.989  26.511  1.00  0.00     0.251 C 
ATOM     14  H   UNL A   1      30.716  25.938  26.392  1.00  0.00     0.164 HD
BRANCH  13  15
ATOM     15  C   UNL A   1      32.122  22.883  26.230  1.00  0.00     0.040 A 
ATOM     16  C   UNL A   1      31.896  21.962  25.200  1.00  0.00     0.017 A 
ATOM     17  C   UNL A   1      33.363  22.882  26.889  1.00  0.00     0.017 A 
ATOM     18  C   UNL A   1      32.884  21.030  24.857  1.00  0.00     0.040 A 
ATOM     19  C   UNL A   1      34.352  21.953  26.538  1.00  0.00     0.040 A 
ATOM     20  C   UNL A   1      34.102  21.037  25.524  1.00  0.00     0.123 A 
ATOM     21  F   UNL A   1      35.059  20.173  25.160  1.00  0.00    -0.207 F 
ENDBRANCH  13  15
ENDBRANCH  10  11
BRANCH  10  22
ATOM     22  C   UNL A   1      31.333  26.035  23.568  1.00  0.00     0.072 C 
BRANCH  22  23
ATOM     23  C   UNL A   1      29.919  26.555  23.444  1.00  0.00    -0.020 A 
ATOM     24  C   UNL A   1      28.697  26.027  23.819  1.00  0.00     0.087 A 
ATOM     25  C   UNL A   1      29.615  27.863  22.909  1.00  0.00     0.003 A 
ATOM     26  N   UNL A   1      27.767  27.045  23.795  1.00  0.00    -0.361 N 
ATOM     27  C   UNL A   1      28.317  28.192  23.276  1.00  0.00     0.046 A 
ATOM     28  C   UNL A   1      30.346  28.831  22.201  1.00  0.00     0.010 A 
ATOM     29  H   UNL A   1      26.837  26.963  24.109  1.00  0.00     0.166 HD
ATOM     30  C   UNL A   1      27.782  29.476  23.087  1.00  0.00     0.026 A 
ATOM     31  C   UNL A   1      29.824  30.099  21.943  1.00  0.00     0.001 A 
ATOM     32  C   UNL A   1      28.565  30.428  22.420  1.00  0.00     0.002 A 
ENDBRANCH  22  23
ENDBRANCH  10  22
ENDBRANCH   7  10
ENDBRANCH   5   6
BRANCH   5  33
ATOM     33  C   UNL A   1      31.760  28.360  27.769  1.00  0.00     0.193 C 
BRANCH  33  34
ATOM     34  O   UNL A   1      30.635  27.505  27.924  1.00  0.00    -0.394 OA
ATOM     35  H   UNL A   1      30.344  27.518  28.850  1.00  0.00     0.210 HD
ENDBRANCH  33  34
ENDBRANCH   5  33
ENDBRANCH   3   5
ENDBRANCH   2   3
ENDBRANCH   1   2
BRANCH   1  36
ATOM     36  C   UNL A   1      32.509  32.854  27.367  1.00  0.00     0.275 C 
BRANCH  36  37
ATOM     37  O   UNL A   1      33.468  33.875  27.718  1.00  0.00    -0.458 OA
BRANCH  37  38
ATOM     38  C   UNL A   1      33.478  34.257  29.023  1.00  0.00     0.338 C 
ATOM     39  O   UNL A   1      32.619  34.901  29.594  1.00  0.00    -0.246 OA
BRANCH  38  40
ATOM     40  C   UNL A   1      34.616  33.617  29.733  1.00  0.00     0.060 A 
ATOM     41  C   UNL A   1      35.894  34.073  29.402  1.00  0.00     0.016 A 
ATOM     42  C   UNL A   1      34.470  32.674  30.757  1.00  0.00     0.016 A 
ATOM     43  C   UNL A   1      36.982  33.774  30.220  1.00  0.00     0.010 A 
ATOM     44  C   UNL A   1      35.594  32.273  31.505  1.00  0.00     0.010 A 
ATOM     45  C   UNL A   1      36.848  32.868  31.281  1.00  0.00    -0.014 A 
BRANCH  45  46
ATOM     46  C   UNL A   1      38.081  32.448  31.997  1.00  0.00     0.031 A 
ATOM     47  C   UNL A   1      39.014  31.523  31.264  1.00  0.00     0.074 A 
ATOM     48  C   UNL A   1      38.453  32.978  33.183  1.00  0.00     0.049 A 
ATOM     49  N   UNL A   1      40.133  30.985  31.665  1.00  0.00    -0.248 NA
ATOM     50  C   UNL A   1      38.659  31.205  29.868  1.00  0.00     0.031 C 
ATOM     51  C   UNL A   1      37.761  34.056  33.890  1.00  0.00     0.029 A 
ATOM     52  N   UNL A   1      39.533  32.707  33.993  1.00  0.00    -0.354 N 
ATOM     53  C   UNL A   1      40.613  30.272  30.573  1.00  0.00     0.074 A 
ATOM     54  C   UNL A   1      39.689  30.472  29.482  1.00  0.00     0.031 C 
ATOM     55  C   UNL A   1      38.430  34.352  35.020  1.00  0.00     0.029 A 
ATOM     56  C   UNL A   1      39.560  33.441  35.162  1.00  0.00     0.049 A 
ATOM     57  H   UNL A   1      40.226  32.047  33.758  1.00  0.00     0.167 HD
ATOM     58  C   UNL A   1      41.707  29.484  30.494  1.00  0.00     0.031 A 
ATOM     59  C   UNL A   1      40.378  33.353  36.235  1.00  0.00     0.031 A 
ATOM     60  C   UNL A   1      42.560  29.214  31.613  1.00  0.00     0.049 A 
ATOM     61  C   UNL A   1      41.459  32.295  36.209  1.00  0.00     0.074 A 
ATOM     62  C   UNL A   1      43.592  28.301  31.713  1.00  0.00     0.029 A 
ATOM     63  N   UNL A   1      42.459  29.853  32.841  1.00  0.00    -0.354 N 
ATOM     64  N   UNL A   1      41.836  31.528  35.210  1.00  0.00    -0.248 NA
ATOM     65  C   UNL A   1      42.204  32.063  37.456  1.00  0.00     0.031 C 
ATOM     66  C   UNL A   1      44.079  28.349  33.023  1.00  0.00     0.029 A 
ATOM     67  C   UNL A   1      43.393  29.337  33.716  1.00  0.00     0.049 A 
ATOM     68  H   UNL A   1      41.817  30.567  33.055  1.00  0.00     0.167 HD
ATOM     69  C   UNL A   1      42.868  30.738  35.704  1.00  0.00     0.074 A 
ATOM     70  C   UNL A   1      43.073  31.132  37.082  1.00  0.00     0.031 C 
ATOM     71  C   UNL A   1      43.577  29.766  35.080  1.00  0.00     0.031 A 
BRANCH  58  72
ATOM     72  C   UNL A   1      41.924  28.764  29.194  1.00  0.00    -0.014 A 
ATOM     73  C   UNL A   1      41.486  27.440  29.005  1.00  0.00     0.010 A 
ATOM     74  C   UNL A   1      42.645  29.404  28.170  1.00  0.00     0.010 A 
ATOM     75  C   UNL A   1      41.801  26.757  27.827  1.00  0.00     0.020 A 
ATOM     76  C   UNL A   1      42.941  28.733  26.983  1.00  0.00     0.020 A 
ATOM     77  C   UNL A   1      42.533  27.407  26.826  1.00  0.00     0.054 A 
BRANCH  77  78
ATOM     78  S   UNL A   1      42.939  26.497  25.310  1.00  0.00     0.124 S 
ATOM     79  O   UNL A   1      42.995  27.571  24.320  1.00  0.00    -0.237 OA
ATOM     80  O   UNL A   1      44.221  25.880  25.642  1.00  0.00    -0.237 OA
ATOM     81  O   UNL A   1      41.824  25.568  25.155  1.00  0.00    -0.744 OA
ENDBRANCH  77  78
ENDBRANCH  58  72
BRANCH  59  82
ATOM     82  C   UNL A   1      40.162  34.182  37.465  1.00  0.00    -0.014 A 
ATOM     83  C   UNL A   1      39.296  33.763  38.494  1.00  0.00     0.010 A 
ATOM     84  C   UNL A   1      40.764  35.451  37.579  1.00  0.00     0.010 A 
ATOM     85  C   UNL A   1      39.015  34.603  39.584  1.00  0.00     0.020 A 
ATOM     86  C   UNL A   1      40.512  36.279  38.680  1.00  0.00     0.020 A 
ATOM     87  C   UNL A   1      39.624  35.857  39.669  1.00  0.00     0.054 A 
BRANCH  87  88
ATOM     88  S   UNL A   1      39.250  36.931  41.086  1.00  0.00     0.124 S 
ATOM     89  O   UNL A   1      40.583  37.283  41.564  1.00  0.00    -0.237 OA
ATOM     90  O   UNL A   1      38.493  38.017  40.469  1.00  0.00    -0.237 OA
ATOM     91  O   UNL A   1      38.476  36.067  41.976  1.00  0.00    -0.744 OA
ENDBRANCH  87  88
ENDBRANCH  59  82
BRANCH  71  92
ATOM     92  C   UNL A   1      44.658  29.076  35.863  1.00  0.00    -0.014 A 
ATOM     93  C   UNL A   1      44.431  27.823  36.458  1.00  0.00     0.010 A 
ATOM     94  C   UNL A   1      45.949  29.633  35.891  1.00  0.00     0.010 A 
ATOM     95  C   UNL A   1      45.483  27.137  37.069  1.00  0.00     0.020 A 
ATOM     96  C   UNL A   1      47.008  28.937  36.477  1.00  0.00     0.020 A 
ATOM     97  C   UNL A   1      46.766  27.694  37.065  1.00  0.00     0.054 A 
BRANCH  97  98
ATOM     98  S   UNL A   1      48.132  26.734  37.771  1.00  0.00     0.124 S 
ATOM     99  O   UNL A   1      47.765  26.674  39.183  1.00  0.00    -0.237 OA
ATOM    100  O   UNL A   1      48.042  25.469  37.044  1.00  0.00    -0.237 OA
ATOM    101  O   UNL A   1      49.314  27.537  37.467  1.00  0.00    -0.744 OA
ENDBRANCH  97  98
ENDBRANCH  71  92
ENDBRANCH  45  46
ENDBRANCH  38  40
ENDBRANCH  37  38
ENDBRANCH  36  37
ENDBRANCH   1  36
TORSDOF 22
ENDMDL
