MODEL 1
REMARK VINA RESULT:     -13.0      0.000      0.000
REMARK SMILES Cc1ccc(Nc2c(C)cccc2Cl)c(CC(=O)OCCOC(=O)c2ccc(-c3c4nc(c(-c5ccc(S(=O)(=O)[O-])cc5)c5ccc([nH]5)c(-c5ccc(S(=O)(=O)[O-])cc5)c5nc(c(-c6ccc(S(=O)(=O)[O-])cc6)c6ccc3[nH]6)C=C5)C=C4)cc2)c1
REMARK SMILES IDX 20 1 19 2 17 3 18 4 16 5 15 6 1 7 2 8 3 9 85 10 4 11 5 12
REMARK SMILES IDX 6 13 7 15 8 16 13 17 9 18 10 19 12 20 14 21 11 22 21 23
REMARK SMILES IDX 22 24 23 25 24 26 25 27 26 28 84 29 27 30 83 31 28 32 29 33
REMARK SMILES IDX 30 34 77 35 31 36 82 37 76 38 78 39 32 40 81 41 75 42 74 43
REMARK SMILES IDX 33 45 63 46 44 47 62 48 45 49 48 50 61 51 79 52 46 53 47 54
REMARK SMILES IDX 60 56 80 57 49 58 34 59 35 60 43 61 36 62 42 63 37 64 38 65
REMARK SMILES IDX 39 66 40 67 41 68 64 69 65 70 73 71 66 72 72 73 67 74 68 75
REMARK SMILES IDX 69 76 70 77 71 78 50 79 51 80 59 81 52 82 58 83 53 84 54 85
REMARK SMILES IDX 55 86 56 87 57 88
REMARK H PARENT 6 14 78 44 48 55
REMARK Flexibility Score: inf
ROOT
ATOM      1  C   UNL A   1      33.713  28.797  24.208  1.00  0.00     0.274 C 
ENDROOT
BRANCH   1   2
ATOM      2  O   UNL A   1      33.638  27.431  23.805  1.00  0.00    -0.462 OA
BRANCH   2   3
ATOM      3  C   UNL A   1      33.580  27.236  22.469  1.00  0.00     0.310 C 
ATOM      4  O   UNL A   1      34.181  27.928  21.652  1.00  0.00    -0.252 OA
BRANCH   3   5
ATOM      5  C   UNL A   1      32.675  26.056  22.184  1.00  0.00     0.160 C 
BRANCH   5   6
ATOM      6  C   UNL A   1      31.256  26.368  22.577  1.00  0.00    -0.013 A 
ATOM      7  C   UNL A   1      29.200  29.526  22.283  1.00  0.00     0.044 C 
ATOM      8  C   UNL A   1      29.608  28.140  22.672  1.00  0.00    -0.051 A 
ATOM      9  C   UNL A   1      28.955  27.439  23.687  1.00  0.00     0.005 A 
ATOM     10  C   UNL A   1      30.754  27.592  22.113  1.00  0.00     0.009 A 
ATOM     11  C   UNL A   1      29.410  26.179  24.097  1.00  0.00     0.026 A 
ATOM     12  C   UNL A   1      30.542  25.596  23.527  1.00  0.00     0.042 A 
BRANCH  12  13
ATOM     13  N   UNL A   1      31.039  24.370  24.001  1.00  0.00    -0.354 N 
ATOM     14  H   UNL A   1      30.378  23.641  23.989  1.00  0.00     0.167 HD
BRANCH  13  15
ATOM     15  C   UNL A   1      32.316  23.982  24.493  1.00  0.00     0.060 A 
ATOM     16  C   UNL A   1      32.810  24.504  25.708  1.00  0.00    -0.026 A 
ATOM     17  C   UNL A   1      32.967  22.853  23.947  1.00  0.00     0.064 A 
ATOM     18  C   UNL A   1      32.154  25.674  26.387  1.00  0.00     0.046 C 
ATOM     19  C   UNL A   1      33.943  23.924  26.310  1.00  0.00     0.005 A 
ATOM     20  C   UNL A   1      34.043  22.241  24.597  1.00  0.00     0.023 A 
ATOM     21  Cl  UNL A   1      32.541  22.231  22.391  1.00  0.00    -0.082 Cl
ATOM     22  C   UNL A   1      34.538  22.784  25.775  1.00  0.00     0.002 A 
ENDBRANCH  13  15
ENDBRANCH  12  13
ENDBRANCH   5   6
ENDBRANCH   3   5
ENDBRANCH   2   3
ENDBRANCH   1   2
BRANCH   1  23
ATOM     23  C   UNL A   1      32.360  29.311  24.756  1.00  0.00     0.275 C 
BRANCH  23  24
ATOM     24  O   UNL A   1      32.365  29.936  26.090  1.00  0.00    -0.458 OA
BRANCH  24  25
ATOM     25  C   UNL A   1      33.063  29.706  27.250  1.00  0.00     0.338 C 
ATOM     26  O   UNL A   1      32.731  28.775  27.984  1.00  0.00    -0.246 OA
BRANCH  25  27
ATOM     27  C   UNL A   1      34.439  30.229  27.376  1.00  0.00     0.060 A 
ATOM     28  C   UNL A   1      34.713  31.581  27.676  1.00  0.00     0.016 A 
ATOM     29  C   UNL A   1      35.437  29.313  27.506  1.00  0.00     0.016 A 
ATOM     30  C   UNL A   1      35.959  31.917  28.220  1.00  0.00     0.010 A 
ATOM     31  C   UNL A   1      36.384  29.554  28.448  1.00  0.00     0.010 A 
ATOM     32  C   UNL A   1      36.777  30.865  28.637  1.00  0.00    -0.014 A 
BRANCH  32  33
ATOM     33  C   UNL A   1      38.190  30.895  28.975  1.00  0.00     0.031 A 
ATOM     34  C   UNL A   1      39.087  29.846  28.497  1.00  0.00     0.074 A 
ATOM     35  C   UNL A   1      38.596  32.031  29.606  1.00  0.00     0.049 A 
ATOM     36  N   UNL A   1      39.806  29.092  29.252  1.00  0.00    -0.248 NA
ATOM     37  C   UNL A   1      39.245  29.578  27.064  1.00  0.00     0.031 C 
ATOM     38  C   UNL A   1      39.913  32.471  30.010  1.00  0.00     0.029 A 
ATOM     39  N   UNL A   1      37.780  33.072  30.088  1.00  0.00    -0.354 N 
ATOM     40  C   UNL A   1      40.779  28.584  28.415  1.00  0.00     0.074 A 
ATOM     41  C   UNL A   1      40.268  28.713  27.066  1.00  0.00     0.031 C 
ATOM     42  C   UNL A   1      39.759  33.412  30.970  1.00  0.00     0.029 A 
ATOM     43  C   UNL A   1      38.331  33.579  31.247  1.00  0.00     0.049 A 
ATOM     44  H   UNL A   1      36.949  33.387  29.666  1.00  0.00     0.167 HD
ATOM     45  C   UNL A   1      42.075  28.493  28.834  1.00  0.00     0.031 A 
ATOM     46  C   UNL A   1      37.657  33.366  32.418  1.00  0.00     0.031 A 
ATOM     47  C   UNL A   1      42.261  29.227  30.089  1.00  0.00     0.049 A 
ATOM     48  C   UNL A   1      38.339  32.269  33.203  1.00  0.00     0.074 A 
ATOM     49  C   UNL A   1      42.822  30.469  30.348  1.00  0.00     0.029 A 
ATOM     50  N   UNL A   1      41.516  28.898  31.218  1.00  0.00    -0.354 N 
ATOM     51  N   UNL A   1      39.228  31.468  32.683  1.00  0.00    -0.248 NA
ATOM     52  C   UNL A   1      38.125  32.008  34.622  1.00  0.00     0.031 C 
ATOM     53  C   UNL A   1      42.341  30.920  31.605  1.00  0.00     0.029 A 
ATOM     54  C   UNL A   1      41.494  29.953  32.117  1.00  0.00     0.049 A 
ATOM     55  H   UNL A   1      41.065  28.034  31.358  1.00  0.00     0.167 HD
ATOM     56  C   UNL A   1      39.770  30.676  33.650  1.00  0.00     0.074 A 
ATOM     57  C   UNL A   1      39.034  31.040  34.851  1.00  0.00     0.031 C 
ATOM     58  C   UNL A   1      40.799  29.816  33.392  1.00  0.00     0.031 A 
BRANCH  45  59
ATOM     59  C   UNL A   1      43.199  28.106  27.898  1.00  0.00    -0.014 A 
ATOM     60  C   UNL A   1      43.410  26.759  27.543  1.00  0.00     0.010 A 
ATOM     61  C   UNL A   1      44.054  29.057  27.300  1.00  0.00     0.010 A 
ATOM     62  C   UNL A   1      44.454  26.369  26.692  1.00  0.00     0.020 A 
ATOM     63  C   UNL A   1      45.117  28.677  26.460  1.00  0.00     0.020 A 
ATOM     64  C   UNL A   1      45.308  27.331  26.160  1.00  0.00     0.054 A 
BRANCH  64  65
ATOM     65  S   UNL A   1      46.643  26.792  25.056  1.00  0.00     0.124 S 
ATOM     66  O   UNL A   1      46.322  25.384  24.835  1.00  0.00    -0.237 OA
ATOM     67  O   UNL A   1      46.467  27.667  23.901  1.00  0.00    -0.237 OA
ATOM     68  O   UNL A   1      47.855  27.031  25.838  1.00  0.00    -0.744 OA
ENDBRANCH  64  65
ENDBRANCH  45  59
BRANCH  46  69
ATOM     69  C   UNL A   1      36.180  33.667  32.354  1.00  0.00    -0.014 A 
ATOM     70  C   UNL A   1      35.650  34.411  33.435  1.00  0.00     0.010 A 
ATOM     71  C   UNL A   1      35.417  33.612  31.169  1.00  0.00     0.010 A 
ATOM     72  C   UNL A   1      34.504  35.202  33.292  1.00  0.00     0.020 A 
ATOM     73  C   UNL A   1      34.248  34.394  31.027  1.00  0.00     0.020 A 
ATOM     74  C   UNL A   1      33.843  35.236  32.068  1.00  0.00     0.054 A 
BRANCH  74  75
ATOM     75  S   UNL A   1      32.634  36.576  31.803  1.00  0.00     0.124 S 
ATOM     76  O   UNL A   1      32.496  36.601  30.351  1.00  0.00    -0.237 OA
ATOM     77  O   UNL A   1      31.477  36.078  32.546  1.00  0.00    -0.237 OA
ATOM     78  O   UNL A   1      33.283  37.735  32.399  1.00  0.00    -0.744 OA
ENDBRANCH  74  75
ENDBRANCH  46  69
BRANCH  58  79
ATOM     79  C   UNL A   1      41.354  28.812  34.361  1.00  0.00    -0.014 A 
ATOM     80  C   UNL A   1      41.247  27.426  34.198  1.00  0.00     0.010 A 
ATOM     81  C   UNL A   1      42.149  29.285  35.435  1.00  0.00     0.010 A 
ATOM     82  C   UNL A   1      41.850  26.550  35.106  1.00  0.00     0.020 A 
ATOM     83  C   UNL A   1      42.803  28.422  36.308  1.00  0.00     0.020 A 
ATOM     84  C   UNL A   1      42.623  27.056  36.155  1.00  0.00     0.054 A 
BRANCH  84  85
ATOM     85  S   UNL A   1      43.447  25.916  37.286  1.00  0.00     0.124 S 
ATOM     86  O   UNL A   1      43.360  26.639  38.552  1.00  0.00    -0.237 OA
ATOM     87  O   UNL A   1      42.623  24.712  37.194  1.00  0.00    -0.237 OA
ATOM     88  O   UNL A   1      44.789  25.786  36.725  1.00  0.00    -0.744 OA
ENDBRANCH  84  85
ENDBRANCH  58  79
ENDBRANCH  32  33
ENDBRANCH  25  27
ENDBRANCH  24  25
ENDBRANCH  23  24
ENDBRANCH   1  23
TORSDOF 17
ENDMDL
MODEL 2
REMARK VINA RESULT:     -12.7      3.573      5.379
REMARK SMILES Cc1ccc(Nc2c(C)cccc2Cl)c(CC(=O)OCCOC(=O)c2ccc(-c3c4nc(c(-c5ccc(S(=O)(=O)[O-])cc5)c5ccc([nH]5)c(-c5ccc(S(=O)(=O)[O-])cc5)c5nc(c(-c6ccc(S(=O)(=O)[O-])cc6)c6ccc3[nH]6)C=C5)C=C4)cc2)c1
REMARK SMILES IDX 20 1 19 2 17 3 18 4 16 5 15 6 1 7 2 8 3 9 85 10 4 11 5 12
REMARK SMILES IDX 6 13 7 15 8 16 13 17 9 18 10 19 12 20 14 21 11 22 21 23
REMARK SMILES IDX 22 24 23 25 24 26 25 27 26 28 84 29 27 30 83 31 28 32 29 33
REMARK SMILES IDX 30 34 77 35 31 36 82 37 76 38 78 39 32 40 81 41 75 42 74 43
REMARK SMILES IDX 33 45 63 46 44 47 62 48 45 49 48 50 61 51 79 52 46 53 47 54
REMARK SMILES IDX 60 56 80 57 49 58 34 59 35 60 43 61 36 62 42 63 37 64 38 65
REMARK SMILES IDX 39 66 40 67 41 68 64 69 65 70 73 71 66 72 72 73 67 74 68 75
REMARK SMILES IDX 69 76 70 77 71 78 50 79 51 80 59 81 52 82 58 83 53 84 54 85
REMARK SMILES IDX 55 86 56 87 57 88
REMARK H PARENT 6 14 78 44 48 55
REMARK Flexibility Score: inf
ROOT
ATOM      1  C   UNL A   1      33.580  30.514  27.095  1.00  0.00     0.274 C 
ENDROOT
BRANCH   1   2
ATOM      2  O   UNL A   1      33.609  29.407  26.196  1.00  0.00    -0.462 OA
BRANCH   2   3
ATOM      3  C   UNL A   1      32.395  28.967  25.800  1.00  0.00     0.310 C 
ATOM      4  O   UNL A   1      31.433  28.848  26.553  1.00  0.00    -0.252 OA
BRANCH   3   5
ATOM      5  C   UNL A   1      32.442  28.663  24.317  1.00  0.00     0.160 C 
BRANCH   5   6
ATOM      6  C   UNL A   1      31.147  28.049  23.860  1.00  0.00    -0.013 A 
ATOM      7  C   UNL A   1      27.868  29.597  22.792  1.00  0.00     0.044 C 
ATOM      8  C   UNL A   1      28.878  28.567  23.188  1.00  0.00    -0.051 A 
ATOM      9  C   UNL A   1      28.503  27.276  23.562  1.00  0.00     0.005 A 
ATOM     10  C   UNL A   1      30.207  28.944  23.329  1.00  0.00     0.009 A 
ATOM     11  C   UNL A   1      29.456  26.355  24.017  1.00  0.00     0.026 A 
ATOM     12  C   UNL A   1      30.802  26.704  24.138  1.00  0.00     0.042 A 
BRANCH  12  13
ATOM     13  N   UNL A   1      31.737  25.801  24.672  1.00  0.00    -0.354 N 
ATOM     14  H   UNL A   1      32.119  26.085  25.533  1.00  0.00     0.167 HD
BRANCH  13  15
ATOM     15  C   UNL A   1      32.237  24.554  24.204  1.00  0.00     0.060 A 
ATOM     16  C   UNL A   1      31.781  23.339  24.760  1.00  0.00    -0.026 A 
ATOM     17  C   UNL A   1      32.953  24.496  22.988  1.00  0.00     0.064 A 
ATOM     18  C   UNL A   1      30.971  23.306  26.026  1.00  0.00     0.046 C 
ATOM     19  C   UNL A   1      32.083  22.121  24.121  1.00  0.00     0.005 A 
ATOM     20  C   UNL A   1      33.178  23.285  22.326  1.00  0.00     0.023 A 
ATOM     21  Cl  UNL A   1      33.688  25.905  22.305  1.00  0.00    -0.082 Cl
ATOM     22  C   UNL A   1      32.751  22.095  22.899  1.00  0.00     0.002 A 
ENDBRANCH  13  15
ENDBRANCH  12  13
ENDBRANCH   5   6
ENDBRANCH   3   5
ENDBRANCH   2   3
ENDBRANCH   1   2
BRANCH   1  23
ATOM     23  C   UNL A   1      34.972  30.793  27.711  1.00  0.00     0.275 C 
BRANCH  23  24
ATOM     24  O   UNL A   1      35.474  29.832  28.709  1.00  0.00    -0.458 OA
BRANCH  24  25
ATOM     25  C   UNL A   1      36.618  29.750  29.465  1.00  0.00     0.338 C 
ATOM     26  O   UNL A   1      36.551  29.898  30.685  1.00  0.00    -0.246 OA
BRANCH  25  27
ATOM     27  C   UNL A   1      37.790  29.037  28.918  1.00  0.00     0.060 A 
ATOM     28  C   UNL A   1      38.410  29.413  27.706  1.00  0.00     0.016 A 
ATOM     29  C   UNL A   1      38.456  28.206  29.765  1.00  0.00     0.016 A 
ATOM     30  C   UNL A   1      39.735  29.025  27.472  1.00  0.00     0.010 A 
ATOM     31  C   UNL A   1      39.812  28.268  29.761  1.00  0.00     0.010 A 
ATOM     32  C   UNL A   1      40.437  28.476  28.546  1.00  0.00    -0.014 A 
BRANCH  32  33
ATOM     33  C   UNL A   1      41.698  27.753  28.529  1.00  0.00     0.031 A 
ATOM     34  C   UNL A   1      41.738  26.345  28.141  1.00  0.00     0.074 A 
ATOM     35  C   UNL A   1      42.797  28.529  28.738  1.00  0.00     0.049 A 
ATOM     36  N   UNL A   1      42.190  25.391  28.876  1.00  0.00    -0.248 NA
ATOM     37  C   UNL A   1      41.255  25.907  26.827  1.00  0.00     0.031 C 
ATOM     38  C   UNL A   1      44.206  28.204  28.701  1.00  0.00     0.029 A 
ATOM     39  N   UNL A   1      42.819  29.884  29.114  1.00  0.00    -0.354 N 
ATOM     40  C   UNL A   1      42.441  24.359  27.995  1.00  0.00     0.074 A 
ATOM     41  C   UNL A   1      41.647  24.626  26.814  1.00  0.00     0.031 C 
ATOM     42  C   UNL A   1      44.869  29.156  29.398  1.00  0.00     0.029 A 
ATOM     43  C   UNL A   1      43.899  30.106  29.945  1.00  0.00     0.049 A 
ATOM     44  H   UNL A   1      42.169  30.566  28.829  1.00  0.00     0.167 HD
ATOM     45  C   UNL A   1      43.574  23.607  28.112  1.00  0.00     0.031 A 
ATOM     46  C   UNL A   1      43.641  30.406  31.255  1.00  0.00     0.031 A 
ATOM     47  C   UNL A   1      44.505  24.226  29.060  1.00  0.00     0.049 A 
ATOM     48  C   UNL A   1      43.904  29.191  32.114  1.00  0.00     0.074 A 
ATOM     49  C   UNL A   1      45.657  24.971  28.857  1.00  0.00     0.029 A 
ATOM     50  N   UNL A   1      44.119  24.465  30.376  1.00  0.00    -0.354 N 
ATOM     51  N   UNL A   1      44.047  27.989  31.625  1.00  0.00    -0.248 NA
ATOM     52  C   UNL A   1      44.075  29.219  33.562  1.00  0.00     0.031 C 
ATOM     53  C   UNL A   1      45.912  25.723  30.033  1.00  0.00     0.029 A 
ATOM     54  C   UNL A   1      44.924  25.433  30.956  1.00  0.00     0.049 A 
ATOM     55  H   UNL A   1      43.375  24.009  30.833  1.00  0.00     0.167 HD
ATOM     56  C   UNL A   1      44.409  27.121  32.610  1.00  0.00     0.074 A 
ATOM     57  C   UNL A   1      44.399  27.936  33.815  1.00  0.00     0.031 C 
ATOM     58  C   UNL A   1      44.722  25.816  32.349  1.00  0.00     0.031 A 
BRANCH  45  59
ATOM     59  C   UNL A   1      43.973  22.582  27.072  1.00  0.00    -0.014 A 
ATOM     60  C   UNL A   1      43.087  21.553  26.698  1.00  0.00     0.010 A 
ATOM     61  C   UNL A   1      45.211  22.625  26.396  1.00  0.00     0.010 A 
ATOM     62  C   UNL A   1      43.435  20.580  25.750  1.00  0.00     0.020 A 
ATOM     63  C   UNL A   1      45.580  21.644  25.457  1.00  0.00     0.020 A 
ATOM     64  C   UNL A   1      44.685  20.626  25.139  1.00  0.00     0.054 A 
BRANCH  64  65
ATOM     65  S   UNL A   1      45.099  19.356  23.912  1.00  0.00     0.124 S 
ATOM     66  O   UNL A   1      46.561  19.377  23.916  1.00  0.00    -0.237 OA
ATOM     67  O   UNL A   1      44.487  18.160  24.482  1.00  0.00    -0.237 OA
ATOM     68  O   UNL A   1      44.480  19.847  22.683  1.00  0.00    -0.744 OA
ENDBRANCH  64  65
ENDBRANCH  45  59
BRANCH  46  69
ATOM     69  C   UNL A   1      42.585  31.463  31.460  1.00  0.00    -0.014 A 
ATOM     70  C   UNL A   1      42.815  32.704  30.819  1.00  0.00     0.010 A 
ATOM     71  C   UNL A   1      41.269  31.187  31.885  1.00  0.00     0.010 A 
ATOM     72  C   UNL A   1      41.762  33.556  30.464  1.00  0.00     0.020 A 
ATOM     73  C   UNL A   1      40.205  32.054  31.546  1.00  0.00     0.020 A 
ATOM     74  C   UNL A   1      40.454  33.196  30.777  1.00  0.00     0.054 A 
BRANCH  74  75
ATOM     75  S   UNL A   1      39.110  34.102  29.940  1.00  0.00     0.124 S 
ATOM     76  O   UNL A   1      39.836  35.009  29.058  1.00  0.00    -0.237 OA
ATOM     77  O   UNL A   1      38.387  33.013  29.284  1.00  0.00    -0.237 OA
ATOM     78  O   UNL A   1      38.392  34.728  31.042  1.00  0.00    -0.744 OA
ENDBRANCH  74  75
ENDBRANCH  46  69
BRANCH  58  79
ATOM     79  C   UNL A   1      44.991  24.766  33.387  1.00  0.00    -0.014 A 
ATOM     80  C   UNL A   1      44.033  23.849  33.837  1.00  0.00     0.010 A 
ATOM     81  C   UNL A   1      46.322  24.598  33.843  1.00  0.00     0.010 A 
ATOM     82  C   UNL A   1      44.375  22.851  34.756  1.00  0.00     0.020 A 
ATOM     83  C   UNL A   1      46.684  23.572  34.709  1.00  0.00     0.020 A 
ATOM     84  C   UNL A   1      45.698  22.721  35.186  1.00  0.00     0.054 A 
BRANCH  84  85
ATOM     85  S   UNL A   1      46.140  21.392  36.324  1.00  0.00     0.124 S 
ATOM     86  O   UNL A   1      47.583  21.300  36.125  1.00  0.00    -0.237 OA
ATOM     87  O   UNL A   1      45.717  21.919  37.621  1.00  0.00    -0.237 OA
ATOM     88  O   UNL A   1      45.363  20.253  35.840  1.00  0.00    -0.744 OA
ENDBRANCH  84  85
ENDBRANCH  58  79
ENDBRANCH  32  33
ENDBRANCH  25  27
ENDBRANCH  24  25
ENDBRANCH  23  24
ENDBRANCH   1  23
TORSDOF 17
ENDMDL
MODEL 3
REMARK VINA RESULT:     -12.5      3.724     10.204
REMARK SMILES Cc1ccc(Nc2c(C)cccc2Cl)c(CC(=O)OCCOC(=O)c2ccc(-c3c4nc(c(-c5ccc(S(=O)(=O)[O-])cc5)c5ccc([nH]5)c(-c5ccc(S(=O)(=O)[O-])cc5)c5nc(c(-c6ccc(S(=O)(=O)[O-])cc6)c6ccc3[nH]6)C=C5)C=C4)cc2)c1
REMARK SMILES IDX 20 1 19 2 17 3 18 4 16 5 15 6 1 7 2 8 3 9 85 10 4 11 5 12
REMARK SMILES IDX 6 13 7 15 8 16 13 17 9 18 10 19 12 20 14 21 11 22 21 23
REMARK SMILES IDX 22 24 23 25 24 26 25 27 26 28 84 29 27 30 83 31 28 32 29 33
REMARK SMILES IDX 30 34 77 35 31 36 82 37 76 38 78 39 32 40 81 41 75 42 74 43
REMARK SMILES IDX 33 45 63 46 44 47 62 48 45 49 48 50 61 51 79 52 46 53 47 54
REMARK SMILES IDX 60 56 80 57 49 58 34 59 35 60 43 61 36 62 42 63 37 64 38 65
REMARK SMILES IDX 39 66 40 67 41 68 64 69 65 70 73 71 66 72 72 73 67 74 68 75
REMARK SMILES IDX 69 76 70 77 71 78 50 79 51 80 59 81 52 82 58 83 53 84 54 85
REMARK SMILES IDX 55 86 56 87 57 88
REMARK H PARENT 6 14 78 44 48 55
REMARK Flexibility Score: inf
ROOT
ATOM      1  C   UNL A   1      37.099  22.691  25.473  1.00  0.00     0.274 C 
ENDROOT
BRANCH   1   2
ATOM      2  O   UNL A   1      35.775  22.355  25.880  1.00  0.00    -0.462 OA
BRANCH   2   3
ATOM      3  C   UNL A   1      35.386  21.100  25.566  1.00  0.00     0.310 C 
ATOM      4  O   UNL A   1      36.128  20.263  25.061  1.00  0.00    -0.252 OA
BRANCH   3   5
ATOM      5  C   UNL A   1      33.928  20.930  25.937  1.00  0.00     0.160 C 
BRANCH   5   6
ATOM      6  C   UNL A   1      33.062  20.947  24.707  1.00  0.00    -0.013 A 
ATOM      7  C   UNL A   1      32.171  18.244  22.219  1.00  0.00     0.044 C 
ATOM      8  C   UNL A   1      32.289  19.595  22.852  1.00  0.00    -0.051 A 
ATOM      9  C   UNL A   1      32.058  20.767  22.131  1.00  0.00     0.005 A 
ATOM     10  C   UNL A   1      32.781  19.693  24.147  1.00  0.00     0.009 A 
ATOM     11  C   UNL A   1      32.263  22.023  22.717  1.00  0.00     0.026 A 
ATOM     12  C   UNL A   1      32.728  22.144  24.027  1.00  0.00     0.042 A 
BRANCH  12  13
ATOM     13  N   UNL A   1      33.008  23.406  24.580  1.00  0.00    -0.354 N 
ATOM     14  H   UNL A   1      33.930  23.500  24.911  1.00  0.00     0.167 HD
BRANCH  13  15
ATOM     15  C   UNL A   1      32.213  24.573  24.752  1.00  0.00     0.060 A 
ATOM     16  C   UNL A   1      32.313  25.653  23.850  1.00  0.00    -0.026 A 
ATOM     17  C   UNL A   1      31.106  24.546  25.630  1.00  0.00     0.064 A 
ATOM     18  C   UNL A   1      33.430  25.743  22.847  1.00  0.00     0.046 C 
ATOM     19  C   UNL A   1      31.349  26.680  23.877  1.00  0.00     0.005 A 
ATOM     20  C   UNL A   1      30.116  25.532  25.592  1.00  0.00     0.023 A 
ATOM     21  Cl  UNL A   1      30.971  23.354  26.875  1.00  0.00    -0.082 Cl
ATOM     22  C   UNL A   1      30.242  26.605  24.721  1.00  0.00     0.002 A 
ENDBRANCH  13  15
ENDBRANCH  12  13
ENDBRANCH   5   6
ENDBRANCH   3   5
ENDBRANCH   2   3
ENDBRANCH   1   2
BRANCH   1  23
ATOM     23  C   UNL A   1      37.540  24.070  26.023  1.00  0.00     0.275 C 
BRANCH  23  24
ATOM     24  O   UNL A   1      38.504  24.076  27.136  1.00  0.00    -0.458 OA
BRANCH  24  25
ATOM     25  C   UNL A   1      39.816  24.463  27.260  1.00  0.00     0.338 C 
ATOM     26  O   UNL A   1      40.688  23.865  26.630  1.00  0.00    -0.246 OA
BRANCH  25  27
ATOM     27  C   UNL A   1      40.120  25.828  27.736  1.00  0.00     0.060 A 
ATOM     28  C   UNL A   1      40.388  26.898  26.856  1.00  0.00     0.016 A 
ATOM     29  C   UNL A   1      39.827  26.106  29.037  1.00  0.00     0.016 A 
ATOM     30  C   UNL A   1      40.219  28.212  27.311  1.00  0.00     0.010 A 
ATOM     31  C   UNL A   1      39.210  27.286  29.297  1.00  0.00     0.010 A 
ATOM     32  C   UNL A   1      39.584  28.382  28.543  1.00  0.00    -0.014 A 
BRANCH  32  33
ATOM     33  C   UNL A   1      39.518  29.575  29.370  1.00  0.00     0.031 A 
ATOM     34  C   UNL A   1      38.421  30.526  29.209  1.00  0.00     0.074 A 
ATOM     35  C   UNL A   1      40.442  29.622  30.369  1.00  0.00     0.049 A 
ATOM     36  N   UNL A   1      38.564  31.774  28.929  1.00  0.00    -0.248 NA
ATOM     37  C   UNL A   1      37.025  30.109  29.374  1.00  0.00     0.031 C 
ATOM     38  C   UNL A   1      40.633  30.578  31.438  1.00  0.00     0.029 A 
ATOM     39  N   UNL A   1      41.517  28.737  30.573  1.00  0.00    -0.354 N 
ATOM     40  C   UNL A   1      37.367  32.355  29.298  1.00  0.00     0.074 A 
ATOM     41  C   UNL A   1      36.389  31.288  29.340  1.00  0.00     0.031 C 
ATOM     42  C   UNL A   1      41.905  30.455  31.882  1.00  0.00     0.029 A 
ATOM     43  C   UNL A   1      42.592  29.440  31.079  1.00  0.00     0.049 A 
ATOM     44  H   UNL A   1      41.505  27.772  30.384  1.00  0.00     0.167 HD
ATOM     45  C   UNL A   1      37.350  33.557  29.945  1.00  0.00     0.031 A 
ATOM     46  C   UNL A   1      43.692  29.583  30.279  1.00  0.00     0.031 A 
ATOM     47  C   UNL A   1      38.701  33.923  30.382  1.00  0.00     0.049 A 
ATOM     48  C   UNL A   1      43.724  30.983  29.708  1.00  0.00     0.074 A 
ATOM     49  C   UNL A   1      39.307  33.862  31.628  1.00  0.00     0.029 A 
ATOM     50  N   UNL A   1      39.734  34.051  29.457  1.00  0.00    -0.354 N 
ATOM     51  N   UNL A   1      42.699  31.790  29.740  1.00  0.00    -0.248 NA
ATOM     52  C   UNL A   1      44.897  31.607  29.107  1.00  0.00     0.031 C 
ATOM     53  C   UNL A   1      40.713  33.869  31.438  1.00  0.00     0.029 A 
ATOM     54  C   UNL A   1      40.967  33.943  30.080  1.00  0.00     0.049 A 
ATOM     55  H   UNL A   1      39.606  34.196  28.492  1.00  0.00     0.167 HD
ATOM     56  C   UNL A   1      43.055  33.022  29.282  1.00  0.00     0.074 A 
ATOM     57  C   UNL A   1      44.444  32.855  28.880  1.00  0.00     0.031 C 
ATOM     58  C   UNL A   1      42.195  34.083  29.305  1.00  0.00     0.031 A 
BRANCH  45  59
ATOM     59  C   UNL A   1      36.079  34.146  30.517  1.00  0.00    -0.014 A 
ATOM     60  C   UNL A   1      35.008  34.504  29.676  1.00  0.00     0.010 A 
ATOM     61  C   UNL A   1      35.879  34.323  31.903  1.00  0.00     0.010 A 
ATOM     62  C   UNL A   1      33.825  35.067  30.176  1.00  0.00     0.020 A 
ATOM     63  C   UNL A   1      34.706  34.905  32.417  1.00  0.00     0.020 A 
ATOM     64  C   UNL A   1      33.683  35.273  31.546  1.00  0.00     0.054 A 
BRANCH  64  65
ATOM     65  S   UNL A   1      32.138  35.997  32.159  1.00  0.00     0.124 S 
ATOM     66  O   UNL A   1      31.523  34.877  32.868  1.00  0.00    -0.237 OA
ATOM     67  O   UNL A   1      32.617  37.088  33.003  1.00  0.00    -0.237 OA
ATOM     68  O   UNL A   1      31.442  36.411  30.942  1.00  0.00    -0.744 OA
ENDBRANCH  64  65
ENDBRANCH  45  59
BRANCH  46  69
ATOM     69  C   UNL A   1      44.153  28.311  29.614  1.00  0.00    -0.014 A 
ATOM     70  C   UNL A   1      43.617  28.049  28.331  1.00  0.00     0.010 A 
ATOM     71  C   UNL A   1      45.320  27.610  29.984  1.00  0.00     0.010 A 
ATOM     72  C   UNL A   1      44.297  27.260  27.395  1.00  0.00     0.020 A 
ATOM     73  C   UNL A   1      46.000  26.796  29.048  1.00  0.00     0.020 A 
ATOM     74  C   UNL A   1      45.517  26.687  27.740  1.00  0.00     0.054 A 
BRANCH  74  75
ATOM     75  S   UNL A   1      46.552  26.037  26.386  1.00  0.00     0.124 S 
ATOM     76  O   UNL A   1      47.867  26.588  26.694  1.00  0.00    -0.237 OA
ATOM     77  O   UNL A   1      46.404  24.594  26.571  1.00  0.00    -0.237 OA
ATOM     78  O   UNL A   1      45.908  26.563  25.190  1.00  0.00    -0.744 OA
ENDBRANCH  74  75
ENDBRANCH  46  69
BRANCH  58  79
ATOM     79  C   UNL A   1      42.460  35.427  28.693  1.00  0.00    -0.014 A 
ATOM     80  C   UNL A   1      41.907  35.858  27.482  1.00  0.00     0.010 A 
ATOM     81  C   UNL A   1      43.205  36.372  29.444  1.00  0.00     0.010 A 
ATOM     82  C   UNL A   1      42.142  37.152  27.008  1.00  0.00     0.020 A 
ATOM     83  C   UNL A   1      43.394  37.679  29.010  1.00  0.00     0.020 A 
ATOM     84  C   UNL A   1      42.886  38.052  27.775  1.00  0.00     0.054 A 
BRANCH  84  85
ATOM     85  S   UNL A   1      43.133  39.739  27.181  1.00  0.00     0.124 S 
ATOM     86  O   UNL A   1      44.417  39.626  26.495  1.00  0.00    -0.237 OA
ATOM     87  O   UNL A   1      41.975  39.954  26.316  1.00  0.00    -0.237 OA
ATOM     88  O   UNL A   1      43.142  40.535  28.406  1.00  0.00    -0.744 OA
ENDBRANCH  84  85
ENDBRANCH  58  79
ENDBRANCH  32  33
ENDBRANCH  25  27
ENDBRANCH  24  25
ENDBRANCH  23  24
ENDBRANCH   1  23
TORSDOF 17
ENDMDL
