MODEL 1
REMARK VINA RESULT:     -11.6      0.000      0.000
REMARK SMILES O=C(OCCOC(=O)c1cn(-c2cc(Cl)ncn2)cn1)c1ccc(-c2c3nc(c(-c4ccc(S(=O)(=O)[O-])cc4)c4ccc([nH]4)c(-c4ccc(S(=O)(=O)[O-])cc4)c4nc(c(-c5ccc(S(=O)(=O)[O-])cc5)c5ccc2[nH]5)C=C4)C=C3)cc1
REMARK SMILES IDX 4 1 3 2 2 3 1 4 21 5 22 6 80 7 23 8 79 9 24 10 25 11 26 12
REMARK SMILES IDX 73 13 27 14 78 15 72 16 74 17 28 18 77 19 71 20 70 21 29 23
REMARK SMILES IDX 59 24 40 25 58 26 41 27 44 28 57 29 75 30 42 31 43 32 56 34
REMARK SMILES IDX 76 35 45 36 30 37 31 38 39 39 32 40 38 41 33 42 34 43 35 44
REMARK SMILES IDX 36 45 37 46 60 47 61 48 69 49 62 50 68 51 63 52 64 53 65 54
REMARK SMILES IDX 66 55 67 56 46 57 47 58 55 59 48 60 54 61 49 62 50 63 51 64
REMARK SMILES IDX 52 65 53 66 5 67 6 68 7 69 8 70 9 71 10 72 20 73 11 74 19 75
REMARK SMILES IDX 12 76 13 77 18 78 14 79 17 80 15 81 16 82
REMARK H PARENT 74 22 44 33
REMARK Flexibility Score: inf
ROOT
ATOM      1  C   UNL A   1      41.050  19.781  26.181  1.00  0.00     0.275 C 
ENDROOT
BRANCH   1   2
ATOM      2  O   UNL A   1      40.366  20.733  27.025  1.00  0.00    -0.458 OA
BRANCH   2   3
ATOM      3  C   UNL A   1      39.633  21.712  26.440  1.00  0.00     0.338 C 
ATOM      4  O   UNL A   1      38.739  21.511  25.636  1.00  0.00    -0.246 OA
BRANCH   3   5
ATOM      5  C   UNL A   1      39.959  23.034  27.028  1.00  0.00     0.060 A 
ATOM      6  C   UNL A   1      41.143  23.236  27.749  1.00  0.00     0.016 A 
ATOM      7  C   UNL A   1      39.071  24.096  26.828  1.00  0.00     0.016 A 
ATOM      8  C   UNL A   1      41.408  24.470  28.323  1.00  0.00     0.010 A 
ATOM      9  C   UNL A   1      39.339  25.337  27.402  1.00  0.00     0.010 A 
ATOM     10  C   UNL A   1      40.492  25.514  28.176  1.00  0.00    -0.014 A 
BRANCH  10  11
ATOM     11  C   UNL A   1      40.821  26.784  28.821  1.00  0.00     0.031 A 
ATOM     12  C   UNL A   1      41.995  27.537  28.286  1.00  0.00     0.074 A 
ATOM     13  C   UNL A   1      40.045  27.352  29.763  1.00  0.00     0.049 A 
ATOM     14  N   UNL A   1      43.055  27.948  28.908  1.00  0.00    -0.248 NA
ATOM     15  C   UNL A   1      41.988  27.848  26.850  1.00  0.00     0.031 C 
ATOM     16  C   UNL A   1      38.704  26.943  30.184  1.00  0.00     0.029 A 
ATOM     17  N   UNL A   1      40.256  28.508  30.454  1.00  0.00    -0.354 N 
ATOM     18  C   UNL A   1      43.780  28.705  27.986  1.00  0.00     0.074 A 
ATOM     19  C   UNL A   1      43.125  28.528  26.711  1.00  0.00     0.031 C 
ATOM     20  C   UNL A   1      38.131  27.959  30.866  1.00  0.00     0.029 A 
ATOM     21  C   UNL A   1      39.110  29.018  31.045  1.00  0.00     0.049 A 
ATOM     22  H   UNL A   1      41.138  28.941  30.527  1.00  0.00     0.167 HD
ATOM     23  C   UNL A   1      44.778  29.564  28.339  1.00  0.00     0.031 A 
ATOM     24  C   UNL A   1      38.950  30.256  31.569  1.00  0.00     0.031 A 
ATOM     25  C   UNL A   1      45.268  29.335  29.668  1.00  0.00     0.049 A 
ATOM     26  C   UNL A   1      40.292  30.814  31.855  1.00  0.00     0.074 A 
ATOM     27  C   UNL A   1      45.876  28.278  30.315  1.00  0.00     0.029 A 
ATOM     28  N   UNL A   1      44.878  30.203  30.659  1.00  0.00    -0.354 N 
ATOM     29  N   UNL A   1      41.095  30.348  32.770  1.00  0.00    -0.248 NA
ATOM     30  C   UNL A   1      40.913  31.689  30.874  1.00  0.00     0.031 C 
ATOM     31  C   UNL A   1      45.390  28.334  31.655  1.00  0.00     0.029 A 
ATOM     32  C   UNL A   1      44.537  29.436  31.744  1.00  0.00     0.049 A 
ATOM     33  H   UNL A   1      44.850  31.186  30.601  1.00  0.00     0.167 HD
ATOM     34  C   UNL A   1      42.369  30.531  32.259  1.00  0.00     0.074 A 
ATOM     35  C   UNL A   1      42.200  31.471  31.156  1.00  0.00     0.031 C 
ATOM     36  C   UNL A   1      43.399  29.699  32.601  1.00  0.00     0.031 A 
BRANCH  23  37
ATOM     37  C   UNL A   1      45.110  30.819  27.570  1.00  0.00    -0.014 A 
ATOM     38  C   UNL A   1      46.414  31.009  27.067  1.00  0.00     0.010 A 
ATOM     39  C   UNL A   1      44.246  31.935  27.552  1.00  0.00     0.010 A 
ATOM     40  C   UNL A   1      46.842  32.265  26.609  1.00  0.00     0.020 A 
ATOM     41  C   UNL A   1      44.649  33.177  27.058  1.00  0.00     0.020 A 
ATOM     42  C   UNL A   1      45.957  33.344  26.620  1.00  0.00     0.054 A 
BRANCH  42  43
ATOM     43  S   UNL A   1      46.547  34.985  26.129  1.00  0.00     0.124 S 
ATOM     44  O   UNL A   1      47.168  35.462  27.361  1.00  0.00    -0.237 OA
ATOM     45  O   UNL A   1      47.463  34.673  25.035  1.00  0.00    -0.237 OA
ATOM     46  O   UNL A   1      45.326  35.681  25.731  1.00  0.00    -0.744 OA
ENDBRANCH  42  43
ENDBRANCH  23  37
BRANCH  24  47
ATOM     47  C   UNL A   1      37.722  31.082  31.544  1.00  0.00    -0.014 A 
ATOM     48  C   UNL A   1      36.995  31.340  32.720  1.00  0.00     0.010 A 
ATOM     49  C   UNL A   1      37.405  31.837  30.394  1.00  0.00     0.010 A 
ATOM     50  C   UNL A   1      36.022  32.352  32.756  1.00  0.00     0.020 A 
ATOM     51  C   UNL A   1      36.430  32.837  30.419  1.00  0.00     0.020 A 
ATOM     52  C   UNL A   1      35.758  33.105  31.608  1.00  0.00     0.054 A 
BRANCH  52  53
ATOM     53  S   UNL A   1      34.628  34.524  31.708  1.00  0.00     0.124 S 
ATOM     54  O   UNL A   1      35.396  35.476  32.504  1.00  0.00    -0.237 OA
ATOM     55  O   UNL A   1      34.439  34.879  30.305  1.00  0.00    -0.237 OA
ATOM     56  O   UNL A   1      33.445  33.975  32.369  1.00  0.00    -0.744 OA
ENDBRANCH  52  53
ENDBRANCH  24  47
BRANCH  36  57
ATOM     57  C   UNL A   1      43.207  28.762  33.774  1.00  0.00    -0.014 A 
ATOM     58  C   UNL A   1      43.651  29.063  35.077  1.00  0.00     0.010 A 
ATOM     59  C   UNL A   1      42.418  27.612  33.588  1.00  0.00     0.010 A 
ATOM     60  C   UNL A   1      43.339  28.226  36.157  1.00  0.00     0.020 A 
ATOM     61  C   UNL A   1      42.087  26.782  34.665  1.00  0.00     0.020 A 
ATOM     62  C   UNL A   1      42.556  27.090  35.943  1.00  0.00     0.054 A 
BRANCH  62  63
ATOM     63  S   UNL A   1      42.100  26.048  37.359  1.00  0.00     0.124 S 
ATOM     64  O   UNL A   1      42.216  24.699  36.812  1.00  0.00    -0.237 OA
ATOM     65  O   UNL A   1      43.100  26.408  38.363  1.00  0.00    -0.237 OA
ATOM     66  O   UNL A   1      40.737  26.473  37.678  1.00  0.00    -0.744 OA
ENDBRANCH  62  63
ENDBRANCH  36  57
ENDBRANCH  10  11
ENDBRANCH   3   5
ENDBRANCH   2   3
ENDBRANCH   1   2
BRANCH   1  67
ATOM     67  C   UNL A   1      42.576  19.794  26.222  1.00  0.00     0.275 C 
BRANCH  67  68
ATOM     68  O   UNL A   1      43.071  19.222  25.008  1.00  0.00    -0.457 OA
BRANCH  68  69
ATOM     69  C   UNL A   1      44.421  19.276  24.831  1.00  0.00     0.358 C 
ATOM     70  O   UNL A   1      45.187  18.327  24.969  1.00  0.00    -0.244 OA
BRANCH  69  71
ATOM     71  C   UNL A   1      44.862  20.647  24.625  1.00  0.00     0.166 A 
ATOM     72  C   UNL A   1      45.647  21.365  25.504  1.00  0.00     0.130 A 
ATOM     73  N   UNL A   1      44.458  21.458  23.583  1.00  0.00    -0.229 NA
ATOM     74  N   UNL A   1      45.629  22.662  25.049  1.00  0.00    -0.289 N 
ATOM     75  C   UNL A   1      44.941  22.648  23.861  1.00  0.00     0.206 A 
BRANCH  74  76
ATOM     76  C   UNL A   1      46.132  23.808  25.707  1.00  0.00     0.142 A 
ATOM     77  C   UNL A   1      45.937  25.046  25.141  1.00  0.00     0.088 A 
ATOM     78  N   UNL A   1      46.834  23.620  26.846  1.00  0.00    -0.219 NA
ATOM     79  C   UNL A   1      46.527  26.084  25.815  1.00  0.00     0.134 A 
ATOM     80  C   UNL A   1      47.407  24.710  27.378  1.00  0.00     0.226 A 
ATOM     81  Cl  UNL A   1      46.316  27.699  25.269  1.00  0.00    -0.062 Cl
ATOM     82  N   UNL A   1      47.284  25.957  26.913  1.00  0.00    -0.224 NA
ENDBRANCH  74  76
ENDBRANCH  69  71
ENDBRANCH  68  69
ENDBRANCH  67  68
ENDBRANCH   1  67
TORSDOF 15
ENDMDL
MODEL 2
REMARK VINA RESULT:     -11.5      3.171     11.969
REMARK SMILES O=C(OCCOC(=O)c1cn(-c2cc(Cl)ncn2)cn1)c1ccc(-c2c3nc(c(-c4ccc(S(=O)(=O)[O-])cc4)c4ccc([nH]4)c(-c4ccc(S(=O)(=O)[O-])cc4)c4nc(c(-c5ccc(S(=O)(=O)[O-])cc5)c5ccc2[nH]5)C=C4)C=C3)cc1
REMARK SMILES IDX 4 1 3 2 2 3 1 4 21 5 22 6 80 7 23 8 79 9 24 10 25 11 26 12
REMARK SMILES IDX 73 13 27 14 78 15 72 16 74 17 28 18 77 19 71 20 70 21 29 23
REMARK SMILES IDX 59 24 40 25 58 26 41 27 44 28 57 29 75 30 42 31 43 32 56 34
REMARK SMILES IDX 76 35 45 36 30 37 31 38 39 39 32 40 38 41 33 42 34 43 35 44
REMARK SMILES IDX 36 45 37 46 60 47 61 48 69 49 62 50 68 51 63 52 64 53 65 54
REMARK SMILES IDX 66 55 67 56 46 57 47 58 55 59 48 60 54 61 49 62 50 63 51 64
REMARK SMILES IDX 52 65 53 66 5 67 6 68 7 69 8 70 9 71 10 72 20 73 11 74 19 75
REMARK SMILES IDX 12 76 13 77 18 78 14 79 17 80 15 81 16 82
REMARK H PARENT 74 22 44 33
REMARK Flexibility Score: inf
ROOT
ATOM      1  C   UNL A   1      33.374  33.839  28.245  1.00  0.00     0.275 C 
ENDROOT
BRANCH   1   2
ATOM      2  O   UNL A   1      34.315  32.928  28.854  1.00  0.00    -0.458 OA
BRANCH   2   3
ATOM      3  C   UNL A   1      34.453  31.686  28.327  1.00  0.00     0.338 C 
ATOM      4  O   UNL A   1      33.622  31.148  27.615  1.00  0.00    -0.246 OA
BRANCH   3   5
ATOM      5  C   UNL A   1      35.807  31.147  28.600  1.00  0.00     0.060 A 
ATOM      6  C   UNL A   1      36.865  31.990  28.966  1.00  0.00     0.016 A 
ATOM      7  C   UNL A   1      36.012  29.766  28.514  1.00  0.00     0.016 A 
ATOM      8  C   UNL A   1      38.131  31.469  29.180  1.00  0.00     0.010 A 
ATOM      9  C   UNL A   1      37.284  29.242  28.731  1.00  0.00     0.010 A 
ATOM     10  C   UNL A   1      38.350  30.097  29.032  1.00  0.00    -0.014 A 
BRANCH  10  11
ATOM     11  C   UNL A   1      39.711  29.613  29.253  1.00  0.00     0.031 A 
ATOM     12  C   UNL A   1      40.147  29.421  30.669  1.00  0.00     0.074 A 
ATOM     13  C   UNL A   1      40.520  29.213  28.253  1.00  0.00     0.049 A 
ATOM     14  N   UNL A   1      41.163  29.934  31.289  1.00  0.00    -0.248 NA
ATOM     15  C   UNL A   1      39.310  28.553  31.510  1.00  0.00     0.031 C 
ATOM     16  C   UNL A   1      40.171  29.017  26.845  1.00  0.00     0.029 A 
ATOM     17  N   UNL A   1      41.808  28.774  28.325  1.00  0.00    -0.354 N 
ATOM     18  C   UNL A   1      41.192  29.338  32.550  1.00  0.00     0.074 A 
ATOM     19  C   UNL A   1      39.973  28.572  32.666  1.00  0.00     0.031 C 
ATOM     20  C   UNL A   1      41.135  28.276  26.255  1.00  0.00     0.029 A 
ATOM     21  C   UNL A   1      42.219  28.073  27.202  1.00  0.00     0.049 A 
ATOM     22  H   UNL A   1      42.392  28.937  29.102  1.00  0.00     0.167 HD
ATOM     23  C   UNL A   1      42.280  29.370  33.371  1.00  0.00     0.031 A 
ATOM     24  C   UNL A   1      43.331  27.310  27.084  1.00  0.00     0.031 A 
ATOM     25  C   UNL A   1      43.232  30.376  32.997  1.00  0.00     0.049 A 
ATOM     26  C   UNL A   1      44.281  27.709  28.147  1.00  0.00     0.074 A 
ATOM     27  C   UNL A   1      43.207  31.752  32.890  1.00  0.00     0.029 A 
ATOM     28  N   UNL A   1      44.378  29.974  32.355  1.00  0.00    -0.354 N 
ATOM     29  N   UNL A   1      44.878  28.867  28.194  1.00  0.00    -0.248 NA
ATOM     30  C   UNL A   1      44.311  26.948  29.385  1.00  0.00     0.031 C 
ATOM     31  C   UNL A   1      44.061  32.053  31.789  1.00  0.00     0.029 A 
ATOM     32  C   UNL A   1      44.572  30.844  31.313  1.00  0.00     0.049 A 
ATOM     33  H   UNL A   1      44.949  29.209  32.597  1.00  0.00     0.167 HD
ATOM     34  C   UNL A   1      45.000  29.157  29.543  1.00  0.00     0.074 A 
ATOM     35  C   UNL A   1      44.753  27.890  30.222  1.00  0.00     0.031 C 
ATOM     36  C   UNL A   1      45.020  30.448  29.993  1.00  0.00     0.031 A 
BRANCH  23  37
ATOM     37  C   UNL A   1      42.617  28.274  34.351  1.00  0.00    -0.014 A 
ATOM     38  C   UNL A   1      42.903  28.597  35.694  1.00  0.00     0.010 A 
ATOM     39  C   UNL A   1      42.918  26.961  33.930  1.00  0.00     0.010 A 
ATOM     40  C   UNL A   1      43.497  27.664  36.558  1.00  0.00     0.020 A 
ATOM     41  C   UNL A   1      43.470  26.012  34.794  1.00  0.00     0.020 A 
ATOM     42  C   UNL A   1      43.788  26.380  36.095  1.00  0.00     0.054 A 
BRANCH  42  43
ATOM     43  S   UNL A   1      44.653  25.216  37.181  1.00  0.00     0.124 S 
ATOM     44  O   UNL A   1      46.033  25.676  37.077  1.00  0.00    -0.237 OA
ATOM     45  O   UNL A   1      44.002  25.447  38.468  1.00  0.00    -0.237 OA
ATOM     46  O   UNL A   1      44.376  23.915  36.576  1.00  0.00    -0.744 OA
ENDBRANCH  42  43
ENDBRANCH  23  37
BRANCH  24  47
ATOM     47  C   UNL A   1      43.476  26.062  26.300  1.00  0.00    -0.014 A 
ATOM     48  C   UNL A   1      44.593  25.849  25.474  1.00  0.00     0.010 A 
ATOM     49  C   UNL A   1      42.633  24.961  26.568  1.00  0.00     0.010 A 
ATOM     50  C   UNL A   1      44.883  24.568  24.975  1.00  0.00     0.020 A 
ATOM     51  C   UNL A   1      42.909  23.688  26.065  1.00  0.00     0.020 A 
ATOM     52  C   UNL A   1      44.047  23.492  25.289  1.00  0.00     0.054 A 
BRANCH  52  53
ATOM     53  S   UNL A   1      44.523  21.813  24.787  1.00  0.00     0.124 S 
ATOM     54  O   UNL A   1      43.439  21.006  25.338  1.00  0.00    -0.237 OA
ATOM     55  O   UNL A   1      44.559  21.915  23.331  1.00  0.00    -0.237 OA
ATOM     56  O   UNL A   1      45.826  21.620  25.422  1.00  0.00    -0.744 OA
ENDBRANCH  52  53
ENDBRANCH  24  47
BRANCH  36  57
ATOM     57  C   UNL A   1      45.214  31.559  28.985  1.00  0.00    -0.014 A 
ATOM     58  C   UNL A   1      46.480  32.083  28.654  1.00  0.00     0.010 A 
ATOM     59  C   UNL A   1      44.102  31.980  28.233  1.00  0.00     0.010 A 
ATOM     60  C   UNL A   1      46.625  33.021  27.623  1.00  0.00     0.020 A 
ATOM     61  C   UNL A   1      44.243  32.902  27.189  1.00  0.00     0.020 A 
ATOM     62  C   UNL A   1      45.503  33.423  26.894  1.00  0.00     0.054 A 
BRANCH  62  63
ATOM     63  S   UNL A   1      45.712  34.586  25.515  1.00  0.00     0.124 S 
ATOM     64  O   UNL A   1      45.267  35.850  26.096  1.00  0.00    -0.237 OA
ATOM     65  O   UNL A   1      47.142  34.495  25.226  1.00  0.00    -0.237 OA
ATOM     66  O   UNL A   1      44.844  34.045  24.470  1.00  0.00    -0.744 OA
ENDBRANCH  62  63
ENDBRANCH  36  57
ENDBRANCH  10  11
ENDBRANCH   3   5
ENDBRANCH   2   3
ENDBRANCH   1   2
BRANCH   1  67
ATOM     67  C   UNL A   1      33.307  35.250  28.823  1.00  0.00     0.275 C 
BRANCH  67  68
ATOM     68  O   UNL A   1      32.480  35.227  29.990  1.00  0.00    -0.457 OA
BRANCH  68  69
ATOM     69  C   UNL A   1      32.935  35.942  31.057  1.00  0.00     0.358 C 
ATOM     70  O   UNL A   1      32.886  37.164  31.157  1.00  0.00    -0.244 OA
BRANCH  69  71
ATOM     71  C   UNL A   1      33.646  35.083  31.991  1.00  0.00     0.166 A 
ATOM     72  C   UNL A   1      35.020  34.982  32.084  1.00  0.00     0.130 A 
ATOM     73  N   UNL A   1      33.048  34.161  32.827  1.00  0.00    -0.229 NA
ATOM     74  N   UNL A   1      35.261  33.908  32.907  1.00  0.00    -0.289 N 
ATOM     75  C   UNL A   1      34.039  33.485  33.365  1.00  0.00     0.206 A 
BRANCH  74  76
ATOM     76  C   UNL A   1      36.508  33.291  33.165  1.00  0.00     0.142 A 
ATOM     77  C   UNL A   1      37.571  33.553  32.332  1.00  0.00     0.088 A 
ATOM     78  N   UNL A   1      36.576  32.422  34.198  1.00  0.00    -0.219 NA
ATOM     79  C   UNL A   1      38.712  32.849  32.621  1.00  0.00     0.134 A 
ATOM     80  C   UNL A   1      37.733  31.757  34.339  1.00  0.00     0.226 A 
ATOM     81  Cl  UNL A   1      40.144  33.118  31.712  1.00  0.00    -0.062 Cl
ATOM     82  N   UNL A   1      38.826  31.932  33.590  1.00  0.00    -0.224 NA
ENDBRANCH  74  76
ENDBRANCH  69  71
ENDBRANCH  68  69
ENDBRANCH  67  68
ENDBRANCH   1  67
TORSDOF 15
ENDMDL
MODEL 3
REMARK VINA RESULT:     -11.2      2.936      7.761
REMARK SMILES O=C(OCCOC(=O)c1cn(-c2cc(Cl)ncn2)cn1)c1ccc(-c2c3nc(c(-c4ccc(S(=O)(=O)[O-])cc4)c4ccc([nH]4)c(-c4ccc(S(=O)(=O)[O-])cc4)c4nc(c(-c5ccc(S(=O)(=O)[O-])cc5)c5ccc2[nH]5)C=C4)C=C3)cc1
REMARK SMILES IDX 4 1 3 2 2 3 1 4 21 5 22 6 80 7 23 8 79 9 24 10 25 11 26 12
REMARK SMILES IDX 73 13 27 14 78 15 72 16 74 17 28 18 77 19 71 20 70 21 29 23
REMARK SMILES IDX 59 24 40 25 58 26 41 27 44 28 57 29 75 30 42 31 43 32 56 34
REMARK SMILES IDX 76 35 45 36 30 37 31 38 39 39 32 40 38 41 33 42 34 43 35 44
REMARK SMILES IDX 36 45 37 46 60 47 61 48 69 49 62 50 68 51 63 52 64 53 65 54
REMARK SMILES IDX 66 55 67 56 46 57 47 58 55 59 48 60 54 61 49 62 50 63 51 64
REMARK SMILES IDX 52 65 53 66 5 67 6 68 7 69 8 70 9 71 10 72 20 73 11 74 19 75
REMARK SMILES IDX 12 76 13 77 18 78 14 79 17 80 15 81 16 82
REMARK H PARENT 74 22 44 33
REMARK Flexibility Score: inf
ROOT
ATOM      1  C   UNL A   1      43.323  18.461  25.804  1.00  0.00     0.275 C 
ENDROOT
BRANCH   1   2
ATOM      2  O   UNL A   1      42.279  19.117  25.051  1.00  0.00    -0.458 OA
BRANCH   2   3
ATOM      3  C   UNL A   1      41.199  19.595  25.718  1.00  0.00     0.338 C 
ATOM      4  O   UNL A   1      40.134  19.008  25.807  1.00  0.00    -0.246 OA
BRANCH   3   5
ATOM      5  C   UNL A   1      41.541  20.840  26.448  1.00  0.00     0.060 A 
ATOM      6  C   UNL A   1      41.213  21.002  27.800  1.00  0.00     0.016 A 
ATOM      7  C   UNL A   1      42.228  21.851  25.769  1.00  0.00     0.016 A 
ATOM      8  C   UNL A   1      41.508  22.189  28.452  1.00  0.00     0.010 A 
ATOM      9  C   UNL A   1      42.527  23.042  26.425  1.00  0.00     0.010 A 
ATOM     10  C   UNL A   1      42.138  23.223  27.757  1.00  0.00    -0.014 A 
BRANCH  10  11
ATOM     11  C   UNL A   1      42.405  24.456  28.496  1.00  0.00     0.031 A 
ATOM     12  C   UNL A   1      41.455  25.591  28.295  1.00  0.00     0.074 A 
ATOM     13  C   UNL A   1      43.369  24.559  29.430  1.00  0.00     0.049 A 
ATOM     14  N   UNL A   1      41.699  26.803  27.906  1.00  0.00    -0.248 NA
ATOM     15  C   UNL A   1      40.031  25.319  28.541  1.00  0.00     0.031 C 
ATOM     16  C   UNL A   1      44.181  23.482  30.000  1.00  0.00     0.029 A 
ATOM     17  N   UNL A   1      43.732  25.651  30.160  1.00  0.00    -0.354 N 
ATOM     18  C   UNL A   1      40.492  27.496  28.005  1.00  0.00     0.074 A 
ATOM     19  C   UNL A   1      39.481  26.509  28.307  1.00  0.00     0.031 C 
ATOM     20  C   UNL A   1      44.756  23.925  31.140  1.00  0.00     0.029 A 
ATOM     21  C   UNL A   1      44.466  25.341  31.295  1.00  0.00     0.049 A 
ATOM     22  H   UNL A   1      43.496  26.573  29.907  1.00  0.00     0.167 HD
ATOM     23  C   UNL A   1      40.404  28.856  27.996  1.00  0.00     0.031 A 
ATOM     24  C   UNL A   1      44.745  26.166  32.331  1.00  0.00     0.031 A 
ATOM     25  C   UNL A   1      41.590  29.489  27.495  1.00  0.00     0.049 A 
ATOM     26  C   UNL A   1      44.572  27.563  31.870  1.00  0.00     0.074 A 
ATOM     27  C   UNL A   1      42.274  29.473  26.297  1.00  0.00     0.029 A 
ATOM     28  N   UNL A   1      42.443  30.070  28.402  1.00  0.00    -0.354 N 
ATOM     29  N   UNL A   1      45.338  28.139  30.987  1.00  0.00    -0.248 NA
ATOM     30  C   UNL A   1      43.309  28.236  32.126  1.00  0.00     0.031 C 
ATOM     31  C   UNL A   1      43.649  29.590  26.653  1.00  0.00     0.029 A 
ATOM     32  C   UNL A   1      43.714  29.697  28.043  1.00  0.00     0.049 A 
ATOM     33  H   UNL A   1      42.191  30.644  29.162  1.00  0.00     0.167 HD
ATOM     34  C   UNL A   1      44.504  28.998  30.290  1.00  0.00     0.074 A 
ATOM     35  C   UNL A   1      43.306  29.109  31.115  1.00  0.00     0.031 C 
ATOM     36  C   UNL A   1      44.750  29.324  28.985  1.00  0.00     0.031 A 
BRANCH  23  37
ATOM     37  C   UNL A   1      39.333  29.628  28.728  1.00  0.00    -0.014 A 
ATOM     38  C   UNL A   1      38.156  30.008  28.051  1.00  0.00     0.010 A 
ATOM     39  C   UNL A   1      39.566  30.217  29.989  1.00  0.00     0.010 A 
ATOM     40  C   UNL A   1      37.279  30.960  28.592  1.00  0.00     0.020 A 
ATOM     41  C   UNL A   1      38.678  31.133  30.556  1.00  0.00     0.020 A 
ATOM     42  C   UNL A   1      37.555  31.525  29.838  1.00  0.00     0.054 A 
BRANCH  42  43
ATOM     43  S   UNL A   1      36.478  32.831  30.483  1.00  0.00     0.124 S 
ATOM     44  O   UNL A   1      37.279  33.368  31.578  1.00  0.00    -0.237 OA
ATOM     45  O   UNL A   1      36.320  33.707  29.324  1.00  0.00    -0.237 OA
ATOM     46  O   UNL A   1      35.269  32.112  30.880  1.00  0.00    -0.744 OA
ENDBRANCH  42  43
ENDBRANCH  23  37
BRANCH  24  47
ATOM     47  C   UNL A   1      44.850  25.797  33.761  1.00  0.00    -0.014 A 
ATOM     48  C   UNL A   1      43.874  24.997  34.379  1.00  0.00     0.010 A 
ATOM     49  C   UNL A   1      46.057  26.022  34.459  1.00  0.00     0.010 A 
ATOM     50  C   UNL A   1      44.117  24.402  35.627  1.00  0.00     0.020 A 
ATOM     51  C   UNL A   1      46.301  25.443  35.706  1.00  0.00     0.020 A 
ATOM     52  C   UNL A   1      45.337  24.616  36.275  1.00  0.00     0.054 A 
BRANCH  52  53
ATOM     53  S   UNL A   1      45.712  23.705  37.801  1.00  0.00     0.124 S 
ATOM     54  O   UNL A   1      44.647  24.147  38.695  1.00  0.00    -0.237 OA
ATOM     55  O   UNL A   1      45.637  22.313  37.366  1.00  0.00    -0.237 OA
ATOM     56  O   UNL A   1      47.053  24.166  38.157  1.00  0.00    -0.744 OA
ENDBRANCH  52  53
ENDBRANCH  24  47
BRANCH  36  57
ATOM     57  C   UNL A   1      46.102  28.980  28.399  1.00  0.00    -0.014 A 
ATOM     58  C   UNL A   1      47.098  29.945  28.150  1.00  0.00     0.010 A 
ATOM     59  C   UNL A   1      46.435  27.622  28.241  1.00  0.00     0.010 A 
ATOM     60  C   UNL A   1      48.380  29.566  27.728  1.00  0.00     0.020 A 
ATOM     61  C   UNL A   1      47.718  27.236  27.838  1.00  0.00     0.020 A 
ATOM     62  C   UNL A   1      48.682  28.211  27.577  1.00  0.00     0.054 A 
BRANCH  62  63
ATOM     63  S   UNL A   1      50.365  27.727  27.096  1.00  0.00     0.124 S 
ATOM     64  O   UNL A   1      50.676  28.675  26.030  1.00  0.00    -0.237 OA
ATOM     65  O   UNL A   1      51.121  27.903  28.335  1.00  0.00    -0.237 OA
ATOM     66  O   UNL A   1      50.218  26.337  26.666  1.00  0.00    -0.744 OA
ENDBRANCH  62  63
ENDBRANCH  36  57
ENDBRANCH  10  11
ENDBRANCH   3   5
ENDBRANCH   2   3
ENDBRANCH   1   2
BRANCH   1  67
ATOM     67  C   UNL A   1      44.762  18.738  25.374  1.00  0.00     0.275 C 
BRANCH  67  68
ATOM     68  O   UNL A   1      44.836  20.073  24.864  1.00  0.00    -0.457 OA
BRANCH  68  69
ATOM     69  C   UNL A   1      46.087  20.606  24.773  1.00  0.00     0.358 C 
ATOM     70  O   UNL A   1      47.111  19.965  24.558  1.00  0.00    -0.244 OA
BRANCH  69  71
ATOM     71  C   UNL A   1      46.077  22.015  25.133  1.00  0.00     0.166 A 
ATOM     72  C   UNL A   1      46.272  23.059  24.250  1.00  0.00     0.130 A 
ATOM     73  N   UNL A   1      45.991  22.499  26.424  1.00  0.00    -0.229 NA
ATOM     74  N   UNL A   1      46.419  24.183  25.027  1.00  0.00    -0.289 N 
ATOM     75  C   UNL A   1      46.189  23.795  26.323  1.00  0.00     0.206 A 
BRANCH  74  76
ATOM     76  C   UNL A   1      46.819  25.471  24.601  1.00  0.00     0.142 A 
ATOM     77  C   UNL A   1      48.082  25.644  24.082  1.00  0.00     0.088 A 
ATOM     78  N   UNL A   1      45.949  26.490  24.776  1.00  0.00    -0.219 NA
ATOM     79  C   UNL A   1      48.401  26.939  23.769  1.00  0.00     0.134 A 
ATOM     80  C   UNL A   1      46.403  27.717  24.483  1.00  0.00     0.226 A 
ATOM     81  Cl  UNL A   1      49.917  27.305  23.050  1.00  0.00    -0.062 Cl
ATOM     82  N   UNL A   1      47.608  27.999  23.975  1.00  0.00    -0.224 NA
ENDBRANCH  74  76
ENDBRANCH  69  71
ENDBRANCH  68  69
ENDBRANCH  67  68
ENDBRANCH   1  67
TORSDOF 15
ENDMDL
