MODEL 1
REMARK VINA RESULT:      -9.8      0.000      0.000
REMARK SMILES O=C(CSc1nc(-c2cccc(F)c2)n[nH]1)OCCOC(=O)c1ccc(-c2c3nc(c(-c4ccc(S(=O)(=O)[O-])cc4)c4ccc([nH]4)c(-c4ccc(S(=O)(=O)[O-])cc4)c4nc(c(-c5ccc(S(=O)(=O)[O-])cc5)c5ccc2[nH]5)C=C4)C=C3)cc1
REMARK SMILES IDX 18 1 17 2 2 3 1 4 3 5 4 6 5 7 6 8 16 9 7 10 15 11 8 13 9 14
REMARK SMILES IDX 14 15 10 16 12 17 11 18 13 19 19 20 20 21 21 22 22 23 23 24
REMARK SMILES IDX 24 25 82 26 25 27 81 28 26 29 27 30 28 31 75 32 29 33 80 34
REMARK SMILES IDX 74 35 76 36 30 37 79 38 73 39 72 40 31 42 61 43 42 44 60 45
REMARK SMILES IDX 43 46 46 47 59 48 77 49 44 50 45 51 58 53 78 54 47 55 32 56
REMARK SMILES IDX 33 57 41 58 34 59 40 60 35 61 36 62 37 63 38 64 39 65 62 66
REMARK SMILES IDX 63 67 71 68 64 69 70 70 65 71 66 72 67 73 68 74 69 75 48 76
REMARK SMILES IDX 49 77 57 78 50 79 56 80 51 81 52 82 53 83 54 84 55 85
REMARK H PARENT 16 12 76 41 46 52
REMARK Flexibility Score: inf
ROOT
ATOM      1  C   UNL A   1      42.040  20.685  25.934  1.00  0.00     0.274 C 
ENDROOT
BRANCH   1   2
ATOM      2  O   UNL A   1      42.738  19.660  26.675  1.00  0.00    -0.461 OA
BRANCH   2   3
ATOM      3  C   UNL A   1      43.277  18.547  26.136  1.00  0.00     0.316 C 
ATOM      4  O   UNL A   1      43.007  17.436  26.599  1.00  0.00    -0.251 OA
BRANCH   3   5
ATOM      5  C   UNL A   1      44.164  18.643  24.919  1.00  0.00     0.200 C 
BRANCH   5   6
ATOM      6  S   UNL A   1      45.682  19.533  25.267  1.00  0.00    -0.075 SA
BRANCH   6   7
ATOM      7  C   UNL A   1      45.438  21.126  24.652  1.00  0.00     0.184 A 
ATOM      8  N   UNL A   1      45.741  22.210  25.317  1.00  0.00    -0.201 NA
ATOM      9  N   UNL A   1      44.820  21.467  23.486  1.00  0.00    -0.254 N 
ATOM     10  C   UNL A   1      45.224  23.216  24.540  1.00  0.00     0.182 A 
ATOM     11  N   UNL A   1      44.640  22.798  23.407  1.00  0.00    -0.153 NA
ATOM     12  H   UNL A   1      44.541  20.825  22.793  1.00  0.00     0.192 HD
BRANCH  10  13
ATOM     13  C   UNL A   1      45.209  24.587  25.008  1.00  0.00     0.024 A 
ATOM     14  C   UNL A   1      43.986  25.244  25.207  1.00  0.00     0.012 A 
ATOM     15  C   UNL A   1      46.408  25.285  25.184  1.00  0.00     0.051 A 
ATOM     16  C   UNL A   1      43.962  26.591  25.571  1.00  0.00     0.004 A 
ATOM     17  C   UNL A   1      46.369  26.630  25.527  1.00  0.00     0.123 A 
ATOM     18  C   UNL A   1      45.159  27.288  25.720  1.00  0.00     0.039 A 
ATOM     19  F   UNL A   1      47.516  27.312  25.651  1.00  0.00    -0.207 F 
ENDBRANCH  10  13
ENDBRANCH   6   7
ENDBRANCH   5   6
ENDBRANCH   3   5
ENDBRANCH   2   3
ENDBRANCH   1   2
BRANCH   1  20
ATOM     20  C   UNL A   1      40.541  20.658  26.240  1.00  0.00     0.275 C 
BRANCH  20  21
ATOM     21  O   UNL A   1      40.185  21.790  27.055  1.00  0.00    -0.458 OA
BRANCH  21  22
ATOM     22  C   UNL A   1      39.329  22.682  26.493  1.00  0.00     0.338 C 
ATOM     23  O   UNL A   1      38.371  22.421  25.787  1.00  0.00    -0.246 OA
BRANCH  22  24
ATOM     24  C   UNL A   1      39.595  24.026  27.063  1.00  0.00     0.060 A 
ATOM     25  C   UNL A   1      40.182  24.991  26.234  1.00  0.00     0.016 A 
ATOM     26  C   UNL A   1      39.225  24.358  28.371  1.00  0.00     0.016 A 
ATOM     27  C   UNL A   1      40.423  26.280  26.719  1.00  0.00     0.010 A 
ATOM     28  C   UNL A   1      39.468  25.646  28.855  1.00  0.00     0.010 A 
ATOM     29  C   UNL A   1      40.090  26.608  28.040  1.00  0.00    -0.014 A 
BRANCH  29  30
ATOM     30  C   UNL A   1      40.519  27.901  28.625  1.00  0.00     0.031 A 
ATOM     31  C   UNL A   1      41.915  28.021  29.173  1.00  0.00     0.074 A 
ATOM     32  C   UNL A   1      39.681  28.952  28.694  1.00  0.00     0.049 A 
ATOM     33  N   UNL A   1      42.493  29.042  29.750  1.00  0.00    -0.248 NA
ATOM     34  C   UNL A   1      42.768  26.826  29.059  1.00  0.00     0.031 C 
ATOM     35  C   UNL A   1      38.307  28.976  28.194  1.00  0.00     0.029 A 
ATOM     36  N   UNL A   1      39.866  30.202  29.232  1.00  0.00    -0.354 N 
ATOM     37  C   UNL A   1      43.776  28.616  30.068  1.00  0.00     0.074 A 
ATOM     38  C   UNL A   1      43.881  27.235  29.650  1.00  0.00     0.031 C 
ATOM     39  C   UNL A   1      37.767  30.179  28.463  1.00  0.00     0.029 A 
ATOM     40  C   UNL A   1      38.748  30.999  29.172  1.00  0.00     0.049 A 
ATOM     41  H   UNL A   1      40.719  30.498  29.623  1.00  0.00     0.167 HD
ATOM     42  C   UNL A   1      44.783  29.311  30.650  1.00  0.00     0.031 A 
ATOM     43  C   UNL A   1      38.533  32.242  29.651  1.00  0.00     0.031 A 
ATOM     44  C   UNL A   1      44.679  30.675  31.091  1.00  0.00     0.049 A 
ATOM     45  C   UNL A   1      39.647  32.976  30.353  1.00  0.00     0.074 A 
ATOM     46  C   UNL A   1      45.656  31.469  31.665  1.00  0.00     0.029 A 
ATOM     47  N   UNL A   1      43.527  31.442  31.026  1.00  0.00    -0.354 N 
ATOM     48  N   UNL A   1      40.875  32.581  30.589  1.00  0.00    -0.248 NA
ATOM     49  C   UNL A   1      39.346  34.328  30.847  1.00  0.00     0.031 C 
ATOM     50  C   UNL A   1      45.079  32.699  31.997  1.00  0.00     0.029 A 
ATOM     51  C   UNL A   1      43.758  32.689  31.579  1.00  0.00     0.049 A 
ATOM     52  H   UNL A   1      42.670  31.144  30.644  1.00  0.00     0.167 HD
ATOM     53  C   UNL A   1      41.500  33.646  31.232  1.00  0.00     0.074 A 
ATOM     54  C   UNL A   1      40.518  34.704  31.343  1.00  0.00     0.031 C 
ATOM     55  C   UNL A   1      42.775  33.739  31.685  1.00  0.00     0.031 A 
BRANCH  42  56
ATOM     56  C   UNL A   1      46.079  28.583  30.870  1.00  0.00    -0.014 A 
ATOM     57  C   UNL A   1      47.129  28.673  29.936  1.00  0.00     0.010 A 
ATOM     58  C   UNL A   1      46.255  27.808  32.029  1.00  0.00     0.010 A 
ATOM     59  C   UNL A   1      48.313  27.961  30.138  1.00  0.00     0.020 A 
ATOM     60  C   UNL A   1      47.448  27.115  32.246  1.00  0.00     0.020 A 
ATOM     61  C   UNL A   1      48.462  27.180  31.288  1.00  0.00     0.054 A 
BRANCH  61  62
ATOM     62  S   UNL A   1      50.007  26.262  31.523  1.00  0.00     0.124 S 
ATOM     63  O   UNL A   1      49.535  25.043  32.177  1.00  0.00    -0.237 OA
ATOM     64  O   UNL A   1      50.492  26.091  30.156  1.00  0.00    -0.237 OA
ATOM     65  O   UNL A   1      50.811  27.146  32.362  1.00  0.00    -0.744 OA
ENDBRANCH  61  62
ENDBRANCH  42  56
BRANCH  43  66
ATOM     66  C   UNL A   1      37.194  32.873  29.496  1.00  0.00    -0.014 A 
ATOM     67  C   UNL A   1      36.197  32.690  30.470  1.00  0.00     0.010 A 
ATOM     68  C   UNL A   1      36.910  33.659  28.364  1.00  0.00     0.010 A 
ATOM     69  C   UNL A   1      34.936  33.271  30.308  1.00  0.00     0.020 A 
ATOM     70  C   UNL A   1      35.658  34.260  28.211  1.00  0.00     0.020 A 
ATOM     71  C   UNL A   1      34.675  34.053  29.180  1.00  0.00     0.054 A 
BRANCH  71  72
ATOM     72  S   UNL A   1      33.048  34.841  29.013  1.00  0.00     0.124 S 
ATOM     73  O   UNL A   1      33.402  36.162  28.504  1.00  0.00    -0.237 OA
ATOM     74  O   UNL A   1      32.364  33.960  28.069  1.00  0.00    -0.237 OA
ATOM     75  O   UNL A   1      32.516  34.816  30.374  1.00  0.00    -0.744 OA
ENDBRANCH  71  72
ENDBRANCH  43  66
BRANCH  55  76
ATOM     76  C   UNL A   1      43.205  35.036  32.319  1.00  0.00    -0.014 A 
ATOM     77  C   UNL A   1      43.781  36.066  31.556  1.00  0.00     0.010 A 
ATOM     78  C   UNL A   1      42.953  35.255  33.686  1.00  0.00     0.010 A 
ATOM     79  C   UNL A   1      44.111  37.287  32.150  1.00  0.00     0.020 A 
ATOM     80  C   UNL A   1      43.261  36.483  34.280  1.00  0.00     0.020 A 
ATOM     81  C   UNL A   1      43.848  37.488  33.510  1.00  0.00     0.054 A 
BRANCH  81  82
ATOM     82  S   UNL A   1      44.226  39.104  34.245  1.00  0.00     0.124 S 
ATOM     83  O   UNL A   1      45.482  39.451  33.587  1.00  0.00    -0.237 OA
ATOM     84  O   UNL A   1      43.071  39.911  33.862  1.00  0.00    -0.237 OA
ATOM     85  O   UNL A   1      44.329  38.817  35.675  1.00  0.00    -0.744 OA
ENDBRANCH  81  82
ENDBRANCH  55  76
ENDBRANCH  29  30
ENDBRANCH  22  24
ENDBRANCH  21  22
ENDBRANCH  20  21
ENDBRANCH   1  20
TORSDOF 17
ENDMDL
MODEL 2
REMARK VINA RESULT:      -9.7      4.310      9.640
REMARK SMILES O=C(CSc1nc(-c2cccc(F)c2)n[nH]1)OCCOC(=O)c1ccc(-c2c3nc(c(-c4ccc(S(=O)(=O)[O-])cc4)c4ccc([nH]4)c(-c4ccc(S(=O)(=O)[O-])cc4)c4nc(c(-c5ccc(S(=O)(=O)[O-])cc5)c5ccc2[nH]5)C=C4)C=C3)cc1
REMARK SMILES IDX 18 1 17 2 2 3 1 4 3 5 4 6 5 7 6 8 16 9 7 10 15 11 8 13 9 14
REMARK SMILES IDX 14 15 10 16 12 17 11 18 13 19 19 20 20 21 21 22 22 23 23 24
REMARK SMILES IDX 24 25 82 26 25 27 81 28 26 29 27 30 28 31 75 32 29 33 80 34
REMARK SMILES IDX 74 35 76 36 30 37 79 38 73 39 72 40 31 42 61 43 42 44 60 45
REMARK SMILES IDX 43 46 46 47 59 48 77 49 44 50 45 51 58 53 78 54 47 55 32 56
REMARK SMILES IDX 33 57 41 58 34 59 40 60 35 61 36 62 37 63 38 64 39 65 62 66
REMARK SMILES IDX 63 67 71 68 64 69 70 70 65 71 66 72 67 73 68 74 69 75 48 76
REMARK SMILES IDX 49 77 57 78 50 79 56 80 51 81 52 82 53 83 54 84 55 85
REMARK H PARENT 16 12 76 41 46 52
REMARK Flexibility Score: inf
ROOT
ATOM      1  C   UNL A   1      43.979  22.303  25.645  1.00  0.00     0.274 C 
ENDROOT
BRANCH   1   2
ATOM      2  O   UNL A   1      44.207  21.506  24.462  1.00  0.00    -0.461 OA
BRANCH   2   3
ATOM      3  C   UNL A   1      44.366  20.166  24.450  1.00  0.00     0.316 C 
ATOM      4  O   UNL A   1      44.487  19.562  23.382  1.00  0.00    -0.251 OA
BRANCH   3   5
ATOM      5  C   UNL A   1      44.464  19.400  25.746  1.00  0.00     0.200 C 
BRANCH   5   6
ATOM      6  S   UNL A   1      42.990  18.426  26.060  1.00  0.00    -0.075 SA
BRANCH   6   7
ATOM      7  C   UNL A   1      41.817  19.540  26.660  1.00  0.00     0.184 A 
ATOM      8  N   UNL A   1      40.849  20.030  25.930  1.00  0.00    -0.201 NA
ATOM      9  N   UNL A   1      41.799  20.126  27.890  1.00  0.00    -0.254 N 
ATOM     10  C   UNL A   1      40.287  20.982  26.743  1.00  0.00     0.182 A 
ATOM     11  N   UNL A   1      40.851  21.078  27.957  1.00  0.00    -0.153 NA
ATOM     12  H   UNL A   1      42.401  19.885  28.632  1.00  0.00     0.192 HD
BRANCH  10  13
ATOM     13  C   UNL A   1      39.265  21.879  26.244  1.00  0.00     0.024 A 
ATOM     14  C   UNL A   1      39.236  23.214  26.676  1.00  0.00     0.012 A 
ATOM     15  C   UNL A   1      38.259  21.402  25.399  1.00  0.00     0.051 A 
ATOM     16  C   UNL A   1      38.204  24.062  26.272  1.00  0.00     0.004 A 
ATOM     17  C   UNL A   1      37.227  22.251  25.020  1.00  0.00     0.123 A 
ATOM     18  C   UNL A   1      37.190  23.574  25.450  1.00  0.00     0.039 A 
ATOM     19  F   UNL A   1      36.238  21.783  24.247  1.00  0.00    -0.207 F 
ENDBRANCH  10  13
ENDBRANCH   6   7
ENDBRANCH   5   6
ENDBRANCH   3   5
ENDBRANCH   2   3
ENDBRANCH   1   2
BRANCH   1  20
ATOM     20  C   UNL A   1      42.735  23.179  25.484  1.00  0.00     0.275 C 
BRANCH  20  21
ATOM     21  O   UNL A   1      42.720  24.202  26.497  1.00  0.00    -0.458 OA
BRANCH  21  22
ATOM     22  C   UNL A   1      42.462  25.463  26.065  1.00  0.00     0.338 C 
ATOM     23  O   UNL A   1      42.377  25.829  24.906  1.00  0.00    -0.246 OA
BRANCH  22  24
ATOM     24  C   UNL A   1      42.062  26.295  27.227  1.00  0.00     0.060 A 
ATOM     25  C   UNL A   1      42.696  27.532  27.404  1.00  0.00     0.016 A 
ATOM     26  C   UNL A   1      41.043  25.900  28.100  1.00  0.00     0.016 A 
ATOM     27  C   UNL A   1      42.331  28.363  28.467  1.00  0.00     0.010 A 
ATOM     28  C   UNL A   1      40.680  26.731  29.163  1.00  0.00     0.010 A 
ATOM     29  C   UNL A   1      41.337  27.956  29.367  1.00  0.00    -0.014 A 
BRANCH  29  30
ATOM     30  C   UNL A   1      41.080  28.732  30.605  1.00  0.00     0.031 A 
ATOM     31  C   UNL A   1      39.970  29.747  30.606  1.00  0.00     0.074 A 
ATOM     32  C   UNL A   1      41.832  28.561  31.708  1.00  0.00     0.049 A 
ATOM     33  N   UNL A   1      39.585  30.551  31.562  1.00  0.00    -0.248 NA
ATOM     34  C   UNL A   1      39.196  29.872  29.360  1.00  0.00     0.031 C 
ATOM     35  C   UNL A   1      42.931  27.607  31.847  1.00  0.00     0.029 A 
ATOM     36  N   UNL A   1      41.787  29.203  32.921  1.00  0.00    -0.354 N 
ATOM     37  C   UNL A   1      38.526  31.280  31.035  1.00  0.00     0.074 A 
ATOM     38  C   UNL A   1      38.350  30.845  29.667  1.00  0.00     0.031 C 
ATOM     39  C   UNL A   1      43.467  27.737  33.074  1.00  0.00     0.029 A 
ATOM     40  C   UNL A   1      42.766  28.797  33.796  1.00  0.00     0.049 A 
ATOM     41  H   UNL A   1      41.117  29.889  33.143  1.00  0.00     0.167 HD
ATOM     42  C   UNL A   1      37.760  32.222  31.637  1.00  0.00     0.031 A 
ATOM     43  C   UNL A   1      43.073  29.241  35.033  1.00  0.00     0.031 A 
ATOM     44  C   UNL A   1      37.945  32.678  32.986  1.00  0.00     0.049 A 
ATOM     45  C   UNL A   1      42.249  30.337  35.660  1.00  0.00     0.074 A 
ATOM     46  C   UNL A   1      37.199  33.609  33.688  1.00  0.00     0.029 A 
ATOM     47  N   UNL A   1      38.955  32.253  33.835  1.00  0.00    -0.354 N 
ATOM     48  N   UNL A   1      41.210  30.970  35.172  1.00  0.00    -0.248 NA
ATOM     49  C   UNL A   1      42.636  30.771  37.011  1.00  0.00     0.031 C 
ATOM     50  C   UNL A   1      37.792  33.787  34.943  1.00  0.00     0.029 A 
ATOM     51  C   UNL A   1      38.873  32.926  35.041  1.00  0.00     0.049 A 
ATOM     52  H   UNL A   1      39.632  31.574  33.612  1.00  0.00     0.167 HD
ATOM     53  C   UNL A   1      40.803  31.856  36.165  1.00  0.00     0.074 A 
ATOM     54  C   UNL A   1      41.703  31.673  37.285  1.00  0.00     0.031 C 
ATOM     55  C   UNL A   1      39.772  32.737  36.152  1.00  0.00     0.031 A 
BRANCH  42  56
ATOM     56  C   UNL A   1      36.669  32.845  30.812  1.00  0.00    -0.014 A 
ATOM     57  C   UNL A   1      36.960  33.829  29.849  1.00  0.00     0.010 A 
ATOM     58  C   UNL A   1      35.337  32.434  30.995  1.00  0.00     0.010 A 
ATOM     59  C   UNL A   1      35.930  34.424  29.117  1.00  0.00     0.020 A 
ATOM     60  C   UNL A   1      34.307  33.009  30.245  1.00  0.00     0.020 A 
ATOM     61  C   UNL A   1      34.609  34.015  29.326  1.00  0.00     0.054 A 
BRANCH  61  62
ATOM     62  S   UNL A   1      33.291  34.807  28.366  1.00  0.00     0.124 S 
ATOM     63  O   UNL A   1      34.054  35.642  27.441  1.00  0.00    -0.237 OA
ATOM     64  O   UNL A   1      32.603  33.669  27.762  1.00  0.00    -0.237 OA
ATOM     65  O   UNL A   1      32.521  35.536  29.370  1.00  0.00    -0.744 OA
ENDBRANCH  61  62
ENDBRANCH  42  56
BRANCH  43  66
ATOM     66  C   UNL A   1      44.233  28.658  35.761  1.00  0.00    -0.014 A 
ATOM     67  C   UNL A   1      44.075  27.519  36.569  1.00  0.00     0.010 A 
ATOM     68  C   UNL A   1      45.505  29.249  35.651  1.00  0.00     0.010 A 
ATOM     69  C   UNL A   1      45.165  26.989  37.265  1.00  0.00     0.020 A 
ATOM     70  C   UNL A   1      46.602  28.708  36.327  1.00  0.00     0.020 A 
ATOM     71  C   UNL A   1      46.422  27.587  37.138  1.00  0.00     0.054 A 
BRANCH  71  72
ATOM     72  S   UNL A   1      47.837  26.853  38.009  1.00  0.00     0.124 S 
ATOM     73  O   UNL A   1      47.581  27.250  39.390  1.00  0.00    -0.237 OA
ATOM     74  O   UNL A   1      47.682  25.429  37.720  1.00  0.00    -0.237 OA
ATOM     75  O   UNL A   1      48.991  27.487  37.378  1.00  0.00    -0.744 OA
ENDBRANCH  71  72
ENDBRANCH  43  66
BRANCH  55  76
ATOM     76  C   UNL A   1      39.532  33.559  37.391  1.00  0.00    -0.014 A 
ATOM     77  C   UNL A   1      38.670  33.113  38.408  1.00  0.00     0.010 A 
ATOM     78  C   UNL A   1      40.245  34.759  37.576  1.00  0.00     0.010 A 
ATOM     79  C   UNL A   1      38.512  33.858  39.579  1.00  0.00     0.020 A 
ATOM     80  C   UNL A   1      40.107  35.496  38.756  1.00  0.00     0.020 A 
ATOM     81  C   UNL A   1      39.233  35.046  39.747  1.00  0.00     0.054 A 
BRANCH  81  82
ATOM     82  S   UNL A   1      39.061  35.963  41.303  1.00  0.00     0.124 S 
ATOM     83  O   UNL A   1      37.868  35.355  41.884  1.00  0.00    -0.237 OA
ATOM     84  O   UNL A   1      40.315  35.669  41.991  1.00  0.00    -0.237 OA
ATOM     85  O   UNL A   1      38.907  37.351  40.872  1.00  0.00    -0.744 OA
ENDBRANCH  81  82
ENDBRANCH  55  76
ENDBRANCH  29  30
ENDBRANCH  22  24
ENDBRANCH  21  22
ENDBRANCH  20  21
ENDBRANCH   1  20
TORSDOF 17
ENDMDL
MODEL 3
REMARK VINA RESULT:      -9.6      2.876     11.518
REMARK SMILES O=C(CSc1nc(-c2cccc(F)c2)n[nH]1)OCCOC(=O)c1ccc(-c2c3nc(c(-c4ccc(S(=O)(=O)[O-])cc4)c4ccc([nH]4)c(-c4ccc(S(=O)(=O)[O-])cc4)c4nc(c(-c5ccc(S(=O)(=O)[O-])cc5)c5ccc2[nH]5)C=C4)C=C3)cc1
REMARK SMILES IDX 18 1 17 2 2 3 1 4 3 5 4 6 5 7 6 8 16 9 7 10 15 11 8 13 9 14
REMARK SMILES IDX 14 15 10 16 12 17 11 18 13 19 19 20 20 21 21 22 22 23 23 24
REMARK SMILES IDX 24 25 82 26 25 27 81 28 26 29 27 30 28 31 75 32 29 33 80 34
REMARK SMILES IDX 74 35 76 36 30 37 79 38 73 39 72 40 31 42 61 43 42 44 60 45
REMARK SMILES IDX 43 46 46 47 59 48 77 49 44 50 45 51 58 53 78 54 47 55 32 56
REMARK SMILES IDX 33 57 41 58 34 59 40 60 35 61 36 62 37 63 38 64 39 65 62 66
REMARK SMILES IDX 63 67 71 68 64 69 70 70 65 71 66 72 67 73 68 74 69 75 48 76
REMARK SMILES IDX 49 77 57 78 50 79 56 80 51 81 52 82 53 83 54 84 55 85
REMARK H PARENT 16 12 76 41 46 52
REMARK Flexibility Score: inf
ROOT
ATOM      1  C   UNL A   1      33.568  34.267  28.718  1.00  0.00     0.274 C 
ENDROOT
BRANCH   1   2
ATOM      2  O   UNL A   1      34.560  34.178  29.764  1.00  0.00    -0.461 OA
BRANCH   2   3
ATOM      3  C   UNL A   1      34.330  34.416  31.072  1.00  0.00     0.316 C 
ATOM      4  O   UNL A   1      33.179  34.582  31.482  1.00  0.00    -0.251 OA
BRANCH   3   5
ATOM      5  C   UNL A   1      35.471  34.416  32.058  1.00  0.00     0.200 C 
BRANCH   5   6
ATOM      6  S   UNL A   1      35.216  33.226  33.377  1.00  0.00    -0.075 SA
BRANCH   6   7
ATOM      7  C   UNL A   1      36.790  32.664  33.805  1.00  0.00     0.184 A 
ATOM      8  N   UNL A   1      37.428  31.734  33.144  1.00  0.00    -0.201 NA
ATOM      9  N   UNL A   1      37.512  33.014  34.907  1.00  0.00    -0.254 N 
ATOM     10  C   UNL A   1      38.531  31.487  33.924  1.00  0.00     0.182 A 
ATOM     11  N   UNL A   1      38.614  32.250  35.024  1.00  0.00    -0.153 NA
ATOM     12  H   UNL A   1      37.261  33.730  35.535  1.00  0.00     0.192 HD
BRANCH  10  13
ATOM     13  C   UNL A   1      39.428  30.392  33.619  1.00  0.00     0.024 A 
ATOM     14  C   UNL A   1      38.936  29.239  32.992  1.00  0.00     0.012 A 
ATOM     15  C   UNL A   1      40.767  30.445  34.023  1.00  0.00     0.051 A 
ATOM     16  C   UNL A   1      39.773  28.143  32.776  1.00  0.00     0.004 A 
ATOM     17  C   UNL A   1      41.583  29.340  33.819  1.00  0.00     0.123 A 
ATOM     18  C   UNL A   1      41.099  28.191  33.202  1.00  0.00     0.039 A 
ATOM     19  F   UNL A   1      42.853  29.372  34.245  1.00  0.00    -0.207 F 
ENDBRANCH  10  13
ENDBRANCH   6   7
ENDBRANCH   5   6
ENDBRANCH   3   5
ENDBRANCH   2   3
ENDBRANCH   1   2
BRANCH   1  20
ATOM     20  C   UNL A   1      33.486  32.959  27.927  1.00  0.00     0.275 C 
BRANCH  20  21
ATOM     21  O   UNL A   1      34.736  32.251  28.018  1.00  0.00    -0.458 OA
BRANCH  21  22
ATOM     22  C   UNL A   1      34.657  30.896  27.974  1.00  0.00     0.338 C 
ATOM     23  O   UNL A   1      33.703  30.238  27.600  1.00  0.00    -0.246 OA
BRANCH  22  24
ATOM     24  C   UNL A   1      36.004  30.330  28.231  1.00  0.00     0.060 A 
ATOM     25  C   UNL A   1      36.273  29.818  29.508  1.00  0.00     0.016 A 
ATOM     26  C   UNL A   1      36.973  30.246  27.226  1.00  0.00     0.016 A 
ATOM     27  C   UNL A   1      37.518  29.246  29.787  1.00  0.00     0.010 A 
ATOM     28  C   UNL A   1      38.217  29.676  27.507  1.00  0.00     0.010 A 
ATOM     29  C   UNL A   1      38.506  29.194  28.795  1.00  0.00    -0.014 A 
BRANCH  29  30
ATOM     30  C   UNL A   1      39.888  28.775  29.132  1.00  0.00     0.031 A 
ATOM     31  C   UNL A   1      40.808  29.771  29.784  1.00  0.00     0.074 A 
ATOM     32  C   UNL A   1      40.335  27.539  28.844  1.00  0.00     0.049 A 
ATOM     33  N   UNL A   1      42.058  29.631  30.141  1.00  0.00    -0.248 NA
ATOM     34  C   UNL A   1      40.242  31.100  30.064  1.00  0.00     0.031 C 
ATOM     35  C   UNL A   1      39.548  26.474  28.223  1.00  0.00     0.029 A 
ATOM     36  N   UNL A   1      41.575  26.977  29.029  1.00  0.00    -0.354 N 
ATOM     37  C   UNL A   1      42.430  30.853  30.688  1.00  0.00     0.074 A 
ATOM     38  C   UNL A   1      41.284  31.730  30.585  1.00  0.00     0.031 C 
ATOM     39  C   UNL A   1      40.330  25.392  28.063  1.00  0.00     0.029 A 
ATOM     40  C   UNL A   1      41.676  25.694  28.549  1.00  0.00     0.049 A 
ATOM     41  H   UNL A   1      42.320  27.451  29.463  1.00  0.00     0.167 HD
ATOM     42  C   UNL A   1      43.616  31.214  31.235  1.00  0.00     0.031 A 
ATOM     43  C   UNL A   1      42.737  24.862  28.492  1.00  0.00     0.031 A 
ATOM     44  C   UNL A   1      44.766  30.358  31.317  1.00  0.00     0.049 A 
ATOM     45  C   UNL A   1      44.066  25.306  29.047  1.00  0.00     0.074 A 
ATOM     46  C   UNL A   1      46.001  30.630  31.880  1.00  0.00     0.029 A 
ATOM     47  N   UNL A   1      44.833  29.070  30.808  1.00  0.00    -0.354 N 
ATOM     48  N   UNL A   1      44.383  26.443  29.619  1.00  0.00    -0.248 NA
ATOM     49  C   UNL A   1      45.180  24.349  28.956  1.00  0.00     0.031 C 
ATOM     50  C   UNL A   1      46.832  29.526  31.662  1.00  0.00     0.029 A 
ATOM     51  C   UNL A   1      46.097  28.547  31.013  1.00  0.00     0.049 A 
ATOM     52  H   UNL A   1      44.091  28.599  30.365  1.00  0.00     0.167 HD
ATOM     53  C   UNL A   1      45.723  26.327  29.980  1.00  0.00     0.074 A 
ATOM     54  C   UNL A   1      46.155  25.007  29.569  1.00  0.00     0.031 C 
ATOM     55  C   UNL A   1      46.520  27.231  30.602  1.00  0.00     0.031 A 
BRANCH  42  56
ATOM     56  C   UNL A   1      43.729  32.619  31.757  1.00  0.00    -0.014 A 
ATOM     57  C   UNL A   1      44.141  33.673  30.920  1.00  0.00     0.010 A 
ATOM     58  C   UNL A   1      43.408  32.891  33.098  1.00  0.00     0.010 A 
ATOM     59  C   UNL A   1      44.276  34.966  31.430  1.00  0.00     0.020 A 
ATOM     60  C   UNL A   1      43.518  34.189  33.605  1.00  0.00     0.020 A 
ATOM     61  C   UNL A   1      43.971  35.214  32.772  1.00  0.00     0.054 A 
BRANCH  61  62
ATOM     62  S   UNL A   1      44.159  36.900  33.410  1.00  0.00     0.124 S 
ATOM     63  O   UNL A   1      45.258  36.739  34.360  1.00  0.00    -0.237 OA
ATOM     64  O   UNL A   1      44.476  37.666  32.208  1.00  0.00    -0.237 OA
ATOM     65  O   UNL A   1      42.859  37.191  34.008  1.00  0.00    -0.744 OA
ENDBRANCH  61  62
ENDBRANCH  42  56
BRANCH  43  66
ATOM     66  C   UNL A   1      42.591  23.519  27.867  1.00  0.00    -0.014 A 
ATOM     67  C   UNL A   1      42.832  23.335  26.494  1.00  0.00     0.010 A 
ATOM     68  C   UNL A   1      42.204  22.415  28.648  1.00  0.00     0.010 A 
ATOM     69  C   UNL A   1      42.674  22.075  25.911  1.00  0.00     0.020 A 
ATOM     70  C   UNL A   1      42.069  21.149  28.073  1.00  0.00     0.020 A 
ATOM     71  C   UNL A   1      42.295  20.989  26.705  1.00  0.00     0.054 A 
BRANCH  71  72
ATOM     72  S   UNL A   1      42.146  19.350  25.939  1.00  0.00     0.124 S 
ATOM     73  O   UNL A   1      42.636  18.475  27.000  1.00  0.00    -0.237 OA
ATOM     74  O   UNL A   1      40.716  19.262  25.654  1.00  0.00    -0.237 OA
ATOM     75  O   UNL A   1      43.003  19.445  24.760  1.00  0.00    -0.744 OA
ENDBRANCH  71  72
ENDBRANCH  43  66
BRANCH  55  76
ATOM     76  C   UNL A   1      47.938  26.827  30.909  1.00  0.00    -0.014 A 
ATOM     77  C   UNL A   1      49.003  27.208  30.075  1.00  0.00     0.010 A 
ATOM     78  C   UNL A   1      48.216  26.123  32.096  1.00  0.00     0.010 A 
ATOM     79  C   UNL A   1      50.319  26.880  30.412  1.00  0.00     0.020 A 
ATOM     80  C   UNL A   1      49.533  25.813  32.449  1.00  0.00     0.020 A 
ATOM     81  C   UNL A   1      50.576  26.185  31.599  1.00  0.00     0.054 A 
BRANCH  81  82
ATOM     82  S   UNL A   1      52.297  25.827  32.049  1.00  0.00     0.124 S 
ATOM     83  O   UNL A   1      53.026  26.331  30.889  1.00  0.00    -0.237 OA
ATOM     84  O   UNL A   1      52.473  26.590  33.282  1.00  0.00    -0.237 OA
ATOM     85  O   UNL A   1      52.316  24.375  32.216  1.00  0.00    -0.744 OA
ENDBRANCH  81  82
ENDBRANCH  55  76
ENDBRANCH  29  30
ENDBRANCH  22  24
ENDBRANCH  21  22
ENDBRANCH  20  21
ENDBRANCH   1  20
TORSDOF 17
ENDMDL
