MODEL 1
REMARK VINA RESULT:      -9.0      0.000      0.000
REMARK SMILES CCCCCCCCNC(=O)Oc1cccc(-c2ccc([C@@H](C)C(=O)OCCOC(=O)c3ccc(-c4c5nc(c(-c6ccc(S(=O)(=O)[O-])cc6)c6ccc([nH]6)c(-c6ccc(S(=O)(=O)[O-])cc6)c6nc(c(-c7ccc(S(=O)(=O)[O-])cc7)c7ccc4[nH]7)C=C6)C=C5)cc3)cc2F)c1
REMARK SMILES IDX 18 1 19 2 20 3 21 4 92 5 93 6 94 7 17 8 13 9 14 10 95 11
REMARK SMILES IDX 15 12 16 13 12 14 10 15 9 16 11 18 8 19 7 20 6 21 5 22 4 23
REMARK SMILES IDX 3 24 2 25 1 26 22 27 23 28 24 29 25 30 26 31 27 32 28 33
REMARK SMILES IDX 29 34 30 35 31 36 32 37 33 38 91 39 34 40 90 41 35 42 36 43
REMARK SMILES IDX 37 44 84 45 38 46 89 47 83 48 85 49 39 50 88 51 82 52 81 53
REMARK SMILES IDX 40 55 70 56 51 57 69 58 52 59 55 60 68 61 86 62 53 63 54 64
REMARK SMILES IDX 67 66 87 67 56 68 41 69 42 70 50 71 43 72 49 73 44 74 45 75
REMARK SMILES IDX 46 76 47 77 48 78 71 79 72 80 80 81 73 82 79 83 74 84 75 85
REMARK SMILES IDX 76 86 77 87 78 88 57 89 58 90 66 91 59 92 65 93 60 94 61 95
REMARK SMILES IDX 62 96 63 97 64 98
REMARK H PARENT 9 17 85 54 55 65
REMARK Flexibility Score: inf
ROOT
ATOM      1  C   UNL A   1      32.874  31.056  27.150  1.00  0.00     0.018 A 
ATOM      2  C   UNL A   1      32.079  32.211  27.076  1.00  0.00     0.012 A 
ATOM      3  C   UNL A   1      32.480  33.411  27.675  1.00  0.00     0.005 A 
ATOM      4  C   UNL A   1      33.689  33.494  28.380  1.00  0.00    -0.031 A 
ATOM      5  C   UNL A   1      34.484  32.342  28.462  1.00  0.00     0.044 A 
ATOM      6  C   UNL A   1      34.078  31.150  27.860  1.00  0.00     0.131 A 
ATOM      7  F   UNL A   1      34.895  30.089  27.954  1.00  0.00    -0.206 F 
ENDROOT
BRANCH   1   8
ATOM      8  C   UNL A   1      32.457  29.808  26.488  1.00  0.00    -0.012 A 
ATOM      9  C   UNL A   1      32.240  28.421  24.509  1.00  0.00     0.133 A 
ATOM     10  C   UNL A   1      31.608  27.421  25.241  1.00  0.00     0.047 A 
ATOM     11  C   UNL A   1      32.653  29.611  25.112  1.00  0.00     0.056 A 
ATOM     12  C   UNL A   1      31.408  27.600  26.606  1.00  0.00     0.004 A 
ATOM     13  C   UNL A   1      31.829  28.782  27.221  1.00  0.00     0.009 A 
BRANCH   9  14
ATOM     14  O   UNL A   1      32.318  28.242  23.120  1.00  0.00    -0.410 OA
BRANCH  14  15
ATOM     15  C   UNL A   1      31.248  27.630  22.486  1.00  0.00     0.412 C 
ATOM     16  N   UNL A   1      31.603  26.481  21.832  1.00  0.00    -0.321 N 
ATOM     17  H   UNL A   1      30.881  25.997  21.370  1.00  0.00     0.167 HD
ATOM     18  O   UNL A   1      30.095  28.043  22.456  1.00  0.00    -0.224 OA
BRANCH  16  19
ATOM     19  C   UNL A   1      32.929  25.902  21.750  1.00  0.00     0.119 C 
BRANCH  19  20
ATOM     20  C   UNL A   1      32.896  24.378  21.649  1.00  0.00     0.021 C 
BRANCH  20  21
ATOM     21  C   UNL A   1      33.327  23.635  22.920  1.00  0.00     0.002 C 
BRANCH  21  22
ATOM     22  C   UNL A   1      32.762  24.188  24.233  1.00  0.00     0.000 C 
BRANCH  22  23
ATOM     23  C   UNL A   1      33.808  24.550  25.292  1.00  0.00    -0.000 C 
BRANCH  23  24
ATOM     24  C   UNL A   1      34.678  23.385  25.776  1.00  0.00    -0.000 C 
BRANCH  24  25
ATOM     25  C   UNL A   1      33.912  22.175  26.321  1.00  0.00    -0.003 C 
ATOM     26  C   UNL A   1      34.413  20.846  25.777  1.00  0.00     0.004 C 
ENDBRANCH  24  25
ENDBRANCH  23  24
ENDBRANCH  22  23
ENDBRANCH  21  22
ENDBRANCH  20  21
ENDBRANCH  19  20
ENDBRANCH  16  19
ENDBRANCH  14  15
ENDBRANCH   9  14
ENDBRANCH   1   8
BRANCH   4  27
ATOM     27  C   UNL A   1      34.151  34.783  29.045  1.00  0.00     0.126 C 
ATOM     28  C   UNL A   1      34.378  35.908  28.038  1.00  0.00     0.025 C 
BRANCH  27  29
ATOM     29  C   UNL A   1      33.292  35.285  30.200  1.00  0.00     0.313 C 
ATOM     30  O   UNL A   1      32.562  36.266  30.090  1.00  0.00    -0.252 OA
BRANCH  29  31
ATOM     31  O   UNL A   1      33.377  34.522  31.321  1.00  0.00    -0.462 OA
BRANCH  31  32
ATOM     32  C   UNL A   1      34.689  34.340  31.885  1.00  0.00     0.274 C 
BRANCH  32  33
ATOM     33  C   UNL A   1      34.875  32.917  32.417  1.00  0.00     0.275 C 
BRANCH  33  34
ATOM     34  O   UNL A   1      35.412  32.044  31.407  1.00  0.00    -0.458 OA
BRANCH  34  35
ATOM     35  C   UNL A   1      36.250  31.086  31.868  1.00  0.00     0.338 C 
ATOM     36  O   UNL A   1      35.947  30.036  32.407  1.00  0.00    -0.246 OA
BRANCH  35  37
ATOM     37  C   UNL A   1      37.633  31.431  31.512  1.00  0.00     0.060 A 
ATOM     38  C   UNL A   1      37.865  32.021  30.268  1.00  0.00     0.016 A 
ATOM     39  C   UNL A   1      38.696  31.099  32.352  1.00  0.00     0.016 A 
ATOM     40  C   UNL A   1      39.166  32.271  29.846  1.00  0.00     0.010 A 
ATOM     41  C   UNL A   1      40.004  31.364  31.933  1.00  0.00     0.010 A 
ATOM     42  C   UNL A   1      40.246  31.938  30.672  1.00  0.00    -0.014 A 
BRANCH  42  43
ATOM     43  C   UNL A   1      41.632  32.159  30.196  1.00  0.00     0.031 A 
ATOM     44  C   UNL A   1      42.290  33.495  30.396  1.00  0.00     0.074 A 
ATOM     45  C   UNL A   1      42.300  31.155  29.597  1.00  0.00     0.049 A 
ATOM     46  N   UNL A   1      43.460  33.907  29.984  1.00  0.00    -0.248 NA
ATOM     47  C   UNL A   1      41.530  34.497  31.160  1.00  0.00     0.031 C 
ATOM     48  C   UNL A   1      41.783  29.802  29.387  1.00  0.00     0.029 A 
ATOM     49  N   UNL A   1      43.560  31.121  29.053  1.00  0.00    -0.354 N 
ATOM     50  C   UNL A   1      43.570  35.224  30.414  1.00  0.00     0.074 A 
ATOM     51  C   UNL A   1      42.341  35.545  31.110  1.00  0.00     0.031 C 
ATOM     52  C   UNL A   1      42.718  29.068  28.762  1.00  0.00     0.029 A 
ATOM     53  C   UNL A   1      43.878  29.911  28.485  1.00  0.00     0.049 A 
ATOM     54  H   UNL A   1      44.176  31.888  29.070  1.00  0.00     0.167 HD
ATOM     55  C   UNL A   1      44.600  36.088  30.242  1.00  0.00     0.031 A 
ATOM     56  C   UNL A   1      44.969  29.531  27.791  1.00  0.00     0.031 A 
ATOM     57  C   UNL A   1      45.819  35.762  29.550  1.00  0.00     0.049 A 
ATOM     58  C   UNL A   1      46.077  30.523  27.566  1.00  0.00     0.074 A 
ATOM     59  C   UNL A   1      46.926  36.563  29.331  1.00  0.00     0.029 A 
ATOM     60  N   UNL A   1      46.092  34.535  28.963  1.00  0.00    -0.354 N 
ATOM     61  N   UNL A   1      46.162  31.767  27.975  1.00  0.00    -0.248 NA
ATOM     62  C   UNL A   1      47.231  30.062  26.785  1.00  0.00     0.031 C 
ATOM     63  C   UNL A   1      47.851  35.835  28.573  1.00  0.00     0.029 A 
ATOM     64  C   UNL A   1      47.340  34.563  28.363  1.00  0.00     0.049 A 
ATOM     65  H   UNL A   1      45.487  33.758  28.972  1.00  0.00     0.167 HD
ATOM     66  C   UNL A   1      47.389  32.232  27.515  1.00  0.00     0.074 A 
ATOM     67  C   UNL A   1      48.016  31.131  26.809  1.00  0.00     0.031 C 
ATOM     68  C   UNL A   1      47.946  33.459  27.662  1.00  0.00     0.031 A 
BRANCH  55  69
ATOM     69  C   UNL A   1      44.430  37.484  30.777  1.00  0.00    -0.014 A 
ATOM     70  C   UNL A   1      44.829  37.820  32.083  1.00  0.00     0.010 A 
ATOM     71  C   UNL A   1      43.885  38.482  29.949  1.00  0.00     0.010 A 
ATOM     72  C   UNL A   1      44.646  39.120  32.566  1.00  0.00     0.020 A 
ATOM     73  C   UNL A   1      43.722  39.788  30.420  1.00  0.00     0.020 A 
ATOM     74  C   UNL A   1      44.087  40.094  31.733  1.00  0.00     0.054 A 
BRANCH  74  75
ATOM     75  S   UNL A   1      43.864  41.774  32.380  1.00  0.00     0.124 S 
ATOM     76  O   UNL A   1      43.941  41.555  33.823  1.00  0.00    -0.237 OA
ATOM     77  O   UNL A   1      44.990  42.499  31.795  1.00  0.00    -0.237 OA
ATOM     78  O   UNL A   1      42.549  42.168  31.880  1.00  0.00    -0.744 OA
ENDBRANCH  74  75
ENDBRANCH  55  69
BRANCH  56  79
ATOM     79  C   UNL A   1      45.046  28.154  27.233  1.00  0.00    -0.014 A 
ATOM     80  C   UNL A   1      44.600  27.884  25.928  1.00  0.00     0.010 A 
ATOM     81  C   UNL A   1      45.592  27.109  28.001  1.00  0.00     0.010 A 
ATOM     82  C   UNL A   1      44.689  26.590  25.404  1.00  0.00     0.020 A 
ATOM     83  C   UNL A   1      45.706  25.821  27.472  1.00  0.00     0.020 A 
ATOM     84  C   UNL A   1      45.245  25.567  26.180  1.00  0.00     0.054 A 
BRANCH  84  85
ATOM     85  S   UNL A   1      45.412  23.910  25.460  1.00  0.00     0.124 S 
ATOM     86  O   UNL A   1      46.193  24.180  24.257  1.00  0.00    -0.237 OA
ATOM     87  O   UNL A   1      46.106  23.173  26.513  1.00  0.00    -0.237 OA
ATOM     88  O   UNL A   1      44.029  23.497  25.231  1.00  0.00    -0.744 OA
ENDBRANCH  84  85
ENDBRANCH  56  79
BRANCH  68  89
ATOM     89  C   UNL A   1      49.312  33.671  27.070  1.00  0.00    -0.014 A 
ATOM     90  C   UNL A   1      50.473  33.336  27.788  1.00  0.00     0.010 A 
ATOM     91  C   UNL A   1      49.432  34.160  25.756  1.00  0.00     0.010 A 
ATOM     92  C   UNL A   1      51.735  33.514  27.212  1.00  0.00     0.020 A 
ATOM     93  C   UNL A   1      50.690  34.317  25.169  1.00  0.00     0.020 A 
ATOM     94  C   UNL A   1      51.834  34.006  25.906  1.00  0.00     0.054 A 
BRANCH  94  95
ATOM     95  S   UNL A   1      53.478  34.185  25.160  1.00  0.00     0.124 S 
ATOM     96  O   UNL A   1      53.149  34.526  23.779  1.00  0.00    -0.237 OA
ATOM     97  O   UNL A   1      54.075  35.261  25.948  1.00  0.00    -0.237 OA
ATOM     98  O   UNL A   1      54.089  32.871  25.349  1.00  0.00    -0.744 OA
ENDBRANCH  94  95
ENDBRANCH  68  89
ENDBRANCH  42  43
ENDBRANCH  35  37
ENDBRANCH  34  35
ENDBRANCH  33  34
ENDBRANCH  32  33
ENDBRANCH  31  32
ENDBRANCH  29  31
ENDBRANCH  27  29
ENDBRANCH   4  27
TORSDOF 25
ENDMDL
MODEL 2
REMARK VINA RESULT:      -8.8      0.967      7.869
REMARK SMILES CCCCCCCCNC(=O)Oc1cccc(-c2ccc([C@@H](C)C(=O)OCCOC(=O)c3ccc(-c4c5nc(c(-c6ccc(S(=O)(=O)[O-])cc6)c6ccc([nH]6)c(-c6ccc(S(=O)(=O)[O-])cc6)c6nc(c(-c7ccc(S(=O)(=O)[O-])cc7)c7ccc4[nH]7)C=C6)C=C5)cc3)cc2F)c1
REMARK SMILES IDX 18 1 19 2 20 3 21 4 92 5 93 6 94 7 17 8 13 9 14 10 95 11
REMARK SMILES IDX 15 12 16 13 12 14 10 15 9 16 11 18 8 19 7 20 6 21 5 22 4 23
REMARK SMILES IDX 3 24 2 25 1 26 22 27 23 28 24 29 25 30 26 31 27 32 28 33
REMARK SMILES IDX 29 34 30 35 31 36 32 37 33 38 91 39 34 40 90 41 35 42 36 43
REMARK SMILES IDX 37 44 84 45 38 46 89 47 83 48 85 49 39 50 88 51 82 52 81 53
REMARK SMILES IDX 40 55 70 56 51 57 69 58 52 59 55 60 68 61 86 62 53 63 54 64
REMARK SMILES IDX 67 66 87 67 56 68 41 69 42 70 50 71 43 72 49 73 44 74 45 75
REMARK SMILES IDX 46 76 47 77 48 78 71 79 72 80 80 81 73 82 79 83 74 84 75 85
REMARK SMILES IDX 76 86 77 87 78 88 57 89 58 90 66 91 59 92 65 93 60 94 61 95
REMARK SMILES IDX 62 96 63 97 64 98
REMARK H PARENT 9 17 85 54 55 65
REMARK Flexibility Score: inf
ROOT
ATOM      1  C   UNL A   1      32.940  31.041  26.989  1.00  0.00     0.018 A 
ATOM      2  C   UNL A   1      32.099  32.163  27.059  1.00  0.00     0.012 A 
ATOM      3  C   UNL A   1      32.510  33.344  27.689  1.00  0.00     0.005 A 
ATOM      4  C   UNL A   1      33.777  33.439  28.282  1.00  0.00    -0.031 A 
ATOM      5  C   UNL A   1      34.619  32.319  28.219  1.00  0.00     0.044 A 
ATOM      6  C   UNL A   1      34.202  31.147  27.588  1.00  0.00     0.131 A 
ATOM      7  F   UNL A   1      35.063  30.118  27.541  1.00  0.00    -0.206 F 
ENDROOT
BRANCH   1   8
ATOM      8  C   UNL A   1      32.509  29.816  26.295  1.00  0.00    -0.012 A 
ATOM      9  C   UNL A   1      32.215  28.510  24.271  1.00  0.00     0.133 A 
ATOM     10  C   UNL A   1      31.633  27.470  24.989  1.00  0.00     0.047 A 
ATOM     11  C   UNL A   1      32.641  29.679  24.904  1.00  0.00     0.056 A 
ATOM     12  C   UNL A   1      31.496  27.589  26.369  1.00  0.00     0.004 A 
ATOM     13  C   UNL A   1      31.931  28.751  27.013  1.00  0.00     0.009 A 
BRANCH   9  14
ATOM     14  O   UNL A   1      32.230  28.390  22.873  1.00  0.00    -0.410 OA
BRANCH  14  15
ATOM     15  C   UNL A   1      31.146  27.773  22.267  1.00  0.00     0.412 C 
ATOM     16  N   UNL A   1      31.489  26.627  21.602  1.00  0.00    -0.321 N 
ATOM     17  H   UNL A   1      30.757  26.140  21.158  1.00  0.00     0.167 HD
ATOM     18  O   UNL A   1      29.990  28.180  22.268  1.00  0.00    -0.224 OA
BRANCH  16  19
ATOM     19  C   UNL A   1      32.816  26.055  21.483  1.00  0.00     0.119 C 
BRANCH  19  20
ATOM     20  C   UNL A   1      32.783  24.542  21.273  1.00  0.00     0.021 C 
BRANCH  20  21
ATOM     21  C   UNL A   1      32.872  23.708  22.557  1.00  0.00     0.002 C 
BRANCH  21  22
ATOM     22  C   UNL A   1      31.540  23.448  23.271  1.00  0.00     0.000 C 
BRANCH  22  23
ATOM     23  C   UNL A   1      31.498  23.865  24.744  1.00  0.00    -0.000 C 
BRANCH  23  24
ATOM     24  C   UNL A   1      30.918  22.819  25.702  1.00  0.00    -0.000 C 
BRANCH  24  25
ATOM     25  C   UNL A   1      30.111  23.380  26.877  1.00  0.00    -0.003 C 
ATOM     26  C   UNL A   1      29.037  22.428  27.384  1.00  0.00     0.004 C 
ENDBRANCH  24  25
ENDBRANCH  23  24
ENDBRANCH  22  23
ENDBRANCH  21  22
ENDBRANCH  20  21
ENDBRANCH  19  20
ENDBRANCH  16  19
ENDBRANCH  14  15
ENDBRANCH   9  14
ENDBRANCH   1   8
BRANCH   4  27
ATOM     27  C   UNL A   1      34.252  34.707  28.976  1.00  0.00     0.126 C 
ATOM     28  C   UNL A   1      34.490  35.853  27.996  1.00  0.00     0.025 C 
BRANCH  27  29
ATOM     29  C   UNL A   1      33.398  35.190  30.143  1.00  0.00     0.313 C 
ATOM     30  O   UNL A   1      32.683  36.184  30.059  1.00  0.00    -0.252 OA
BRANCH  29  31
ATOM     31  O   UNL A   1      33.469  34.395  31.243  1.00  0.00    -0.462 OA
BRANCH  31  32
ATOM     32  C   UNL A   1      34.774  34.206  31.824  1.00  0.00     0.274 C 
BRANCH  32  33
ATOM     33  C   UNL A   1      34.946  32.779  32.352  1.00  0.00     0.275 C 
BRANCH  33  34
ATOM     34  O   UNL A   1      35.470  31.903  31.338  1.00  0.00    -0.458 OA
BRANCH  34  35
ATOM     35  C   UNL A   1      36.342  30.970  31.786  1.00  0.00     0.338 C 
ATOM     36  O   UNL A   1      36.080  29.929  32.363  1.00  0.00    -0.246 OA
BRANCH  35  37
ATOM     37  C   UNL A   1      37.703  31.328  31.364  1.00  0.00     0.060 A 
ATOM     38  C   UNL A   1      37.874  31.879  30.092  1.00  0.00     0.016 A 
ATOM     39  C   UNL A   1      38.805  31.045  32.171  1.00  0.00     0.016 A 
ATOM     40  C   UNL A   1      39.152  32.139  29.610  1.00  0.00     0.010 A 
ATOM     41  C   UNL A   1      40.089  31.320  31.691  1.00  0.00     0.010 A 
ATOM     42  C   UNL A   1      40.271  31.855  30.403  1.00  0.00    -0.014 A 
BRANCH  42  43
ATOM     43  C   UNL A   1      41.632  32.085  29.864  1.00  0.00     0.031 A 
ATOM     44  C   UNL A   1      42.365  30.968  29.177  1.00  0.00     0.074 A 
ATOM     45  C   UNL A   1      42.200  33.299  29.982  1.00  0.00     0.049 A 
ATOM     46  N   UNL A   1      43.587  30.948  28.712  1.00  0.00    -0.248 NA
ATOM     47  C   UNL A   1      41.626  29.709  28.992  1.00  0.00     0.031 C 
ATOM     48  C   UNL A   1      41.568  34.473  30.588  1.00  0.00     0.029 A 
ATOM     49  N   UNL A   1      43.439  33.747  29.598  1.00  0.00    -0.354 N 
ATOM     50  C   UNL A   1      43.776  29.670  28.200  1.00  0.00     0.074 A 
ATOM     51  C   UNL A   1      42.545  28.939  28.423  1.00  0.00     0.031 C 
ATOM     52  C   UNL A   1      42.423  35.508  30.532  1.00  0.00     0.029 A 
ATOM     53  C   UNL A   1      43.677  35.058  29.933  1.00  0.00     0.049 A 
ATOM     54  H   UNL A   1      44.094  33.183  29.127  1.00  0.00     0.167 HD
ATOM     55  C   UNL A   1      44.875  29.152  27.600  1.00  0.00     0.031 A 
ATOM     56  C   UNL A   1      44.789  35.806  29.800  1.00  0.00     0.031 A 
ATOM     57  C   UNL A   1      46.095  29.884  27.381  1.00  0.00     0.049 A 
ATOM     58  C   UNL A   1      46.016  35.193  29.182  1.00  0.00     0.074 A 
ATOM     59  C   UNL A   1      47.261  29.452  26.774  1.00  0.00     0.029 A 
ATOM     60  N   UNL A   1      46.305  31.201  27.760  1.00  0.00    -0.354 N 
ATOM     61  N   UNL A   1      46.179  33.981  28.707  1.00  0.00    -0.248 NA
ATOM     62  C   UNL A   1      47.205  36.048  29.082  1.00  0.00     0.031 C 
ATOM     63  C   UNL A   1      48.193  30.495  26.826  1.00  0.00     0.029 A 
ATOM     64  C   UNL A   1      47.590  31.592  27.421  1.00  0.00     0.049 A 
ATOM     65  H   UNL A   1      45.641  31.774  28.206  1.00  0.00     0.167 HD
ATOM     66  C   UNL A   1      47.487  33.933  28.238  1.00  0.00     0.074 A 
ATOM     67  C   UNL A   1      48.064  35.242  28.472  1.00  0.00     0.031 C 
ATOM     68  C   UNL A   1      48.149  32.898  27.666  1.00  0.00     0.031 A 
BRANCH  55  69
ATOM     69  C   UNL A   1      44.819  27.708  27.180  1.00  0.00    -0.014 A 
ATOM     70  C   UNL A   1      44.377  27.336  25.898  1.00  0.00     0.010 A 
ATOM     71  C   UNL A   1      45.241  26.708  28.075  1.00  0.00     0.010 A 
ATOM     72  C   UNL A   1      44.317  25.987  25.535  1.00  0.00     0.020 A 
ATOM     73  C   UNL A   1      45.204  25.360  27.708  1.00  0.00     0.020 A 
ATOM     74  C   UNL A   1      44.725  25.007  26.445  1.00  0.00     0.054 A 
BRANCH  74  75
ATOM     75  S   UNL A   1      44.642  23.264  25.948  1.00  0.00     0.124 S 
ATOM     76  O   UNL A   1      45.813  22.702  26.619  1.00  0.00    -0.237 OA
ATOM     77  O   UNL A   1      43.350  22.836  26.481  1.00  0.00    -0.237 OA
ATOM     78  O   UNL A   1      44.724  23.314  24.491  1.00  0.00    -0.744 OA
ENDBRANCH  74  75
ENDBRANCH  55  69
BRANCH  56  79
ATOM     79  C   UNL A   1      44.799  37.209  30.296  1.00  0.00    -0.014 A 
ATOM     80  C   UNL A   1      45.194  37.502  31.613  1.00  0.00     0.010 A 
ATOM     81  C   UNL A   1      44.433  38.264  29.439  1.00  0.00     0.010 A 
ATOM     82  C   UNL A   1      45.215  38.825  32.067  1.00  0.00     0.020 A 
ATOM     83  C   UNL A   1      44.477  39.589  29.882  1.00  0.00     0.020 A 
ATOM     84  C   UNL A   1      44.858  39.860  31.197  1.00  0.00     0.054 A 
BRANCH  84  85
ATOM     85  S   UNL A   1      44.954  41.574  31.785  1.00  0.00     0.124 S 
ATOM     86  O   UNL A   1      46.222  41.576  32.507  1.00  0.00    -0.237 OA
ATOM     87  O   UNL A   1      44.932  42.339  30.541  1.00  0.00    -0.237 OA
ATOM     88  O   UNL A   1      43.759  41.716  32.614  1.00  0.00    -0.744 OA
ENDBRANCH  84  85
ENDBRANCH  56  79
BRANCH  68  89
ATOM     89  C   UNL A   1      49.567  33.146  27.229  1.00  0.00    -0.014 A 
ATOM     90  C   UNL A   1      49.850  33.750  25.992  1.00  0.00     0.010 A 
ATOM     91  C   UNL A   1      50.628  32.818  28.094  1.00  0.00     0.010 A 
ATOM     92  C   UNL A   1      51.173  33.998  25.614  1.00  0.00     0.020 A 
ATOM     93  C   UNL A   1      51.950  33.085  27.729  1.00  0.00     0.020 A 
ATOM     94  C   UNL A   1      52.214  33.661  26.485  1.00  0.00     0.054 A 
BRANCH  94  95
ATOM     95  S   UNL A   1      53.921  34.034  25.996  1.00  0.00     0.124 S 
ATOM     96  O   UNL A   1      54.205  32.962  25.046  1.00  0.00    -0.237 OA
ATOM     97  O   UNL A   1      53.807  35.372  25.418  1.00  0.00    -0.237 OA
ATOM     98  O   UNL A   1      54.664  33.968  27.252  1.00  0.00    -0.744 OA
ENDBRANCH  94  95
ENDBRANCH  68  89
ENDBRANCH  42  43
ENDBRANCH  35  37
ENDBRANCH  34  35
ENDBRANCH  33  34
ENDBRANCH  32  33
ENDBRANCH  31  32
ENDBRANCH  29  31
ENDBRANCH  27  29
ENDBRANCH   4  27
TORSDOF 25
ENDMDL
MODEL 3
REMARK VINA RESULT:      -8.8      3.597      5.107
REMARK SMILES CCCCCCCCNC(=O)Oc1cccc(-c2ccc([C@@H](C)C(=O)OCCOC(=O)c3ccc(-c4c5nc(c(-c6ccc(S(=O)(=O)[O-])cc6)c6ccc([nH]6)c(-c6ccc(S(=O)(=O)[O-])cc6)c6nc(c(-c7ccc(S(=O)(=O)[O-])cc7)c7ccc4[nH]7)C=C6)C=C5)cc3)cc2F)c1
REMARK SMILES IDX 18 1 19 2 20 3 21 4 92 5 93 6 94 7 17 8 13 9 14 10 95 11
REMARK SMILES IDX 15 12 16 13 12 14 10 15 9 16 11 18 8 19 7 20 6 21 5 22 4 23
REMARK SMILES IDX 3 24 2 25 1 26 22 27 23 28 24 29 25 30 26 31 27 32 28 33
REMARK SMILES IDX 29 34 30 35 31 36 32 37 33 38 91 39 34 40 90 41 35 42 36 43
REMARK SMILES IDX 37 44 84 45 38 46 89 47 83 48 85 49 39 50 88 51 82 52 81 53
REMARK SMILES IDX 40 55 70 56 51 57 69 58 52 59 55 60 68 61 86 62 53 63 54 64
REMARK SMILES IDX 67 66 87 67 56 68 41 69 42 70 50 71 43 72 49 73 44 74 45 75
REMARK SMILES IDX 46 76 47 77 48 78 71 79 72 80 80 81 73 82 79 83 74 84 75 85
REMARK SMILES IDX 76 86 77 87 78 88 57 89 58 90 66 91 59 92 65 93 60 94 61 95
REMARK SMILES IDX 62 96 63 97 64 98
REMARK H PARENT 9 17 85 54 55 65
REMARK Flexibility Score: inf
ROOT
ATOM      1  C   UNL A   1      32.489  29.139  25.790  1.00  0.00     0.018 A 
ATOM      2  C   UNL A   1      32.302  30.229  26.657  1.00  0.00     0.012 A 
ATOM      3  C   UNL A   1      33.342  30.703  27.465  1.00  0.00     0.005 A 
ATOM      4  C   UNL A   1      34.606  30.096  27.442  1.00  0.00    -0.031 A 
ATOM      5  C   UNL A   1      34.795  29.003  26.582  1.00  0.00     0.044 A 
ATOM      6  C   UNL A   1      33.754  28.538  25.779  1.00  0.00     0.131 A 
ATOM      7  F   UNL A   1      34.006  27.504  24.960  1.00  0.00    -0.206 F 
ENDROOT
BRANCH   1   8
ATOM      8  C   UNL A   1      31.397  28.670  24.921  1.00  0.00    -0.012 A 
ATOM      9  C   UNL A   1      30.009  26.895  24.021  1.00  0.00     0.133 A 
ATOM     10  C   UNL A   1      29.325  27.798  23.212  1.00  0.00     0.047 A 
ATOM     11  C   UNL A   1      31.043  27.314  24.861  1.00  0.00     0.056 A 
ATOM     12  C   UNL A   1      29.662  29.147  23.261  1.00  0.00     0.004 A 
ATOM     13  C   UNL A   1      30.688  29.576  24.108  1.00  0.00     0.009 A 
BRANCH   9  14
ATOM     14  O   UNL A   1      29.708  25.535  23.854  1.00  0.00    -0.410 OA
BRANCH  14  15
ATOM     15  C   UNL A   1      30.736  24.689  23.467  1.00  0.00     0.412 C 
ATOM     16  N   UNL A   1      31.090  23.799  24.444  1.00  0.00    -0.321 N 
ATOM     17  H   UNL A   1      31.811  23.166  24.222  1.00  0.00     0.167 HD
ATOM     18  O   UNL A   1      31.321  24.711  22.390  1.00  0.00    -0.224 OA
BRANCH  16  19
ATOM     19  C   UNL A   1      30.515  23.690  25.770  1.00  0.00     0.119 C 
BRANCH  19  20
ATOM     20  C   UNL A   1      31.277  22.707  26.658  1.00  0.00     0.021 C 
BRANCH  20  21
ATOM     21  C   UNL A   1      32.623  23.219  27.185  1.00  0.00     0.002 C 
BRANCH  21  22
ATOM     22  C   UNL A   1      33.833  22.324  26.890  1.00  0.00     0.000 C 
BRANCH  22  23
ATOM     23  C   UNL A   1      33.628  21.298  25.773  1.00  0.00    -0.000 C 
BRANCH  23  24
ATOM     24  C   UNL A   1      34.088  21.746  24.381  1.00  0.00    -0.000 C 
BRANCH  24  25
ATOM     25  C   UNL A   1      35.234  22.763  24.364  1.00  0.00    -0.003 C 
ATOM     26  C   UNL A   1      34.807  24.151  23.911  1.00  0.00     0.004 C 
ENDBRANCH  24  25
ENDBRANCH  23  24
ENDBRANCH  22  23
ENDBRANCH  21  22
ENDBRANCH  20  21
ENDBRANCH  19  20
ENDBRANCH  16  19
ENDBRANCH  14  15
ENDBRANCH   9  14
ENDBRANCH   1   8
BRANCH   4  27
ATOM     27  C   UNL A   1      35.755  30.585  28.310  1.00  0.00     0.126 C 
ATOM     28  C   UNL A   1      37.101  30.012  27.872  1.00  0.00     0.025 C 
BRANCH  27  29
ATOM     29  C   UNL A   1      35.865  32.096  28.484  1.00  0.00     0.313 C 
ATOM     30  O   UNL A   1      35.548  32.878  27.593  1.00  0.00    -0.252 OA
BRANCH  29  31
ATOM     31  O   UNL A   1      36.292  32.478  29.716  1.00  0.00    -0.462 OA
BRANCH  31  32
ATOM     32  C   UNL A   1      35.740  31.772  30.843  1.00  0.00     0.274 C 
BRANCH  32  33
ATOM     33  C   UNL A   1      36.812  30.954  31.568  1.00  0.00     0.275 C 
BRANCH  33  34
ATOM     34  O   UNL A   1      37.255  31.614  32.766  1.00  0.00    -0.458 OA
BRANCH  34  35
ATOM     35  C   UNL A   1      38.115  32.641  32.568  1.00  0.00     0.338 C 
ATOM     36  O   UNL A   1      37.930  33.819  32.819  1.00  0.00    -0.246 OA
BRANCH  35  37
ATOM     37  C   UNL A   1      39.405  32.117  32.100  1.00  0.00     0.060 A 
ATOM     38  C   UNL A   1      39.791  32.395  30.787  1.00  0.00     0.016 A 
ATOM     39  C   UNL A   1      40.184  31.292  32.911  1.00  0.00     0.016 A 
ATOM     40  C   UNL A   1      40.953  31.836  30.268  1.00  0.00     0.010 A 
ATOM     41  C   UNL A   1      41.360  30.741  32.393  1.00  0.00     0.010 A 
ATOM     42  C   UNL A   1      41.744  30.999  31.064  1.00  0.00    -0.014 A 
BRANCH  42  43
ATOM     43  C   UNL A   1      42.954  30.364  30.490  1.00  0.00     0.031 A 
ATOM     44  C   UNL A   1      44.260  31.108  30.485  1.00  0.00     0.074 A 
ATOM     45  C   UNL A   1      42.879  29.118  29.989  1.00  0.00     0.049 A 
ATOM     46  N   UNL A   1      45.405  30.757  29.961  1.00  0.00    -0.248 NA
ATOM     47  C   UNL A   1      44.276  32.418  31.155  1.00  0.00     0.031 C 
ATOM     48  C   UNL A   1      41.679  28.280  29.980  1.00  0.00     0.029 A 
ATOM     49  N   UNL A   1      43.836  28.339  29.387  1.00  0.00    -0.354 N 
ATOM     50  C   UNL A   1      46.275  31.811  30.214  1.00  0.00     0.074 A 
ATOM     51  C   UNL A   1      45.520  32.820  30.929  1.00  0.00     0.031 C 
ATOM     52  C   UNL A   1      41.971  27.102  29.404  1.00  0.00     0.029 A 
ATOM     53  C   UNL A   1      43.363  27.121  28.960  1.00  0.00     0.049 A 
ATOM     54  H   UNL A   1      44.771  28.624  29.273  1.00  0.00     0.167 HD
ATOM     55  C   UNL A   1      47.583  31.928  29.880  1.00  0.00     0.031 A 
ATOM     56  C   UNL A   1      43.971  26.143  28.263  1.00  0.00     0.031 A 
ATOM     57  C   UNL A   1      48.327  30.922  29.169  1.00  0.00     0.049 A 
ATOM     58  C   UNL A   1      45.408  26.318  27.854  1.00  0.00     0.074 A 
ATOM     59  C   UNL A   1      49.658  30.941  28.792  1.00  0.00     0.029 A 
ATOM     60  N   UNL A   1      47.804  29.715  28.730  1.00  0.00    -0.354 N 
ATOM     61  N   UNL A   1      46.215  27.324  28.098  1.00  0.00    -0.248 NA
ATOM     62  C   UNL A   1      46.014  25.230  27.077  1.00  0.00     0.031 C 
ATOM     63  C   UNL A   1      49.930  29.765  28.084  1.00  0.00     0.029 A 
ATOM     64  C   UNL A   1      48.779  28.990  28.065  1.00  0.00     0.049 A 
ATOM     65  H   UNL A   1      46.877  29.417  28.869  1.00  0.00     0.167 HD
ATOM     66  C   UNL A   1      47.431  26.981  27.517  1.00  0.00     0.074 A 
ATOM     67  C   UNL A   1      47.257  25.670  26.923  1.00  0.00     0.031 C 
ATOM     68  C   UNL A   1      48.587  27.688  27.477  1.00  0.00     0.031 A 
BRANCH  55  69
ATOM     69  C   UNL A   1      48.278  33.213  30.242  1.00  0.00    -0.014 A 
ATOM     70  C   UNL A   1      48.280  34.315  29.369  1.00  0.00     0.010 A 
ATOM     71  C   UNL A   1      48.918  33.326  31.490  1.00  0.00     0.010 A 
ATOM     72  C   UNL A   1      48.948  35.493  29.719  1.00  0.00     0.020 A 
ATOM     73  C   UNL A   1      49.566  34.510  31.853  1.00  0.00     0.020 A 
ATOM     74  C   UNL A   1      49.593  35.580  30.957  1.00  0.00     0.054 A 
BRANCH  74  75
ATOM     75  S   UNL A   1      50.447  37.121  31.391  1.00  0.00     0.124 S 
ATOM     76  O   UNL A   1      49.451  38.129  31.036  1.00  0.00    -0.237 OA
ATOM     77  O   UNL A   1      50.696  36.962  32.822  1.00  0.00    -0.237 OA
ATOM     78  O   UNL A   1      51.642  37.103  30.550  1.00  0.00    -0.744 OA
ENDBRANCH  74  75
ENDBRANCH  55  69
BRANCH  56  79
ATOM     79  C   UNL A   1      43.208  24.925  27.880  1.00  0.00    -0.014 A 
ATOM     80  C   UNL A   1      42.607  24.824  26.613  1.00  0.00     0.010 A 
ATOM     81  C   UNL A   1      43.101  23.846  28.777  1.00  0.00     0.010 A 
ATOM     82  C   UNL A   1      41.903  23.669  26.255  1.00  0.00     0.020 A 
ATOM     83  C   UNL A   1      42.419  22.681  28.413  1.00  0.00     0.020 A 
ATOM     84  C   UNL A   1      41.816  22.604  27.157  1.00  0.00     0.054 A 
BRANCH  84  85
ATOM     85  S   UNL A   1      40.955  21.090  26.649  1.00  0.00     0.124 S 
ATOM     86  O   UNL A   1      39.713  21.620  26.095  1.00  0.00    -0.237 OA
ATOM     87  O   UNL A   1      41.882  20.506  25.682  1.00  0.00    -0.237 OA
ATOM     88  O   UNL A   1      40.818  20.342  27.896  1.00  0.00    -0.744 OA
ENDBRANCH  84  85
ENDBRANCH  56  79
BRANCH  68  89
ATOM     89  C   UNL A   1      49.762  27.048  26.791  1.00  0.00    -0.014 A 
ATOM     90  C   UNL A   1      50.367  27.651  25.674  1.00  0.00     0.010 A 
ATOM     91  C   UNL A   1      50.302  25.855  27.305  1.00  0.00     0.010 A 
ATOM     92  C   UNL A   1      51.475  27.056  25.065  1.00  0.00     0.020 A 
ATOM     93  C   UNL A   1      51.424  25.270  26.713  1.00  0.00     0.020 A 
ATOM     94  C   UNL A   1      51.995  25.868  25.589  1.00  0.00     0.054 A 
BRANCH  94  95
ATOM     95  S   UNL A   1      53.464  25.137  24.812  1.00  0.00     0.124 S 
ATOM     96  O   UNL A   1      54.539  25.951  25.372  1.00  0.00    -0.237 OA
ATOM     97  O   UNL A   1      53.418  23.752  25.274  1.00  0.00    -0.237 OA
ATOM     98  O   UNL A   1      53.225  25.318  23.382  1.00  0.00    -0.744 OA
ENDBRANCH  94  95
ENDBRANCH  68  89
ENDBRANCH  42  43
ENDBRANCH  35  37
ENDBRANCH  34  35
ENDBRANCH  33  34
ENDBRANCH  32  33
ENDBRANCH  31  32
ENDBRANCH  29  31
ENDBRANCH  27  29
ENDBRANCH   4  27
TORSDOF 25
ENDMDL
