MODEL 1
REMARK VINA RESULT:     -10.9      0.000      0.000
REMARK SMILES COc1ncnc(N2CCCC[C@H]2CC(=O)OCCOC(=O)c2ccc(-c3c4nc(c(-c5ccc(S(=O)(=O)[O-])cc5)c5ccc([nH]5)c(-c5ccc(S(=O)(=O)[O-])cc5)c5nc(c(-c6ccc(S(=O)(=O)[O-])cc6)c6ccc3[nH]6)C=C5)C=C4)cc2)c1[N+](=O)[O-]
REMARK SMILES IDX 18 1 17 2 15 3 16 4 14 5 13 6 8 7 9 8 10 9 12 10 11 11 7 12
REMARK SMILES IDX 3 13 4 14 83 15 5 16 6 17 2 18 1 19 84 20 85 21 86 22 19 23
REMARK SMILES IDX 20 24 21 25 22 26 23 27 24 28 82 29 25 30 81 31 26 32 27 33
REMARK SMILES IDX 28 34 75 35 29 36 80 37 74 38 76 39 30 40 79 41 73 42 72 43
REMARK SMILES IDX 31 45 61 46 42 47 60 48 43 49 46 50 59 51 77 52 44 53 45 54
REMARK SMILES IDX 58 56 78 57 47 58 32 59 33 60 41 61 34 62 40 63 35 64 36 65
REMARK SMILES IDX 37 66 38 67 39 68 62 69 63 70 71 71 64 72 70 73 65 74 66 75
REMARK SMILES IDX 67 76 68 77 69 78 48 79 49 80 57 81 50 82 56 83 51 84 52 85
REMARK SMILES IDX 53 86 54 87 55 88
REMARK H PARENT 76 44 46 55
REMARK Flexibility Score: inf
ROOT
ATOM      1  C   UNL A   1      37.680  23.181  25.475  1.00  0.00     0.274 C 
ENDROOT
BRANCH   1   2
ATOM      2  O   UNL A   1      36.638  22.321  25.983  1.00  0.00    -0.462 OA
BRANCH   2   3
ATOM      3  C   UNL A   1      35.966  21.604  25.053  1.00  0.00     0.307 C 
ATOM      4  O   UNL A   1      35.955  20.377  25.001  1.00  0.00    -0.252 OA
BRANCH   3   5
ATOM      5  C   UNL A   1      35.312  22.444  23.989  1.00  0.00     0.147 C 
BRANCH   5   6
ATOM      6  C   UNL A   1      33.954  23.129  24.290  1.00  0.00     0.095 C 
ATOM      7  N   UNL A   1      33.242  23.593  23.065  1.00  0.00    -0.347 N 
ATOM      8  C   UNL A   1      32.914  22.520  22.101  1.00  0.00     0.118 C 
ATOM      9  C   UNL A   1      32.116  21.382  22.751  1.00  0.00     0.022 C 
ATOM     10  C   UNL A   1      33.031  22.098  24.995  1.00  0.00     0.026 C 
ATOM     11  C   UNL A   1      32.705  20.914  24.081  1.00  0.00     0.004 C 
BRANCH   7  12
ATOM     12  C   UNL A   1      32.260  24.593  23.176  1.00  0.00     0.215 A 
ATOM     13  C   UNL A   1      31.059  26.582  22.600  1.00  0.00     0.299 A 
ATOM     14  N   UNL A   1      30.110  26.349  23.520  1.00  0.00    -0.196 NA
ATOM     15  C   UNL A   1      32.161  25.754  22.422  1.00  0.00     0.372 A 
ATOM     16  C   UNL A   1      30.282  25.240  24.235  1.00  0.00     0.228 A 
ATOM     17  N   UNL A   1      31.284  24.360  24.091  1.00  0.00    -0.212 NA
BRANCH  13  18
ATOM     18  O   UNL A   1      30.839  27.743  21.901  1.00  0.00    -0.476 OA
ATOM     19  C   UNL A   1      30.772  28.904  22.729  1.00  0.00     0.280 C 
ENDBRANCH  13  18
BRANCH  15  20
ATOM     20  N   UNL A   1      33.039  26.089  21.355  1.00  0.00     0.072 N 
ATOM     21  O   UNL A   1      34.012  26.806  21.632  1.00  0.00    -0.258 OA
ATOM     22  O   UNL A   1      32.883  25.466  20.293  1.00  0.00    -0.258 OA
ENDBRANCH  15  20
ENDBRANCH   7  12
ENDBRANCH   5   6
ENDBRANCH   3   5
ENDBRANCH   2   3
ENDBRANCH   1   2
BRANCH   1  23
ATOM     23  C   UNL A   1      39.070  22.937  26.095  1.00  0.00     0.275 C 
BRANCH  23  24
ATOM     24  O   UNL A   1      39.347  23.699  27.289  1.00  0.00    -0.458 OA
BRANCH  24  25
ATOM     25  C   UNL A   1      40.274  24.660  27.100  1.00  0.00     0.338 C 
ATOM     26  O   UNL A   1      40.941  24.828  26.094  1.00  0.00    -0.246 OA
BRANCH  25  27
ATOM     27  C   UNL A   1      40.380  25.647  28.166  1.00  0.00     0.060 A 
ATOM     28  C   UNL A   1      39.301  25.690  29.059  1.00  0.00     0.016 A 
ATOM     29  C   UNL A   1      41.375  26.622  28.185  1.00  0.00     0.016 A 
ATOM     30  C   UNL A   1      39.212  26.715  29.982  1.00  0.00     0.010 A 
ATOM     31  C   UNL A   1      41.298  27.641  29.138  1.00  0.00     0.010 A 
ATOM     32  C   UNL A   1      40.221  27.685  30.039  1.00  0.00    -0.014 A 
BRANCH  32  33
ATOM     33  C   UNL A   1      40.172  28.657  31.147  1.00  0.00     0.031 A 
ATOM     34  C   UNL A   1      41.127  28.577  32.296  1.00  0.00     0.074 A 
ATOM     35  C   UNL A   1      39.282  29.661  31.038  1.00  0.00     0.049 A 
ATOM     36  N   UNL A   1      41.250  29.393  33.309  1.00  0.00    -0.248 NA
ATOM     37  C   UNL A   1      42.062  27.442  32.315  1.00  0.00     0.031 C 
ATOM     38  C   UNL A   1      38.326  29.818  29.937  1.00  0.00     0.029 A 
ATOM     39  N   UNL A   1      39.049  30.744  31.839  1.00  0.00    -0.354 N 
ATOM     40  C   UNL A   1      42.256  28.861  34.104  1.00  0.00     0.074 A 
ATOM     41  C   UNL A   1      42.714  27.651  33.453  1.00  0.00     0.031 C 
ATOM     42  C   UNL A   1      37.632  30.951  30.116  1.00  0.00     0.029 A 
ATOM     43  C   UNL A   1      38.062  31.571  31.362  1.00  0.00     0.049 A 
ATOM     44  H   UNL A   1      39.541  30.915  32.674  1.00  0.00     0.167 HD
ATOM     45  C   UNL A   1      42.737  29.342  35.276  1.00  0.00     0.031 A 
ATOM     46  C   UNL A   1      37.548  32.699  31.881  1.00  0.00     0.031 A 
ATOM     47  C   UNL A   1      42.264  30.550  35.902  1.00  0.00     0.049 A 
ATOM     48  C   UNL A   1      38.113  33.211  33.172  1.00  0.00     0.074 A 
ATOM     49  C   UNL A   1      42.697  31.139  37.078  1.00  0.00     0.029 A 
ATOM     50  N   UNL A   1      41.247  31.354  35.405  1.00  0.00    -0.354 N 
ATOM     51  N   UNL A   1      39.081  32.706  33.900  1.00  0.00    -0.248 NA
ATOM     52  C   UNL A   1      37.523  34.441  33.708  1.00  0.00     0.031 C 
ATOM     53  C   UNL A   1      41.914  32.275  37.313  1.00  0.00     0.029 A 
ATOM     54  C   UNL A   1      41.021  32.419  36.262  1.00  0.00     0.049 A 
ATOM     55  H   UNL A   1      40.757  31.190  34.567  1.00  0.00     0.167 HD
ATOM     56  C   UNL A   1      39.210  33.553  34.991  1.00  0.00     0.074 A 
ATOM     57  C   UNL A   1      38.248  34.624  34.803  1.00  0.00     0.031 C 
ATOM     58  C   UNL A   1      40.039  33.453  36.059  1.00  0.00     0.031 A 
BRANCH  45  59
ATOM     59  C   UNL A   1      43.796  28.540  35.981  1.00  0.00    -0.014 A 
ATOM     60  C   UNL A   1      45.165  28.798  35.786  1.00  0.00     0.010 A 
ATOM     61  C   UNL A   1      43.411  27.549  36.903  1.00  0.00     0.010 A 
ATOM     62  C   UNL A   1      46.129  28.065  36.485  1.00  0.00     0.020 A 
ATOM     63  C   UNL A   1      44.372  26.826  37.617  1.00  0.00     0.020 A 
ATOM     64  C   UNL A   1      45.727  27.082  37.395  1.00  0.00     0.054 A 
BRANCH  64  65
ATOM     65  S   UNL A   1      46.995  26.171  38.321  1.00  0.00     0.124 S 
ATOM     66  O   UNL A   1      48.205  26.921  37.994  1.00  0.00    -0.237 OA
ATOM     67  O   UNL A   1      46.535  26.292  39.703  1.00  0.00    -0.237 OA
ATOM     68  O   UNL A   1      46.929  24.822  37.764  1.00  0.00    -0.744 OA
ENDBRANCH  64  65
ENDBRANCH  45  59
BRANCH  46  69
ATOM     69  C   UNL A   1      36.426  33.382  31.190  1.00  0.00    -0.014 A 
ATOM     70  C   UNL A   1      35.208  33.616  31.848  1.00  0.00     0.010 A 
ATOM     71  C   UNL A   1      36.595  33.846  29.871  1.00  0.00     0.010 A 
ATOM     72  C   UNL A   1      34.171  34.290  31.193  1.00  0.00     0.020 A 
ATOM     73  C   UNL A   1      35.572  34.541  29.225  1.00  0.00     0.020 A 
ATOM     74  C   UNL A   1      34.360  34.749  29.885  1.00  0.00     0.054 A 
BRANCH  74  75
ATOM     75  S   UNL A   1      33.031  35.675  29.071  1.00  0.00     0.124 S 
ATOM     76  O   UNL A   1      32.428  34.654  28.221  1.00  0.00    -0.237 OA
ATOM     77  O   UNL A   1      32.215  36.125  30.197  1.00  0.00    -0.237 OA
ATOM     78  O   UNL A   1      33.743  36.739  28.366  1.00  0.00    -0.744 OA
ENDBRANCH  74  75
ENDBRANCH  46  69
BRANCH  58  79
ATOM     79  C   UNL A   1      39.917  34.530  37.098  1.00  0.00    -0.014 A 
ATOM     80  C   UNL A   1      39.078  34.359  38.213  1.00  0.00     0.010 A 
ATOM     81  C   UNL A   1      40.645  35.724  36.957  1.00  0.00     0.010 A 
ATOM     82  C   UNL A   1      38.930  35.386  39.146  1.00  0.00     0.020 A 
ATOM     83  C   UNL A   1      40.515  36.745  37.900  1.00  0.00     0.020 A 
ATOM     84  C   UNL A   1      39.641  36.577  38.977  1.00  0.00     0.054 A 
BRANCH  84  85
ATOM     85  S   UNL A   1      39.437  37.902  40.198  1.00  0.00     0.124 S 
ATOM     86  O   UNL A   1      38.276  38.617  39.676  1.00  0.00    -0.237 OA
ATOM     87  O   UNL A   1      39.216  37.167  41.442  1.00  0.00    -0.237 OA
ATOM     88  O   UNL A   1      40.702  38.630  40.130  1.00  0.00    -0.744 OA
ENDBRANCH  84  85
ENDBRANCH  58  79
ENDBRANCH  32  33
ENDBRANCH  25  27
ENDBRANCH  24  25
ENDBRANCH  23  24
ENDBRANCH   1  23
TORSDOF 18
ENDMDL
MODEL 2
REMARK VINA RESULT:     -10.6      7.607     12.678
REMARK SMILES COc1ncnc(N2CCCC[C@H]2CC(=O)OCCOC(=O)c2ccc(-c3c4nc(c(-c5ccc(S(=O)(=O)[O-])cc5)c5ccc([nH]5)c(-c5ccc(S(=O)(=O)[O-])cc5)c5nc(c(-c6ccc(S(=O)(=O)[O-])cc6)c6ccc3[nH]6)C=C5)C=C4)cc2)c1[N+](=O)[O-]
REMARK SMILES IDX 18 1 17 2 15 3 16 4 14 5 13 6 8 7 9 8 10 9 12 10 11 11 7 12
REMARK SMILES IDX 3 13 4 14 83 15 5 16 6 17 2 18 1 19 84 20 85 21 86 22 19 23
REMARK SMILES IDX 20 24 21 25 22 26 23 27 24 28 82 29 25 30 81 31 26 32 27 33
REMARK SMILES IDX 28 34 75 35 29 36 80 37 74 38 76 39 30 40 79 41 73 42 72 43
REMARK SMILES IDX 31 45 61 46 42 47 60 48 43 49 46 50 59 51 77 52 44 53 45 54
REMARK SMILES IDX 58 56 78 57 47 58 32 59 33 60 41 61 34 62 40 63 35 64 36 65
REMARK SMILES IDX 37 66 38 67 39 68 62 69 63 70 71 71 64 72 70 73 65 74 66 75
REMARK SMILES IDX 67 76 68 77 69 78 48 79 49 80 57 81 50 82 56 83 51 84 52 85
REMARK SMILES IDX 53 86 54 87 55 88
REMARK H PARENT 76 44 46 55
REMARK Flexibility Score: inf
ROOT
ATOM      1  C   UNL A   1      34.378  30.145  27.289  1.00  0.00     0.274 C 
ENDROOT
BRANCH   1   2
ATOM      2  O   UNL A   1      33.633  28.909  27.263  1.00  0.00    -0.462 OA
BRANCH   2   3
ATOM      3  C   UNL A   1      32.322  29.023  26.949  1.00  0.00     0.307 C 
ATOM      4  O   UNL A   1      31.729  30.091  26.832  1.00  0.00    -0.252 OA
BRANCH   3   5
ATOM      5  C   UNL A   1      31.597  27.706  26.865  1.00  0.00     0.147 C 
BRANCH   5   6
ATOM      6  C   UNL A   1      31.999  26.685  25.771  1.00  0.00     0.095 C 
ATOM      7  N   UNL A   1      31.018  25.575  25.610  1.00  0.00    -0.347 N 
ATOM      8  C   UNL A   1      29.655  26.010  25.233  1.00  0.00     0.118 C 
ATOM      9  C   UNL A   1      29.652  26.877  23.967  1.00  0.00     0.022 C 
ATOM     10  C   UNL A   1      32.077  27.431  24.410  1.00  0.00     0.026 C 
ATOM     11  C   UNL A   1      30.712  27.978  23.987  1.00  0.00     0.004 C 
BRANCH   7  12
ATOM     12  C   UNL A   1      31.430  24.373  25.008  1.00  0.00     0.215 A 
ATOM     13  C   UNL A   1      31.803  22.016  24.811  1.00  0.00     0.299 A 
ATOM     14  N   UNL A   1      32.168  22.120  23.524  1.00  0.00    -0.196 NA
ATOM     15  C   UNL A   1      31.464  23.114  25.593  1.00  0.00     0.372 A 
ATOM     16  C   UNL A   1      32.150  23.356  23.033  1.00  0.00     0.228 A 
ATOM     17  N   UNL A   1      31.783  24.461  23.699  1.00  0.00    -0.212 NA
BRANCH  13  18
ATOM     18  O   UNL A   1      31.852  20.723  25.269  1.00  0.00    -0.476 OA
ATOM     19  C   UNL A   1      33.116  20.092  25.065  1.00  0.00     0.280 C 
ENDBRANCH  13  18
BRANCH  15  20
ATOM     20  N   UNL A   1      31.024  22.839  26.915  1.00  0.00     0.072 N 
ATOM     21  O   UNL A   1      31.867  22.934  27.820  1.00  0.00    -0.258 OA
ATOM     22  O   UNL A   1      29.798  22.738  27.082  1.00  0.00    -0.258 OA
ENDBRANCH  15  20
ENDBRANCH   7  12
ENDBRANCH   5   6
ENDBRANCH   3   5
ENDBRANCH   2   3
ENDBRANCH   1   2
BRANCH   1  23
ATOM     23  C   UNL A   1      35.586  30.145  28.246  1.00  0.00     0.275 C 
BRANCH  23  24
ATOM     24  O   UNL A   1      36.553  29.100  28.007  1.00  0.00    -0.458 OA
BRANCH  24  25
ATOM     25  C   UNL A   1      37.487  29.012  28.977  1.00  0.00     0.338 C 
ATOM     26  O   UNL A   1      37.275  28.928  30.173  1.00  0.00    -0.246 OA
BRANCH  25  27
ATOM     27  C   UNL A   1      38.862  28.888  28.512  1.00  0.00     0.060 A 
ATOM     28  C   UNL A   1      39.825  28.712  29.514  1.00  0.00     0.016 A 
ATOM     29  C   UNL A   1      39.228  29.132  27.190  1.00  0.00     0.016 A 
ATOM     30  C   UNL A   1      41.169  28.780  29.196  1.00  0.00     0.010 A 
ATOM     31  C   UNL A   1      40.586  29.172  26.866  1.00  0.00     0.010 A 
ATOM     32  C   UNL A   1      41.556  28.991  27.866  1.00  0.00    -0.014 A 
BRANCH  32  33
ATOM     33  C   UNL A   1      42.992  28.886  27.548  1.00  0.00     0.031 A 
ATOM     34  C   UNL A   1      43.930  30.025  27.795  1.00  0.00     0.074 A 
ATOM     35  C   UNL A   1      43.431  27.696  27.098  1.00  0.00     0.049 A 
ATOM     36  N   UNL A   1      45.226  30.062  27.627  1.00  0.00    -0.248 NA
ATOM     37  C   UNL A   1      43.346  31.281  28.292  1.00  0.00     0.031 C 
ATOM     38  C   UNL A   1      42.579  26.528  26.847  1.00  0.00     0.029 A 
ATOM     39  N   UNL A   1      44.691  27.260  26.797  1.00  0.00    -0.354 N 
ATOM     40  C   UNL A   1      45.615  31.350  27.971  1.00  0.00     0.074 A 
ATOM     41  C   UNL A   1      44.417  32.064  28.360  1.00  0.00     0.031 C 
ATOM     42  C   UNL A   1      43.347  25.499  26.461  1.00  0.00     0.029 A 
ATOM     43  C   UNL A   1      44.731  25.947  26.394  1.00  0.00     0.049 A 
ATOM     44  H   UNL A   1      45.491  27.830  26.864  1.00  0.00     0.167 HD
ATOM     45  C   UNL A   1      46.861  31.880  27.948  1.00  0.00     0.031 A 
ATOM     46  C   UNL A   1      45.770  25.191  26.000  1.00  0.00     0.031 A 
ATOM     47  C   UNL A   1      48.039  31.146  27.556  1.00  0.00     0.049 A 
ATOM     48  C   UNL A   1      47.138  25.804  25.999  1.00  0.00     0.074 A 
ATOM     49  C   UNL A   1      49.352  31.580  27.518  1.00  0.00     0.029 A 
ATOM     50  N   UNL A   1      48.043  29.824  27.132  1.00  0.00    -0.354 N 
ATOM     51  N   UNL A   1      47.491  27.019  26.348  1.00  0.00    -0.248 NA
ATOM     52  C   UNL A   1      48.243  24.949  25.557  1.00  0.00     0.031 C 
ATOM     53  C   UNL A   1      50.145  30.534  27.031  1.00  0.00     0.029 A 
ATOM     54  C   UNL A   1      49.331  29.434  26.806  1.00  0.00     0.049 A 
ATOM     55  H   UNL A   1      47.247  29.249  27.071  1.00  0.00     0.167 HD
ATOM     56  C   UNL A   1      48.864  27.079  26.158  1.00  0.00     0.074 A 
ATOM     57  C   UNL A   1      49.279  25.765  25.702  1.00  0.00     0.031 C 
ATOM     58  C   UNL A   1      49.707  28.127  26.331  1.00  0.00     0.031 A 
BRANCH  45  59
ATOM     59  C   UNL A   1      47.014  33.332  28.310  1.00  0.00    -0.014 A 
ATOM     60  C   UNL A   1      47.191  33.741  29.643  1.00  0.00     0.010 A 
ATOM     61  C   UNL A   1      47.041  34.298  27.288  1.00  0.00     0.010 A 
ATOM     62  C   UNL A   1      47.371  35.093  29.949  1.00  0.00     0.020 A 
ATOM     63  C   UNL A   1      47.237  35.650  27.588  1.00  0.00     0.020 A 
ATOM     64  C   UNL A   1      47.391  36.040  28.920  1.00  0.00     0.054 A 
BRANCH  64  65
ATOM     65  S   UNL A   1      47.666  37.786  29.337  1.00  0.00     0.124 S 
ATOM     66  O   UNL A   1      48.991  38.026  28.770  1.00  0.00    -0.237 OA
ATOM     67  O   UNL A   1      46.561  38.458  28.659  1.00  0.00    -0.237 OA
ATOM     68  O   UNL A   1      47.601  37.807  30.797  1.00  0.00    -0.744 OA
ENDBRANCH  64  65
ENDBRANCH  45  59
BRANCH  46  69
ATOM     69  C   UNL A   1      45.535  23.797  25.547  1.00  0.00    -0.014 A 
ATOM     70  C   UNL A   1      45.625  22.721  26.445  1.00  0.00     0.010 A 
ATOM     71  C   UNL A   1      45.170  23.548  24.210  1.00  0.00     0.010 A 
ATOM     72  C   UNL A   1      45.369  21.416  26.010  1.00  0.00     0.020 A 
ATOM     73  C   UNL A   1      44.888  22.250  23.780  1.00  0.00     0.020 A 
ATOM     74  C   UNL A   1      45.001  21.190  24.680  1.00  0.00     0.054 A 
BRANCH  74  75
ATOM     75  S   UNL A   1      44.611  19.501  24.144  1.00  0.00     0.124 S 
ATOM     76  O   UNL A   1      43.361  19.242  24.850  1.00  0.00    -0.237 OA
ATOM     77  O   UNL A   1      44.503  19.641  22.694  1.00  0.00    -0.237 OA
ATOM     78  O   UNL A   1      45.764  18.727  24.601  1.00  0.00    -0.744 OA
ENDBRANCH  74  75
ENDBRANCH  46  69
BRANCH  58  79
ATOM     79  C   UNL A   1      51.152  27.877  26.010  1.00  0.00    -0.014 A 
ATOM     80  C   UNL A   1      51.658  28.144  24.726  1.00  0.00     0.010 A 
ATOM     81  C   UNL A   1      52.011  27.366  27.000  1.00  0.00     0.010 A 
ATOM     82  C   UNL A   1      52.990  27.858  24.421  1.00  0.00     0.020 A 
ATOM     83  C   UNL A   1      53.348  27.100  26.704  1.00  0.00     0.020 A 
ATOM     84  C   UNL A   1      53.823  27.328  25.409  1.00  0.00     0.054 A 
BRANCH  84  85
ATOM     85  S   UNL A   1      55.551  26.962  24.997  1.00  0.00     0.124 S 
ATOM     86  O   UNL A   1      56.134  28.300  24.930  1.00  0.00    -0.237 OA
ATOM     87  O   UNL A   1      55.988  26.142  26.125  1.00  0.00    -0.237 OA
ATOM     88  O   UNL A   1      55.458  26.256  23.722  1.00  0.00    -0.744 OA
ENDBRANCH  84  85
ENDBRANCH  58  79
ENDBRANCH  32  33
ENDBRANCH  25  27
ENDBRANCH  24  25
ENDBRANCH  23  24
ENDBRANCH   1  23
TORSDOF 18
ENDMDL
MODEL 3
REMARK VINA RESULT:     -10.5      0.692      8.226
REMARK SMILES COc1ncnc(N2CCCC[C@H]2CC(=O)OCCOC(=O)c2ccc(-c3c4nc(c(-c5ccc(S(=O)(=O)[O-])cc5)c5ccc([nH]5)c(-c5ccc(S(=O)(=O)[O-])cc5)c5nc(c(-c6ccc(S(=O)(=O)[O-])cc6)c6ccc3[nH]6)C=C5)C=C4)cc2)c1[N+](=O)[O-]
REMARK SMILES IDX 18 1 17 2 15 3 16 4 14 5 13 6 8 7 9 8 10 9 12 10 11 11 7 12
REMARK SMILES IDX 3 13 4 14 83 15 5 16 6 17 2 18 1 19 84 20 85 21 86 22 19 23
REMARK SMILES IDX 20 24 21 25 22 26 23 27 24 28 82 29 25 30 81 31 26 32 27 33
REMARK SMILES IDX 28 34 75 35 29 36 80 37 74 38 76 39 30 40 79 41 73 42 72 43
REMARK SMILES IDX 31 45 61 46 42 47 60 48 43 49 46 50 59 51 77 52 44 53 45 54
REMARK SMILES IDX 58 56 78 57 47 58 32 59 33 60 41 61 34 62 40 63 35 64 36 65
REMARK SMILES IDX 37 66 38 67 39 68 62 69 63 70 71 71 64 72 70 73 65 74 66 75
REMARK SMILES IDX 67 76 68 77 69 78 48 79 49 80 57 81 50 82 56 83 51 84 52 85
REMARK SMILES IDX 53 86 54 87 55 88
REMARK H PARENT 76 44 46 55
REMARK Flexibility Score: inf
ROOT
ATOM      1  C   UNL A   1      37.400  22.901  25.667  1.00  0.00     0.274 C 
ENDROOT
BRANCH   1   2
ATOM      2  O   UNL A   1      36.971  23.671  24.524  1.00  0.00    -0.462 OA
BRANCH   2   3
ATOM      3  C   UNL A   1      36.235  22.999  23.609  1.00  0.00     0.307 C 
ATOM      4  O   UNL A   1      36.406  23.071  22.395  1.00  0.00    -0.252 OA
BRANCH   3   5
ATOM      5  C   UNL A   1      35.085  22.227  24.198  1.00  0.00     0.147 C 
BRANCH   5   6
ATOM      6  C   UNL A   1      33.721  22.933  24.404  1.00  0.00     0.095 C 
ATOM      7  N   UNL A   1      33.168  23.529  23.155  1.00  0.00    -0.347 N 
ATOM      8  C   UNL A   1      32.925  22.558  22.066  1.00  0.00     0.118 C 
ATOM      9  C   UNL A   1      32.027  21.397  22.514  1.00  0.00     0.022 C 
ATOM     10  C   UNL A   1      32.695  21.879  24.903  1.00  0.00     0.026 C 
ATOM     11  C   UNL A   1      32.446  20.793  23.854  1.00  0.00     0.004 C 
BRANCH   7  12
ATOM     12  C   UNL A   1      32.207  24.551  23.246  1.00  0.00     0.215 A 
ATOM     13  C   UNL A   1      31.053  26.558  22.635  1.00  0.00     0.299 A 
ATOM     14  N   UNL A   1      30.092  26.356  23.551  1.00  0.00    -0.196 NA
ATOM     15  C   UNL A   1      32.139  25.705  22.477  1.00  0.00     0.372 A 
ATOM     16  C   UNL A   1      30.234  25.253  24.280  1.00  0.00     0.228 A 
ATOM     17  N   UNL A   1      31.218  24.349  24.154  1.00  0.00    -0.212 NA
BRANCH  13  18
ATOM     18  O   UNL A   1      30.864  27.715  21.922  1.00  0.00    -0.476 OA
ATOM     19  C   UNL A   1      30.780  28.883  22.737  1.00  0.00     0.280 C 
ENDBRANCH  13  18
BRANCH  15  20
ATOM     20  N   UNL A   1      33.033  26.008  21.414  1.00  0.00     0.072 N 
ATOM     21  O   UNL A   1      34.052  26.653  21.703  1.00  0.00    -0.258 OA
ATOM     22  O   UNL A   1      32.832  25.424  20.337  1.00  0.00    -0.258 OA
ENDBRANCH  15  20
ENDBRANCH   7  12
ENDBRANCH   5   6
ENDBRANCH   3   5
ENDBRANCH   2   3
ENDBRANCH   1   2
BRANCH   1  23
ATOM     23  C   UNL A   1      38.851  23.168  26.110  1.00  0.00     0.275 C 
BRANCH  23  24
ATOM     24  O   UNL A   1      38.992  24.072  27.227  1.00  0.00    -0.458 OA
BRANCH  24  25
ATOM     25  C   UNL A   1      40.201  24.669  27.274  1.00  0.00     0.338 C 
ATOM     26  O   UNL A   1      41.124  24.487  26.500  1.00  0.00    -0.246 OA
BRANCH  25  27
ATOM     27  C   UNL A   1      40.346  25.711  28.282  1.00  0.00     0.060 A 
ATOM     28  C   UNL A   1      39.288  25.821  29.194  1.00  0.00     0.016 A 
ATOM     29  C   UNL A   1      41.356  26.668  28.226  1.00  0.00     0.016 A 
ATOM     30  C   UNL A   1      39.236  26.896  30.060  1.00  0.00     0.010 A 
ATOM     31  C   UNL A   1      41.317  27.740  29.122  1.00  0.00     0.010 A 
ATOM     32  C   UNL A   1      40.261  27.851  30.042  1.00  0.00    -0.014 A 
BRANCH  32  33
ATOM     33  C   UNL A   1      40.251  28.884  31.095  1.00  0.00     0.031 A 
ATOM     34  C   UNL A   1      39.223  29.970  31.111  1.00  0.00     0.074 A 
ATOM     35  C   UNL A   1      41.161  28.758  32.079  1.00  0.00     0.049 A 
ATOM     36  N   UNL A   1      39.047  30.909  32.004  1.00  0.00    -0.248 NA
ATOM     37  C   UNL A   1      38.273  30.014  29.989  1.00  0.00     0.031 C 
ATOM     38  C   UNL A   1      42.188  27.712  32.143  1.00  0.00     0.029 A 
ATOM     39  N   UNL A   1      41.357  29.488  33.218  1.00  0.00    -0.354 N 
ATOM     40  C   UNL A   1      37.985  31.675  31.542  1.00  0.00     0.074 A 
ATOM     41  C   UNL A   1      37.553  31.089  30.291  1.00  0.00     0.031 C 
ATOM     42  C   UNL A   1      42.885  27.851  33.280  1.00  0.00     0.029 A 
ATOM     43  C   UNL A   1      42.384  29.015  33.997  1.00  0.00     0.049 A 
ATOM     44  H   UNL A   1      40.814  30.274  33.457  1.00  0.00     0.167 HD
ATOM     45  C   UNL A   1      37.435  32.773  32.115  1.00  0.00     0.031 A 
ATOM     46  C   UNL A   1      42.878  29.480  35.158  1.00  0.00     0.031 A 
ATOM     47  C   UNL A   1      37.884  33.336  33.364  1.00  0.00     0.049 A 
ATOM     48  C   UNL A   1      42.239  30.688  35.772  1.00  0.00     0.074 A 
ATOM     49  C   UNL A   1      37.384  34.433  34.044  1.00  0.00     0.029 A 
ATOM     50  N   UNL A   1      38.942  32.847  34.119  1.00  0.00    -0.354 N 
ATOM     51  N   UNL A   1      41.219  31.389  35.332  1.00  0.00    -0.248 NA
ATOM     52  C   UNL A   1      42.810  31.168  37.034  1.00  0.00     0.031 C 
ATOM     53  C   UNL A   1      38.167  34.632  35.188  1.00  0.00     0.029 A 
ATOM     54  C   UNL A   1      39.127  33.634  35.243  1.00  0.00     0.049 A 
ATOM     55  H   UNL A   1      39.482  32.057  33.887  1.00  0.00     0.167 HD
ATOM     56  C   UNL A   1      41.032  32.401  36.261  1.00  0.00     0.074 A 
ATOM     57  C   UNL A   1      42.018  32.196  37.306  1.00  0.00     0.031 C 
ATOM     58  C   UNL A   1      40.134  33.417  36.250  1.00  0.00     0.031 A 
BRANCH  45  59
ATOM     59  C   UNL A   1      36.322  33.466  31.379  1.00  0.00    -0.014 A 
ATOM     60  C   UNL A   1      35.129  33.832  32.028  1.00  0.00     0.010 A 
ATOM     61  C   UNL A   1      36.500  33.812  30.027  1.00  0.00     0.010 A 
ATOM     62  C   UNL A   1      34.126  34.512  31.331  1.00  0.00     0.020 A 
ATOM     63  C   UNL A   1      35.506  34.508  29.331  1.00  0.00     0.020 A 
ATOM     64  C   UNL A   1      34.320  34.844  29.985  1.00  0.00     0.054 A 
BRANCH  64  65
ATOM     65  S   UNL A   1      33.020  35.763  29.112  1.00  0.00     0.124 S 
ATOM     66  O   UNL A   1      32.423  34.722  28.279  1.00  0.00    -0.237 OA
ATOM     67  O   UNL A   1      32.182  36.253  30.204  1.00  0.00    -0.237 OA
ATOM     68  O   UNL A   1      33.755  36.796  28.385  1.00  0.00    -0.744 OA
ENDBRANCH  64  65
ENDBRANCH  45  59
BRANCH  46  69
ATOM     69  C   UNL A   1      44.053  28.814  35.776  1.00  0.00    -0.014 A 
ATOM     70  C   UNL A   1      43.887  27.763  36.693  1.00  0.00     0.010 A 
ATOM     71  C   UNL A   1      45.354  29.206  35.408  1.00  0.00     0.010 A 
ATOM     72  C   UNL A   1      45.004  27.124  37.242  1.00  0.00     0.020 A 
ATOM     73  C   UNL A   1      46.469  28.553  35.933  1.00  0.00     0.020 A 
ATOM     74  C   UNL A   1      46.288  27.523  36.858  1.00  0.00     0.054 A 
BRANCH  74  75
ATOM     75  S   UNL A   1      47.726  26.645  37.530  1.00  0.00     0.124 S 
ATOM     76  O   UNL A   1      48.616  27.747  37.879  1.00  0.00    -0.237 OA
ATOM     77  O   UNL A   1      47.156  25.909  38.656  1.00  0.00    -0.237 OA
ATOM     78  O   UNL A   1      48.165  25.812  36.412  1.00  0.00    -0.744 OA
ENDBRANCH  74  75
ENDBRANCH  46  69
BRANCH  58  79
ATOM     79  C   UNL A   1      40.204  34.378  37.402  1.00  0.00    -0.014 A 
ATOM     80  C   UNL A   1      39.426  34.173  38.556  1.00  0.00     0.010 A 
ATOM     81  C   UNL A   1      41.050  35.498  37.329  1.00  0.00     0.010 A 
ATOM     82  C   UNL A   1      39.457  35.099  39.599  1.00  0.00     0.020 A 
ATOM     83  C   UNL A   1      41.099  36.415  38.380  1.00  0.00     0.020 A 
ATOM     84  C   UNL A   1      40.285  36.220  39.499  1.00  0.00     0.054 A 
BRANCH  84  85
ATOM     85  S   UNL A   1      40.313  37.415  40.863  1.00  0.00     0.124 S 
ATOM     86  O   UNL A   1      41.275  38.402  40.379  1.00  0.00    -0.237 OA
ATOM     87  O   UNL A   1      38.926  37.869  40.928  1.00  0.00    -0.237 OA
ATOM     88  O   UNL A   1      40.754  36.620  42.007  1.00  0.00    -0.744 OA
ENDBRANCH  84  85
ENDBRANCH  58  79
ENDBRANCH  32  33
ENDBRANCH  25  27
ENDBRANCH  24  25
ENDBRANCH  23  24
ENDBRANCH   1  23
TORSDOF 18
ENDMDL
