MODEL 1
REMARK VINA RESULT:     -11.7      0.000      0.000
REMARK SMILES O=C(C[C@@H]1C(=O)NCCN1C(=O)OCC1c2ccccc2-c2ccccc21)OCCOC(=O)c1ccc(-c2c3nc(c(-c4ccc(S(=O)(=O)[O-])cc4)c4ccc([nH]4)c(-c4ccc(S(=O)(=O)[O-])cc4)c4nc(c(-c5ccc(S(=O)(=O)[O-])cc5)c5ccc2[nH]5)C=C4)C=C3)cc1
REMARK SMILES IDX 29 1 28 2 2 3 1 4 3 5 4 6 5 7 10 8 6 9 7 10 9 11 8 12 11 14
REMARK SMILES IDX 12 15 13 16 14 17 15 18 16 19 27 20 17 21 21 22 22 23 26 24
REMARK SMILES IDX 18 25 20 26 23 27 25 28 19 29 24 30 30 31 31 32 32 33 33 34
REMARK SMILES IDX 34 35 35 36 93 37 36 38 92 39 37 40 38 41 39 42 86 43 40 44
REMARK SMILES IDX 91 45 85 46 87 47 41 48 90 49 84 50 83 51 42 53 72 54 53 55
REMARK SMILES IDX 71 56 54 57 57 58 70 59 88 60 55 61 56 62 69 64 89 65 58 66
REMARK SMILES IDX 43 67 44 68 52 69 45 70 51 71 46 72 47 73 48 74 49 75 50 76
REMARK SMILES IDX 73 77 74 78 82 79 75 80 81 81 76 82 77 83 78 84 79 85 80 86
REMARK SMILES IDX 59 87 60 88 68 89 61 90 67 91 62 92 63 93 64 94 65 95 66 96
REMARK H PARENT 7 13 87 52 57 63
REMARK Flexibility Score: inf
ROOT
ATOM      1  C   UNL A   1      37.012  21.450  24.936  1.00  0.00     0.274 C 
ENDROOT
BRANCH   1   2
ATOM      2  O   UNL A   1      35.965  21.069  25.837  1.00  0.00    -0.462 OA
BRANCH   2   3
ATOM      3  C   UNL A   1      34.956  21.902  26.157  1.00  0.00     0.308 C 
ATOM      4  O   UNL A   1      35.143  23.119  26.135  1.00  0.00    -0.252 OA
BRANCH   3   5
ATOM      5  C   UNL A   1      33.589  21.346  26.473  1.00  0.00     0.158 C 
BRANCH   5   6
ATOM      6  C   UNL A   1      32.396  21.571  25.542  1.00  0.00     0.189 C 
ATOM      7  C   UNL A   1      32.663  20.787  24.220  1.00  0.00     0.243 C 
ATOM      8  N   UNL A   1      31.816  22.924  25.396  1.00  0.00    -0.294 N 
ATOM      9  O   UNL A   1      33.150  19.658  24.192  1.00  0.00    -0.273 OA
ATOM     10  N   UNL A   1      32.338  21.383  23.035  1.00  0.00    -0.353 N 
ATOM     11  C   UNL A   1      31.077  23.165  24.157  1.00  0.00     0.145 C 
ATOM     12  C   UNL A   1      31.897  22.752  22.940  1.00  0.00     0.137 C 
ATOM     13  H   UNL A   1      32.409  20.854  22.208  1.00  0.00     0.163 HD
BRANCH   8  14
ATOM     14  C   UNL A   1      31.578  23.790  26.458  1.00  0.00     0.410 C 
ATOM     15  O   UNL A   1      30.632  23.673  27.229  1.00  0.00    -0.224 OA
BRANCH  14  16
ATOM     16  O   UNL A   1      32.420  24.842  26.456  1.00  0.00    -0.448 OA
BRANCH  16  17
ATOM     17  C   UNL A   1      31.909  26.196  26.584  1.00  0.00     0.248 C 
BRANCH  17  18
ATOM     18  C   UNL A   1      32.635  27.185  25.631  1.00  0.00     0.088 C 
ATOM     19  C   UNL A   1      31.660  27.767  24.614  1.00  0.00    -0.029 A 
ATOM     20  C   UNL A   1      33.108  28.457  26.336  1.00  0.00    -0.029 A 
ATOM     21  C   UNL A   1      31.048  27.132  23.549  1.00  0.00     0.005 A 
ATOM     22  C   UNL A   1      31.403  29.122  24.903  1.00  0.00    -0.014 A 
ATOM     23  C   UNL A   1      32.342  29.565  25.911  1.00  0.00    -0.014 A 
ATOM     24  C   UNL A   1      34.195  28.617  27.183  1.00  0.00     0.005 A 
ATOM     25  C   UNL A   1      30.039  27.806  22.871  1.00  0.00     0.000 A 
ATOM     26  C   UNL A   1      30.409  29.801  24.222  1.00  0.00     0.009 A 
ATOM     27  C   UNL A   1      32.642  30.842  26.356  1.00  0.00     0.009 A 
ATOM     28  C   UNL A   1      34.506  29.908  27.620  1.00  0.00     0.000 A 
ATOM     29  C   UNL A   1      29.702  29.121  23.224  1.00  0.00     0.001 A 
ATOM     30  C   UNL A   1      33.733  31.010  27.215  1.00  0.00     0.001 A 
ENDBRANCH  17  18
ENDBRANCH  16  17
ENDBRANCH  14  16
ENDBRANCH   8  14
ENDBRANCH   5   6
ENDBRANCH   3   5
ENDBRANCH   2   3
ENDBRANCH   1   2
BRANCH   1  31
ATOM     31  C   UNL A   1      38.409  21.385  25.550  1.00  0.00     0.275 C 
BRANCH  31  32
ATOM     32  O   UNL A   1      38.831  22.698  25.943  1.00  0.00    -0.458 OA
BRANCH  32  33
ATOM     33  C   UNL A   1      40.149  22.870  26.226  1.00  0.00     0.338 C 
ATOM     34  O   UNL A   1      41.080  22.191  25.833  1.00  0.00    -0.246 OA
BRANCH  33  35
ATOM     35  C   UNL A   1      40.268  24.159  26.943  1.00  0.00     0.060 A 
ATOM     36  C   UNL A   1      41.162  25.134  26.475  1.00  0.00     0.016 A 
ATOM     37  C   UNL A   1      39.412  24.437  28.010  1.00  0.00     0.016 A 
ATOM     38  C   UNL A   1      41.191  26.399  27.067  1.00  0.00     0.010 A 
ATOM     39  C   UNL A   1      39.468  25.686  28.624  1.00  0.00     0.010 A 
ATOM     40  C   UNL A   1      40.368  26.666  28.168  1.00  0.00    -0.014 A 
BRANCH  40  41
ATOM     41  C   UNL A   1      40.609  27.839  29.038  1.00  0.00     0.031 A 
ATOM     42  C   UNL A   1      41.764  27.751  29.994  1.00  0.00     0.074 A 
ATOM     43  C   UNL A   1      39.784  28.899  29.061  1.00  0.00     0.049 A 
ATOM     44  N   UNL A   1      42.080  28.531  30.991  1.00  0.00    -0.248 NA
ATOM     45  C   UNL A   1      42.669  26.603  29.808  1.00  0.00     0.031 C 
ATOM     46  C   UNL A   1      38.654  29.115  28.162  1.00  0.00     0.029 A 
ATOM     47  N   UNL A   1      39.755  29.977  29.911  1.00  0.00    -0.354 N 
ATOM     48  C   UNL A   1      43.202  27.953  31.572  1.00  0.00     0.074 A 
ATOM     49  C   UNL A   1      43.499  26.750  30.827  1.00  0.00     0.031 C 
ATOM     50  C   UNL A   1      38.019  30.243  28.530  1.00  0.00     0.029 A 
ATOM     51  C   UNL A   1      38.668  30.797  29.719  1.00  0.00     0.049 A 
ATOM     52  H   UNL A   1      40.446  30.147  30.592  1.00  0.00     0.167 HD
ATOM     53  C   UNL A   1      43.916  28.379  32.639  1.00  0.00     0.031 A 
ATOM     54  C   UNL A   1      38.225  31.845  30.446  1.00  0.00     0.031 A 
ATOM     55  C   UNL A   1      43.586  29.549  33.403  1.00  0.00     0.049 A 
ATOM     56  C   UNL A   1      38.991  32.270  31.674  1.00  0.00     0.074 A 
ATOM     57  C   UNL A   1      44.249  30.079  34.493  1.00  0.00     0.029 A 
ATOM     58  N   UNL A   1      42.483  30.359  33.168  1.00  0.00    -0.354 N 
ATOM     59  N   UNL A   1      40.072  31.740  32.198  1.00  0.00    -0.248 NA
ATOM     60  C   UNL A   1      38.481  33.439  32.408  1.00  0.00     0.031 C 
ATOM     61  C   UNL A   1      43.509  31.168  34.963  1.00  0.00     0.029 A 
ATOM     62  C   UNL A   1      42.430  31.368  34.114  1.00  0.00     0.049 A 
ATOM     63  H   UNL A   1      41.835  30.235  32.438  1.00  0.00     0.167 HD
ATOM     64  C   UNL A   1      40.390  32.528  33.301  1.00  0.00     0.074 A 
ATOM     65  C   UNL A   1      39.387  33.571  33.370  1.00  0.00     0.031 C 
ATOM     66  C   UNL A   1      41.426  32.405  34.169  1.00  0.00     0.031 A 
BRANCH  53  67
ATOM     67  C   UNL A   1      45.069  27.515  33.076  1.00  0.00    -0.014 A 
ATOM     68  C   UNL A   1      44.939  26.586  34.126  1.00  0.00     0.010 A 
ATOM     69  C   UNL A   1      46.318  27.663  32.445  1.00  0.00     0.010 A 
ATOM     70  C   UNL A   1      46.052  25.877  34.583  1.00  0.00     0.020 A 
ATOM     71  C   UNL A   1      47.425  26.927  32.875  1.00  0.00     0.020 A 
ATOM     72  C   UNL A   1      47.290  26.060  33.960  1.00  0.00     0.054 A 
BRANCH  72  73
ATOM     73  S   UNL A   1      48.724  25.148  34.591  1.00  0.00     0.124 S 
ATOM     74  O   UNL A   1      49.338  26.131  35.480  1.00  0.00    -0.237 OA
ATOM     75  O   UNL A   1      48.109  24.001  35.253  1.00  0.00    -0.237 OA
ATOM     76  O   UNL A   1      49.492  24.833  33.388  1.00  0.00    -0.744 OA
ENDBRANCH  72  73
ENDBRANCH  53  67
BRANCH  54  77
ATOM     77  C   UNL A   1      36.972  32.540  30.039  1.00  0.00    -0.014 A 
ATOM     78  C   UNL A   1      35.760  32.288  30.704  1.00  0.00     0.010 A 
ATOM     79  C   UNL A   1      36.999  33.504  29.012  1.00  0.00     0.010 A 
ATOM     80  C   UNL A   1      34.602  32.994  30.359  1.00  0.00     0.020 A 
ATOM     81  C   UNL A   1      35.851  34.231  28.684  1.00  0.00     0.020 A 
ATOM     82  C   UNL A   1      34.658  33.972  29.362  1.00  0.00     0.054 A 
BRANCH  82  83
ATOM     83  S   UNL A   1      33.171  34.954  29.012  1.00  0.00     0.124 S 
ATOM     84  O   UNL A   1      32.502  34.144  27.999  1.00  0.00    -0.237 OA
ATOM     85  O   UNL A   1      32.517  35.005  30.317  1.00  0.00    -0.237 OA
ATOM     86  O   UNL A   1      33.706  36.230  28.542  1.00  0.00    -0.744 OA
ENDBRANCH  82  83
ENDBRANCH  54  77
BRANCH  66  87
ATOM     87  C   UNL A   1      41.581  33.447  35.247  1.00  0.00    -0.014 A 
ATOM     88  C   UNL A   1      42.006  34.755  34.958  1.00  0.00     0.010 A 
ATOM     89  C   UNL A   1      41.182  33.132  36.561  1.00  0.00     0.010 A 
ATOM     90  C   UNL A   1      42.038  35.726  35.965  1.00  0.00     0.020 A 
ATOM     91  C   UNL A   1      41.184  34.106  37.561  1.00  0.00     0.020 A 
ATOM     92  C   UNL A   1      41.619  35.397  37.259  1.00  0.00     0.054 A 
BRANCH  92  93
ATOM     93  S   UNL A   1      41.593  36.695  38.527  1.00  0.00     0.124 S 
ATOM     94  O   UNL A   1      40.290  37.315  38.302  1.00  0.00    -0.237 OA
ATOM     95  O   UNL A   1      41.723  35.933  39.767  1.00  0.00    -0.237 OA
ATOM     96  O   UNL A   1      42.746  37.530  38.193  1.00  0.00    -0.744 OA
ENDBRANCH  92  93
ENDBRANCH  66  87
ENDBRANCH  40  41
ENDBRANCH  33  35
ENDBRANCH  32  33
ENDBRANCH  31  32
ENDBRANCH   1  31
TORSDOF 19
ENDMDL
MODEL 2
REMARK VINA RESULT:     -11.4      0.840      2.079
REMARK SMILES O=C(C[C@@H]1C(=O)NCCN1C(=O)OCC1c2ccccc2-c2ccccc21)OCCOC(=O)c1ccc(-c2c3nc(c(-c4ccc(S(=O)(=O)[O-])cc4)c4ccc([nH]4)c(-c4ccc(S(=O)(=O)[O-])cc4)c4nc(c(-c5ccc(S(=O)(=O)[O-])cc5)c5ccc2[nH]5)C=C4)C=C3)cc1
REMARK SMILES IDX 29 1 28 2 2 3 1 4 3 5 4 6 5 7 10 8 6 9 7 10 9 11 8 12 11 14
REMARK SMILES IDX 12 15 13 16 14 17 15 18 16 19 27 20 17 21 21 22 22 23 26 24
REMARK SMILES IDX 18 25 20 26 23 27 25 28 19 29 24 30 30 31 31 32 32 33 33 34
REMARK SMILES IDX 34 35 35 36 93 37 36 38 92 39 37 40 38 41 39 42 86 43 40 44
REMARK SMILES IDX 91 45 85 46 87 47 41 48 90 49 84 50 83 51 42 53 72 54 53 55
REMARK SMILES IDX 71 56 54 57 57 58 70 59 88 60 55 61 56 62 69 64 89 65 58 66
REMARK SMILES IDX 43 67 44 68 52 69 45 70 51 71 46 72 47 73 48 74 49 75 50 76
REMARK SMILES IDX 73 77 74 78 82 79 75 80 81 81 76 82 77 83 78 84 79 85 80 86
REMARK SMILES IDX 59 87 60 88 68 89 61 90 67 91 62 92 63 93 64 94 65 95 66 96
REMARK H PARENT 7 13 87 52 57 63
REMARK Flexibility Score: inf
ROOT
ATOM      1  C   UNL A   1      37.345  21.752  24.938  1.00  0.00     0.274 C 
ENDROOT
BRANCH   1   2
ATOM      2  O   UNL A   1      36.235  21.144  25.611  1.00  0.00    -0.462 OA
BRANCH   2   3
ATOM      3  C   UNL A   1      35.273  21.873  26.208  1.00  0.00     0.308 C 
ATOM      4  O   UNL A   1      35.440  23.082  26.372  1.00  0.00    -0.252 OA
BRANCH   3   5
ATOM      5  C   UNL A   1      33.973  21.220  26.613  1.00  0.00     0.158 C 
BRANCH   5   6
ATOM      6  C   UNL A   1      32.724  21.309  25.734  1.00  0.00     0.189 C 
ATOM      7  C   UNL A   1      32.976  20.457  24.452  1.00  0.00     0.243 C 
ATOM      8  N   UNL A   1      32.051  22.611  25.534  1.00  0.00    -0.294 N 
ATOM      9  O   UNL A   1      33.534  19.361  24.469  1.00  0.00    -0.273 OA
ATOM     10  N   UNL A   1      32.556  20.952  23.250  1.00  0.00    -0.353 N 
ATOM     11  C   UNL A   1      31.237  22.723  24.323  1.00  0.00     0.145 C 
ATOM     12  C   UNL A   1      32.022  22.282  23.093  1.00  0.00     0.137 C 
ATOM     13  H   UNL A   1      32.620  20.375  22.455  1.00  0.00     0.163 HD
BRANCH   8  14
ATOM     14  C   UNL A   1      31.809  23.529  26.550  1.00  0.00     0.410 C 
ATOM     15  O   UNL A   1      31.434  23.213  27.674  1.00  0.00    -0.224 OA
BRANCH  14  16
ATOM     16  O   UNL A   1      31.899  24.802  26.118  1.00  0.00    -0.448 OA
BRANCH  16  17
ATOM     17  C   UNL A   1      30.773  25.710  26.258  1.00  0.00     0.248 C 
BRANCH  17  18
ATOM     18  C   UNL A   1      30.927  26.970  25.363  1.00  0.00     0.088 C 
ATOM     19  C   UNL A   1      31.932  27.943  25.970  1.00  0.00    -0.029 A 
ATOM     20  C   UNL A   1      31.592  26.672  24.019  1.00  0.00    -0.029 A 
ATOM     21  C   UNL A   1      31.798  28.720  27.106  1.00  0.00     0.005 A 
ATOM     22  C   UNL A   1      33.120  27.955  25.211  1.00  0.00    -0.014 A 
ATOM     23  C   UNL A   1      32.887  27.235  23.978  1.00  0.00    -0.014 A 
ATOM     24  C   UNL A   1      31.040  26.059  22.903  1.00  0.00     0.005 A 
ATOM     25  C   UNL A   1      32.921  29.384  27.587  1.00  0.00     0.000 A 
ATOM     26  C   UNL A   1      34.235  28.626  25.679  1.00  0.00     0.009 A 
ATOM     27  C   UNL A   1      33.653  27.161  22.826  1.00  0.00     0.009 A 
ATOM     28  C   UNL A   1      31.807  25.999  21.736  1.00  0.00     0.000 A 
ATOM     29  C   UNL A   1      34.139  29.314  26.893  1.00  0.00     0.001 A 
ATOM     30  C   UNL A   1      33.104  26.540  21.699  1.00  0.00     0.001 A 
ENDBRANCH  17  18
ENDBRANCH  16  17
ENDBRANCH  14  16
ENDBRANCH   8  14
ENDBRANCH   5   6
ENDBRANCH   3   5
ENDBRANCH   2   3
ENDBRANCH   1   2
BRANCH   1  31
ATOM     31  C   UNL A   1      38.673  21.604  25.678  1.00  0.00     0.275 C 
BRANCH  31  32
ATOM     32  O   UNL A   1      39.028  22.849  26.296  1.00  0.00    -0.458 OA
BRANCH  32  33
ATOM     33  C   UNL A   1      40.351  23.098  26.480  1.00  0.00     0.338 C 
ATOM     34  O   UNL A   1      41.288  22.484  26.004  1.00  0.00    -0.246 OA
BRANCH  33  35
ATOM     35  C   UNL A   1      40.448  24.381  27.211  1.00  0.00     0.060 A 
ATOM     36  C   UNL A   1      41.528  25.241  26.963  1.00  0.00     0.016 A 
ATOM     37  C   UNL A   1      39.409  24.774  28.056  1.00  0.00     0.016 A 
ATOM     38  C   UNL A   1      41.563  26.509  27.552  1.00  0.00     0.010 A 
ATOM     39  C   UNL A   1      39.463  26.022  28.672  1.00  0.00     0.010 A 
ATOM     40  C   UNL A   1      40.547  26.887  28.438  1.00  0.00    -0.014 A 
BRANCH  40  41
ATOM     41  C   UNL A   1      40.715  28.045  29.344  1.00  0.00     0.031 A 
ATOM     42  C   UNL A   1      41.804  27.951  30.373  1.00  0.00     0.074 A 
ATOM     43  C   UNL A   1      39.876  29.094  29.334  1.00  0.00     0.049 A 
ATOM     44  N   UNL A   1      42.043  28.714  31.405  1.00  0.00    -0.248 NA
ATOM     45  C   UNL A   1      42.735  26.818  30.225  1.00  0.00     0.031 C 
ATOM     46  C   UNL A   1      38.804  29.316  28.366  1.00  0.00     0.029 A 
ATOM     47  N   UNL A   1      39.776  30.154  30.201  1.00  0.00    -0.354 N 
ATOM     48  C   UNL A   1      43.132  28.138  32.047  1.00  0.00     0.074 A 
ATOM     49  C   UNL A   1      43.493  26.953  31.299  1.00  0.00     0.031 C 
ATOM     50  C   UNL A   1      38.132  30.428  28.713  1.00  0.00     0.029 A 
ATOM     51  C   UNL A   1      38.694  30.965  29.953  1.00  0.00     0.049 A 
ATOM     52  H   UNL A   1      40.418  30.319  30.930  1.00  0.00     0.167 HD
ATOM     53  C   UNL A   1      43.768  28.550  33.168  1.00  0.00     0.031 A 
ATOM     54  C   UNL A   1      38.189  31.992  30.670  1.00  0.00     0.031 A 
ATOM     55  C   UNL A   1      43.373  29.700  33.931  1.00  0.00     0.049 A 
ATOM     56  C   UNL A   1      38.866  32.401  31.955  1.00  0.00     0.074 A 
ATOM     57  C   UNL A   1      43.955  30.216  35.073  1.00  0.00     0.029 A 
ATOM     58  N   UNL A   1      42.277  30.501  33.639  1.00  0.00    -0.354 N 
ATOM     59  N   UNL A   1      39.917  31.873  32.538  1.00  0.00    -0.248 NA
ATOM     60  C   UNL A   1      38.294  33.548  32.676  1.00  0.00     0.031 C 
ATOM     61  C   UNL A   1      43.171  31.285  35.514  1.00  0.00     0.029 A 
ATOM     62  C   UNL A   1      42.148  31.489  34.600  1.00  0.00     0.049 A 
ATOM     63  H   UNL A   1      41.680  30.384  32.866  1.00  0.00     0.167 HD
ATOM     64  C   UNL A   1      40.151  32.642  33.676  1.00  0.00     0.074 A 
ATOM     65  C   UNL A   1      39.132  33.672  33.698  1.00  0.00     0.031 C 
ATOM     66  C   UNL A   1      41.129  32.513  34.607  1.00  0.00     0.031 A 
BRANCH  53  67
ATOM     67  C   UNL A   1      44.901  27.691  33.663  1.00  0.00    -0.014 A 
ATOM     68  C   UNL A   1      46.226  27.899  33.232  1.00  0.00     0.010 A 
ATOM     69  C   UNL A   1      44.628  26.632  34.547  1.00  0.00     0.010 A 
ATOM     70  C   UNL A   1      47.240  27.020  33.620  1.00  0.00     0.020 A 
ATOM     71  C   UNL A   1      45.647  25.774  34.968  1.00  0.00     0.020 A 
ATOM     72  C   UNL A   1      46.941  25.958  34.478  1.00  0.00     0.054 A 
BRANCH  72  73
ATOM     73  S   UNL A   1      48.270  24.816  34.945  1.00  0.00     0.124 S 
ATOM     74  O   UNL A   1      48.618  24.218  33.658  1.00  0.00    -0.237 OA
ATOM     75  O   UNL A   1      49.276  25.711  35.513  1.00  0.00    -0.237 OA
ATOM     76  O   UNL A   1      47.633  23.912  35.899  1.00  0.00    -0.744 OA
ENDBRANCH  72  73
ENDBRANCH  53  67
BRANCH  54  77
ATOM     77  C   UNL A   1      36.957  32.681  30.194  1.00  0.00    -0.014 A 
ATOM     78  C   UNL A   1      35.685  32.244  30.602  1.00  0.00     0.010 A 
ATOM     79  C   UNL A   1      37.055  33.817  29.368  1.00  0.00     0.010 A 
ATOM     80  C   UNL A   1      34.536  32.937  30.204  1.00  0.00     0.020 A 
ATOM     81  C   UNL A   1      35.912  34.528  28.991  1.00  0.00     0.020 A 
ATOM     82  C   UNL A   1      34.658  34.083  29.414  1.00  0.00     0.054 A 
BRANCH  82  83
ATOM     83  S   UNL A   1      33.163  35.030  29.006  1.00  0.00     0.124 S 
ATOM     84  O   UNL A   1      33.720  36.245  28.421  1.00  0.00    -0.237 OA
ATOM     85  O   UNL A   1      32.473  34.138  28.078  1.00  0.00    -0.237 OA
ATOM     86  O   UNL A   1      32.503  35.201  30.299  1.00  0.00    -0.744 OA
ENDBRANCH  82  83
ENDBRANCH  54  77
BRANCH  66  87
ATOM     87  C   UNL A   1      41.198  33.535  35.714  1.00  0.00    -0.014 A 
ATOM     88  C   UNL A   1      41.830  34.778  35.537  1.00  0.00     0.010 A 
ATOM     89  C   UNL A   1      40.514  33.280  36.919  1.00  0.00     0.010 A 
ATOM     90  C   UNL A   1      41.785  35.743  36.549  1.00  0.00     0.020 A 
ATOM     91  C   UNL A   1      40.442  34.253  37.919  1.00  0.00     0.020 A 
ATOM     92  C   UNL A   1      41.084  35.477  37.731  1.00  0.00     0.054 A 
BRANCH  92  93
ATOM     93  S   UNL A   1      40.972  36.776  38.993  1.00  0.00     0.124 S 
ATOM     94  O   UNL A   1      40.964  35.999  40.230  1.00  0.00    -0.237 OA
ATOM     95  O   UNL A   1      42.180  37.561  38.751  1.00  0.00    -0.237 OA
ATOM     96  O   UNL A   1      39.718  37.459  38.679  1.00  0.00    -0.744 OA
ENDBRANCH  92  93
ENDBRANCH  66  87
ENDBRANCH  40  41
ENDBRANCH  33  35
ENDBRANCH  32  33
ENDBRANCH  31  32
ENDBRANCH   1  31
TORSDOF 19
ENDMDL
MODEL 3
REMARK VINA RESULT:     -11.2      4.965     11.129
REMARK SMILES O=C(C[C@@H]1C(=O)NCCN1C(=O)OCC1c2ccccc2-c2ccccc21)OCCOC(=O)c1ccc(-c2c3nc(c(-c4ccc(S(=O)(=O)[O-])cc4)c4ccc([nH]4)c(-c4ccc(S(=O)(=O)[O-])cc4)c4nc(c(-c5ccc(S(=O)(=O)[O-])cc5)c5ccc2[nH]5)C=C4)C=C3)cc1
REMARK SMILES IDX 29 1 28 2 2 3 1 4 3 5 4 6 5 7 10 8 6 9 7 10 9 11 8 12 11 14
REMARK SMILES IDX 12 15 13 16 14 17 15 18 16 19 27 20 17 21 21 22 22 23 26 24
REMARK SMILES IDX 18 25 20 26 23 27 25 28 19 29 24 30 30 31 31 32 32 33 33 34
REMARK SMILES IDX 34 35 35 36 93 37 36 38 92 39 37 40 38 41 39 42 86 43 40 44
REMARK SMILES IDX 91 45 85 46 87 47 41 48 90 49 84 50 83 51 42 53 72 54 53 55
REMARK SMILES IDX 71 56 54 57 57 58 70 59 88 60 55 61 56 62 69 64 89 65 58 66
REMARK SMILES IDX 43 67 44 68 52 69 45 70 51 71 46 72 47 73 48 74 49 75 50 76
REMARK SMILES IDX 73 77 74 78 82 79 75 80 81 81 76 82 77 83 78 84 79 85 80 86
REMARK SMILES IDX 59 87 60 88 68 89 61 90 67 91 62 92 63 93 64 94 65 95 66 96
REMARK H PARENT 7 13 87 52 57 63
REMARK Flexibility Score: inf
ROOT
ATOM      1  C   UNL A   1      46.099  25.585  25.453  1.00  0.00     0.274 C 
ENDROOT
BRANCH   1   2
ATOM      2  O   UNL A   1      45.755  24.475  24.614  1.00  0.00    -0.462 OA
BRANCH   2   3
ATOM      3  C   UNL A   1      45.494  23.252  25.114  1.00  0.00     0.308 C 
ATOM      4  O   UNL A   1      46.415  22.571  25.566  1.00  0.00    -0.252 OA
BRANCH   3   5
ATOM      5  C   UNL A   1      44.072  22.751  25.179  1.00  0.00     0.158 C 
BRANCH   5   6
ATOM      6  C   UNL A   1      43.671  21.594  26.096  1.00  0.00     0.189 C 
ATOM      7  C   UNL A   1      43.461  20.328  25.209  1.00  0.00     0.243 C 
ATOM      8  N   UNL A   1      42.681  21.812  27.173  1.00  0.00    -0.294 N 
ATOM      9  O   UNL A   1      44.201  20.029  24.274  1.00  0.00    -0.273 OA
ATOM     10  N   UNL A   1      42.402  19.510  25.486  1.00  0.00    -0.353 N 
ATOM     11  C   UNL A   1      41.975  20.616  27.635  1.00  0.00     0.145 C 
ATOM     12  C   UNL A   1      41.393  19.835  26.462  1.00  0.00     0.137 C 
ATOM     13  H   UNL A   1      42.325  18.659  24.997  1.00  0.00     0.163 HD
BRANCH   8  14
ATOM     14  C   UNL A   1      42.671  22.921  28.012  1.00  0.00     0.410 C 
ATOM     15  O   UNL A   1      41.670  23.593  28.236  1.00  0.00    -0.224 OA
BRANCH  14  16
ATOM     16  O   UNL A   1      43.907  23.248  28.438  1.00  0.00    -0.448 OA
BRANCH  16  17
ATOM     17  C   UNL A   1      44.268  23.105  29.837  1.00  0.00     0.248 C 
BRANCH  17  18
ATOM     18  C   UNL A   1      44.130  24.443  30.614  1.00  0.00     0.088 C 
ATOM     19  C   UNL A   1      44.474  24.249  32.087  1.00  0.00    -0.029 A 
ATOM     20  C   UNL A   1      45.177  25.481  30.209  1.00  0.00    -0.029 A 
ATOM     21  C   UNL A   1      43.756  23.570  33.054  1.00  0.00     0.005 A 
ATOM     22  C   UNL A   1      45.708  24.859  32.385  1.00  0.00    -0.014 A 
ATOM     23  C   UNL A   1      46.104  25.674  31.257  1.00  0.00    -0.014 A 
ATOM     24  C   UNL A   1      45.220  26.258  29.060  1.00  0.00     0.005 A 
ATOM     25  C   UNL A   1      44.358  23.349  34.288  1.00  0.00     0.000 A 
ATOM     26  C   UNL A   1      46.305  24.653  33.615  1.00  0.00     0.009 A 
ATOM     27  C   UNL A   1      47.103  26.629  31.149  1.00  0.00     0.009 A 
ATOM     28  C   UNL A   1      46.217  27.232  28.959  1.00  0.00     0.000 A 
ATOM     29  C   UNL A   1      45.636  23.862  34.556  1.00  0.00     0.001 A 
ATOM     30  C   UNL A   1      47.154  27.412  29.991  1.00  0.00     0.001 A 
ENDBRANCH  17  18
ENDBRANCH  16  17
ENDBRANCH  14  16
ENDBRANCH   8  14
ENDBRANCH   5   6
ENDBRANCH   3   5
ENDBRANCH   2   3
ENDBRANCH   1   2
BRANCH   1  31
ATOM     31  C   UNL A   1      45.226  26.820  25.233  1.00  0.00     0.275 C 
BRANCH  31  32
ATOM     32  O   UNL A   1      43.863  26.518  25.558  1.00  0.00    -0.458 OA
BRANCH  32  33
ATOM     33  C   UNL A   1      42.968  27.540  25.503  1.00  0.00     0.338 C 
ATOM     34  O   UNL A   1      42.393  27.960  24.517  1.00  0.00    -0.246 OA
BRANCH  33  35
ATOM     35  C   UNL A   1      42.670  27.923  26.901  1.00  0.00     0.060 A 
ATOM     36  C   UNL A   1      41.889  27.075  27.701  1.00  0.00     0.016 A 
ATOM     37  C   UNL A   1      43.258  29.067  27.445  1.00  0.00     0.016 A 
ATOM     38  C   UNL A   1      41.707  27.363  29.057  1.00  0.00     0.010 A 
ATOM     39  C   UNL A   1      43.044  29.373  28.786  1.00  0.00     0.010 A 
ATOM     40  C   UNL A   1      42.255  28.535  29.594  1.00  0.00    -0.014 A 
BRANCH  40  41
ATOM     41  C   UNL A   1      41.805  29.060  30.902  1.00  0.00     0.031 A 
ATOM     42  C   UNL A   1      40.570  29.915  30.902  1.00  0.00     0.074 A 
ATOM     43  C   UNL A   1      42.511  28.883  32.030  1.00  0.00     0.049 A 
ATOM     44  N   UNL A   1      40.071  30.657  31.854  1.00  0.00    -0.248 NA
ATOM     45  C   UNL A   1      39.811  29.952  29.640  1.00  0.00     0.031 C 
ATOM     46  C   UNL A   1      43.703  28.050  32.164  1.00  0.00     0.029 A 
ATOM     47  N   UNL A   1      42.340  29.435  33.276  1.00  0.00    -0.354 N 
ATOM     48  C   UNL A   1      38.958  31.273  31.297  1.00  0.00     0.074 A 
ATOM     49  C   UNL A   1      38.866  30.833  29.922  1.00  0.00     0.031 C 
ATOM     50  C   UNL A   1      44.178  28.172  33.416  1.00  0.00     0.029 A 
ATOM     51  C   UNL A   1      43.352  29.129  34.155  1.00  0.00     0.049 A 
ATOM     52  H   UNL A   1      41.567  29.995  33.517  1.00  0.00     0.167 HD
ATOM     53  C   UNL A   1      38.095  32.141  31.874  1.00  0.00     0.031 A 
ATOM     54  C   UNL A   1      43.607  29.603  35.393  1.00  0.00     0.031 A 
ATOM     55  C   UNL A   1      38.221  32.610  33.225  1.00  0.00     0.049 A 
ATOM     56  C   UNL A   1      42.675  30.622  36.002  1.00  0.00     0.074 A 
ATOM     57  C   UNL A   1      37.395  33.477  33.914  1.00  0.00     0.029 A 
ATOM     58  N   UNL A   1      39.255  32.268  34.085  1.00  0.00    -0.354 N 
ATOM     59  N   UNL A   1      41.604  31.175  35.482  1.00  0.00    -0.248 NA
ATOM     60  C   UNL A   1      42.983  31.077  37.366  1.00  0.00     0.031 C 
ATOM     61  C   UNL A   1      37.967  33.716  35.167  1.00  0.00     0.029 A 
ATOM     62  C   UNL A   1      39.105  32.932  35.290  1.00  0.00     0.049 A 
ATOM     63  H   UNL A   1      39.987  31.645  33.871  1.00  0.00     0.167 HD
ATOM     64  C   UNL A   1      41.091  32.017  36.466  1.00  0.00     0.074 A 
ATOM     65  C   UNL A   1      41.970  31.900  37.612  1.00  0.00     0.031 C 
ATOM     66  C   UNL A   1      39.986  32.803  36.427  1.00  0.00     0.031 A 
BRANCH  53  67
ATOM     67  C   UNL A   1      36.995  32.688  31.003  1.00  0.00    -0.014 A 
ATOM     68  C   UNL A   1      37.237  33.707  30.062  1.00  0.00     0.010 A 
ATOM     69  C   UNL A   1      35.686  32.196  31.157  1.00  0.00     0.010 A 
ATOM     70  C   UNL A   1      36.179  34.272  29.346  1.00  0.00     0.020 A 
ATOM     71  C   UNL A   1      34.631  32.733  30.415  1.00  0.00     0.020 A 
ATOM     72  C   UNL A   1      34.882  33.787  29.534  1.00  0.00     0.054 A 
BRANCH  72  73
ATOM     73  S   UNL A   1      33.523  34.556  28.613  1.00  0.00     0.124 S 
ATOM     74  O   UNL A   1      32.581  34.880  29.682  1.00  0.00    -0.237 OA
ATOM     75  O   UNL A   1      34.173  35.702  27.982  1.00  0.00    -0.237 OA
ATOM     76  O   UNL A   1      33.087  33.507  27.696  1.00  0.00    -0.744 OA
ENDBRANCH  72  73
ENDBRANCH  53  67
BRANCH  54  77
ATOM     77  C   UNL A   1      44.819  29.135  36.121  1.00  0.00    -0.014 A 
ATOM     78  C   UNL A   1      44.773  27.991  36.937  1.00  0.00     0.010 A 
ATOM     79  C   UNL A   1      46.047  29.805  35.956  1.00  0.00     0.010 A 
ATOM     80  C   UNL A   1      45.932  27.520  37.564  1.00  0.00     0.020 A 
ATOM     81  C   UNL A   1      47.212  29.322  36.559  1.00  0.00     0.020 A 
ATOM     82  C   UNL A   1      47.147  28.179  37.358  1.00  0.00     0.054 A 
BRANCH  82  83
ATOM     83  S   UNL A   1      48.656  27.483  38.090  1.00  0.00     0.124 S 
ATOM     84  O   UNL A   1      49.623  28.553  37.873  1.00  0.00    -0.237 OA
ATOM     85  O   UNL A   1      48.256  27.260  39.477  1.00  0.00    -0.237 OA
ATOM     86  O   UNL A   1      48.883  26.266  37.313  1.00  0.00    -0.744 OA
ENDBRANCH  82  83
ENDBRANCH  54  77
BRANCH  66  87
ATOM     87  C   UNL A   1      39.613  33.570  37.670  1.00  0.00    -0.014 A 
ATOM     88  C   UNL A   1      38.835  32.996  38.689  1.00  0.00     0.010 A 
ATOM     89  C   UNL A   1      40.151  34.858  37.863  1.00  0.00     0.010 A 
ATOM     90  C   UNL A   1      38.594  33.698  39.875  1.00  0.00     0.020 A 
ATOM     91  C   UNL A   1      39.939  35.550  39.057  1.00  0.00     0.020 A 
ATOM     92  C   UNL A   1      39.155  34.968  40.054  1.00  0.00     0.054 A 
BRANCH  92  93
ATOM     93  S   UNL A   1      38.895  35.824  41.633  1.00  0.00     0.124 S 
ATOM     94  O   UNL A   1      38.938  37.227  41.230  1.00  0.00    -0.237 OA
ATOM     95  O   UNL A   1      37.587  35.329  42.054  1.00  0.00    -0.237 OA
ATOM     96  O   UNL A   1      40.018  35.380  42.458  1.00  0.00    -0.744 OA
ENDBRANCH  92  93
ENDBRANCH  66  87
ENDBRANCH  40  41
ENDBRANCH  33  35
ENDBRANCH  32  33
ENDBRANCH  31  32
ENDBRANCH   1  31
TORSDOF 19
ENDMDL
