MODEL 1
REMARK VINA RESULT:     -11.4      0.000      0.000
REMARK SMILES C[N@@H+]1CC[N@H+](Cc2ccc(C#CC(C)(C)O)s2)C[C@H]1C(=O)OCCOC(=O)c1ccc(-c2c3nc(c(-c4ccc(S(=O)(=O)[O-])cc4)c4ccc([nH]4)c(-c4ccc(S(=O)(=O)[O-])cc4)c4nc(c(-c5ccc(S(=O)(=O)[O-])cc5)c5ccc2[nH]5)C=C4)C=C3)cc1
REMARK SMILES IDX 23 1 22 2 20 3 21 4 19 5 1 6 2 7 3 8 4 10 18 11 5 12 6 14
REMARK SMILES IDX 7 15 8 16 17 17 9 18 10 19 11 20 12 21 13 22 14 23 15 24
REMARK SMILES IDX 16 25 24 27 25 28 26 29 27 30 28 31 29 32 87 33 30 34 86 35
REMARK SMILES IDX 31 36 32 37 33 38 80 39 34 40 85 41 79 42 81 43 35 44 84 45
REMARK SMILES IDX 78 46 77 47 36 49 66 50 47 51 65 52 48 53 51 54 64 55 82 56
REMARK SMILES IDX 49 57 50 58 63 60 83 61 52 62 37 63 38 64 46 65 39 66 45 67
REMARK SMILES IDX 40 68 41 69 42 70 43 71 44 72 67 73 68 74 76 75 69 76 75 77
REMARK SMILES IDX 70 78 71 79 72 80 73 81 74 82 53 83 54 84 62 85 55 86 61 87
REMARK SMILES IDX 56 88 57 89 58 90 59 91 60 92
REMARK H PARENT 2 9 5 13 16 26 81 48 51 59
REMARK Flexibility Score: inf
ROOT
ATOM      1  C   UNL A   1      38.035  22.258  25.456  1.00  0.00     0.274 C 
ENDROOT
BRANCH   1   2
ATOM      2  O   UNL A   1      36.805  21.698  25.968  1.00  0.00    -0.457 OA
BRANCH   2   3
ATOM      3  C   UNL A   1      36.273  20.690  25.226  1.00  0.00     0.371 C 
ATOM      4  O   UNL A   1      36.945  19.763  24.770  1.00  0.00    -0.245 OA
BRANCH   3   5
ATOM      5  C   UNL A   1      34.790  20.824  24.881  1.00  0.00     0.350 C 
ATOM      6  C   UNL A   1      34.179  18.476  24.501  1.00  0.00     0.333 C 
ATOM      7  N   UNL A   1      33.872  19.700  25.255  1.00  0.00    -0.316 N 
ATOM      8  C   UNL A   1      32.486  20.093  24.921  1.00  0.00     0.325 C 
ATOM      9  H   UNL A   1      33.990  19.514  26.252  1.00  0.00     0.348 HD
ATOM     10  C   UNL A   1      32.046  21.437  25.537  1.00  0.00     0.324 C 
ATOM     11  C   UNL A   1      34.356  22.160  25.549  1.00  0.00     0.341 C 
ATOM     12  N   UNL A   1      32.957  22.571  25.350  1.00  0.00    -0.320 N 
ATOM     13  H   UNL A   1      32.732  23.233  26.093  1.00  0.00     0.348 HD
BRANCH  12  14
ATOM     14  C   UNL A   1      32.714  23.407  24.167  1.00  0.00     0.310 C 
BRANCH  14  15
ATOM     15  C   UNL A   1      31.795  24.579  24.341  1.00  0.00     0.060 A 
ATOM     16  C   UNL A   1      31.124  24.997  25.475  1.00  0.00     0.022 A 
ATOM     17  S   UNL A   1      31.518  25.661  23.033  1.00  0.00    -0.126 S 
ATOM     18  C   UNL A   1      30.243  26.087  25.212  1.00  0.00     0.029 A 
ATOM     19  C   UNL A   1      30.327  26.514  23.907  1.00  0.00     0.077 A 
BRANCH  19  20
ATOM     20  C   UNL A   1      29.598  27.603  23.355  1.00  0.00    -0.053 C 
ATOM     21  C   UNL A   1      28.839  28.619  23.054  1.00  0.00    -0.063 C 
BRANCH  21  22
ATOM     22  C   UNL A   1      27.954  29.804  22.703  1.00  0.00     0.120 C 
ATOM     23  C   UNL A   1      28.159  30.949  23.686  1.00  0.00     0.056 C 
ATOM     24  C   UNL A   1      28.249  30.208  21.267  1.00  0.00     0.056 C 
BRANCH  22  25
ATOM     25  O   UNL A   1      26.597  29.370  22.794  1.00  0.00    -0.378 OA
ATOM     26  H   UNL A   1      26.572  28.408  22.916  1.00  0.00     0.212 HD
ENDBRANCH  22  25
ENDBRANCH  21  22
ENDBRANCH  19  20
ENDBRANCH  14  15
ENDBRANCH  12  14
ENDBRANCH   3   5
ENDBRANCH   2   3
ENDBRANCH   1   2
BRANCH   1  27
ATOM     27  C   UNL A   1      39.304  21.725  26.128  1.00  0.00     0.275 C 
BRANCH  27  28
ATOM     28  O   UNL A   1      40.107  22.762  26.709  1.00  0.00    -0.458 OA
BRANCH  28  29
ATOM     29  C   UNL A   1      41.265  22.937  26.039  1.00  0.00     0.338 C 
ATOM     30  O   UNL A   1      41.964  22.057  25.567  1.00  0.00    -0.246 OA
BRANCH  29  31
ATOM     31  C   UNL A   1      41.745  24.317  26.042  1.00  0.00     0.060 A 
ATOM     32  C   UNL A   1      42.892  24.558  26.812  1.00  0.00     0.016 A 
ATOM     33  C   UNL A   1      40.811  25.315  25.765  1.00  0.00     0.016 A 
ATOM     34  C   UNL A   1      42.986  25.745  27.507  1.00  0.00     0.010 A 
ATOM     35  C   UNL A   1      40.905  26.500  26.465  1.00  0.00     0.010 A 
ATOM     36  C   UNL A   1      41.939  26.661  27.399  1.00  0.00    -0.014 A 
BRANCH  36  37
ATOM     37  C   UNL A   1      41.870  27.724  28.390  1.00  0.00     0.031 A 
ATOM     38  C   UNL A   1      42.891  28.795  28.322  1.00  0.00     0.074 A 
ATOM     39  C   UNL A   1      40.795  27.849  29.191  1.00  0.00     0.049 A 
ATOM     40  N   UNL A   1      43.667  29.238  29.257  1.00  0.00    -0.248 NA
ATOM     41  C   UNL A   1      43.118  29.404  27.005  1.00  0.00     0.031 C 
ATOM     42  C   UNL A   1      39.514  27.143  29.080  1.00  0.00     0.029 A 
ATOM     43  N   UNL A   1      40.551  28.802  30.130  1.00  0.00    -0.354 N 
ATOM     44  C   UNL A   1      44.430  30.252  28.679  1.00  0.00     0.074 A 
ATOM     45  C   UNL A   1      44.130  30.226  27.268  1.00  0.00     0.031 C 
ATOM     46  C   UNL A   1      38.565  27.894  29.679  1.00  0.00     0.029 A 
ATOM     47  C   UNL A   1      39.199  29.051  30.294  1.00  0.00     0.049 A 
ATOM     48  H   UNL A   1      41.259  29.264  30.637  1.00  0.00     0.167 HD
ATOM     49  C   UNL A   1      45.191  31.131  29.390  1.00  0.00     0.031 A 
ATOM     50  C   UNL A   1      38.660  30.221  30.717  1.00  0.00     0.031 A 
ATOM     51  C   UNL A   1      45.331  30.755  30.770  1.00  0.00     0.049 A 
ATOM     52  C   UNL A   1      39.731  31.002  31.395  1.00  0.00     0.074 A 
ATOM     53  C   UNL A   1      45.893  29.684  31.439  1.00  0.00     0.029 A 
ATOM     54  N   UNL A   1      44.546  31.398  31.699  1.00  0.00    -0.354 N 
ATOM     55  N   UNL A   1      40.320  30.636  32.500  1.00  0.00    -0.248 NA
ATOM     56  C   UNL A   1      40.453  31.997  30.612  1.00  0.00     0.031 C 
ATOM     57  C   UNL A   1      45.046  29.462  32.565  1.00  0.00     0.029 A 
ATOM     58  C   UNL A   1      44.028  30.416  32.508  1.00  0.00     0.049 A 
ATOM     59  H   UNL A   1      44.386  32.368  31.770  1.00  0.00     0.167 HD
ATOM     60  C   UNL A   1      41.641  31.047  32.367  1.00  0.00     0.074 A 
ATOM     61  C   UNL A   1      41.638  31.961  31.228  1.00  0.00     0.031 C 
ATOM     62  C   UNL A   1      42.668  30.406  33.004  1.00  0.00     0.031 A 
BRANCH  49  63
ATOM     63  C   UNL A   1      45.613  32.483  28.877  1.00  0.00    -0.014 A 
ATOM     64  C   UNL A   1      46.983  32.800  28.794  1.00  0.00     0.010 A 
ATOM     65  C   UNL A   1      44.702  33.540  28.671  1.00  0.00     0.010 A 
ATOM     66  C   UNL A   1      47.414  34.117  28.571  1.00  0.00     0.020 A 
ATOM     67  C   UNL A   1      45.117  34.841  28.387  1.00  0.00     0.020 A 
ATOM     68  C   UNL A   1      46.473  35.131  28.384  1.00  0.00     0.054 A 
BRANCH  68  69
ATOM     69  S   UNL A   1      47.019  36.848  28.231  1.00  0.00     0.124 S 
ATOM     70  O   UNL A   1      48.392  36.767  28.720  1.00  0.00    -0.237 OA
ATOM     71  O   UNL A   1      46.867  37.101  26.801  1.00  0.00    -0.237 OA
ATOM     72  O   UNL A   1      46.089  37.579  29.090  1.00  0.00    -0.744 OA
ENDBRANCH  68  69
ENDBRANCH  49  63
BRANCH  50  73
ATOM     73  C   UNL A   1      37.436  30.840  30.142  1.00  0.00    -0.014 A 
ATOM     74  C   UNL A   1      36.400  31.315  30.962  1.00  0.00     0.010 A 
ATOM     75  C   UNL A   1      37.381  31.164  28.767  1.00  0.00     0.010 A 
ATOM     76  C   UNL A   1      35.356  32.090  30.425  1.00  0.00     0.020 A 
ATOM     77  C   UNL A   1      36.339  31.917  28.222  1.00  0.00     0.020 A 
ATOM     78  C   UNL A   1      35.335  32.390  29.059  1.00  0.00     0.054 A 
BRANCH  78  79
ATOM     79  S   UNL A   1      34.044  33.475  28.391  1.00  0.00     0.124 S 
ATOM     80  O   UNL A   1      33.179  32.532  27.688  1.00  0.00    -0.237 OA
ATOM     81  O   UNL A   1      33.481  34.074  29.598  1.00  0.00    -0.237 OA
ATOM     82  O   UNL A   1      34.781  34.399  27.530  1.00  0.00    -0.744 OA
ENDBRANCH  78  79
ENDBRANCH  50  73
BRANCH  62  83
ATOM     83  C   UNL A   1      42.347  29.376  34.062  1.00  0.00    -0.014 A 
ATOM     84  C   UNL A   1      41.739  28.142  33.759  1.00  0.00     0.010 A 
ATOM     85  C   UNL A   1      42.833  29.578  35.366  1.00  0.00     0.010 A 
ATOM     86  C   UNL A   1      41.603  27.147  34.736  1.00  0.00     0.020 A 
ATOM     87  C   UNL A   1      42.712  28.583  36.344  1.00  0.00     0.020 A 
ATOM     88  C   UNL A   1      42.093  27.373  36.024  1.00  0.00     0.054 A 
BRANCH  88  89
ATOM     89  S   UNL A   1      41.979  26.047  37.258  1.00  0.00     0.124 S 
ATOM     90  O   UNL A   1      42.298  24.856  36.475  1.00  0.00    -0.237 OA
ATOM     91  O   UNL A   1      42.981  26.437  38.248  1.00  0.00    -0.237 OA
ATOM     92  O   UNL A   1      40.596  26.125  37.728  1.00  0.00    -0.744 OA
ENDBRANCH  88  89
ENDBRANCH  62  83
ENDBRANCH  36  37
ENDBRANCH  29  31
ENDBRANCH  28  29
ENDBRANCH  27  28
ENDBRANCH   1  27
TORSDOF 19
ENDMDL
MODEL 2
REMARK VINA RESULT:     -11.3      1.443      1.885
REMARK SMILES C[N@@H+]1CC[N@H+](Cc2ccc(C#CC(C)(C)O)s2)C[C@H]1C(=O)OCCOC(=O)c1ccc(-c2c3nc(c(-c4ccc(S(=O)(=O)[O-])cc4)c4ccc([nH]4)c(-c4ccc(S(=O)(=O)[O-])cc4)c4nc(c(-c5ccc(S(=O)(=O)[O-])cc5)c5ccc2[nH]5)C=C4)C=C3)cc1
REMARK SMILES IDX 23 1 22 2 20 3 21 4 19 5 1 6 2 7 3 8 4 10 18 11 5 12 6 14
REMARK SMILES IDX 7 15 8 16 17 17 9 18 10 19 11 20 12 21 13 22 14 23 15 24
REMARK SMILES IDX 16 25 24 27 25 28 26 29 27 30 28 31 29 32 87 33 30 34 86 35
REMARK SMILES IDX 31 36 32 37 33 38 80 39 34 40 85 41 79 42 81 43 35 44 84 45
REMARK SMILES IDX 78 46 77 47 36 49 66 50 47 51 65 52 48 53 51 54 64 55 82 56
REMARK SMILES IDX 49 57 50 58 63 60 83 61 52 62 37 63 38 64 46 65 39 66 45 67
REMARK SMILES IDX 40 68 41 69 42 70 43 71 44 72 67 73 68 74 76 75 69 76 75 77
REMARK SMILES IDX 70 78 71 79 72 80 73 81 74 82 53 83 54 84 62 85 55 86 61 87
REMARK SMILES IDX 56 88 57 89 58 90 59 91 60 92
REMARK H PARENT 2 9 5 13 16 26 81 48 51 59
REMARK Flexibility Score: inf
ROOT
ATOM      1  C   UNL A   1      36.770  21.505  24.801  1.00  0.00     0.274 C 
ENDROOT
BRANCH   1   2
ATOM      2  O   UNL A   1      35.716  21.113  25.709  1.00  0.00    -0.457 OA
BRANCH   2   3
ATOM      3  C   UNL A   1      34.523  20.824  25.125  1.00  0.00     0.371 C 
ATOM      4  O   UNL A   1      34.211  19.690  24.758  1.00  0.00    -0.245 OA
BRANCH   3   5
ATOM      5  C   UNL A   1      33.615  22.019  24.833  1.00  0.00     0.350 C 
ATOM      6  C   UNL A   1      32.221  21.121  23.021  1.00  0.00     0.333 C 
ATOM      7  N   UNL A   1      32.223  21.747  24.351  1.00  0.00    -0.316 N 
ATOM      8  C   UNL A   1      31.505  23.036  24.237  1.00  0.00     0.325 C 
ATOM      9  H   UNL A   1      31.776  21.115  25.016  1.00  0.00     0.348 HD
ATOM     10  C   UNL A   1      31.523  23.884  25.525  1.00  0.00     0.324 C 
ATOM     11  C   UNL A   1      33.611  22.835  26.156  1.00  0.00     0.341 C 
ATOM     12  N   UNL A   1      32.831  24.084  26.157  1.00  0.00    -0.320 N 
ATOM     13  H   UNL A   1      32.636  24.313  27.132  1.00  0.00     0.348 HD
BRANCH  12  14
ATOM     14  C   UNL A   1      33.572  25.283  25.746  1.00  0.00     0.310 C 
BRANCH  14  15
ATOM     15  C   UNL A   1      32.776  26.539  25.553  1.00  0.00     0.060 A 
ATOM     16  C   UNL A   1      32.479  27.530  26.469  1.00  0.00     0.022 A 
ATOM     17  S   UNL A   1      32.154  26.937  23.999  1.00  0.00    -0.126 S 
ATOM     18  C   UNL A   1      31.589  28.510  25.939  1.00  0.00     0.029 A 
ATOM     19  C   UNL A   1      31.295  28.276  24.615  1.00  0.00     0.077 A 
BRANCH  19  20
ATOM     20  C   UNL A   1      30.464  29.097  23.804  1.00  0.00    -0.053 C 
ATOM     21  C   UNL A   1      29.685  29.980  23.245  1.00  0.00    -0.063 C 
BRANCH  21  22
ATOM     22  C   UNL A   1      28.776  31.009  22.592  1.00  0.00     0.120 C 
ATOM     23  C   UNL A   1      28.218  30.487  21.276  1.00  0.00     0.056 C 
ATOM     24  C   UNL A   1      27.685  31.377  23.585  1.00  0.00     0.056 C 
BRANCH  22  25
ATOM     25  O   UNL A   1      29.565  32.168  22.319  1.00  0.00    -0.378 OA
ATOM     26  H   UNL A   1      29.074  32.963  22.580  1.00  0.00     0.212 HD
ENDBRANCH  22  25
ENDBRANCH  21  22
ENDBRANCH  19  20
ENDBRANCH  14  15
ENDBRANCH  12  14
ENDBRANCH   3   5
ENDBRANCH   2   3
ENDBRANCH   1   2
BRANCH   1  27
ATOM     27  C   UNL A   1      38.184  21.397  25.383  1.00  0.00     0.275 C 
BRANCH  27  28
ATOM     28  O   UNL A   1      38.643  22.623  25.968  1.00  0.00    -0.458 OA
BRANCH  28  29
ATOM     29  C   UNL A   1      39.877  22.495  26.500  1.00  0.00     0.338 C 
ATOM     30  O   UNL A   1      40.302  21.529  27.109  1.00  0.00    -0.246 OA
BRANCH  29  31
ATOM     31  C   UNL A   1      40.676  23.716  26.435  1.00  0.00     0.060 A 
ATOM     32  C   UNL A   1      41.844  23.718  27.212  1.00  0.00     0.016 A 
ATOM     33  C   UNL A   1      40.013  24.892  26.087  1.00  0.00     0.016 A 
ATOM     34  C   UNL A   1      42.219  24.886  27.842  1.00  0.00     0.010 A 
ATOM     35  C   UNL A   1      40.387  26.058  26.723  1.00  0.00     0.010 A 
ATOM     36  C   UNL A   1      41.426  26.019  27.665  1.00  0.00    -0.014 A 
BRANCH  36  37
ATOM     37  C   UNL A   1      41.611  27.123  28.594  1.00  0.00     0.031 A 
ATOM     38  C   UNL A   1      42.718  28.069  28.326  1.00  0.00     0.074 A 
ATOM     39  C   UNL A   1      40.682  27.400  29.528  1.00  0.00     0.049 A 
ATOM     40  N   UNL A   1      43.663  28.461  29.118  1.00  0.00    -0.248 NA
ATOM     41  C   UNL A   1      42.817  28.594  26.958  1.00  0.00     0.031 C 
ATOM     42  C   UNL A   1      39.331  26.838  29.635  1.00  0.00     0.029 A 
ATOM     43  N   UNL A   1      40.676  28.412  30.437  1.00  0.00    -0.354 N 
ATOM     44  C   UNL A   1      44.437  29.358  28.384  1.00  0.00     0.074 A 
ATOM     45  C   UNL A   1      43.937  29.308  27.032  1.00  0.00     0.031 C 
ATOM     46  C   UNL A   1      38.562  27.714  30.316  1.00  0.00     0.029 A 
ATOM     47  C   UNL A   1      39.395  28.817  30.772  1.00  0.00     0.049 A 
ATOM     48  H   UNL A   1      41.494  28.812  30.814  1.00  0.00     0.167 HD
ATOM     49  C   UNL A   1      45.380  30.175  28.933  1.00  0.00     0.031 A 
ATOM     50  C   UNL A   1      39.048  30.056  31.199  1.00  0.00     0.031 A 
ATOM     51  C   UNL A   1      45.677  29.843  30.299  1.00  0.00     0.049 A 
ATOM     52  C   UNL A   1      40.282  30.739  31.677  1.00  0.00     0.074 A 
ATOM     53  C   UNL A   1      46.214  28.744  30.943  1.00  0.00     0.029 A 
ATOM     54  N   UNL A   1      45.105  30.607  31.290  1.00  0.00    -0.354 N 
ATOM     55  N   UNL A   1      40.982  30.355  32.709  1.00  0.00    -0.248 NA
ATOM     56  C   UNL A   1      40.984  31.614  30.747  1.00  0.00     0.031 C 
ATOM     57  C   UNL A   1      45.518  28.664  32.186  1.00  0.00     0.029 A 
ATOM     58  C   UNL A   1      44.609  29.723  32.216  1.00  0.00     0.049 A 
ATOM     59  H   UNL A   1      45.060  31.590  31.327  1.00  0.00     0.167 HD
ATOM     60  C   UNL A   1      42.305  30.610  32.372  1.00  0.00     0.074 A 
ATOM     61  C   UNL A   1      42.235  31.471  31.194  1.00  0.00     0.031 C 
ATOM     62  C   UNL A   1      43.340  29.885  32.895  1.00  0.00     0.031 A 
BRANCH  49  63
ATOM     63  C   UNL A   1      45.864  31.450  28.290  1.00  0.00    -0.014 A 
ATOM     64  C   UNL A   1      44.945  32.291  27.634  1.00  0.00     0.010 A 
ATOM     65  C   UNL A   1      47.232  31.749  28.123  1.00  0.00     0.010 A 
ATOM     66  C   UNL A   1      45.378  33.341  26.810  1.00  0.00     0.020 A 
ATOM     67  C   UNL A   1      47.673  32.827  27.358  1.00  0.00     0.020 A 
ATOM     68  C   UNL A   1      46.744  33.591  26.668  1.00  0.00     0.054 A 
BRANCH  68  69
ATOM     69  S   UNL A   1      47.311  34.855  25.505  1.00  0.00     0.124 S 
ATOM     70  O   UNL A   1      47.339  36.043  26.351  1.00  0.00    -0.237 OA
ATOM     71  O   UNL A   1      48.612  34.339  25.089  1.00  0.00    -0.237 OA
ATOM     72  O   UNL A   1      46.283  34.847  24.466  1.00  0.00    -0.744 OA
ENDBRANCH  68  69
ENDBRANCH  49  63
BRANCH  50  73
ATOM     73  C   UNL A   1      37.827  30.784  30.764  1.00  0.00    -0.014 A 
ATOM     74  C   UNL A   1      36.983  31.418  31.690  1.00  0.00     0.010 A 
ATOM     75  C   UNL A   1      37.601  31.041  29.393  1.00  0.00     0.010 A 
ATOM     76  C   UNL A   1      35.960  32.281  31.258  1.00  0.00     0.020 A 
ATOM     77  C   UNL A   1      36.577  31.883  28.954  1.00  0.00     0.020 A 
ATOM     78  C   UNL A   1      35.767  32.511  29.891  1.00  0.00     0.054 A 
BRANCH  78  79
ATOM     79  S   UNL A   1      34.516  33.705  29.344  1.00  0.00     0.124 S 
ATOM     80  O   UNL A   1      33.753  32.931  28.368  1.00  0.00    -0.237 OA
ATOM     81  O   UNL A   1      33.818  34.022  30.587  1.00  0.00    -0.237 OA
ATOM     82  O   UNL A   1      35.305  34.801  28.783  1.00  0.00    -0.744 OA
ENDBRANCH  78  79
ENDBRANCH  50  73
BRANCH  62  83
ATOM     83  C   UNL A   1      43.068  28.941  34.044  1.00  0.00    -0.014 A 
ATOM     84  C   UNL A   1      42.827  29.394  35.356  1.00  0.00     0.010 A 
ATOM     85  C   UNL A   1      42.868  27.578  33.762  1.00  0.00     0.010 A 
ATOM     86  C   UNL A   1      42.420  28.507  36.361  1.00  0.00     0.020 A 
ATOM     87  C   UNL A   1      42.449  26.688  34.758  1.00  0.00     0.020 A 
ATOM     88  C   UNL A   1      42.231  27.158  36.055  1.00  0.00     0.054 A 
BRANCH  88  89
ATOM     89  S   UNL A   1      41.629  26.034  37.347  1.00  0.00     0.124 S 
ATOM     90  O   UNL A   1      41.523  24.762  36.638  1.00  0.00    -0.237 OA
ATOM     91  O   UNL A   1      42.683  26.106  38.357  1.00  0.00    -0.237 OA
ATOM     92  O   UNL A   1      40.353  26.622  37.755  1.00  0.00    -0.744 OA
ENDBRANCH  88  89
ENDBRANCH  62  83
ENDBRANCH  36  37
ENDBRANCH  29  31
ENDBRANCH  28  29
ENDBRANCH  27  28
ENDBRANCH   1  27
TORSDOF 19
ENDMDL
MODEL 3
REMARK VINA RESULT:     -10.9      4.386      9.485
REMARK SMILES C[N@@H+]1CC[N@H+](Cc2ccc(C#CC(C)(C)O)s2)C[C@H]1C(=O)OCCOC(=O)c1ccc(-c2c3nc(c(-c4ccc(S(=O)(=O)[O-])cc4)c4ccc([nH]4)c(-c4ccc(S(=O)(=O)[O-])cc4)c4nc(c(-c5ccc(S(=O)(=O)[O-])cc5)c5ccc2[nH]5)C=C4)C=C3)cc1
REMARK SMILES IDX 23 1 22 2 20 3 21 4 19 5 1 6 2 7 3 8 4 10 18 11 5 12 6 14
REMARK SMILES IDX 7 15 8 16 17 17 9 18 10 19 11 20 12 21 13 22 14 23 15 24
REMARK SMILES IDX 16 25 24 27 25 28 26 29 27 30 28 31 29 32 87 33 30 34 86 35
REMARK SMILES IDX 31 36 32 37 33 38 80 39 34 40 85 41 79 42 81 43 35 44 84 45
REMARK SMILES IDX 78 46 77 47 36 49 66 50 47 51 65 52 48 53 51 54 64 55 82 56
REMARK SMILES IDX 49 57 50 58 63 60 83 61 52 62 37 63 38 64 46 65 39 66 45 67
REMARK SMILES IDX 40 68 41 69 42 70 43 71 44 72 67 73 68 74 76 75 69 76 75 77
REMARK SMILES IDX 70 78 71 79 72 80 73 81 74 82 53 83 54 84 62 85 55 86 61 87
REMARK SMILES IDX 56 88 57 89 58 90 59 91 60 92
REMARK H PARENT 2 9 5 13 16 26 81 48 51 59
REMARK Flexibility Score: inf
ROOT
ATOM      1  C   UNL A   1      38.507  21.659  25.376  1.00  0.00     0.274 C 
ENDROOT
BRANCH   1   2
ATOM      2  O   UNL A   1      37.265  22.010  26.024  1.00  0.00    -0.457 OA
BRANCH   2   3
ATOM      3  C   UNL A   1      36.139  21.588  25.388  1.00  0.00     0.371 C 
ATOM      4  O   UNL A   1      36.090  20.551  24.724  1.00  0.00    -0.245 OA
BRANCH   3   5
ATOM      5  C   UNL A   1      34.944  22.541  25.442  1.00  0.00     0.350 C 
ATOM      6  C   UNL A   1      33.564  21.470  27.168  1.00  0.00     0.333 C 
ATOM      7  N   UNL A   1      34.234  22.711  26.750  1.00  0.00    -0.316 N 
ATOM      8  C   UNL A   1      33.190  23.747  26.587  1.00  0.00     0.325 C 
ATOM      9  H   UNL A   1      34.925  22.969  27.454  1.00  0.00     0.348 HD
ATOM     10  C   UNL A   1      33.713  25.085  26.026  1.00  0.00     0.324 C 
ATOM     11  C   UNL A   1      35.504  23.894  24.917  1.00  0.00     0.341 C 
ATOM     12  N   UNL A   1      34.547  25.009  24.823  1.00  0.00    -0.320 N 
ATOM     13  H   UNL A   1      35.094  25.870  24.810  1.00  0.00     0.348 HD
BRANCH  12  14
ATOM     14  C   UNL A   1      33.843  25.121  23.540  1.00  0.00     0.310 C 
BRANCH  14  15
ATOM     15  C   UNL A   1      33.220  26.447  23.222  1.00  0.00     0.060 A 
ATOM     16  C   UNL A   1      33.813  27.695  23.162  1.00  0.00     0.022 A 
ATOM     17  S   UNL A   1      31.557  26.540  22.790  1.00  0.00    -0.126 S 
ATOM     18  C   UNL A   1      32.862  28.737  22.949  1.00  0.00     0.029 A 
ATOM     19  C   UNL A   1      31.588  28.245  22.778  1.00  0.00     0.077 A 
BRANCH  19  20
ATOM     20  C   UNL A   1      30.436  29.035  22.514  1.00  0.00    -0.053 C 
ATOM     21  C   UNL A   1      29.294  29.661  22.456  1.00  0.00    -0.063 C 
BRANCH  21  22
ATOM     22  C   UNL A   1      27.963  30.392  22.389  1.00  0.00     0.120 C 
ATOM     23  C   UNL A   1      27.772  31.293  23.601  1.00  0.00     0.056 C 
ATOM     24  C   UNL A   1      27.908  31.158  21.077  1.00  0.00     0.056 C 
BRANCH  22  25
ATOM     25  O   UNL A   1      26.930  29.405  22.394  1.00  0.00    -0.378 OA
ATOM     26  H   UNL A   1      26.110  29.793  22.048  1.00  0.00     0.212 HD
ENDBRANCH  22  25
ENDBRANCH  21  22
ENDBRANCH  19  20
ENDBRANCH  14  15
ENDBRANCH  12  14
ENDBRANCH   3   5
ENDBRANCH   2   3
ENDBRANCH   1   2
BRANCH   1  27
ATOM     27  C   UNL A   1      39.346  20.620  26.128  1.00  0.00     0.275 C 
BRANCH  27  28
ATOM     28  O   UNL A   1      40.458  21.197  26.825  1.00  0.00    -0.458 OA
BRANCH  28  29
ATOM     29  C   UNL A   1      41.631  20.923  26.217  1.00  0.00     0.338 C 
ATOM     30  O   UNL A   1      42.148  19.824  26.111  1.00  0.00    -0.246 OA
BRANCH  29  31
ATOM     31  C   UNL A   1      42.370  22.111  25.799  1.00  0.00     0.060 A 
ATOM     32  C   UNL A   1      43.768  22.009  25.860  1.00  0.00     0.016 A 
ATOM     33  C   UNL A   1      41.709  23.336  25.891  1.00  0.00     0.016 A 
ATOM     34  C   UNL A   1      44.497  23.112  26.253  1.00  0.00     0.010 A 
ATOM     35  C   UNL A   1      42.441  24.437  26.289  1.00  0.00     0.010 A 
ATOM     36  C   UNL A   1      43.809  24.287  26.557  1.00  0.00    -0.014 A 
BRANCH  36  37
ATOM     37  C   UNL A   1      44.525  25.312  27.301  1.00  0.00     0.031 A 
ATOM     38  C   UNL A   1      44.421  25.288  28.778  1.00  0.00     0.074 A 
ATOM     39  C   UNL A   1      45.423  26.106  26.688  1.00  0.00     0.049 A 
ATOM     40  N   UNL A   1      44.091  26.245  29.584  1.00  0.00    -0.248 NA
ATOM     41  C   UNL A   1      44.651  23.995  29.433  1.00  0.00     0.031 C 
ATOM     42  C   UNL A   1      45.963  25.960  25.332  1.00  0.00     0.029 A 
ATOM     43  N   UNL A   1      46.204  27.074  27.238  1.00  0.00    -0.354 N 
ATOM     44  C   UNL A   1      44.156  25.708  30.869  1.00  0.00     0.074 A 
ATOM     45  C   UNL A   1      44.390  24.294  30.702  1.00  0.00     0.031 C 
ATOM     46  C   UNL A   1      47.164  26.575  25.287  1.00  0.00     0.029 A 
ATOM     47  C   UNL A   1      47.403  27.234  26.563  1.00  0.00     0.049 A 
ATOM     48  H   UNL A   1      45.945  27.602  28.028  1.00  0.00     0.167 HD
ATOM     49  C   UNL A   1      44.118  26.454  32.009  1.00  0.00     0.031 A 
ATOM     50  C   UNL A   1      48.557  27.691  27.108  1.00  0.00     0.031 A 
ATOM     51  C   UNL A   1      43.752  27.823  31.765  1.00  0.00     0.049 A 
ATOM     52  C   UNL A   1      48.219  28.404  28.371  1.00  0.00     0.074 A 
ATOM     53  C   UNL A   1      42.627  28.461  31.277  1.00  0.00     0.029 A 
ATOM     54  N   UNL A   1      44.754  28.765  31.732  1.00  0.00    -0.354 N 
ATOM     55  N   UNL A   1      47.516  29.502  28.430  1.00  0.00    -0.248 NA
ATOM     56  C   UNL A   1      48.306  27.661  29.622  1.00  0.00     0.031 C 
ATOM     57  C   UNL A   1      43.124  29.571  30.531  1.00  0.00     0.029 A 
ATOM     58  C   UNL A   1      44.517  29.536  30.620  1.00  0.00     0.049 A 
ATOM     59  H   UNL A   1      45.493  28.866  32.375  1.00  0.00     0.167 HD
ATOM     60  C   UNL A   1      46.761  29.394  29.591  1.00  0.00     0.074 A 
ATOM     61  C   UNL A   1      47.361  28.286  30.329  1.00  0.00     0.031 C 
ATOM     62  C   UNL A   1      45.552  30.019  29.731  1.00  0.00     0.031 A 
BRANCH  49  63
ATOM     63  C   UNL A   1      44.661  25.990  33.336  1.00  0.00    -0.014 A 
ATOM     64  C   UNL A   1      46.013  26.219  33.654  1.00  0.00     0.010 A 
ATOM     65  C   UNL A   1      43.939  25.142  34.201  1.00  0.00     0.010 A 
ATOM     66  C   UNL A   1      46.621  25.587  34.750  1.00  0.00     0.020 A 
ATOM     67  C   UNL A   1      44.515  24.558  35.328  1.00  0.00     0.020 A 
ATOM     68  C   UNL A   1      45.867  24.748  35.570  1.00  0.00     0.054 A 
BRANCH  68  69
ATOM     69  S   UNL A   1      46.674  23.827  36.901  1.00  0.00     0.124 S 
ATOM     70  O   UNL A   1      45.608  23.749  37.895  1.00  0.00    -0.237 OA
ATOM     71  O   UNL A   1      47.027  22.571  36.247  1.00  0.00    -0.237 OA
ATOM     72  O   UNL A   1      47.808  24.676  37.262  1.00  0.00    -0.744 OA
ENDBRANCH  68  69
ENDBRANCH  49  63
BRANCH  50  73
ATOM     73  C   UNL A   1      49.903  27.125  26.825  1.00  0.00    -0.014 A 
ATOM     74  C   UNL A   1      50.242  25.816  27.203  1.00  0.00     0.010 A 
ATOM     75  C   UNL A   1      50.800  27.811  25.975  1.00  0.00     0.010 A 
ATOM     76  C   UNL A   1      51.429  25.218  26.742  1.00  0.00     0.020 A 
ATOM     77  C   UNL A   1      51.989  27.232  25.526  1.00  0.00     0.020 A 
ATOM     78  C   UNL A   1      52.292  25.930  25.902  1.00  0.00     0.054 A 
BRANCH  78  79
ATOM     79  S   UNL A   1      53.767  25.118  25.226  1.00  0.00     0.124 S 
ATOM     80  O   UNL A   1      54.809  25.542  26.158  1.00  0.00    -0.237 OA
ATOM     81  O   UNL A   1      53.403  23.705  25.283  1.00  0.00    -0.237 OA
ATOM     82  O   UNL A   1      53.880  25.673  23.878  1.00  0.00    -0.744 OA
ENDBRANCH  78  79
ENDBRANCH  50  73
BRANCH  62  83
ATOM     83  C   UNL A   1      45.129  31.040  28.699  1.00  0.00    -0.014 A 
ATOM     84  C   UNL A   1      45.488  32.399  28.787  1.00  0.00     0.010 A 
ATOM     85  C   UNL A   1      44.512  30.587  27.519  1.00  0.00     0.010 A 
ATOM     86  C   UNL A   1      45.219  33.284  27.736  1.00  0.00     0.020 A 
ATOM     87  C   UNL A   1      44.252  31.464  26.459  1.00  0.00     0.020 A 
ATOM     88  C   UNL A   1      44.603  32.810  26.575  1.00  0.00     0.054 A 
BRANCH  88  89
ATOM     89  S   UNL A   1      44.330  33.952  25.190  1.00  0.00     0.124 S 
ATOM     90  O   UNL A   1      43.951  33.049  24.106  1.00  0.00    -0.237 OA
ATOM     91  O   UNL A   1      43.265  34.819  25.689  1.00  0.00    -0.237 OA
ATOM     92  O   UNL A   1      45.624  34.612  25.021  1.00  0.00    -0.744 OA
ENDBRANCH  88  89
ENDBRANCH  62  83
ENDBRANCH  36  37
ENDBRANCH  29  31
ENDBRANCH  28  29
ENDBRANCH  27  28
ENDBRANCH   1  27
TORSDOF 19
ENDMDL
