MODEL 1
REMARK VINA RESULT:     -11.4      0.000      0.000
REMARK SMILES CCc1ccc(Oc2ncnc(N3CCC(C(=O)OCCOC(=O)c4ccc(-c5c6nc(c(-c7ccc(S(=O)(=O)[O-])cc7)c7ccc([nH]7)c(-c7ccc(S(=O)(=O)[O-])cc7)c7nc(c(-c8ccc(S(=O)(=O)[O-])cc8)c8ccc5[nH]8)C=C7)C=C6)cc4)CC3)c2[N+](=O)[O-])cc1
REMARK SMILES IDX 20 1 19 2 17 3 18 4 16 5 13 6 14 7 86 8 15 9 85 10 12 11
REMARK SMILES IDX 8 12 9 13 87 14 10 15 11 16 7 17 6 18 3 19 4 20 92 21 5 22
REMARK SMILES IDX 91 23 2 24 1 25 88 26 89 27 90 28 21 29 22 30 23 31 24 32
REMARK SMILES IDX 25 33 26 34 84 35 27 36 83 37 28 38 29 39 30 40 77 41 31 42
REMARK SMILES IDX 82 43 76 44 78 45 32 46 81 47 75 48 74 49 33 51 63 52 44 53
REMARK SMILES IDX 62 54 45 55 48 56 61 57 79 58 46 59 47 60 60 62 80 63 49 64
REMARK SMILES IDX 34 65 35 66 43 67 36 68 42 69 37 70 38 71 39 72 40 73 41 74
REMARK SMILES IDX 64 75 65 76 73 77 66 78 72 79 67 80 68 81 69 82 70 83 71 84
REMARK SMILES IDX 50 85 51 86 59 87 52 88 58 89 53 90 54 91 55 92 56 93 57 94
REMARK H PARENT 78 50 48 61
REMARK Flexibility Score: inf
ROOT
ATOM      1  C   UNL A   1      39.342  21.755  26.109  1.00  0.00     0.274 C 
ENDROOT
BRANCH   1   2
ATOM      2  O   UNL A   1      38.001  22.277  26.056  1.00  0.00    -0.462 OA
BRANCH   2   3
ATOM      3  C   UNL A   1      37.119  21.580  25.296  1.00  0.00     0.309 C 
ATOM      4  O   UNL A   1      37.398  21.013  24.245  1.00  0.00    -0.252 OA
BRANCH   3   5
ATOM      5  C   UNL A   1      35.716  21.570  25.865  1.00  0.00     0.103 C 
ATOM      6  N   UNL A   1      33.048  22.422  26.352  1.00  0.00    -0.351 N 
ATOM      7  C   UNL A   1      34.014  22.495  27.446  1.00  0.00     0.119 C 
ATOM      8  C   UNL A   1      33.271  21.438  25.301  1.00  0.00     0.119 C 
ATOM      9  C   UNL A   1      35.419  22.672  26.886  1.00  0.00     0.037 C 
ATOM     10  C   UNL A   1      34.682  21.604  24.736  1.00  0.00     0.037 C 
BRANCH   6  11
ATOM     11  C   UNL A   1      32.060  23.376  26.290  1.00  0.00     0.215 A 
ATOM     12  C   UNL A   1      31.040  25.379  25.545  1.00  0.00     0.305 A 
ATOM     13  N   UNL A   1      29.903  25.109  26.219  1.00  0.00    -0.195 NA
ATOM     14  C   UNL A   1      32.155  24.569  25.601  1.00  0.00     0.373 A 
ATOM     15  C   UNL A   1      29.901  23.956  26.890  1.00  0.00     0.228 A 
ATOM     16  N   UNL A   1      30.910  23.074  26.935  1.00  0.00    -0.212 NA
BRANCH  12  17
ATOM     17  O   UNL A   1      30.994  26.538  24.805  1.00  0.00    -0.434 OA
BRANCH  17  18
ATOM     18  C   UNL A   1      31.546  27.676  25.359  1.00  0.00     0.129 A 
ATOM     19  C   UNL A   1      32.755  29.823  26.715  1.00  0.00    -0.048 A 
ATOM     20  C   UNL A   1      32.189  28.758  27.428  1.00  0.00     0.007 A 
ATOM     21  C   UNL A   1      32.671  29.821  25.318  1.00  0.00     0.007 A 
ATOM     22  C   UNL A   1      31.595  27.690  26.754  1.00  0.00     0.047 A 
ATOM     23  C   UNL A   1      32.053  28.764  24.642  1.00  0.00     0.047 A 
BRANCH  19  24
ATOM     24  C   UNL A   1      33.451  30.951  27.435  1.00  0.00     0.032 C 
ATOM     25  C   UNL A   1      34.806  30.537  27.994  1.00  0.00     0.009 C 
ENDBRANCH  19  24
ENDBRANCH  17  18
ENDBRANCH  12  17
BRANCH  14  26
ATOM     26  N   UNL A   1      33.331  24.934  24.881  1.00  0.00     0.072 N 
ATOM     27  O   UNL A   1      34.220  25.536  25.497  1.00  0.00    -0.258 OA
ATOM     28  O   UNL A   1      33.370  24.623  23.682  1.00  0.00    -0.258 OA
ENDBRANCH  14  26
ENDBRANCH   6  11
ENDBRANCH   3   5
ENDBRANCH   2   3
ENDBRANCH   1   2
BRANCH   1  29
ATOM     29  C   UNL A   1      40.349  22.842  26.498  1.00  0.00     0.275 C 
BRANCH  29  30
ATOM     30  O   UNL A   1      39.758  24.156  26.475  1.00  0.00    -0.458 OA
BRANCH  30  31
ATOM     31  C   UNL A   1      40.645  25.170  26.344  1.00  0.00     0.338 C 
ATOM     32  O   UNL A   1      41.238  25.500  25.330  1.00  0.00    -0.246 OA
BRANCH  31  33
ATOM     33  C   UNL A   1      40.738  25.944  27.594  1.00  0.00     0.060 A 
ATOM     34  C   UNL A   1      39.678  25.842  28.498  1.00  0.00     0.016 A 
ATOM     35  C   UNL A   1      41.771  26.858  27.814  1.00  0.00     0.016 A 
ATOM     36  C   UNL A   1      39.630  26.669  29.616  1.00  0.00     0.010 A 
ATOM     37  C   UNL A   1      41.717  27.697  28.935  1.00  0.00     0.010 A 
ATOM     38  C   UNL A   1      40.631  27.626  29.826  1.00  0.00    -0.014 A 
BRANCH  38  39
ATOM     39  C   UNL A   1      40.451  28.624  30.909  1.00  0.00     0.031 A 
ATOM     40  C   UNL A   1      41.370  28.591  32.102  1.00  0.00     0.074 A 
ATOM     41  C   UNL A   1      39.538  29.605  30.787  1.00  0.00     0.049 A 
ATOM     42  N   UNL A   1      41.391  29.372  33.151  1.00  0.00    -0.248 NA
ATOM     43  C   UNL A   1      42.408  27.547  32.108  1.00  0.00     0.031 C 
ATOM     44  C   UNL A   1      38.630  29.782  29.653  1.00  0.00     0.029 A 
ATOM     45  N   UNL A   1      39.237  30.650  31.623  1.00  0.00    -0.354 N 
ATOM     46  C   UNL A   1      42.438  28.915  33.943  1.00  0.00     0.074 A 
ATOM     47  C   UNL A   1      43.014  27.773  33.266  1.00  0.00     0.031 C 
ATOM     48  C   UNL A   1      37.880  30.879  29.861  1.00  0.00     0.029 A 
ATOM     49  C   UNL A   1      38.233  31.462  31.153  1.00  0.00     0.049 A 
ATOM     50  H   UNL A   1      39.697  30.804  32.480  1.00  0.00     0.167 HD
ATOM     51  C   UNL A   1      42.889  29.407  35.122  1.00  0.00     0.031 A 
ATOM     52  C   UNL A   1      37.656  32.546  31.706  1.00  0.00     0.031 A 
ATOM     53  C   UNL A   1      42.315  30.536  35.803  1.00  0.00     0.049 A 
ATOM     54  C   UNL A   1      38.138  33.035  33.047  1.00  0.00     0.074 A 
ATOM     55  C   UNL A   1      42.669  31.078  37.027  1.00  0.00     0.029 A 
ATOM     56  N   UNL A   1      41.275  31.308  35.311  1.00  0.00    -0.354 N 
ATOM     57  N   UNL A   1      39.102  32.563  33.800  1.00  0.00    -0.248 NA
ATOM     58  C   UNL A   1      37.455  34.210  33.607  1.00  0.00     0.031 C 
ATOM     59  C   UNL A   1      41.826  32.166  37.286  1.00  0.00     0.029 A 
ATOM     60  C   UNL A   1      40.976  32.323  36.204  1.00  0.00     0.049 A 
ATOM     61  H   UNL A   1      40.816  31.157  34.453  1.00  0.00     0.167 HD
ATOM     62  C   UNL A   1      39.154  33.397  34.912  1.00  0.00     0.074 A 
ATOM     63  C   UNL A   1      38.140  34.413  34.723  1.00  0.00     0.031 C 
ATOM     64  C   UNL A   1      39.966  33.327  35.996  1.00  0.00     0.031 A 
BRANCH  51  65
ATOM     65  C   UNL A   1      44.056  28.707  35.761  1.00  0.00    -0.014 A 
ATOM     66  C   UNL A   1      43.856  27.627  36.640  1.00  0.00     0.010 A 
ATOM     67  C   UNL A   1      45.369  29.107  35.452  1.00  0.00     0.010 A 
ATOM     68  C   UNL A   1      44.948  26.978  37.221  1.00  0.00     0.020 A 
ATOM     69  C   UNL A   1      46.464  28.447  36.017  1.00  0.00     0.020 A 
ATOM     70  C   UNL A   1      46.245  27.395  36.909  1.00  0.00     0.054 A 
BRANCH  70  71
ATOM     71  S   UNL A   1      47.647  26.518  37.658  1.00  0.00     0.124 S 
ATOM     72  O   UNL A   1      46.990  25.739  38.703  1.00  0.00    -0.237 OA
ATOM     73  O   UNL A   1      48.179  25.746  36.538  1.00  0.00    -0.237 OA
ATOM     74  O   UNL A   1      48.512  27.595  38.134  1.00  0.00    -0.744 OA
ENDBRANCH  70  71
ENDBRANCH  51  65
BRANCH  52  75
ATOM     75  C   UNL A   1      36.532  33.236  31.017  1.00  0.00    -0.014 A 
ATOM     76  C   UNL A   1      36.759  34.007  29.864  1.00  0.00     0.010 A 
ATOM     77  C   UNL A   1      35.231  33.160  31.547  1.00  0.00     0.010 A 
ATOM     78  C   UNL A   1      35.711  34.722  29.274  1.00  0.00     0.020 A 
ATOM     79  C   UNL A   1      34.177  33.852  30.944  1.00  0.00     0.020 A 
ATOM     80  C   UNL A   1      34.428  34.646  29.825  1.00  0.00     0.054 A 
BRANCH  80  81
ATOM     81  S   UNL A   1      33.075  35.571  29.046  1.00  0.00     0.124 S 
ATOM     82  O   UNL A   1      32.416  34.534  28.260  1.00  0.00    -0.237 OA
ATOM     83  O   UNL A   1      32.323  36.070  30.195  1.00  0.00    -0.237 OA
ATOM     84  O   UNL A   1      33.770  36.598  28.273  1.00  0.00    -0.744 OA
ENDBRANCH  80  81
ENDBRANCH  52  75
BRANCH  64  85
ATOM     85  C   UNL A   1      39.812  34.403  37.036  1.00  0.00    -0.014 A 
ATOM     86  C   UNL A   1      38.957  34.232  38.139  1.00  0.00     0.010 A 
ATOM     87  C   UNL A   1      40.542  35.598  36.912  1.00  0.00     0.010 A 
ATOM     88  C   UNL A   1      38.800  35.257  39.076  1.00  0.00     0.020 A 
ATOM     89  C   UNL A   1      40.406  36.616  37.859  1.00  0.00     0.020 A 
ATOM     90  C   UNL A   1      39.519  36.446  38.924  1.00  0.00     0.054 A 
BRANCH  90  91
ATOM     91  S   UNL A   1      39.311  37.762  40.155  1.00  0.00     0.124 S 
ATOM     92  O   UNL A   1      40.608  38.431  40.106  1.00  0.00    -0.237 OA
ATOM     93  O   UNL A   1      38.187  38.531  39.626  1.00  0.00    -0.237 OA
ATOM     94  O   UNL A   1      39.030  37.034  41.391  1.00  0.00    -0.744 OA
ENDBRANCH  90  91
ENDBRANCH  64  85
ENDBRANCH  38  39
ENDBRANCH  31  33
ENDBRANCH  30  31
ENDBRANCH  29  30
ENDBRANCH   1  29
TORSDOF 19
ENDMDL
MODEL 2
REMARK VINA RESULT:     -11.3      1.336      1.918
REMARK SMILES CCc1ccc(Oc2ncnc(N3CCC(C(=O)OCCOC(=O)c4ccc(-c5c6nc(c(-c7ccc(S(=O)(=O)[O-])cc7)c7ccc([nH]7)c(-c7ccc(S(=O)(=O)[O-])cc7)c7nc(c(-c8ccc(S(=O)(=O)[O-])cc8)c8ccc5[nH]8)C=C7)C=C6)cc4)CC3)c2[N+](=O)[O-])cc1
REMARK SMILES IDX 20 1 19 2 17 3 18 4 16 5 13 6 14 7 86 8 15 9 85 10 12 11
REMARK SMILES IDX 8 12 9 13 87 14 10 15 11 16 7 17 6 18 3 19 4 20 92 21 5 22
REMARK SMILES IDX 91 23 2 24 1 25 88 26 89 27 90 28 21 29 22 30 23 31 24 32
REMARK SMILES IDX 25 33 26 34 84 35 27 36 83 37 28 38 29 39 30 40 77 41 31 42
REMARK SMILES IDX 82 43 76 44 78 45 32 46 81 47 75 48 74 49 33 51 63 52 44 53
REMARK SMILES IDX 62 54 45 55 48 56 61 57 79 58 46 59 47 60 60 62 80 63 49 64
REMARK SMILES IDX 34 65 35 66 43 67 36 68 42 69 37 70 38 71 39 72 40 73 41 74
REMARK SMILES IDX 64 75 65 76 73 77 66 78 72 79 67 80 68 81 69 82 70 83 71 84
REMARK SMILES IDX 50 85 51 86 59 87 52 88 58 89 53 90 54 91 55 92 56 93 57 94
REMARK H PARENT 78 50 48 61
REMARK Flexibility Score: inf
ROOT
ATOM      1  C   UNL A   1      39.219  22.167  26.157  1.00  0.00     0.274 C 
ENDROOT
BRANCH   1   2
ATOM      2  O   UNL A   1      37.868  22.564  25.852  1.00  0.00    -0.462 OA
BRANCH   2   3
ATOM      3  C   UNL A   1      37.078  21.613  25.292  1.00  0.00     0.309 C 
ATOM      4  O   UNL A   1      37.414  20.883  24.366  1.00  0.00    -0.252 OA
BRANCH   3   5
ATOM      5  C   UNL A   1      35.703  21.533  25.919  1.00  0.00     0.103 C 
ATOM      6  N   UNL A   1      33.013  22.242  26.506  1.00  0.00    -0.351 N 
ATOM      7  C   UNL A   1      34.017  22.385  27.558  1.00  0.00     0.119 C 
ATOM      8  C   UNL A   1      33.248  21.256  25.459  1.00  0.00     0.119 C 
ATOM      9  C   UNL A   1      35.386  22.632  26.938  1.00  0.00     0.037 C 
ATOM     10  C   UNL A   1      34.624  21.491  24.834  1.00  0.00     0.037 C 
BRANCH   6  11
ATOM     11  C   UNL A   1      31.971  23.138  26.473  1.00  0.00     0.215 A 
ATOM     12  C   UNL A   1      30.823  25.085  25.768  1.00  0.00     0.305 A 
ATOM     13  N   UNL A   1      29.718  24.745  26.461  1.00  0.00    -0.195 NA
ATOM     14  C   UNL A   1      31.983  24.340  25.792  1.00  0.00     0.373 A 
ATOM     15  C   UNL A   1      29.796  23.588  27.122  1.00  0.00     0.228 A 
ATOM     16  N   UNL A   1      30.854  22.765  27.138  1.00  0.00    -0.212 NA
BRANCH  12  17
ATOM     17  O   UNL A   1      30.695  26.246  25.039  1.00  0.00    -0.434 OA
BRANCH  17  18
ATOM     18  C   UNL A   1      31.202  27.407  25.588  1.00  0.00     0.129 A 
ATOM     19  C   UNL A   1      32.105  29.916  26.480  1.00  0.00    -0.048 A 
ATOM     20  C   UNL A   1      31.920  29.671  25.113  1.00  0.00     0.007 A 
ATOM     21  C   UNL A   1      31.874  28.879  27.390  1.00  0.00     0.007 A 
ATOM     22  C   UNL A   1      31.466  28.426  24.672  1.00  0.00     0.047 A 
ATOM     23  C   UNL A   1      31.443  27.625  26.947  1.00  0.00     0.047 A 
BRANCH  19  24
ATOM     24  C   UNL A   1      32.539  31.277  26.968  1.00  0.00     0.032 C 
ATOM     25  C   UNL A   1      33.883  31.237  27.683  1.00  0.00     0.009 C 
ENDBRANCH  19  24
ENDBRANCH  17  18
ENDBRANCH  12  17
BRANCH  14  26
ATOM     26  N   UNL A   1      33.121  24.777  25.053  1.00  0.00     0.072 N 
ATOM     27  O   UNL A   1      33.184  24.470  23.855  1.00  0.00    -0.258 OA
ATOM     28  O   UNL A   1      33.972  25.432  25.673  1.00  0.00    -0.258 OA
ENDBRANCH  14  26
ENDBRANCH   6  11
ENDBRANCH   3   5
ENDBRANCH   2   3
ENDBRANCH   1   2
BRANCH   1  29
ATOM     29  C   UNL A   1      39.996  23.303  26.828  1.00  0.00     0.275 C 
BRANCH  29  30
ATOM     30  O   UNL A   1      39.285  24.555  26.759  1.00  0.00    -0.458 OA
BRANCH  30  31
ATOM     31  C   UNL A   1      40.079  25.650  26.703  1.00  0.00     0.338 C 
ATOM     32  O   UNL A   1      40.863  25.943  25.814  1.00  0.00    -0.246 OA
BRANCH  31  33
ATOM     33  C   UNL A   1      39.798  26.555  27.829  1.00  0.00     0.060 A 
ATOM     34  C   UNL A   1      40.403  27.815  27.814  1.00  0.00     0.016 A 
ATOM     35  C   UNL A   1      39.072  26.133  28.945  1.00  0.00     0.016 A 
ATOM     36  C   UNL A   1      40.309  28.651  28.922  1.00  0.00     0.010 A 
ATOM     37  C   UNL A   1      38.985  26.971  30.065  1.00  0.00     0.010 A 
ATOM     38  C   UNL A   1      39.628  28.222  30.069  1.00  0.00    -0.014 A 
BRANCH  38  39
ATOM     39  C   UNL A   1      39.713  29.046  31.301  1.00  0.00     0.031 A 
ATOM     40  C   UNL A   1      40.873  28.847  32.240  1.00  0.00     0.074 A 
ATOM     41  C   UNL A   1      38.817  30.022  31.532  1.00  0.00     0.049 A 
ATOM     42  N   UNL A   1      41.142  29.462  33.363  1.00  0.00    -0.248 NA
ATOM     43  C   UNL A   1      41.865  27.827  31.860  1.00  0.00     0.031 C 
ATOM     44  C   UNL A   1      37.684  30.355  30.668  1.00  0.00     0.029 A 
ATOM     45  N   UNL A   1      38.730  30.926  32.560  1.00  0.00    -0.354 N 
ATOM     46  C   UNL A   1      42.330  28.906  33.825  1.00  0.00     0.074 A 
ATOM     47  C   UNL A   1      42.717  27.885  32.875  1.00  0.00     0.031 C 
ATOM     48  C   UNL A   1      37.021  31.398  31.199  1.00  0.00     0.029 A 
ATOM     49  C   UNL A   1      37.664  31.786  32.451  1.00  0.00     0.049 A 
ATOM     50  H   UNL A   1      39.372  30.957  33.306  1.00  0.00     0.167 HD
ATOM     51  C   UNL A   1      43.041  29.222  34.934  1.00  0.00     0.031 A 
ATOM     52  C   UNL A   1      37.247  32.768  33.274  1.00  0.00     0.031 A 
ATOM     53  C   UNL A   1      42.656  30.229  35.886  1.00  0.00     0.049 A 
ATOM     54  C   UNL A   1      38.025  33.057  34.531  1.00  0.00     0.074 A 
ATOM     55  C   UNL A   1      43.285  30.587  37.067  1.00  0.00     0.029 A 
ATOM     56  N   UNL A   1      41.549  31.052  35.757  1.00  0.00    -0.354 N 
ATOM     57  N   UNL A   1      39.122  32.491  34.971  1.00  0.00    -0.248 NA
ATOM     58  C   UNL A   1      37.507  34.127  35.396  1.00  0.00     0.031 C 
ATOM     59  C   UNL A   1      42.543  31.613  37.665  1.00  0.00     0.029 A 
ATOM     60  C   UNL A   1      41.477  31.919  36.835  1.00  0.00     0.049 A 
ATOM     61  H   UNL A   1      40.909  31.025  35.010  1.00  0.00     0.167 HD
ATOM     62  C   UNL A   1      39.437  33.150  36.155  1.00  0.00     0.074 A 
ATOM     63  C   UNL A   1      38.428  34.170  36.350  1.00  0.00     0.031 C 
ATOM     64  C   UNL A   1      40.468  32.930  37.008  1.00  0.00     0.031 A 
BRANCH  51  65
ATOM     65  C   UNL A   1      44.306  28.449  35.185  1.00  0.00    -0.014 A 
ATOM     66  C   UNL A   1      45.545  28.923  34.717  1.00  0.00     0.010 A 
ATOM     67  C   UNL A   1      44.264  27.256  35.928  1.00  0.00     0.010 A 
ATOM     68  C   UNL A   1      46.715  28.201  34.963  1.00  0.00     0.020 A 
ATOM     69  C   UNL A   1      45.436  26.542  36.194  1.00  0.00     0.020 A 
ATOM     70  C   UNL A   1      46.653  27.013  35.697  1.00  0.00     0.054 A 
BRANCH  70  71
ATOM     71  S   UNL A   1      48.192  26.108  36.025  1.00  0.00     0.124 S 
ATOM     72  O   UNL A   1      48.954  26.360  34.806  1.00  0.00    -0.237 OA
ATOM     73  O   UNL A   1      48.699  26.760  37.229  1.00  0.00    -0.237 OA
ATOM     74  O   UNL A   1      47.747  24.728  36.209  1.00  0.00    -0.744 OA
ENDBRANCH  70  71
ENDBRANCH  51  65
BRANCH  52  75
ATOM     75  C   UNL A   1      36.013  33.538  32.962  1.00  0.00    -0.014 A 
ATOM     76  C   UNL A   1      36.088  34.806  32.357  1.00  0.00     0.010 A 
ATOM     77  C   UNL A   1      34.754  33.021  33.317  1.00  0.00     0.010 A 
ATOM     78  C   UNL A   1      34.928  35.558  32.149  1.00  0.00     0.020 A 
ATOM     79  C   UNL A   1      33.591  33.760  33.085  1.00  0.00     0.020 A 
ATOM     80  C   UNL A   1      33.687  35.034  32.523  1.00  0.00     0.054 A 
BRANCH  80  81
ATOM     81  S   UNL A   1      32.188  36.016  32.239  1.00  0.00     0.124 S 
ATOM     82  O   UNL A   1      31.137  35.075  32.611  1.00  0.00    -0.237 OA
ATOM     83  O   UNL A   1      32.371  37.152  33.139  1.00  0.00    -0.237 OA
ATOM     84  O   UNL A   1      32.264  36.342  30.816  1.00  0.00    -0.744 OA
ENDBRANCH  80  81
ENDBRANCH  52  75
BRANCH  64  85
ATOM     85  C   UNL A   1      40.571  33.836  38.205  1.00  0.00    -0.014 A 
ATOM     86  C   UNL A   1      41.304  35.035  38.148  1.00  0.00     0.010 A 
ATOM     87  C   UNL A   1      39.916  33.486  39.399  1.00  0.00     0.010 A 
ATOM     88  C   UNL A   1      41.417  35.846  39.280  1.00  0.00     0.020 A 
ATOM     89  C   UNL A   1      40.009  34.306  40.526  1.00  0.00     0.020 A 
ATOM     90  C   UNL A   1      40.777  35.470  40.465  1.00  0.00     0.054 A 
BRANCH  90  91
ATOM     91  S   UNL A   1      40.926  36.541  41.922  1.00  0.00     0.124 S 
ATOM     92  O   UNL A   1      41.947  35.849  42.704  1.00  0.00    -0.237 OA
ATOM     93  O   UNL A   1      41.335  37.821  41.348  1.00  0.00    -0.237 OA
ATOM     94  O   UNL A   1      39.583  36.526  42.498  1.00  0.00    -0.744 OA
ENDBRANCH  90  91
ENDBRANCH  64  85
ENDBRANCH  38  39
ENDBRANCH  31  33
ENDBRANCH  30  31
ENDBRANCH  29  30
ENDBRANCH   1  29
TORSDOF 19
ENDMDL
MODEL 3
REMARK VINA RESULT:     -11.2      6.379     12.185
REMARK SMILES CCc1ccc(Oc2ncnc(N3CCC(C(=O)OCCOC(=O)c4ccc(-c5c6nc(c(-c7ccc(S(=O)(=O)[O-])cc7)c7ccc([nH]7)c(-c7ccc(S(=O)(=O)[O-])cc7)c7nc(c(-c8ccc(S(=O)(=O)[O-])cc8)c8ccc5[nH]8)C=C7)C=C6)cc4)CC3)c2[N+](=O)[O-])cc1
REMARK SMILES IDX 20 1 19 2 17 3 18 4 16 5 13 6 14 7 86 8 15 9 85 10 12 11
REMARK SMILES IDX 8 12 9 13 87 14 10 15 11 16 7 17 6 18 3 19 4 20 92 21 5 22
REMARK SMILES IDX 91 23 2 24 1 25 88 26 89 27 90 28 21 29 22 30 23 31 24 32
REMARK SMILES IDX 25 33 26 34 84 35 27 36 83 37 28 38 29 39 30 40 77 41 31 42
REMARK SMILES IDX 82 43 76 44 78 45 32 46 81 47 75 48 74 49 33 51 63 52 44 53
REMARK SMILES IDX 62 54 45 55 48 56 61 57 79 58 46 59 47 60 60 62 80 63 49 64
REMARK SMILES IDX 34 65 35 66 43 67 36 68 42 69 37 70 38 71 39 72 40 73 41 74
REMARK SMILES IDX 64 75 65 76 73 77 66 78 72 79 67 80 68 81 69 82 70 83 71 84
REMARK SMILES IDX 50 85 51 86 59 87 52 88 58 89 53 90 54 91 55 92 56 93 57 94
REMARK H PARENT 78 50 48 61
REMARK Flexibility Score: inf
ROOT
ATOM      1  C   UNL A   1      33.731  31.169  27.637  1.00  0.00     0.274 C 
ENDROOT
BRANCH   1   2
ATOM      2  O   UNL A   1      33.604  30.103  26.677  1.00  0.00    -0.462 OA
BRANCH   2   3
ATOM      3  C   UNL A   1      32.504  30.141  25.884  1.00  0.00     0.309 C 
ATOM      4  O   UNL A   1      31.516  30.836  26.094  1.00  0.00    -0.252 OA
BRANCH   3   5
ATOM      5  C   UNL A   1      32.596  29.218  24.688  1.00  0.00     0.103 C 
ATOM      6  N   UNL A   1      32.738  26.786  23.221  1.00  0.00    -0.351 N 
ATOM      7  C   UNL A   1      33.919  27.645  23.264  1.00  0.00     0.119 C 
ATOM      8  C   UNL A   1      31.430  27.406  23.396  1.00  0.00     0.119 C 
ATOM      9  C   UNL A   1      33.921  28.462  24.548  1.00  0.00     0.037 C 
ATOM     10  C   UNL A   1      31.423  28.234  24.681  1.00  0.00     0.037 C 
BRANCH   6  11
ATOM     11  C   UNL A   1      32.922  25.425  23.165  1.00  0.00     0.215 A 
ATOM     12  C   UNL A   1      33.066  23.230  24.041  1.00  0.00     0.305 A 
ATOM     13  N   UNL A   1      33.201  22.695  22.811  1.00  0.00    -0.195 NA
ATOM     14  C   UNL A   1      32.979  24.589  24.262  1.00  0.00     0.373 A 
ATOM     15  C   UNL A   1      33.172  23.570  21.804  1.00  0.00     0.228 A 
ATOM     16  N   UNL A   1      33.015  24.896  21.923  1.00  0.00    -0.212 NA
BRANCH  12  17
ATOM     17  O   UNL A   1      33.029  22.303  25.058  1.00  0.00    -0.434 OA
BRANCH  17  18
ATOM     18  C   UNL A   1      33.274  20.984  24.733  1.00  0.00     0.129 A 
ATOM     19  C   UNL A   1      33.982  18.300  24.282  1.00  0.00    -0.048 A 
ATOM     20  C   UNL A   1      34.937  19.224  24.724  1.00  0.00     0.007 A 
ATOM     21  C   UNL A   1      32.679  18.745  24.027  1.00  0.00     0.007 A 
ATOM     22  C   UNL A   1      34.583  20.555  24.954  1.00  0.00     0.047 A 
ATOM     23  C   UNL A   1      32.330  20.083  24.232  1.00  0.00     0.047 A 
BRANCH  19  24
ATOM     24  C   UNL A   1      34.343  16.848  24.089  1.00  0.00     0.032 C 
ATOM     25  C   UNL A   1      33.330  15.906  24.726  1.00  0.00     0.009 C 
ENDBRANCH  19  24
ENDBRANCH  17  18
ENDBRANCH  12  17
BRANCH  14  26
ATOM     26  N   UNL A   1      32.863  25.083  25.595  1.00  0.00     0.072 N 
ATOM     27  O   UNL A   1      31.733  25.126  26.098  1.00  0.00    -0.258 OA
ATOM     28  O   UNL A   1      33.912  25.442  26.151  1.00  0.00    -0.258 OA
ENDBRANCH  14  26
ENDBRANCH   6  11
ENDBRANCH   3   5
ENDBRANCH   2   3
ENDBRANCH   1   2
BRANCH   1  29
ATOM     29  C   UNL A   1      35.135  31.205  28.249  1.00  0.00     0.275 C 
BRANCH  29  30
ATOM     30  O   UNL A   1      35.694  29.885  28.390  1.00  0.00    -0.458 OA
BRANCH  30  31
ATOM     31  C   UNL A   1      36.411  29.696  29.522  1.00  0.00     0.338 C 
ATOM     32  O   UNL A   1      35.974  29.488  30.642  1.00  0.00    -0.246 OA
BRANCH  31  33
ATOM     33  C   UNL A   1      37.853  29.651  29.224  1.00  0.00     0.060 A 
ATOM     34  C   UNL A   1      38.233  29.562  27.882  1.00  0.00     0.016 A 
ATOM     35  C   UNL A   1      38.808  29.557  30.238  1.00  0.00     0.016 A 
ATOM     36  C   UNL A   1      39.567  29.354  27.544  1.00  0.00     0.010 A 
ATOM     37  C   UNL A   1      40.150  29.337  29.898  1.00  0.00     0.010 A 
ATOM     38  C   UNL A   1      40.531  29.206  28.550  1.00  0.00    -0.014 A 
BRANCH  38  39
ATOM     39  C   UNL A   1      41.903  28.786  28.170  1.00  0.00     0.031 A 
ATOM     40  C   UNL A   1      43.013  29.803  28.179  1.00  0.00     0.074 A 
ATOM     41  C   UNL A   1      42.172  27.494  27.909  1.00  0.00     0.049 A 
ATOM     42  N   UNL A   1      44.280  29.647  27.889  1.00  0.00    -0.248 NA
ATOM     43  C   UNL A   1      42.652  31.174  28.576  1.00  0.00     0.031 C 
ATOM     44  C   UNL A   1      41.196  26.404  27.928  1.00  0.00     0.029 A 
ATOM     45  N   UNL A   1      43.356  26.878  27.593  1.00  0.00    -0.354 N 
ATOM     46  C   UNL A   1      44.866  30.895  28.066  1.00  0.00     0.074 A 
ATOM     47  C   UNL A   1      43.813  31.805  28.463  1.00  0.00     0.031 C 
ATOM     48  C   UNL A   1      41.826  25.249  27.645  1.00  0.00     0.029 A 
ATOM     49  C   UNL A   1      43.239  25.523  27.398  1.00  0.00     0.049 A 
ATOM     50  H   UNL A   1      44.211  27.361  27.514  1.00  0.00     0.167 HD
ATOM     51  C   UNL A   1      46.165  31.252  27.921  1.00  0.00     0.031 A 
ATOM     52  C   UNL A   1      44.164  24.608  27.047  1.00  0.00     0.031 A 
ATOM     53  C   UNL A   1      47.213  30.353  27.518  1.00  0.00     0.049 A 
ATOM     54  C   UNL A   1      45.589  25.045  26.835  1.00  0.00     0.074 A 
ATOM     55  C   UNL A   1      48.551  30.633  27.294  1.00  0.00     0.029 A 
ATOM     56  N   UNL A   1      47.045  28.997  27.293  1.00  0.00    -0.354 N 
ATOM     57  N   UNL A   1      46.116  26.239  26.965  1.00  0.00    -0.248 NA
ATOM     58  C   UNL A   1      46.547  24.003  26.435  1.00  0.00     0.031 C 
ATOM     59  C   UNL A   1      49.188  29.446  26.911  1.00  0.00     0.029 A 
ATOM     60  C   UNL A   1      48.254  28.424  26.936  1.00  0.00     0.049 A 
ATOM     61  H   UNL A   1      46.192  28.512  27.375  1.00  0.00     0.167 HD
ATOM     62  C   UNL A   1      47.469  26.087  26.683  1.00  0.00     0.074 A 
ATOM     63  C   UNL A   1      47.684  24.683  26.396  1.00  0.00     0.031 C 
ATOM     64  C   UNL A   1      48.448  27.025  26.659  1.00  0.00     0.031 A 
BRANCH  51  65
ATOM     65  C   UNL A   1      46.519  32.689  28.184  1.00  0.00    -0.014 A 
ATOM     66  C   UNL A   1      46.467  33.644  27.154  1.00  0.00     0.010 A 
ATOM     67  C   UNL A   1      46.872  33.098  29.483  1.00  0.00     0.010 A 
ATOM     68  C   UNL A   1      46.790  34.979  27.412  1.00  0.00     0.020 A 
ATOM     69  C   UNL A   1      47.177  34.436  29.749  1.00  0.00     0.020 A 
ATOM     70  C   UNL A   1      47.147  35.366  28.707  1.00  0.00     0.054 A 
BRANCH  70  71
ATOM     71  S   UNL A   1      47.537  37.110  29.021  1.00  0.00     0.124 S 
ATOM     72  O   UNL A   1      47.513  37.165  30.480  1.00  0.00    -0.237 OA
ATOM     73  O   UNL A   1      48.854  37.261  28.408  1.00  0.00    -0.237 OA
ATOM     74  O   UNL A   1      46.457  37.830  28.352  1.00  0.00    -0.744 OA
ENDBRANCH  70  71
ENDBRANCH  51  65
BRANCH  52  75
ATOM     75  C   UNL A   1      43.777  23.187  26.841  1.00  0.00    -0.014 A 
ATOM     76  C   UNL A   1      43.968  22.561  25.596  1.00  0.00     0.010 A 
ATOM     77  C   UNL A   1      43.168  22.465  27.884  1.00  0.00     0.010 A 
ATOM     78  C   UNL A   1      43.522  21.252  25.387  1.00  0.00     0.020 A 
ATOM     79  C   UNL A   1      42.745  21.148  27.686  1.00  0.00     0.020 A 
ATOM     80  C   UNL A   1      42.904  20.558  26.431  1.00  0.00     0.054 A 
BRANCH  80  81
ATOM     81  S   UNL A   1      42.337  18.857  26.151  1.00  0.00     0.124 S 
ATOM     82  O   UNL A   1      40.951  19.065  25.749  1.00  0.00    -0.237 OA
ATOM     83  O   UNL A   1      43.238  18.386  25.102  1.00  0.00    -0.237 OA
ATOM     84  O   UNL A   1      42.525  18.221  27.453  1.00  0.00    -0.744 OA
ENDBRANCH  80  81
ENDBRANCH  52  75
BRANCH  64  85
ATOM     85  C   UNL A   1      49.842  26.551  26.351  1.00  0.00    -0.014 A 
ATOM     86  C   UNL A   1      50.351  26.591  25.041  1.00  0.00     0.010 A 
ATOM     87  C   UNL A   1      50.657  26.067  27.389  1.00  0.00     0.010 A 
ATOM     88  C   UNL A   1      51.635  26.114  24.768  1.00  0.00     0.020 A 
ATOM     89  C   UNL A   1      51.950  25.610  27.124  1.00  0.00     0.020 A 
ATOM     90  C   UNL A   1      52.423  25.616  25.810  1.00  0.00     0.054 A 
BRANCH  90  91
ATOM     91  S   UNL A   1      54.092  25.010  25.440  1.00  0.00     0.124 S 
ATOM     92  O   UNL A   1      54.541  25.960  24.426  1.00  0.00    -0.237 OA
ATOM     93  O   UNL A   1      54.768  25.103  26.732  1.00  0.00    -0.237 OA
ATOM     94  O   UNL A   1      53.864  23.648  24.962  1.00  0.00    -0.744 OA
ENDBRANCH  90  91
ENDBRANCH  64  85
ENDBRANCH  38  39
ENDBRANCH  31  33
ENDBRANCH  30  31
ENDBRANCH  29  30
ENDBRANCH   1  29
TORSDOF 19
ENDMDL
