MODEL 1
REMARK VINA RESULT:     -12.1      0.000      0.000
REMARK SMILES O=C(OCCOC(=O)[C@H]1Cc2c([nH]c3ccccc23)[C@@H](c2ccc(OC(F)(F)F)cc2)[NH2+]1)c1ccc(-c2c3nc(c(-c4ccc(S(=O)(=O)[O-])cc4)c4ccc([nH]4)c(-c4ccc(S(=O)(=O)[O-])cc4)c4nc(c(-c5ccc(S(=O)(=O)[O-])cc5)c5ccc2[nH]5)C=C4)C=C3)cc1
REMARK SMILES IDX 4 1 3 2 2 3 1 4 33 5 34 6 92 7 35 8 91 9 36 10 37 11 38 12
REMARK SMILES IDX 85 13 39 14 90 15 84 16 86 17 40 18 89 19 83 20 82 21 41 23
REMARK SMILES IDX 71 24 52 25 70 26 53 27 56 28 69 29 87 30 54 31 55 32 68 34
REMARK SMILES IDX 88 35 57 36 42 37 43 38 51 39 44 40 50 41 45 42 46 43 47 44
REMARK SMILES IDX 48 45 49 46 72 47 73 48 81 49 74 50 80 51 75 52 76 53 77 54
REMARK SMILES IDX 78 55 79 56 58 57 59 58 67 59 60 60 66 61 61 62 62 63 63 64
REMARK SMILES IDX 64 65 65 66 5 67 6 68 7 69 8 70 9 71 10 72 32 73 11 74 20 75
REMARK SMILES IDX 12 78 19 79 13 80 14 81 18 82 15 84 17 85 16 86 21 87 22 88
REMARK SMILES IDX 31 89 23 90 30 91 24 92 25 93 26 94 27 95 28 96 29 97
REMARK H PARENT 86 22 56 33 32 76 32 77 13 83
REMARK Flexibility Score: inf
ROOT
ATOM      1  C   UNL A   1      37.041  23.198  23.959  1.00  0.00     0.275 C 
ENDROOT
BRANCH   1   2
ATOM      2  O   UNL A   1      37.392  23.684  25.257  1.00  0.00    -0.458 OA
BRANCH   2   3
ATOM      3  C   UNL A   1      38.498  23.412  25.987  1.00  0.00     0.338 C 
ATOM      4  O   UNL A   1      38.796  22.229  26.153  1.00  0.00    -0.246 OA
BRANCH   3   5
ATOM      5  C   UNL A   1      39.312  24.460  26.697  1.00  0.00     0.060 A 
ATOM      6  C   UNL A   1      40.182  25.409  26.140  1.00  0.00     0.016 A 
ATOM      7  C   UNL A   1      39.088  24.548  28.070  1.00  0.00     0.016 A 
ATOM      8  C   UNL A   1      40.617  26.533  26.860  1.00  0.00     0.010 A 
ATOM      9  C   UNL A   1      39.553  25.647  28.790  1.00  0.00     0.010 A 
ATOM     10  C   UNL A   1      40.235  26.710  28.182  1.00  0.00    -0.014 A 
BRANCH  10  11
ATOM     11  C   UNL A   1      40.548  27.958  28.941  1.00  0.00     0.031 A 
ATOM     12  C   UNL A   1      41.898  28.073  29.597  1.00  0.00     0.074 A 
ATOM     13  C   UNL A   1      39.619  28.919  29.164  1.00  0.00     0.049 A 
ATOM     14  N   UNL A   1      42.313  28.930  30.491  1.00  0.00    -0.248 NA
ATOM     15  C   UNL A   1      42.874  27.018  29.276  1.00  0.00     0.031 C 
ATOM     16  C   UNL A   1      38.229  28.913  28.691  1.00  0.00     0.029 A 
ATOM     17  N   UNL A   1      39.705  30.101  29.866  1.00  0.00    -0.354 N 
ATOM     18  C   UNL A   1      43.560  28.464  30.891  1.00  0.00     0.074 A 
ATOM     19  C   UNL A   1      43.772  27.198  30.228  1.00  0.00     0.031 C 
ATOM     20  C   UNL A   1      37.615  30.047  29.082  1.00  0.00     0.029 A 
ATOM     21  C   UNL A   1      38.554  30.864  29.841  1.00  0.00     0.049 A 
ATOM     22  H   UNL A   1      40.518  30.380  30.345  1.00  0.00     0.167 HD
ATOM     23  C   UNL A   1      44.484  29.062  31.680  1.00  0.00     0.031 A 
ATOM     24  C   UNL A   1      38.302  32.092  30.345  1.00  0.00     0.031 A 
ATOM     25  C   UNL A   1      44.339  30.391  32.199  1.00  0.00     0.049 A 
ATOM     26  C   UNL A   1      39.417  32.822  31.062  1.00  0.00     0.074 A 
ATOM     27  C   UNL A   1      45.261  31.149  32.899  1.00  0.00     0.029 A 
ATOM     28  N   UNL A   1      43.221  31.188  32.013  1.00  0.00    -0.354 N 
ATOM     29  N   UNL A   1      40.616  32.389  31.376  1.00  0.00    -0.248 NA
ATOM     30  C   UNL A   1      39.161  34.217  31.452  1.00  0.00     0.031 C 
ATOM     31  C   UNL A   1      44.701  32.410  33.128  1.00  0.00     0.029 A 
ATOM     32  C   UNL A   1      43.445  32.443  32.545  1.00  0.00     0.049 A 
ATOM     33  H   UNL A   1      42.390  30.901  31.570  1.00  0.00     0.167 HD
ATOM     34  C   UNL A   1      41.269  33.475  31.954  1.00  0.00     0.074 A 
ATOM     35  C   UNL A   1      40.342  34.585  31.929  1.00  0.00     0.031 C 
ATOM     36  C   UNL A   1      42.522  33.546  32.466  1.00  0.00     0.031 A 
BRANCH  23  37
ATOM     37  C   UNL A   1      45.754  28.301  31.947  1.00  0.00    -0.014 A 
ATOM     38  C   UNL A   1      45.878  27.477  33.084  1.00  0.00     0.010 A 
ATOM     39  C   UNL A   1      46.843  28.414  31.065  1.00  0.00     0.010 A 
ATOM     40  C   UNL A   1      47.087  26.850  33.376  1.00  0.00     0.020 A 
ATOM     41  C   UNL A   1      48.042  27.746  31.329  1.00  0.00     0.020 A 
ATOM     42  C   UNL A   1      48.163  26.989  32.498  1.00  0.00     0.054 A 
BRANCH  42  43
ATOM     43  S   UNL A   1      49.713  26.133  32.885  1.00  0.00     0.124 S 
ATOM     44  O   UNL A   1      49.266  24.746  33.007  1.00  0.00    -0.237 OA
ATOM     45  O   UNL A   1      50.539  26.421  31.711  1.00  0.00    -0.237 OA
ATOM     46  O   UNL A   1      50.156  26.760  34.122  1.00  0.00    -0.744 OA
ENDBRANCH  42  43
ENDBRANCH  23  37
BRANCH  24  47
ATOM     47  C   UNL A   1      36.990  32.777  30.133  1.00  0.00    -0.014 A 
ATOM     48  C   UNL A   1      36.778  33.554  28.976  1.00  0.00     0.010 A 
ATOM     49  C   UNL A   1      35.979  32.736  31.110  1.00  0.00     0.010 A 
ATOM     50  C   UNL A   1      35.618  34.321  28.828  1.00  0.00     0.020 A 
ATOM     51  C   UNL A   1      34.800  33.480  30.951  1.00  0.00     0.020 A 
ATOM     52  C   UNL A   1      34.637  34.286  29.821  1.00  0.00     0.054 A 
BRANCH  52  53
ATOM     53  S   UNL A   1      33.145  35.300  29.608  1.00  0.00     0.124 S 
ATOM     54  O   UNL A   1      32.476  34.628  28.499  1.00  0.00    -0.237 OA
ATOM     55  O   UNL A   1      32.493  35.175  30.909  1.00  0.00    -0.237 OA
ATOM     56  O   UNL A   1      33.675  36.628  29.309  1.00  0.00    -0.744 OA
ENDBRANCH  52  53
ENDBRANCH  24  47
BRANCH  36  57
ATOM     57  C   UNL A   1      42.997  34.882  32.970  1.00  0.00    -0.014 A 
ATOM     58  C   UNL A   1      43.638  35.800  32.121  1.00  0.00     0.010 A 
ATOM     59  C   UNL A   1      42.738  35.245  34.305  1.00  0.00     0.010 A 
ATOM     60  C   UNL A   1      44.042  37.047  32.607  1.00  0.00     0.020 A 
ATOM     61  C   UNL A   1      43.112  36.501  34.787  1.00  0.00     0.020 A 
ATOM     62  C   UNL A   1      43.776  37.388  33.937  1.00  0.00     0.054 A 
BRANCH  62  63
ATOM     63  S   UNL A   1      44.269  39.030  34.529  1.00  0.00     0.124 S 
ATOM     64  O   UNL A   1      44.185  38.867  35.978  1.00  0.00    -0.237 OA
ATOM     65  O   UNL A   1      45.619  39.173  33.988  1.00  0.00    -0.237 OA
ATOM     66  O   UNL A   1      43.272  39.924  33.943  1.00  0.00    -0.744 OA
ENDBRANCH  62  63
ENDBRANCH  36  57
ENDBRANCH  10  11
ENDBRANCH   3   5
ENDBRANCH   2   3
ENDBRANCH   1   2
BRANCH   1  67
ATOM     67  C   UNL A   1      35.564  23.383  23.579  1.00  0.00     0.274 C 
BRANCH  67  68
ATOM     68  O   UNL A   1      34.765  24.135  24.522  1.00  0.00    -0.458 OA
BRANCH  68  69
ATOM     69  C   UNL A   1      33.421  24.141  24.263  1.00  0.00     0.365 C 
ATOM     70  O   UNL A   1      32.902  23.361  23.468  1.00  0.00    -0.245 OA
BRANCH  69  71
ATOM     71  C   UNL A   1      32.664  25.307  24.945  1.00  0.00     0.298 C 
ATOM     72  C   UNL A   1      33.737  26.376  25.255  1.00  0.00     0.115 C 
ATOM     73  N   UNL A   1      31.559  25.887  24.117  1.00  0.00    -0.323 N 
ATOM     74  C   UNL A   1      33.093  27.584  25.813  1.00  0.00    -0.006 A 
ATOM     75  C   UNL A   1      30.826  27.030  24.752  1.00  0.00     0.262 C 
ATOM     76  H   UNL A   1      30.885  25.146  23.924  1.00  0.00     0.347 HD
ATOM     77  H   UNL A   1      31.999  26.261  23.276  1.00  0.00     0.347 HD
ATOM     78  C   UNL A   1      31.759  27.837  25.597  1.00  0.00     0.083 A 
ATOM     79  C   UNL A   1      33.643  28.688  26.499  1.00  0.00     0.003 A 
ATOM     80  N   UNL A   1      31.444  29.010  26.229  1.00  0.00    -0.353 N 
ATOM     81  C   UNL A   1      32.593  29.578  26.738  1.00  0.00     0.046 A 
ATOM     82  C   UNL A   1      34.944  29.032  26.903  1.00  0.00     0.010 A 
ATOM     83  H   UNL A   1      30.539  29.389  26.307  1.00  0.00     0.166 HD
ATOM     84  C   UNL A   1      32.787  30.810  27.367  1.00  0.00     0.026 A 
ATOM     85  C   UNL A   1      35.155  30.265  27.525  1.00  0.00     0.001 A 
ATOM     86  C   UNL A   1      34.092  31.138  27.750  1.00  0.00     0.002 A 
BRANCH  75  87
ATOM     87  C   UNL A   1      30.168  27.931  23.690  1.00  0.00     0.016 A 
ATOM     88  C   UNL A   1      28.767  27.969  23.549  1.00  0.00     0.014 A 
ATOM     89  C   UNL A   1      30.929  28.722  22.811  1.00  0.00     0.014 A 
ATOM     90  C   UNL A   1      28.152  28.805  22.611  1.00  0.00     0.047 A 
ATOM     91  C   UNL A   1      30.309  29.605  21.906  1.00  0.00     0.047 A 
ATOM     92  C   UNL A   1      28.918  29.668  21.833  1.00  0.00     0.129 A 
BRANCH  92  93
ATOM     93  O   UNL A   1      28.230  30.489  20.984  1.00  0.00    -0.406 OA
BRANCH  93  94
ATOM     94  C   UNL A   1      28.045  31.815  21.472  1.00  0.00     0.573 C 
ATOM     95  F   UNL A   1      27.275  31.830  22.584  1.00  0.00    -0.132 F 
ATOM     96  F   UNL A   1      29.231  32.397  21.737  1.00  0.00    -0.132 F 
ATOM     97  F   UNL A   1      27.414  32.532  20.517  1.00  0.00    -0.132 F 
ENDBRANCH  93  94
ENDBRANCH  92  93
ENDBRANCH  75  87
ENDBRANCH  69  71
ENDBRANCH  68  69
ENDBRANCH  67  68
ENDBRANCH   1  67
TORSDOF 17
ENDMDL
MODEL 2
REMARK VINA RESULT:     -12.0      2.600      3.180
REMARK SMILES O=C(OCCOC(=O)[C@H]1Cc2c([nH]c3ccccc23)[C@@H](c2ccc(OC(F)(F)F)cc2)[NH2+]1)c1ccc(-c2c3nc(c(-c4ccc(S(=O)(=O)[O-])cc4)c4ccc([nH]4)c(-c4ccc(S(=O)(=O)[O-])cc4)c4nc(c(-c5ccc(S(=O)(=O)[O-])cc5)c5ccc2[nH]5)C=C4)C=C3)cc1
REMARK SMILES IDX 4 1 3 2 2 3 1 4 33 5 34 6 92 7 35 8 91 9 36 10 37 11 38 12
REMARK SMILES IDX 85 13 39 14 90 15 84 16 86 17 40 18 89 19 83 20 82 21 41 23
REMARK SMILES IDX 71 24 52 25 70 26 53 27 56 28 69 29 87 30 54 31 55 32 68 34
REMARK SMILES IDX 88 35 57 36 42 37 43 38 51 39 44 40 50 41 45 42 46 43 47 44
REMARK SMILES IDX 48 45 49 46 72 47 73 48 81 49 74 50 80 51 75 52 76 53 77 54
REMARK SMILES IDX 78 55 79 56 58 57 59 58 67 59 60 60 66 61 61 62 62 63 63 64
REMARK SMILES IDX 64 65 65 66 5 67 6 68 7 69 8 70 9 71 10 72 32 73 11 74 20 75
REMARK SMILES IDX 12 78 19 79 13 80 14 81 18 82 15 84 17 85 16 86 21 87 22 88
REMARK SMILES IDX 31 89 23 90 30 91 24 92 25 93 26 94 27 95 28 96 29 97
REMARK H PARENT 86 22 56 33 32 76 32 77 13 83
REMARK Flexibility Score: inf
ROOT
ATOM      1  C   UNL A   1      37.092  22.520  24.724  1.00  0.00     0.275 C 
ENDROOT
BRANCH   1   2
ATOM      2  O   UNL A   1      37.856  22.007  25.818  1.00  0.00    -0.458 OA
BRANCH   2   3
ATOM      3  C   UNL A   1      39.110  22.340  26.200  1.00  0.00     0.338 C 
ATOM      4  O   UNL A   1      40.016  21.548  25.939  1.00  0.00    -0.246 OA
BRANCH   3   5
ATOM      5  C   UNL A   1      39.440  23.559  27.018  1.00  0.00     0.060 A 
ATOM      6  C   UNL A   1      40.485  23.731  27.938  1.00  0.00     0.016 A 
ATOM      7  C   UNL A   1      38.657  24.679  26.745  1.00  0.00     0.016 A 
ATOM      8  C   UNL A   1      40.886  25.002  28.380  1.00  0.00     0.010 A 
ATOM      9  C   UNL A   1      39.037  25.935  27.216  1.00  0.00     0.010 A 
ATOM     10  C   UNL A   1      40.212  26.138  27.953  1.00  0.00    -0.014 A 
BRANCH  10  11
ATOM     11  C   UNL A   1      40.691  27.516  28.275  1.00  0.00     0.031 A 
ATOM     12  C   UNL A   1      42.128  27.855  27.987  1.00  0.00     0.074 A 
ATOM     13  C   UNL A   1      39.916  28.414  28.929  1.00  0.00     0.049 A 
ATOM     14  N   UNL A   1      42.833  28.880  28.387  1.00  0.00    -0.248 NA
ATOM     15  C   UNL A   1      42.900  26.853  27.234  1.00  0.00     0.031 C 
ATOM     16  C   UNL A   1      38.533  28.208  29.380  1.00  0.00     0.029 A 
ATOM     17  N   UNL A   1      40.191  29.699  29.346  1.00  0.00    -0.354 N 
ATOM     18  C   UNL A   1      44.138  28.598  28.002  1.00  0.00     0.074 A 
ATOM     19  C   UNL A   1      44.137  27.265  27.447  1.00  0.00     0.031 C 
ATOM     20  C   UNL A   1      38.078  29.332  29.968  1.00  0.00     0.029 A 
ATOM     21  C   UNL A   1      39.130  30.342  29.951  1.00  0.00     0.049 A 
ATOM     22  H   UNL A   1      41.071  30.122  29.223  1.00  0.00     0.167 HD
ATOM     23  C   UNL A   1      45.231  29.396  28.036  1.00  0.00     0.031 A 
ATOM     24  C   UNL A   1      39.013  31.608  30.406  1.00  0.00     0.031 A 
ATOM     25  C   UNL A   1      45.192  30.775  28.431  1.00  0.00     0.049 A 
ATOM     26  C   UNL A   1      40.195  32.542  30.257  1.00  0.00     0.074 A 
ATOM     27  C   UNL A   1      46.206  31.715  28.382  1.00  0.00     0.029 A 
ATOM     28  N   UNL A   1      44.058  31.428  28.885  1.00  0.00    -0.354 N 
ATOM     29  N   UNL A   1      41.407  32.274  29.829  1.00  0.00    -0.248 NA
ATOM     30  C   UNL A   1      39.981  33.953  30.611  1.00  0.00     0.031 C 
ATOM     31  C   UNL A   1      45.679  32.942  28.798  1.00  0.00     0.029 A 
ATOM     32  C   UNL A   1      44.333  32.768  29.077  1.00  0.00     0.049 A 
ATOM     33  H   UNL A   1      43.186  31.000  29.047  1.00  0.00     0.167 HD
ATOM     34  C   UNL A   1      42.080  33.493  29.817  1.00  0.00     0.074 A 
ATOM     35  C   UNL A   1      41.139  34.497  30.261  1.00  0.00     0.031 C 
ATOM     36  C   UNL A   1      43.365  33.757  29.476  1.00  0.00     0.031 A 
BRANCH  23  37
ATOM     37  C   UNL A   1      46.528  28.805  27.554  1.00  0.00    -0.014 A 
ATOM     38  C   UNL A   1      46.868  28.827  26.187  1.00  0.00     0.010 A 
ATOM     39  C   UNL A   1      47.416  28.212  28.468  1.00  0.00     0.010 A 
ATOM     40  C   UNL A   1      48.025  28.196  25.733  1.00  0.00     0.020 A 
ATOM     41  C   UNL A   1      48.602  27.621  28.023  1.00  0.00     0.020 A 
ATOM     42  C   UNL A   1      48.885  27.595  26.655  1.00  0.00     0.054 A 
BRANCH  42  43
ATOM     43  S   UNL A   1      50.400  26.813  26.041  1.00  0.00     0.124 S 
ATOM     44  O   UNL A   1      51.193  27.973  25.636  1.00  0.00    -0.237 OA
ATOM     45  O   UNL A   1      50.894  26.102  27.222  1.00  0.00    -0.237 OA
ATOM     46  O   UNL A   1      49.936  25.962  24.955  1.00  0.00    -0.744 OA
ENDBRANCH  42  43
ENDBRANCH  23  37
BRANCH  24  47
ATOM     47  C   UNL A   1      37.727  32.131  30.963  1.00  0.00    -0.014 A 
ATOM     48  C   UNL A   1      36.791  32.754  30.112  1.00  0.00     0.010 A 
ATOM     49  C   UNL A   1      37.461  32.093  32.343  1.00  0.00     0.010 A 
ATOM     50  C   UNL A   1      35.653  33.379  30.632  1.00  0.00     0.020 A 
ATOM     51  C   UNL A   1      36.305  32.693  32.865  1.00  0.00     0.020 A 
ATOM     52  C   UNL A   1      35.420  33.352  32.008  1.00  0.00     0.054 A 
BRANCH  52  53
ATOM     53  S   UNL A   1      33.939  34.182  32.657  1.00  0.00     0.124 S 
ATOM     54  O   UNL A   1      33.359  34.757  31.449  1.00  0.00    -0.237 OA
ATOM     55  O   UNL A   1      33.195  33.074  33.252  1.00  0.00    -0.237 OA
ATOM     56  O   UNL A   1      34.480  35.145  33.614  1.00  0.00    -0.744 OA
ENDBRANCH  52  53
ENDBRANCH  24  47
BRANCH  36  57
ATOM     57  C   UNL A   1      43.811  35.194  29.489  1.00  0.00    -0.014 A 
ATOM     58  C   UNL A   1      44.389  35.772  30.632  1.00  0.00     0.010 A 
ATOM     59  C   UNL A   1      43.706  35.958  28.311  1.00  0.00     0.010 A 
ATOM     60  C   UNL A   1      44.823  37.101  30.608  1.00  0.00     0.020 A 
ATOM     61  C   UNL A   1      44.165  37.275  28.273  1.00  0.00     0.020 A 
ATOM     62  C   UNL A   1      44.708  37.843  29.428  1.00  0.00     0.054 A 
BRANCH  62  63
ATOM     63  S   UNL A   1      45.322  39.550  29.410  1.00  0.00     0.124 S 
ATOM     64  O   UNL A   1      45.648  39.739  27.999  1.00  0.00    -0.237 OA
ATOM     65  O   UNL A   1      44.172  40.308  29.898  1.00  0.00    -0.237 OA
ATOM     66  O   UNL A   1      46.468  39.515  30.316  1.00  0.00    -0.744 OA
ENDBRANCH  62  63
ENDBRANCH  36  57
ENDBRANCH  10  11
ENDBRANCH   3   5
ENDBRANCH   2   3
ENDBRANCH   1   2
BRANCH   1  67
ATOM     67  C   UNL A   1      35.571  22.509  24.938  1.00  0.00     0.274 C 
BRANCH  67  68
ATOM     68  O   UNL A   1      34.968  23.797  25.207  1.00  0.00    -0.458 OA
BRANCH  68  69
ATOM     69  C   UNL A   1      33.677  23.931  24.773  1.00  0.00     0.365 C 
ATOM     70  O   UNL A   1      33.203  23.217  23.892  1.00  0.00    -0.245 OA
BRANCH  69  71
ATOM     71  C   UNL A   1      32.942  25.149  25.384  1.00  0.00     0.298 C 
ATOM     72  C   UNL A   1      34.032  26.220  25.618  1.00  0.00     0.115 C 
ATOM     73  N   UNL A   1      31.839  25.691  24.528  1.00  0.00    -0.323 N 
ATOM     74  C   UNL A   1      33.409  27.470  26.102  1.00  0.00    -0.006 A 
ATOM     75  C   UNL A   1      31.126  26.882  25.094  1.00  0.00     0.262 C 
ATOM     76  H   UNL A   1      31.153  24.948  24.387  1.00  0.00     0.347 HD
ATOM     77  H   UNL A   1      32.277  26.004  23.662  1.00  0.00     0.347 HD
ATOM     78  C   UNL A   1      32.077  27.728  25.880  1.00  0.00     0.083 A 
ATOM     79  C   UNL A   1      33.979  28.607  26.713  1.00  0.00     0.003 A 
ATOM     80  N   UNL A   1      31.783  28.943  26.438  1.00  0.00    -0.353 N 
ATOM     81  C   UNL A   1      32.944  29.525  26.902  1.00  0.00     0.046 A 
ATOM     82  C   UNL A   1      35.287  28.958  27.086  1.00  0.00     0.010 A 
ATOM     83  H   UNL A   1      30.883  29.339  26.498  1.00  0.00     0.166 HD
ATOM     84  C   UNL A   1      33.159  30.792  27.450  1.00  0.00     0.026 A 
ATOM     85  C   UNL A   1      35.521  30.224  27.626  1.00  0.00     0.001 A 
ATOM     86  C   UNL A   1      34.472  31.125  27.802  1.00  0.00     0.002 A 
BRANCH  75  87
ATOM     87  C   UNL A   1      30.473  27.723  23.981  1.00  0.00     0.016 A 
ATOM     88  C   UNL A   1      29.076  27.708  23.796  1.00  0.00     0.014 A 
ATOM     89  C   UNL A   1      31.234  28.508  23.098  1.00  0.00     0.014 A 
ATOM     90  C   UNL A   1      28.464  28.491  22.811  1.00  0.00     0.047 A 
ATOM     91  C   UNL A   1      30.615  29.339  22.144  1.00  0.00     0.047 A 
ATOM     92  C   UNL A   1      29.226  29.352  22.026  1.00  0.00     0.129 A 
BRANCH  92  93
ATOM     93  O   UNL A   1      28.538  30.119  21.128  1.00  0.00    -0.406 OA
BRANCH  93  94
ATOM     94  C   UNL A   1      28.226  31.429  21.594  1.00  0.00     0.573 C 
ATOM     95  F   UNL A   1      27.276  31.400  22.555  1.00  0.00    -0.132 F 
ATOM     96  F   UNL A   1      29.328  32.043  22.068  1.00  0.00    -0.132 F 
ATOM     97  F   UNL A   1      27.746  32.144  20.553  1.00  0.00    -0.132 F 
ENDBRANCH  93  94
ENDBRANCH  92  93
ENDBRANCH  75  87
ENDBRANCH  69  71
ENDBRANCH  68  69
ENDBRANCH  67  68
ENDBRANCH   1  67
TORSDOF 17
ENDMDL
MODEL 3
REMARK VINA RESULT:     -11.7      5.090     10.335
REMARK SMILES O=C(OCCOC(=O)[C@H]1Cc2c([nH]c3ccccc23)[C@@H](c2ccc(OC(F)(F)F)cc2)[NH2+]1)c1ccc(-c2c3nc(c(-c4ccc(S(=O)(=O)[O-])cc4)c4ccc([nH]4)c(-c4ccc(S(=O)(=O)[O-])cc4)c4nc(c(-c5ccc(S(=O)(=O)[O-])cc5)c5ccc2[nH]5)C=C4)C=C3)cc1
REMARK SMILES IDX 4 1 3 2 2 3 1 4 33 5 34 6 92 7 35 8 91 9 36 10 37 11 38 12
REMARK SMILES IDX 85 13 39 14 90 15 84 16 86 17 40 18 89 19 83 20 82 21 41 23
REMARK SMILES IDX 71 24 52 25 70 26 53 27 56 28 69 29 87 30 54 31 55 32 68 34
REMARK SMILES IDX 88 35 57 36 42 37 43 38 51 39 44 40 50 41 45 42 46 43 47 44
REMARK SMILES IDX 48 45 49 46 72 47 73 48 81 49 74 50 80 51 75 52 76 53 77 54
REMARK SMILES IDX 78 55 79 56 58 57 59 58 67 59 60 60 66 61 61 62 62 63 63 64
REMARK SMILES IDX 64 65 65 66 5 67 6 68 7 69 8 70 9 71 10 72 32 73 11 74 20 75
REMARK SMILES IDX 12 78 19 79 13 80 14 81 18 82 15 84 17 85 16 86 21 87 22 88
REMARK SMILES IDX 31 89 23 90 30 91 24 92 25 93 26 94 27 95 28 96 29 97
REMARK H PARENT 86 22 56 33 32 76 32 77 13 83
REMARK Flexibility Score: inf
ROOT
ATOM      1  C   UNL A   1      32.081  29.159  26.873  1.00  0.00     0.275 C 
ENDROOT
BRANCH   1   2
ATOM      2  O   UNL A   1      33.268  29.864  26.501  1.00  0.00    -0.458 OA
BRANCH   2   3
ATOM      3  C   UNL A   1      34.018  30.704  27.251  1.00  0.00     0.338 C 
ATOM      4  O   UNL A   1      33.520  31.786  27.565  1.00  0.00    -0.246 OA
BRANCH   3   5
ATOM      5  C   UNL A   1      35.452  30.441  27.623  1.00  0.00     0.060 A 
ATOM      6  C   UNL A   1      36.375  31.324  28.203  1.00  0.00     0.016 A 
ATOM      7  C   UNL A   1      35.871  29.123  27.451  1.00  0.00     0.016 A 
ATOM      8  C   UNL A   1      37.561  30.873  28.803  1.00  0.00     0.010 A 
ATOM      9  C   UNL A   1      37.068  28.686  28.016  1.00  0.00     0.010 A 
ATOM     10  C   UNL A   1      37.884  29.524  28.790  1.00  0.00    -0.014 A 
BRANCH  10  11
ATOM     11  C   UNL A   1      39.054  28.977  29.541  1.00  0.00     0.031 A 
ATOM     12  C   UNL A   1      39.198  29.338  30.995  1.00  0.00     0.074 A 
ATOM     13  C   UNL A   1      40.045  28.285  28.928  1.00  0.00     0.049 A 
ATOM     14  N   UNL A   1      40.228  29.193  31.786  1.00  0.00    -0.248 NA
ATOM     15  C   UNL A   1      38.065  30.050  31.608  1.00  0.00     0.031 C 
ATOM     16  C   UNL A   1      40.116  27.942  27.502  1.00  0.00     0.029 A 
ATOM     17  N   UNL A   1      41.208  27.747  29.436  1.00  0.00    -0.354 N 
ATOM     18  C   UNL A   1      39.890  29.867  32.953  1.00  0.00     0.074 A 
ATOM     19  C   UNL A   1      38.618  30.511  32.716  1.00  0.00     0.031 C 
ATOM     20  C   UNL A   1      41.232  27.225  27.265  1.00  0.00     0.029 A 
ATOM     21  C   UNL A   1      41.969  27.059  28.513  1.00  0.00     0.049 A 
ATOM     22  H   UNL A   1      41.474  27.845  30.379  1.00  0.00     0.167 HD
ATOM     23  C   UNL A   1      40.535  29.894  34.142  1.00  0.00     0.031 A 
ATOM     24  C   UNL A   1      43.109  26.351  28.666  1.00  0.00     0.031 A 
ATOM     25  C   UNL A   1      41.708  29.118  34.424  1.00  0.00     0.049 A 
ATOM     26  C   UNL A   1      43.709  26.238  30.050  1.00  0.00     0.074 A 
ATOM     27  C   UNL A   1      42.372  28.964  35.628  1.00  0.00     0.029 A 
ATOM     28  N   UNL A   1      42.352  28.309  33.501  1.00  0.00    -0.354 N 
ATOM     29  N   UNL A   1      43.337  26.832  31.160  1.00  0.00    -0.248 NA
ATOM     30  C   UNL A   1      44.854  25.328  30.211  1.00  0.00     0.031 C 
ATOM     31  C   UNL A   1      43.415  28.052  35.434  1.00  0.00     0.029 A 
ATOM     32  C   UNL A   1      43.379  27.619  34.118  1.00  0.00     0.049 A 
ATOM     33  H   UNL A   1      42.115  28.238  32.548  1.00  0.00     0.167 HD
ATOM     34  C   UNL A   1      44.171  26.329  32.155  1.00  0.00     0.074 A 
ATOM     35  C   UNL A   1      45.050  25.371  31.521  1.00  0.00     0.031 C 
ATOM     36  C   UNL A   1      44.211  26.636  33.475  1.00  0.00     0.031 A 
BRANCH  23  37
ATOM     37  C   UNL A   1      39.926  30.730  35.235  1.00  0.00    -0.014 A 
ATOM     38  C   UNL A   1      38.765  30.301  35.910  1.00  0.00     0.010 A 
ATOM     39  C   UNL A   1      40.505  31.960  35.590  1.00  0.00     0.010 A 
ATOM     40  C   UNL A   1      38.151  31.120  36.856  1.00  0.00     0.020 A 
ATOM     41  C   UNL A   1      39.920  32.763  36.573  1.00  0.00     0.020 A 
ATOM     42  C   UNL A   1      38.732  32.348  37.181  1.00  0.00     0.054 A 
BRANCH  42  43
ATOM     43  S   UNL A   1      37.931  33.377  38.440  1.00  0.00     0.124 S 
ATOM     44  O   UNL A   1      38.503  34.693  38.157  1.00  0.00    -0.237 OA
ATOM     45  O   UNL A   1      36.512  33.232  38.116  1.00  0.00    -0.237 OA
ATOM     46  O   UNL A   1      38.345  32.771  39.697  1.00  0.00    -0.744 OA
ENDBRANCH  42  43
ENDBRANCH  23  37
BRANCH  24  47
ATOM     47  C   UNL A   1      43.734  25.606  27.529  1.00  0.00    -0.014 A 
ATOM     48  C   UNL A   1      43.428  24.245  27.324  1.00  0.00     0.010 A 
ATOM     49  C   UNL A   1      44.694  26.212  26.700  1.00  0.00     0.010 A 
ATOM     50  C   UNL A   1      44.109  23.493  26.361  1.00  0.00     0.020 A 
ATOM     51  C   UNL A   1      45.358  25.468  25.713  1.00  0.00     0.020 A 
ATOM     52  C   UNL A   1      45.078  24.107  25.566  1.00  0.00     0.054 A 
BRANCH  52  53
ATOM     53  S   UNL A   1      45.956  23.104  24.331  1.00  0.00     0.124 S 
ATOM     54  O   UNL A   1      44.902  22.825  23.362  1.00  0.00    -0.237 OA
ATOM     55  O   UNL A   1      47.007  24.013  23.879  1.00  0.00    -0.237 OA
ATOM     56  O   UNL A   1      46.424  21.952  25.098  1.00  0.00    -0.744 OA
ENDBRANCH  52  53
ENDBRANCH  24  47
BRANCH  36  57
ATOM     57  C   UNL A   1      45.179  25.877  34.341  1.00  0.00    -0.014 A 
ATOM     58  C   UNL A   1      46.474  26.360  34.592  1.00  0.00     0.010 A 
ATOM     59  C   UNL A   1      44.756  24.688  34.965  1.00  0.00     0.010 A 
ATOM     60  C   UNL A   1      47.342  25.651  35.426  1.00  0.00     0.020 A 
ATOM     61  C   UNL A   1      45.610  23.992  35.823  1.00  0.00     0.020 A 
ATOM     62  C   UNL A   1      46.904  24.471  36.035  1.00  0.00     0.054 A 
BRANCH  62  63
ATOM     63  S   UNL A   1      48.035  23.594  37.149  1.00  0.00     0.124 S 
ATOM     64  O   UNL A   1      49.122  24.558  37.298  1.00  0.00    -0.237 OA
ATOM     65  O   UNL A   1      47.213  23.383  38.339  1.00  0.00    -0.237 OA
ATOM     66  O   UNL A   1      48.376  22.379  36.412  1.00  0.00    -0.744 OA
ENDBRANCH  62  63
ENDBRANCH  36  57
ENDBRANCH  10  11
ENDBRANCH   3   5
ENDBRANCH   2   3
ENDBRANCH   1   2
BRANCH   1  67
ATOM     67  C   UNL A   1      31.600  28.120  25.847  1.00  0.00     0.274 C 
BRANCH  67  68
ATOM     68  O   UNL A   1      32.533  27.054  25.552  1.00  0.00    -0.458 OA
BRANCH  68  69
ATOM     69  C   UNL A   1      31.989  25.974  24.913  1.00  0.00     0.365 C 
ATOM     70  O   UNL A   1      30.776  25.791  24.846  1.00  0.00    -0.245 OA
BRANCH  69  71
ATOM     71  C   UNL A   1      33.043  24.947  24.428  1.00  0.00     0.298 C 
ATOM     72  C   UNL A   1      34.166  24.967  25.490  1.00  0.00     0.115 C 
ATOM     73  N   UNL A   1      32.508  23.560  24.246  1.00  0.00    -0.323 N 
ATOM     74  C   UNL A   1      35.174  23.935  25.172  1.00  0.00    -0.006 A 
ATOM     75  C   UNL A   1      33.516  22.547  23.794  1.00  0.00     0.262 C 
ATOM     76  H   UNL A   1      31.762  23.597  23.550  1.00  0.00     0.347 HD
ATOM     77  H   UNL A   1      32.187  23.255  25.165  1.00  0.00     0.347 HD
ATOM     78  C   UNL A   1      34.860  22.864  24.369  1.00  0.00     0.083 A 
ATOM     79  C   UNL A   1      36.488  23.751  25.653  1.00  0.00     0.003 A 
ATOM     80  N   UNL A   1      35.979  22.085  24.249  1.00  0.00    -0.353 N 
ATOM     81  C   UNL A   1      36.970  22.576  25.072  1.00  0.00     0.046 A 
ATOM     82  C   UNL A   1      37.299  24.453  26.561  1.00  0.00     0.010 A 
ATOM     83  H   UNL A   1      36.062  21.296  23.665  1.00  0.00     0.166 HD
ATOM     84  C   UNL A   1      38.236  22.064  25.363  1.00  0.00     0.026 A 
ATOM     85  C   UNL A   1      38.564  23.949  26.869  1.00  0.00     0.001 A 
ATOM     86  C   UNL A   1      39.022  22.772  26.279  1.00  0.00     0.002 A 
BRANCH  75  87
ATOM     87  C   UNL A   1      33.096  21.122  24.198  1.00  0.00     0.016 A 
ATOM     88  C   UNL A   1      32.501  20.255  23.260  1.00  0.00     0.014 A 
ATOM     89  C   UNL A   1      33.261  20.641  25.509  1.00  0.00     0.014 A 
ATOM     90  C   UNL A   1      32.143  18.947  23.602  1.00  0.00     0.047 A 
ATOM     91  C   UNL A   1      32.953  19.307  25.839  1.00  0.00     0.047 A 
ATOM     92  C   UNL A   1      32.424  18.452  24.872  1.00  0.00     0.129 A 
BRANCH  92  93
ATOM     93  O   UNL A   1      32.090  17.147  25.100  1.00  0.00    -0.406 OA
BRANCH  93  94
ATOM     94  C   UNL A   1      33.128  16.216  24.806  1.00  0.00     0.573 C 
ATOM     95  F   UNL A   1      33.526  16.310  23.517  1.00  0.00    -0.132 F 
ATOM     96  F   UNL A   1      34.186  16.407  25.619  1.00  0.00    -0.132 F 
ATOM     97  F   UNL A   1      32.647  14.970  25.005  1.00  0.00    -0.132 F 
ENDBRANCH  93  94
ENDBRANCH  92  93
ENDBRANCH  75  87
ENDBRANCH  69  71
ENDBRANCH  68  69
ENDBRANCH  67  68
ENDBRANCH   1  67
TORSDOF 17
ENDMDL
