MODEL 1
REMARK VINA RESULT:     -12.2      0.000      0.000
REMARK SMILES COc1ccc2c(c1)c(Cc1nc(-c3ccc(C(=O)OCCOC(=O)c4ccc(-c5c6nc(c(-c7ccc(S(=O)(=O)[O-])cc7)c7ccc([nH]7)c(-c7ccc(S(=O)(=O)[O-])cc7)c7nc(c(-c8ccc(S(=O)(=O)[O-])cc8)c8ccc5[nH]8)C=C7)C=C6)cc4)cc3)cs1)c(C)n2C(=O)c1ccc(Cl)cc1
REMARK SMILES IDX 21 1 20 2 18 3 19 4 17 5 14 6 15 7 87 8 16 9 86 10 13 11
REMARK SMILES IDX 11 12 12 13 89 14 88 15 10 16 9 17 3 18 4 19 8 20 5 21 7 22
REMARK SMILES IDX 6 23 92 24 90 25 91 26 2 27 1 28 93 29 94 30 95 31 96 32
REMARK SMILES IDX 101 33 97 34 100 35 98 36 99 37 22 38 23 39 24 40 25 41
REMARK SMILES IDX 26 42 27 43 85 44 28 45 84 46 29 47 30 48 31 49 78 50 32 51
REMARK SMILES IDX 83 52 77 53 79 54 33 55 82 56 76 57 75 58 34 60 64 61 45 62
REMARK SMILES IDX 63 63 46 64 49 65 62 66 80 67 47 68 48 69 61 71 81 72 50 73
REMARK SMILES IDX 35 74 36 75 44 76 37 77 43 78 38 79 39 80 40 81 41 82 42 83
REMARK SMILES IDX 65 84 66 85 74 86 67 87 73 88 68 89 69 90 70 91 71 92 72 93
REMARK SMILES IDX 51 94 52 95 60 96 53 97 59 98 54 99 55 100 56 101 57 102
REMARK SMILES IDX 58 103
REMARK H PARENT 79 59 49 70
REMARK Flexibility Score: inf
ROOT
ATOM      1  C   UNL A   1      37.975  32.807  32.816  1.00  0.00     0.275 C 
ENDROOT
BRANCH   1   2
ATOM      2  O   UNL A   1      37.992  33.244  31.432  1.00  0.00    -0.458 OA
BRANCH   2   3
ATOM      3  C   UNL A   1      38.393  32.316  30.525  1.00  0.00     0.338 C 
ATOM      4  O   UNL A   1      39.463  31.730  30.548  1.00  0.00    -0.246 OA
BRANCH   3   5
ATOM      5  C   UNL A   1      37.300  31.979  29.562  1.00  0.00     0.060 A 
ATOM      6  C   UNL A   1      35.243  30.916  27.926  1.00  0.00     0.001 A 
ATOM      7  C   UNL A   1      36.477  30.288  27.994  1.00  0.00     0.011 A 
ATOM      8  C   UNL A   1      35.090  32.153  28.570  1.00  0.00     0.011 A 
ATOM      9  C   UNL A   1      37.479  30.845  28.783  1.00  0.00     0.016 A 
ATOM     10  C   UNL A   1      36.109  32.676  29.403  1.00  0.00     0.016 A 
BRANCH   6  11
ATOM     11  C   UNL A   1      34.170  30.242  27.213  1.00  0.00     0.081 A 
ATOM     12  C   UNL A   1      32.826  28.535  26.803  1.00  0.00     0.098 A 
ATOM     13  N   UNL A   1      34.053  28.868  27.171  1.00  0.00    -0.241 NA
ATOM     14  S   UNL A   1      31.886  29.835  26.170  1.00  0.00    -0.126 S 
ATOM     15  C   UNL A   1      33.117  30.934  26.641  1.00  0.00     0.095 A 
BRANCH  12  16
ATOM     16  C   UNL A   1      32.209  27.158  26.984  1.00  0.00     0.105 C 
BRANCH  16  17
ATOM     17  C   UNL A   1      32.247  26.360  25.700  1.00  0.00    -0.012 A 
ATOM     18  C   UNL A   1      30.045  28.018  23.175  1.00  0.00     0.119 A 
ATOM     19  C   UNL A   1      30.753  27.519  22.101  1.00  0.00     0.048 A 
ATOM     20  C   UNL A   1      30.352  27.559  24.437  1.00  0.00     0.057 A 
ATOM     21  C   UNL A   1      31.582  26.402  22.211  1.00  0.00     0.031 A 
ATOM     22  C   UNL A   1      31.413  26.640  24.592  1.00  0.00     0.008 A 
ATOM     23  C   UNL A   1      31.954  25.976  23.487  1.00  0.00     0.057 A 
ATOM     24  N   UNL A   1      32.841  24.995  23.961  1.00  0.00    -0.280 N 
ATOM     25  C   UNL A   1      33.135  25.366  25.299  1.00  0.00     0.028 A 
ATOM     26  C   UNL A   1      34.241  24.809  26.132  1.00  0.00     0.065 C 
BRANCH  18  27
ATOM     27  O   UNL A   1      29.148  29.029  22.967  1.00  0.00    -0.497 OA
ATOM     28  C   UNL A   1      29.559  29.947  21.948  1.00  0.00     0.278 C 
ENDBRANCH  18  27
BRANCH  24  29
ATOM     29  C   UNL A   1      33.377  23.865  23.248  1.00  0.00     0.262 C 
ATOM     30  O   UNL A   1      32.955  23.648  22.110  1.00  0.00    -0.268 OA
BRANCH  29  31
ATOM     31  C   UNL A   1      34.453  22.936  23.678  1.00  0.00     0.040 A 
ATOM     32  C   UNL A   1      34.193  21.724  24.319  1.00  0.00     0.015 A 
ATOM     33  C   UNL A   1      35.773  23.251  23.320  1.00  0.00     0.015 A 
ATOM     34  C   UNL A   1      35.256  20.936  24.780  1.00  0.00     0.021 A 
ATOM     35  C   UNL A   1      36.834  22.443  23.743  1.00  0.00     0.021 A 
ATOM     36  C   UNL A   1      36.572  21.312  24.512  1.00  0.00     0.041 A 
ATOM     37  Cl  UNL A   1      37.875  20.370  25.126  1.00  0.00    -0.084 Cl
ENDBRANCH  29  31
ENDBRANCH  24  29
ENDBRANCH  16  17
ENDBRANCH  12  16
ENDBRANCH   6  11
ENDBRANCH   3   5
ENDBRANCH   2   3
ENDBRANCH   1   2
BRANCH   1  38
ATOM     38  C   UNL A   1      36.964  31.670  33.015  1.00  0.00     0.275 C 
BRANCH  38  39
ATOM     39  O   UNL A   1      37.681  30.450  33.270  1.00  0.00    -0.458 OA
BRANCH  39  40
ATOM     40  C   UNL A   1      37.443  29.423  32.426  1.00  0.00     0.338 C 
ATOM     41  O   UNL A   1      36.458  29.278  31.708  1.00  0.00    -0.246 OA
BRANCH  40  42
ATOM     42  C   UNL A   1      38.728  28.708  32.251  1.00  0.00     0.060 A 
ATOM     43  C   UNL A   1      39.786  28.829  33.163  1.00  0.00     0.016 A 
ATOM     44  C   UNL A   1      38.954  28.133  31.009  1.00  0.00     0.016 A 
ATOM     45  C   UNL A   1      41.107  28.625  32.732  1.00  0.00     0.010 A 
ATOM     46  C   UNL A   1      40.265  27.889  30.616  1.00  0.00     0.010 A 
ATOM     47  C   UNL A   1      41.366  28.288  31.401  1.00  0.00    -0.014 A 
BRANCH  47  48
ATOM     48  C   UNL A   1      42.756  28.126  30.869  1.00  0.00     0.031 A 
ATOM     49  C   UNL A   1      43.026  29.233  29.918  1.00  0.00     0.074 A 
ATOM     50  C   UNL A   1      43.761  27.244  31.169  1.00  0.00     0.049 A 
ATOM     51  N   UNL A   1      42.803  29.188  28.647  1.00  0.00    -0.248 NA
ATOM     52  C   UNL A   1      43.282  30.588  30.434  1.00  0.00     0.031 C 
ATOM     53  C   UNL A   1      43.830  26.193  32.193  1.00  0.00     0.029 A 
ATOM     54  N   UNL A   1      45.031  27.143  30.628  1.00  0.00    -0.354 N 
ATOM     55  C   UNL A   1      43.113  30.453  28.175  1.00  0.00     0.074 A 
ATOM     56  C   UNL A   1      43.108  31.313  29.327  1.00  0.00     0.031 C 
ATOM     57  C   UNL A   1      45.106  25.752  32.362  1.00  0.00     0.029 A 
ATOM     58  C   UNL A   1      45.943  26.294  31.308  1.00  0.00     0.049 A 
ATOM     59  H   UNL A   1      45.287  27.634  29.814  1.00  0.00     0.167 HD
ATOM     60  C   UNL A   1      43.649  30.630  26.938  1.00  0.00     0.031 A 
ATOM     61  C   UNL A   1      47.262  26.040  30.999  1.00  0.00     0.031 A 
ATOM     62  C   UNL A   1      43.628  29.397  26.189  1.00  0.00     0.049 A 
ATOM     63  C   UNL A   1      47.362  26.356  29.564  1.00  0.00     0.074 A 
ATOM     64  C   UNL A   1      42.662  28.586  25.637  1.00  0.00     0.029 A 
ATOM     65  N   UNL A   1      44.765  28.634  26.316  1.00  0.00    -0.354 N 
ATOM     66  N   UNL A   1      46.807  25.622  28.647  1.00  0.00    -0.248 NA
ATOM     67  C   UNL A   1      47.763  27.692  29.156  1.00  0.00     0.031 C 
ATOM     68  C   UNL A   1      43.157  27.256  25.775  1.00  0.00     0.029 A 
ATOM     69  C   UNL A   1      44.433  27.307  26.341  1.00  0.00     0.049 A 
ATOM     70  H   UNL A   1      45.681  28.990  26.380  1.00  0.00     0.167 HD
ATOM     71  C   UNL A   1      46.374  26.532  27.705  1.00  0.00     0.074 A 
ATOM     72  C   UNL A   1      47.135  27.752  27.978  1.00  0.00     0.031 C 
ATOM     73  C   UNL A   1      45.234  26.294  26.997  1.00  0.00     0.031 A 
BRANCH  60  74
ATOM     74  C   UNL A   1      44.587  31.759  26.574  1.00  0.00    -0.014 A 
ATOM     75  C   UNL A   1      44.184  32.959  25.955  1.00  0.00     0.010 A 
ATOM     76  C   UNL A   1      45.906  31.718  27.074  1.00  0.00     0.010 A 
ATOM     77  C   UNL A   1      45.041  34.051  25.820  1.00  0.00     0.020 A 
ATOM     78  C   UNL A   1      46.762  32.824  26.981  1.00  0.00     0.020 A 
ATOM     79  C   UNL A   1      46.323  33.981  26.344  1.00  0.00     0.054 A 
BRANCH  79  80
ATOM     80  S   UNL A   1      47.368  35.449  26.220  1.00  0.00     0.124 S 
ATOM     81  O   UNL A   1      46.380  36.499  25.987  1.00  0.00    -0.237 OA
ATOM     82  O   UNL A   1      48.019  35.475  27.527  1.00  0.00    -0.237 OA
ATOM     83  O   UNL A   1      48.244  35.151  25.091  1.00  0.00    -0.744 OA
ENDBRANCH  79  80
ENDBRANCH  60  74
BRANCH  61  84
ATOM     84  C   UNL A   1      48.527  25.671  31.755  1.00  0.00    -0.014 A 
ATOM     85  C   UNL A   1      49.693  25.304  31.081  1.00  0.00     0.010 A 
ATOM     86  C   UNL A   1      48.484  25.302  33.125  1.00  0.00     0.010 A 
ATOM     87  C   UNL A   1      50.604  24.365  31.616  1.00  0.00     0.020 A 
ATOM     88  C   UNL A   1      49.412  24.395  33.693  1.00  0.00     0.020 A 
ATOM     89  C   UNL A   1      50.410  23.850  32.892  1.00  0.00     0.054 A 
BRANCH  89  90
ATOM     90  S   UNL A   1      51.386  22.409  33.440  1.00  0.00     0.124 S 
ATOM     91  O   UNL A   1      51.733  21.773  32.172  1.00  0.00    -0.237 OA
ATOM     92  O   UNL A   1      52.509  23.010  34.154  1.00  0.00    -0.237 OA
ATOM     93  O   UNL A   1      50.453  21.661  34.278  1.00  0.00    -0.744 OA
ENDBRANCH  89  90
ENDBRANCH  61  84
BRANCH  73  94
ATOM     94  C   UNL A   1      44.639  24.900  27.052  1.00  0.00    -0.014 A 
ATOM     95  C   UNL A   1      44.820  24.091  25.920  1.00  0.00     0.010 A 
ATOM     96  C   UNL A   1      43.776  24.445  28.072  1.00  0.00     0.010 A 
ATOM     97  C   UNL A   1      44.118  22.895  25.772  1.00  0.00     0.020 A 
ATOM     98  C   UNL A   1      43.083  23.228  27.939  1.00  0.00     0.020 A 
ATOM     99  C   UNL A   1      43.237  22.478  26.771  1.00  0.00     0.054 A 
BRANCH  99 100
ATOM    100  S   UNL A   1      42.281  20.963  26.480  1.00  0.00     0.124 S 
ATOM    101  O   UNL A   1      43.049  20.312  25.420  1.00  0.00    -0.237 OA
ATOM    102  O   UNL A   1      42.329  20.296  27.780  1.00  0.00    -0.237 OA
ATOM    103  O   UNL A   1      40.960  21.444  26.081  1.00  0.00    -0.744 OA
ENDBRANCH  99 100
ENDBRANCH  73  94
ENDBRANCH  47  48
ENDBRANCH  40  42
ENDBRANCH  39  40
ENDBRANCH  38  39
ENDBRANCH   1  38
TORSDOF 20
ENDMDL
MODEL 2
REMARK VINA RESULT:     -12.0      1.886      7.008
REMARK SMILES COc1ccc2c(c1)c(Cc1nc(-c3ccc(C(=O)OCCOC(=O)c4ccc(-c5c6nc(c(-c7ccc(S(=O)(=O)[O-])cc7)c7ccc([nH]7)c(-c7ccc(S(=O)(=O)[O-])cc7)c7nc(c(-c8ccc(S(=O)(=O)[O-])cc8)c8ccc5[nH]8)C=C7)C=C6)cc4)cc3)cs1)c(C)n2C(=O)c1ccc(Cl)cc1
REMARK SMILES IDX 21 1 20 2 18 3 19 4 17 5 14 6 15 7 87 8 16 9 86 10 13 11
REMARK SMILES IDX 11 12 12 13 89 14 88 15 10 16 9 17 3 18 4 19 8 20 5 21 7 22
REMARK SMILES IDX 6 23 92 24 90 25 91 26 2 27 1 28 93 29 94 30 95 31 96 32
REMARK SMILES IDX 101 33 97 34 100 35 98 36 99 37 22 38 23 39 24 40 25 41
REMARK SMILES IDX 26 42 27 43 85 44 28 45 84 46 29 47 30 48 31 49 78 50 32 51
REMARK SMILES IDX 83 52 77 53 79 54 33 55 82 56 76 57 75 58 34 60 64 61 45 62
REMARK SMILES IDX 63 63 46 64 49 65 62 66 80 67 47 68 48 69 61 71 81 72 50 73
REMARK SMILES IDX 35 74 36 75 44 76 37 77 43 78 38 79 39 80 40 81 41 82 42 83
REMARK SMILES IDX 65 84 66 85 74 86 67 87 73 88 68 89 69 90 70 91 71 92 72 93
REMARK SMILES IDX 51 94 52 95 60 96 53 97 59 98 54 99 55 100 56 101 57 102
REMARK SMILES IDX 58 103
REMARK H PARENT 79 59 49 70
REMARK Flexibility Score: inf
ROOT
ATOM      1  C   UNL A   1      37.814  32.962  32.247  1.00  0.00     0.275 C 
ENDROOT
BRANCH   1   2
ATOM      2  O   UNL A   1      38.519  33.015  30.980  1.00  0.00    -0.458 OA
BRANCH   2   3
ATOM      3  C   UNL A   1      38.785  31.816  30.403  1.00  0.00     0.338 C 
ATOM      4  O   UNL A   1      39.700  31.073  30.719  1.00  0.00    -0.246 OA
BRANCH   3   5
ATOM      5  C   UNL A   1      37.727  31.432  29.419  1.00  0.00     0.060 A 
ATOM      6  C   UNL A   1      35.553  30.437  27.894  1.00  0.00     0.001 A 
ATOM      7  C   UNL A   1      36.433  29.561  28.512  1.00  0.00     0.011 A 
ATOM      8  C   UNL A   1      35.847  31.808  27.928  1.00  0.00     0.011 A 
ATOM      9  C   UNL A   1      37.508  30.074  29.231  1.00  0.00     0.016 A 
ATOM     10  C   UNL A   1      36.921  32.309  28.704  1.00  0.00     0.016 A 
BRANCH   6  11
ATOM     11  C   UNL A   1      34.361  29.884  27.272  1.00  0.00     0.081 A 
ATOM     12  C   UNL A   1      32.884  28.286  26.886  1.00  0.00     0.098 A 
ATOM     13  N   UNL A   1      34.164  28.528  27.115  1.00  0.00    -0.241 NA
ATOM     14  S   UNL A   1      31.942  29.681  26.511  1.00  0.00    -0.126 S 
ATOM     15  C   UNL A   1      33.283  30.674  26.915  1.00  0.00     0.095 A 
BRANCH  12  16
ATOM     16  C   UNL A   1      32.221  26.924  27.016  1.00  0.00     0.105 C 
BRANCH  16  17
ATOM     17  C   UNL A   1      32.357  26.116  25.745  1.00  0.00    -0.012 A 
ATOM     18  C   UNL A   1      30.273  27.695  23.074  1.00  0.00     0.119 A 
ATOM     19  C   UNL A   1      31.058  27.205  22.049  1.00  0.00     0.048 A 
ATOM     20  C   UNL A   1      30.513  27.255  24.357  1.00  0.00     0.057 A 
ATOM     21  C   UNL A   1      31.907  26.111  22.221  1.00  0.00     0.031 A 
ATOM     22  C   UNL A   1      31.587  26.366  24.586  1.00  0.00     0.008 A 
ATOM     23  C   UNL A   1      32.211  25.706  23.522  1.00  0.00     0.057 A 
ATOM     24  N   UNL A   1      33.092  24.752  24.059  1.00  0.00    -0.280 N 
ATOM     25  C   UNL A   1      33.294  25.143  25.409  1.00  0.00     0.028 A 
ATOM     26  C   UNL A   1      34.361  24.622  26.314  1.00  0.00     0.065 C 
BRANCH  18  27
ATOM     27  O   UNL A   1      29.365  28.680  22.801  1.00  0.00    -0.497 OA
ATOM     28  C   UNL A   1      29.904  29.738  22.002  1.00  0.00     0.278 C 
ENDBRANCH  18  27
BRANCH  24  29
ATOM     29  C   UNL A   1      33.699  23.631  23.393  1.00  0.00     0.262 C 
ATOM     30  O   UNL A   1      34.439  23.862  22.433  1.00  0.00    -0.268 OA
BRANCH  29  31
ATOM     31  C   UNL A   1      33.615  22.193  23.754  1.00  0.00     0.040 A 
ATOM     32  C   UNL A   1      34.575  21.554  24.540  1.00  0.00     0.015 A 
ATOM     33  C   UNL A   1      32.462  21.488  23.376  1.00  0.00     0.015 A 
ATOM     34  C   UNL A   1      34.485  20.174  24.768  1.00  0.00     0.021 A 
ATOM     35  C   UNL A   1      32.350  20.119  23.640  1.00  0.00     0.021 A 
ATOM     36  C   UNL A   1      33.385  19.459  24.295  1.00  0.00     0.041 A 
ATOM     37  Cl  UNL A   1      33.305  17.756  24.531  1.00  0.00    -0.084 Cl
ENDBRANCH  29  31
ENDBRANCH  24  29
ENDBRANCH  16  17
ENDBRANCH  12  16
ENDBRANCH   6  11
ENDBRANCH   3   5
ENDBRANCH   2   3
ENDBRANCH   1   2
BRANCH   1  38
ATOM     38  C   UNL A   1      38.463  33.904  33.272  1.00  0.00     0.275 C 
BRANCH  38  39
ATOM     39  O   UNL A   1      39.597  33.242  33.856  1.00  0.00    -0.458 OA
BRANCH  39  40
ATOM     40  C   UNL A   1      39.332  32.260  34.746  1.00  0.00     0.338 C 
ATOM     41  O   UNL A   1      38.325  32.155  35.440  1.00  0.00    -0.246 OA
BRANCH  40  42
ATOM     42  C   UNL A   1      40.284  31.162  34.466  1.00  0.00     0.060 A 
ATOM     43  C   UNL A   1      41.644  31.390  34.216  1.00  0.00     0.016 A 
ATOM     44  C   UNL A   1      39.733  29.921  34.182  1.00  0.00     0.016 A 
ATOM     45  C   UNL A   1      42.376  30.476  33.441  1.00  0.00     0.010 A 
ATOM     46  C   UNL A   1      40.488  29.004  33.459  1.00  0.00     0.010 A 
ATOM     47  C   UNL A   1      41.754  29.333  32.932  1.00  0.00    -0.014 A 
BRANCH  47  48
ATOM     48  C   UNL A   1      42.465  28.359  32.044  1.00  0.00     0.031 A 
ATOM     49  C   UNL A   1      43.672  27.871  32.757  1.00  0.00     0.074 A 
ATOM     50  C   UNL A   1      42.149  27.825  30.822  1.00  0.00     0.049 A 
ATOM     51  N   UNL A   1      44.843  28.411  32.682  1.00  0.00    -0.248 NA
ATOM     52  C   UNL A   1      43.526  26.904  33.857  1.00  0.00     0.031 C 
ATOM     53  C   UNL A   1      40.943  27.979  30.000  1.00  0.00     0.029 A 
ATOM     54  N   UNL A   1      42.862  26.928  30.046  1.00  0.00    -0.354 N 
ATOM     55  C   UNL A   1      45.634  27.694  33.565  1.00  0.00     0.074 A 
ATOM     56  C   UNL A   1      44.721  27.010  34.441  1.00  0.00     0.031 C 
ATOM     57  C   UNL A   1      40.898  27.048  29.009  1.00  0.00     0.029 A 
ATOM     58  C   UNL A   1      42.174  26.360  28.942  1.00  0.00     0.049 A 
ATOM     59  H   UNL A   1      43.797  26.697  30.249  1.00  0.00     0.167 HD
ATOM     60  C   UNL A   1      46.952  27.475  33.312  1.00  0.00     0.031 A 
ATOM     61  C   UNL A   1      42.639  25.432  28.036  1.00  0.00     0.031 A 
ATOM     62  C   UNL A   1      47.389  28.246  32.173  1.00  0.00     0.049 A 
ATOM     63  C   UNL A   1      44.103  25.573  28.094  1.00  0.00     0.074 A 
ATOM     64  C   UNL A   1      47.571  29.581  31.888  1.00  0.00     0.029 A 
ATOM     65  N   UNL A   1      47.289  27.591  30.969  1.00  0.00    -0.354 N 
ATOM     66  N   UNL A   1      44.723  26.617  27.630  1.00  0.00    -0.248 NA
ATOM     67  C   UNL A   1      44.865  24.730  29.000  1.00  0.00     0.031 C 
ATOM     68  C   UNL A   1      47.223  29.728  30.513  1.00  0.00     0.029 A 
ATOM     69  C   UNL A   1      46.910  28.471  29.992  1.00  0.00     0.049 A 
ATOM     70  H   UNL A   1      47.464  26.632  30.830  1.00  0.00     0.167 HD
ATOM     71  C   UNL A   1      45.757  26.815  28.521  1.00  0.00     0.074 A 
ATOM     72  C   UNL A   1      45.901  25.542  29.228  1.00  0.00     0.031 C 
ATOM     73  C   UNL A   1      46.188  28.079  28.798  1.00  0.00     0.031 A 
BRANCH  60  74
ATOM     74  C   UNL A   1      47.715  26.257  33.780  1.00  0.00    -0.014 A 
ATOM     75  C   UNL A   1      48.933  26.305  34.485  1.00  0.00     0.010 A 
ATOM     76  C   UNL A   1      47.076  25.001  33.706  1.00  0.00     0.010 A 
ATOM     77  C   UNL A   1      49.499  25.173  35.071  1.00  0.00     0.020 A 
ATOM     78  C   UNL A   1      47.615  23.865  34.326  1.00  0.00     0.020 A 
ATOM     79  C   UNL A   1      48.830  23.959  34.997  1.00  0.00     0.054 A 
BRANCH  79  80
ATOM     80  S   UNL A   1      49.560  22.540  35.842  1.00  0.00     0.124 S 
ATOM     81  O   UNL A   1      50.501  23.187  36.752  1.00  0.00    -0.237 OA
ATOM     82  O   UNL A   1      48.395  21.924  36.472  1.00  0.00    -0.237 OA
ATOM     83  O   UNL A   1      50.164  21.770  34.758  1.00  0.00    -0.744 OA
ENDBRANCH  79  80
ENDBRANCH  60  74
BRANCH  61  84
ATOM     84  C   UNL A   1      42.046  24.325  27.179  1.00  0.00    -0.014 A 
ATOM     85  C   UNL A   1      40.977  23.551  27.634  1.00  0.00     0.010 A 
ATOM     86  C   UNL A   1      42.769  23.770  26.091  1.00  0.00     0.010 A 
ATOM     87  C   UNL A   1      40.825  22.194  27.269  1.00  0.00     0.020 A 
ATOM     88  C   UNL A   1      42.603  22.424  25.681  1.00  0.00     0.020 A 
ATOM     89  C   UNL A   1      41.696  21.614  26.355  1.00  0.00     0.054 A 
BRANCH  89  90
ATOM     90  S   UNL A   1      41.704  19.801  26.144  1.00  0.00     0.124 S 
ATOM     91  O   UNL A   1      40.305  19.522  25.832  1.00  0.00    -0.237 OA
ATOM     92  O   UNL A   1      42.635  19.591  25.038  1.00  0.00    -0.237 OA
ATOM     93  O   UNL A   1      42.165  19.307  27.439  1.00  0.00    -0.744 OA
ENDBRANCH  89  90
ENDBRANCH  61  84
BRANCH  73  94
ATOM     94  C   UNL A   1      45.721  29.205  27.897  1.00  0.00    -0.014 A 
ATOM     95  C   UNL A   1      46.696  29.821  27.096  1.00  0.00     0.010 A 
ATOM     96  C   UNL A   1      44.433  29.781  27.950  1.00  0.00     0.010 A 
ATOM     97  C   UNL A   1      46.423  31.009  26.418  1.00  0.00     0.020 A 
ATOM     98  C   UNL A   1      44.145  30.967  27.249  1.00  0.00     0.020 A 
ATOM     99  C   UNL A   1      45.157  31.588  26.513  1.00  0.00     0.054 A 
BRANCH  99 100
ATOM    100  S   UNL A   1      44.891  33.182  25.687  1.00  0.00     0.124 S 
ATOM    101  O   UNL A   1      46.258  33.652  25.473  1.00  0.00    -0.237 OA
ATOM    102  O   UNL A   1      44.169  32.800  24.474  1.00  0.00    -0.237 OA
ATOM    103  O   UNL A   1      44.112  33.959  26.649  1.00  0.00    -0.744 OA
ENDBRANCH  99 100
ENDBRANCH  73  94
ENDBRANCH  47  48
ENDBRANCH  40  42
ENDBRANCH  39  40
ENDBRANCH  38  39
ENDBRANCH   1  38
TORSDOF 20
ENDMDL
MODEL 3
REMARK VINA RESULT:     -11.7      2.296      7.085
REMARK SMILES COc1ccc2c(c1)c(Cc1nc(-c3ccc(C(=O)OCCOC(=O)c4ccc(-c5c6nc(c(-c7ccc(S(=O)(=O)[O-])cc7)c7ccc([nH]7)c(-c7ccc(S(=O)(=O)[O-])cc7)c7nc(c(-c8ccc(S(=O)(=O)[O-])cc8)c8ccc5[nH]8)C=C7)C=C6)cc4)cc3)cs1)c(C)n2C(=O)c1ccc(Cl)cc1
REMARK SMILES IDX 21 1 20 2 18 3 19 4 17 5 14 6 15 7 87 8 16 9 86 10 13 11
REMARK SMILES IDX 11 12 12 13 89 14 88 15 10 16 9 17 3 18 4 19 8 20 5 21 7 22
REMARK SMILES IDX 6 23 92 24 90 25 91 26 2 27 1 28 93 29 94 30 95 31 96 32
REMARK SMILES IDX 101 33 97 34 100 35 98 36 99 37 22 38 23 39 24 40 25 41
REMARK SMILES IDX 26 42 27 43 85 44 28 45 84 46 29 47 30 48 31 49 78 50 32 51
REMARK SMILES IDX 83 52 77 53 79 54 33 55 82 56 76 57 75 58 34 60 64 61 45 62
REMARK SMILES IDX 63 63 46 64 49 65 62 66 80 67 47 68 48 69 61 71 81 72 50 73
REMARK SMILES IDX 35 74 36 75 44 76 37 77 43 78 38 79 39 80 40 81 41 82 42 83
REMARK SMILES IDX 65 84 66 85 74 86 67 87 73 88 68 89 69 90 70 91 71 92 72 93
REMARK SMILES IDX 51 94 52 95 60 96 53 97 59 98 54 99 55 100 56 101 57 102
REMARK SMILES IDX 58 103
REMARK H PARENT 79 59 49 70
REMARK Flexibility Score: inf
ROOT
ATOM      1  C   UNL A   1      36.455  32.688  29.039  1.00  0.00     0.275 C 
ENDROOT
BRANCH   1   2
ATOM      2  O   UNL A   1      35.483  32.618  27.963  1.00  0.00    -0.458 OA
BRANCH   2   3
ATOM      3  C   UNL A   1      34.181  32.575  28.347  1.00  0.00     0.338 C 
ATOM      4  O   UNL A   1      33.663  33.328  29.156  1.00  0.00    -0.246 OA
BRANCH   3   5
ATOM      5  C   UNL A   1      33.404  31.580  27.547  1.00  0.00     0.060 A 
ATOM      6  C   UNL A   1      31.905  30.027  25.707  1.00  0.00     0.001 A 
ATOM      7  C   UNL A   1      31.446  31.273  26.109  1.00  0.00     0.011 A 
ATOM      8  C   UNL A   1      33.046  29.506  26.336  1.00  0.00     0.011 A 
ATOM      9  C   UNL A   1      32.185  32.003  27.033  1.00  0.00     0.016 A 
ATOM     10  C   UNL A   1      33.806  30.287  27.240  1.00  0.00     0.016 A 
BRANCH   6  11
ATOM     11  C   UNL A   1      31.194  29.348  24.636  1.00  0.00     0.081 A 
ATOM     12  C   UNL A   1      30.363  27.568  23.623  1.00  0.00     0.098 A 
ATOM     13  N   UNL A   1      31.372  28.009  24.357  1.00  0.00    -0.241 NA
ATOM     14  S   UNL A   1      29.358  28.803  22.961  1.00  0.00    -0.126 S 
ATOM     15  C   UNL A   1      30.192  29.966  23.910  1.00  0.00     0.095 A 
BRANCH  12  16
ATOM     16  C   UNL A   1      30.013  26.103  23.420  1.00  0.00     0.105 C 
BRANCH  16  17
ATOM     17  C   UNL A   1      31.183  25.202  23.747  1.00  0.00    -0.012 A 
ATOM     18  C   UNL A   1      30.355  23.196  26.791  1.00  0.00     0.119 A 
ATOM     19  C   UNL A   1      31.196  22.158  26.443  1.00  0.00     0.048 A 
ATOM     20  C   UNL A   1      30.393  24.353  26.045  1.00  0.00     0.057 A 
ATOM     21  C   UNL A   1      32.245  22.323  25.537  1.00  0.00     0.031 A 
ATOM     22  C   UNL A   1      31.247  24.417  24.922  1.00  0.00     0.008 A 
ATOM     23  C   UNL A   1      32.249  23.461  24.728  1.00  0.00     0.057 A 
ATOM     24  N   UNL A   1      33.054  23.885  23.657  1.00  0.00    -0.280 N 
ATOM     25  C   UNL A   1      32.281  24.855  22.966  1.00  0.00     0.028 A 
ATOM     26  C   UNL A   1      32.576  25.390  21.604  1.00  0.00     0.065 C 
BRANCH  18  27
ATOM     27  O   UNL A   1      29.436  23.001  27.784  1.00  0.00    -0.497 OA
ATOM     28  C   UNL A   1      28.420  22.055  27.435  1.00  0.00     0.278 C 
ENDBRANCH  18  27
BRANCH  24  29
ATOM     29  C   UNL A   1      34.370  23.425  23.299  1.00  0.00     0.262 C 
ATOM     30  O   UNL A   1      34.596  23.198  22.108  1.00  0.00    -0.268 OA
BRANCH  29  31
ATOM     31  C   UNL A   1      35.551  23.248  24.180  1.00  0.00     0.040 A 
ATOM     32  C   UNL A   1      35.822  24.092  25.259  1.00  0.00     0.015 A 
ATOM     33  C   UNL A   1      36.359  22.119  23.977  1.00  0.00     0.015 A 
ATOM     34  C   UNL A   1      37.003  23.927  25.996  1.00  0.00     0.021 A 
ATOM     35  C   UNL A   1      37.516  21.928  24.740  1.00  0.00     0.021 A 
ATOM     36  C   UNL A   1      37.857  22.860  25.716  1.00  0.00     0.041 A 
ATOM     37  Cl  UNL A   1      39.331  22.692  26.587  1.00  0.00    -0.084 Cl
ENDBRANCH  29  31
ENDBRANCH  24  29
ENDBRANCH  16  17
ENDBRANCH  12  16
ENDBRANCH   6  11
ENDBRANCH   3   5
ENDBRANCH   2   3
ENDBRANCH   1   2
BRANCH   1  38
ATOM     38  C   UNL A   1      36.286  31.506  30.003  1.00  0.00     0.275 C 
BRANCH  38  39
ATOM     39  O   UNL A   1      37.322  31.567  30.998  1.00  0.00    -0.458 OA
BRANCH  39  40
ATOM     40  C   UNL A   1      37.244  30.672  32.007  1.00  0.00     0.338 C 
ATOM     41  O   UNL A   1      36.222  30.299  32.577  1.00  0.00    -0.246 OA
BRANCH  40  42
ATOM     42  C   UNL A   1      38.542  29.962  32.049  1.00  0.00     0.060 A 
ATOM     43  C   UNL A   1      39.766  30.637  32.155  1.00  0.00     0.016 A 
ATOM     44  C   UNL A   1      38.527  28.620  31.698  1.00  0.00     0.016 A 
ATOM     45  C   UNL A   1      40.936  30.046  31.652  1.00  0.00     0.010 A 
ATOM     46  C   UNL A   1      39.705  28.033  31.250  1.00  0.00     0.010 A 
ATOM     47  C   UNL A   1      40.885  28.782  31.060  1.00  0.00    -0.014 A 
BRANCH  47  48
ATOM     48  C   UNL A   1      42.086  28.132  30.446  1.00  0.00     0.031 A 
ATOM     49  C   UNL A   1      43.079  27.876  31.519  1.00  0.00     0.074 A 
ATOM     50  C   UNL A   1      42.347  27.690  29.175  1.00  0.00     0.049 A 
ATOM     51  N   UNL A   1      44.014  28.695  31.872  1.00  0.00    -0.248 NA
ATOM     52  C   UNL A   1      42.855  26.775  32.470  1.00  0.00     0.031 C 
ATOM     53  C   UNL A   1      41.482  27.639  27.989  1.00  0.00     0.029 A 
ATOM     54  N   UNL A   1      43.493  27.102  28.668  1.00  0.00    -0.354 N 
ATOM     55  C   UNL A   1      44.638  28.094  32.953  1.00  0.00     0.074 A 
ATOM     56  C   UNL A   1      43.716  27.103  33.436  1.00  0.00     0.031 C 
ATOM     57  C   UNL A   1      42.023  26.856  27.018  1.00  0.00     0.029 A 
ATOM     58  C   UNL A   1      43.388  26.521  27.378  1.00  0.00     0.049 A 
ATOM     59  H   UNL A   1      44.335  27.087  29.177  1.00  0.00     0.167 HD
ATOM     60  C   UNL A   1      45.973  28.244  33.167  1.00  0.00     0.031 A 
ATOM     61  C   UNL A   1      44.360  25.855  26.663  1.00  0.00     0.031 A 
ATOM     62  C   UNL A   1      46.527  29.233  32.275  1.00  0.00     0.049 A 
ATOM     63  C   UNL A   1      45.626  26.349  27.230  1.00  0.00     0.074 A 
ATOM     64  C   UNL A   1      46.415  30.596  32.111  1.00  0.00     0.029 A 
ATOM     65  N   UNL A   1      47.010  28.727  31.092  1.00  0.00    -0.354 N 
ATOM     66  N   UNL A   1      46.050  27.562  27.042  1.00  0.00    -0.248 NA
ATOM     67  C   UNL A   1      46.251  25.616  28.319  1.00  0.00     0.031 C 
ATOM     68  C   UNL A   1      46.510  30.819  30.706  1.00  0.00     0.029 A 
ATOM     69  C   UNL A   1      46.744  29.598  30.071  1.00  0.00     0.049 A 
ATOM     70  H   UNL A   1      47.479  27.866  30.995  1.00  0.00     0.167 HD
ATOM     71  C   UNL A   1      46.639  27.901  28.242  1.00  0.00     0.074 A 
ATOM     72  C   UNL A   1      46.889  26.626  28.917  1.00  0.00     0.031 C 
ATOM     73  C   UNL A   1      46.590  29.189  28.690  1.00  0.00     0.031 A 
BRANCH  60  74
ATOM     74  C   UNL A   1      46.846  27.205  33.834  1.00  0.00    -0.014 A 
ATOM     75  C   UNL A   1      47.113  25.930  33.299  1.00  0.00     0.010 A 
ATOM     76  C   UNL A   1      47.620  27.598  34.947  1.00  0.00     0.010 A 
ATOM     77  C   UNL A   1      48.078  25.081  33.842  1.00  0.00     0.020 A 
ATOM     78  C   UNL A   1      48.620  26.771  35.475  1.00  0.00     0.020 A 
ATOM     79  C   UNL A   1      48.834  25.512  34.922  1.00  0.00     0.054 A 
BRANCH  79  80
ATOM     80  S   UNL A   1      50.129  24.414  35.538  1.00  0.00     0.124 S 
ATOM     81  O   UNL A   1      50.297  24.890  36.908  1.00  0.00    -0.237 OA
ATOM     82  O   UNL A   1      49.509  23.099  35.398  1.00  0.00    -0.237 OA
ATOM     83  O   UNL A   1      51.252  24.673  34.642  1.00  0.00    -0.744 OA
ENDBRANCH  79  80
ENDBRANCH  60  74
BRANCH  61  84
ATOM     84  C   UNL A   1      44.409  24.750  25.621  1.00  0.00    -0.014 A 
ATOM     85  C   UNL A   1      43.330  23.885  25.431  1.00  0.00     0.010 A 
ATOM     86  C   UNL A   1      45.644  24.295  25.088  1.00  0.00     0.010 A 
ATOM     87  C   UNL A   1      43.509  22.538  25.040  1.00  0.00     0.020 A 
ATOM     88  C   UNL A   1      45.834  22.961  24.652  1.00  0.00     0.020 A 
ATOM     89  C   UNL A   1      44.778  22.061  24.735  1.00  0.00     0.054 A 
BRANCH  89  90
ATOM     90  S   UNL A   1      45.045  20.264  24.559  1.00  0.00     0.124 S 
ATOM     91  O   UNL A   1      44.626  20.024  23.181  1.00  0.00    -0.237 OA
ATOM     92  O   UNL A   1      46.477  20.107  24.803  1.00  0.00    -0.237 OA
ATOM     93  O   UNL A   1      44.180  19.686  25.584  1.00  0.00    -0.744 OA
ENDBRANCH  89  90
ENDBRANCH  61  84
BRANCH  73  94
ATOM     94  C   UNL A   1      46.150  30.264  27.716  1.00  0.00    -0.014 A 
ATOM     95  C   UNL A   1      47.156  31.091  27.192  1.00  0.00     0.010 A 
ATOM     96  C   UNL A   1      44.804  30.597  27.455  1.00  0.00     0.010 A 
ATOM     97  C   UNL A   1      46.837  32.250  26.484  1.00  0.00     0.020 A 
ATOM     98  C   UNL A   1      44.476  31.752  26.722  1.00  0.00     0.020 A 
ATOM     99  C   UNL A   1      45.500  32.587  26.269  1.00  0.00     0.054 A 
BRANCH  99 100
ATOM    100  S   UNL A   1      45.146  34.154  25.424  1.00  0.00     0.124 S 
ATOM    101  O   UNL A   1      46.487  34.665  25.147  1.00  0.00    -0.237 OA
ATOM    102  O   UNL A   1      44.391  33.724  24.249  1.00  0.00    -0.237 OA
ATOM    103  O   UNL A   1      44.380  34.924  26.402  1.00  0.00    -0.744 OA
ENDBRANCH  99 100
ENDBRANCH  73  94
ENDBRANCH  47  48
ENDBRANCH  40  42
ENDBRANCH  39  40
ENDBRANCH  38  39
ENDBRANCH   1  38
TORSDOF 20
ENDMDL
