MODEL 1
REMARK VINA RESULT:     -10.4      0.000      0.000
REMARK SMILES COc1cc([C@H]2CC(c3ccc(S(C)(=O)=O)cc3)=NN2c2ccc(C(=O)OCCOC(=O)c3ccc(-c4c5nc(c(-c6ccc(S(=O)(=O)[O-])cc6)c6ccc([nH]6)c(-c6ccc(S(=O)(=O)[O-])cc6)c6nc(c(-c7ccc(S(=O)(=O)[O-])cc7)c7ccc4[nH]7)C=C6)C=C5)cc3)cc2)cc(OC)c1OC
REMARK SMILES IDX 28 1 27 2 25 3 26 4 24 5 21 6 22 7 94 8 23 9 93 10 20 11
REMARK SMILES IDX 6 12 7 13 8 14 19 15 5 16 3 17 4 18 99 19 96 20 95 21 2 22
REMARK SMILES IDX 1 23 100 24 101 25 97 26 98 27 9 28 10 29 18 30 11 31 17 32
REMARK SMILES IDX 12 33 13 34 14 35 15 36 16 37 29 38 30 39 31 40 32 41 33 42
REMARK SMILES IDX 34 43 92 44 35 45 91 46 36 47 37 48 38 49 85 50 39 51 90 52
REMARK SMILES IDX 84 53 86 54 40 55 89 56 83 57 82 58 41 60 71 61 52 62 70 63
REMARK SMILES IDX 53 64 56 65 69 66 87 67 54 68 55 69 68 71 88 72 57 73 42 74
REMARK SMILES IDX 43 75 51 76 44 77 50 78 45 79 46 80 47 81 48 82 49 83 72 84
REMARK SMILES IDX 73 85 81 86 74 87 80 88 75 89 76 90 77 91 78 92 79 93 58 94
REMARK SMILES IDX 59 95 67 96 60 97 66 98 61 99 62 100 63 101 64 102 65 103
REMARK H PARENT 86 59 56 70
REMARK Flexibility Score: inf
ROOT
ATOM      1  C   UNL A   1      36.455  30.849  28.663  1.00  0.00     0.275 C 
ENDROOT
BRANCH   1   2
ATOM      2  O   UNL A   1      35.682  30.483  27.502  1.00  0.00    -0.458 OA
BRANCH   2   3
ATOM      3  C   UNL A   1      34.337  30.538  27.663  1.00  0.00     0.338 C 
ATOM      4  O   UNL A   1      33.706  31.456  28.165  1.00  0.00    -0.246 OA
BRANCH   3   5
ATOM      5  C   UNL A   1      33.678  29.342  27.093  1.00  0.00     0.060 A 
ATOM      6  C   UNL A   1      32.411  26.971  26.258  1.00  0.00     0.060 A 
ATOM      7  C   UNL A   1      31.711  27.935  26.986  1.00  0.00     0.029 A 
ATOM      8  C   UNL A   1      33.748  27.231  25.919  1.00  0.00     0.029 A 
ATOM      9  C   UNL A   1      32.349  29.084  27.435  1.00  0.00     0.018 A 
ATOM     10  C   UNL A   1      34.377  28.421  26.311  1.00  0.00     0.018 A 
BRANCH   6  11
ATOM     11  N   UNL A   1      31.795  25.767  25.938  1.00  0.00    -0.257 N 
ATOM     12  C   UNL A   1      30.483  25.696  25.278  1.00  0.00     0.144 C 
ATOM     13  C   UNL A   1      30.461  24.251  24.741  1.00  0.00     0.091 C 
ATOM     14  C   UNL A   1      31.851  23.802  25.098  1.00  0.00     0.071 C 
ATOM     15  N   UNL A   1      32.569  24.662  25.749  1.00  0.00    -0.176 NA
BRANCH  12  16
ATOM     16  C   UNL A   1      30.271  26.775  24.218  1.00  0.00    -0.015 A 
ATOM     17  C   UNL A   1      28.760  28.247  22.965  1.00  0.00     0.164 A 
ATOM     18  C   UNL A   1      28.975  27.198  23.880  1.00  0.00     0.056 A 
ATOM     19  C   UNL A   1      29.838  28.927  22.369  1.00  0.00     0.203 A 
ATOM     20  C   UNL A   1      31.142  28.494  22.689  1.00  0.00     0.164 A 
ATOM     21  C   UNL A   1      31.339  27.442  23.607  1.00  0.00     0.056 A 
BRANCH  17  22
ATOM     22  O   UNL A   1      27.458  28.649  22.793  1.00  0.00    -0.493 OA
ATOM     23  C   UNL A   1      26.572  27.975  23.686  1.00  0.00     0.278 C 
ENDBRANCH  17  22
BRANCH  19  24
ATOM     24  O   UNL A   1      29.750  30.000  21.529  1.00  0.00    -0.490 OA
ATOM     25  C   UNL A   1      29.168  31.224  21.932  1.00  0.00     0.278 C 
ENDBRANCH  19  24
BRANCH  20  26
ATOM     26  O   UNL A   1      32.343  28.969  22.219  1.00  0.00    -0.493 OA
ATOM     27  C   UNL A   1      33.524  28.201  22.403  1.00  0.00     0.278 C 
ENDBRANCH  20  26
ENDBRANCH  12  16
BRANCH  14  28
ATOM     28  C   UNL A   1      32.329  22.436  24.814  1.00  0.00    -0.002 A 
ATOM     29  C   UNL A   1      33.164  21.821  25.757  1.00  0.00     0.011 A 
ATOM     30  C   UNL A   1      31.950  21.751  23.656  1.00  0.00     0.011 A 
ATOM     31  C   UNL A   1      33.585  20.503  25.571  1.00  0.00     0.021 A 
ATOM     32  C   UNL A   1      32.392  20.437  23.453  1.00  0.00     0.021 A 
ATOM     33  C   UNL A   1      33.196  19.818  24.417  1.00  0.00     0.067 A 
BRANCH  33  34
ATOM     34  S   UNL A   1      33.665  18.110  24.230  1.00  0.00     0.175 S 
ATOM     35  C   UNL A   1      32.798  17.255  25.519  1.00  0.00     0.163 C 
ATOM     36  O   UNL A   1      33.131  17.676  22.951  1.00  0.00    -0.224 OA
ATOM     37  O   UNL A   1      35.086  18.013  24.505  1.00  0.00    -0.224 OA
ENDBRANCH  33  34
ENDBRANCH  14  28
ENDBRANCH   6  11
ENDBRANCH   3   5
ENDBRANCH   2   3
ENDBRANCH   1   2
BRANCH   1  38
ATOM     38  C   UNL A   1      36.615  29.683  29.640  1.00  0.00     0.275 C 
BRANCH  38  39
ATOM     39  O   UNL A   1      37.829  29.807  30.402  1.00  0.00    -0.458 OA
BRANCH  39  40
ATOM     40  C   UNL A   1      37.690  29.607  31.732  1.00  0.00     0.338 C 
ATOM     41  O   UNL A   1      37.164  28.657  32.286  1.00  0.00    -0.246 OA
BRANCH  40  42
ATOM     42  C   UNL A   1      38.318  30.704  32.484  1.00  0.00     0.060 A 
ATOM     43  C   UNL A   1      39.444  30.421  33.246  1.00  0.00     0.016 A 
ATOM     44  C   UNL A   1      37.687  31.937  32.605  1.00  0.00     0.016 A 
ATOM     45  C   UNL A   1      39.848  31.295  34.250  1.00  0.00     0.010 A 
ATOM     46  C   UNL A   1      38.190  32.880  33.513  1.00  0.00     0.010 A 
ATOM     47  C   UNL A   1      39.243  32.552  34.388  1.00  0.00    -0.014 A 
BRANCH  47  48
ATOM     48  C   UNL A   1      39.692  33.504  35.448  1.00  0.00     0.031 A 
ATOM     49  C   UNL A   1      40.724  34.563  35.136  1.00  0.00     0.074 A 
ATOM     50  C   UNL A   1      39.182  33.427  36.696  1.00  0.00     0.049 A 
ATOM     51  N   UNL A   1      41.387  35.340  35.956  1.00  0.00    -0.248 NA
ATOM     52  C   UNL A   1      41.070  34.761  33.719  1.00  0.00     0.031 C 
ATOM     53  C   UNL A   1      38.139  32.497  37.136  1.00  0.00     0.029 A 
ATOM     54  N   UNL A   1      39.470  34.151  37.829  1.00  0.00    -0.354 N 
ATOM     55  C   UNL A   1      42.270  36.068  35.164  1.00  0.00     0.074 A 
ATOM     56  C   UNL A   1      42.064  35.635  33.799  1.00  0.00     0.031 C 
ATOM     57  C   UNL A   1      37.847  32.732  38.423  1.00  0.00     0.029 A 
ATOM     58  C   UNL A   1      38.754  33.751  38.934  1.00  0.00     0.049 A 
ATOM     59  H   UNL A   1      40.127  34.883  37.849  1.00  0.00     0.167 HD
ATOM     60  C   UNL A   1      43.172  37.008  35.540  1.00  0.00     0.031 A 
ATOM     61  C   UNL A   1      38.843  34.115  40.229  1.00  0.00     0.031 A 
ATOM     62  C   UNL A   1      43.340  37.465  36.896  1.00  0.00     0.049 A 
ATOM     63  C   UNL A   1      39.883  35.121  40.631  1.00  0.00     0.074 A 
ATOM     64  C   UNL A   1      44.215  38.423  37.380  1.00  0.00     0.029 A 
ATOM     65  N   UNL A   1      42.611  37.006  37.984  1.00  0.00    -0.354 N 
ATOM     66  N   UNL A   1      40.744  35.759  39.877  1.00  0.00    -0.248 NA
ATOM     67  C   UNL A   1      39.971  35.445  42.061  1.00  0.00     0.031 C 
ATOM     68  C   UNL A   1      44.049  38.508  38.766  1.00  0.00     0.029 A 
ATOM     69  C   UNL A   1      43.028  37.649  39.138  1.00  0.00     0.049 A 
ATOM     70  H   UNL A   1      41.902  36.324  37.942  1.00  0.00     0.167 HD
ATOM     71  C   UNL A   1      41.464  36.579  40.738  1.00  0.00     0.074 A 
ATOM     72  C   UNL A   1      40.926  36.366  42.066  1.00  0.00     0.031 C 
ATOM     73  C   UNL A   1      42.478  37.431  40.453  1.00  0.00     0.031 A 
BRANCH  60  74
ATOM     74  C   UNL A   1      44.081  37.580  34.480  1.00  0.00    -0.014 A 
ATOM     75  C   UNL A   1      45.326  36.998  34.179  1.00  0.00     0.010 A 
ATOM     76  C   UNL A   1      43.657  38.699  33.739  1.00  0.00     0.010 A 
ATOM     77  C   UNL A   1      46.145  37.550  33.189  1.00  0.00     0.020 A 
ATOM     78  C   UNL A   1      44.459  39.236  32.727  1.00  0.00     0.020 A 
ATOM     79  C   UNL A   1      45.707  38.668  32.471  1.00  0.00     0.054 A 
BRANCH  79  80
ATOM     80  S   UNL A   1      46.783  39.351  31.178  1.00  0.00     0.124 S 
ATOM     81  O   UNL A   1      47.426  40.460  31.877  1.00  0.00    -0.237 OA
ATOM     82  O   UNL A   1      47.654  38.223  30.858  1.00  0.00    -0.237 OA
ATOM     83  O   UNL A   1      45.853  39.736  30.120  1.00  0.00    -0.744 OA
ENDBRANCH  79  80
ENDBRANCH  60  74
BRANCH  61  84
ATOM     84  C   UNL A   1      37.957  33.475  41.241  1.00  0.00    -0.014 A 
ATOM     85  C   UNL A   1      36.723  34.054  41.583  1.00  0.00     0.010 A 
ATOM     86  C   UNL A   1      38.334  32.263  41.852  1.00  0.00     0.010 A 
ATOM     87  C   UNL A   1      35.888  33.439  42.521  1.00  0.00     0.020 A 
ATOM     88  C   UNL A   1      37.488  31.628  42.763  1.00  0.00     0.020 A 
ATOM     89  C   UNL A   1      36.274  32.227  43.102  1.00  0.00     0.054 A 
BRANCH  89  90
ATOM     90  S   UNL A   1      35.147  31.417  44.271  1.00  0.00     0.124 S 
ATOM     91  O   UNL A   1      34.905  32.480  45.242  1.00  0.00    -0.237 OA
ATOM     92  O   UNL A   1      34.011  31.064  43.424  1.00  0.00    -0.237 OA
ATOM     93  O   UNL A   1      35.923  30.283  44.765  1.00  0.00    -0.744 OA
ENDBRANCH  89  90
ENDBRANCH  61  84
BRANCH  73  94
ATOM     94  C   UNL A   1      43.044  38.237  41.590  1.00  0.00    -0.014 A 
ATOM     95  C   UNL A   1      42.542  39.512  41.904  1.00  0.00     0.010 A 
ATOM     96  C   UNL A   1      44.061  37.682  42.388  1.00  0.00     0.010 A 
ATOM     97  C   UNL A   1      43.067  40.230  42.983  1.00  0.00     0.020 A 
ATOM     98  C   UNL A   1      44.569  38.384  43.484  1.00  0.00     0.020 A 
ATOM     99  C   UNL A   1      44.076  39.660  43.767  1.00  0.00     0.054 A 
BRANCH  99 100
ATOM    100  S   UNL A   1      44.705  40.588  45.192  1.00  0.00     0.124 S 
ATOM    101  O   UNL A   1      43.590  41.483  45.488  1.00  0.00    -0.237 OA
ATOM    102  O   UNL A   1      44.946  39.537  46.178  1.00  0.00    -0.237 OA
ATOM    103  O   UNL A   1      45.907  41.241  44.679  1.00  0.00    -0.744 OA
ENDBRANCH  99 100
ENDBRANCH  73  94
ENDBRANCH  47  48
ENDBRANCH  40  42
ENDBRANCH  39  40
ENDBRANCH  38  39
ENDBRANCH   1  38
TORSDOF 21
ENDMDL
MODEL 2
REMARK VINA RESULT:     -10.1      7.618     16.242
REMARK SMILES COc1cc([C@H]2CC(c3ccc(S(C)(=O)=O)cc3)=NN2c2ccc(C(=O)OCCOC(=O)c3ccc(-c4c5nc(c(-c6ccc(S(=O)(=O)[O-])cc6)c6ccc([nH]6)c(-c6ccc(S(=O)(=O)[O-])cc6)c6nc(c(-c7ccc(S(=O)(=O)[O-])cc7)c7ccc4[nH]7)C=C6)C=C5)cc3)cc2)cc(OC)c1OC
REMARK SMILES IDX 28 1 27 2 25 3 26 4 24 5 21 6 22 7 94 8 23 9 93 10 20 11
REMARK SMILES IDX 6 12 7 13 8 14 19 15 5 16 3 17 4 18 99 19 96 20 95 21 2 22
REMARK SMILES IDX 1 23 100 24 101 25 97 26 98 27 9 28 10 29 18 30 11 31 17 32
REMARK SMILES IDX 12 33 13 34 14 35 15 36 16 37 29 38 30 39 31 40 32 41 33 42
REMARK SMILES IDX 34 43 92 44 35 45 91 46 36 47 37 48 38 49 85 50 39 51 90 52
REMARK SMILES IDX 84 53 86 54 40 55 89 56 83 57 82 58 41 60 71 61 52 62 70 63
REMARK SMILES IDX 53 64 56 65 69 66 87 67 54 68 55 69 68 71 88 72 57 73 42 74
REMARK SMILES IDX 43 75 51 76 44 77 50 78 45 79 46 80 47 81 48 82 49 83 72 84
REMARK SMILES IDX 73 85 81 86 74 87 80 88 75 89 76 90 77 91 78 92 79 93 58 94
REMARK SMILES IDX 59 95 67 96 60 97 66 98 61 99 62 100 63 101 64 102 65 103
REMARK H PARENT 86 59 56 70
REMARK Flexibility Score: inf
ROOT
ATOM      1  C   UNL A   1      34.728  33.668  31.006  1.00  0.00     0.275 C 
ENDROOT
BRANCH   1   2
ATOM      2  O   UNL A   1      34.667  33.783  32.443  1.00  0.00    -0.458 OA
BRANCH   2   3
ATOM      3  C   UNL A   1      35.513  34.692  32.985  1.00  0.00     0.338 C 
ATOM      4  O   UNL A   1      35.303  35.890  33.110  1.00  0.00    -0.246 OA
BRANCH   3   5
ATOM      5  C   UNL A   1      36.747  34.048  33.483  1.00  0.00     0.060 A 
ATOM      6  C   UNL A   1      39.141  32.739  34.180  1.00  0.00     0.060 A 
ATOM      7  C   UNL A   1      39.163  33.905  33.413  1.00  0.00     0.029 A 
ATOM      8  C   UNL A   1      37.901  32.259  34.628  1.00  0.00     0.029 A 
ATOM      9  C   UNL A   1      37.980  34.525  33.032  1.00  0.00     0.018 A 
ATOM     10  C   UNL A   1      36.707  32.920  34.304  1.00  0.00     0.018 A 
BRANCH   6  11
ATOM     11  N   UNL A   1      40.325  32.057  34.432  1.00  0.00    -0.257 N 
ATOM     12  C   UNL A   1      41.357  32.567  35.346  1.00  0.00     0.144 C 
ATOM     13  C   UNL A   1      42.194  31.306  35.637  1.00  0.00     0.091 C 
ATOM     14  C   UNL A   1      41.385  30.264  34.913  1.00  0.00     0.071 C 
ATOM     15  N   UNL A   1      40.354  30.705  34.266  1.00  0.00    -0.176 NA
BRANCH  12  16
ATOM     16  C   UNL A   1      40.792  33.258  36.585  1.00  0.00    -0.015 A 
ATOM     17  C   UNL A   1      40.493  35.289  37.928  1.00  0.00     0.164 A 
ATOM     18  C   UNL A   1      41.069  34.611  36.836  1.00  0.00     0.056 A 
ATOM     19  C   UNL A   1      39.598  34.641  38.799  1.00  0.00     0.203 A 
ATOM     20  C   UNL A   1      39.330  33.276  38.563  1.00  0.00     0.164 A 
ATOM     21  C   UNL A   1      39.916  32.613  37.466  1.00  0.00     0.056 A 
BRANCH  17  22
ATOM     22  O   UNL A   1      40.748  36.636  38.014  1.00  0.00    -0.493 OA
ATOM     23  C   UNL A   1      42.046  36.963  37.519  1.00  0.00     0.278 C 
ENDBRANCH  17  22
BRANCH  19  24
ATOM     24  O   UNL A   1      38.927  35.214  39.840  1.00  0.00    -0.490 OA
ATOM     25  C   UNL A   1      39.407  35.152  41.169  1.00  0.00     0.278 C 
ENDBRANCH  19  24
BRANCH  20  26
ATOM     26  O   UNL A   1      38.527  32.423  39.283  1.00  0.00    -0.493 OA
ATOM     27  C   UNL A   1      37.163  32.264  38.918  1.00  0.00     0.278 C 
ENDBRANCH  20  26
ENDBRANCH  12  16
BRANCH  14  28
ATOM     28  C   UNL A   1      41.798  28.849  34.863  1.00  0.00    -0.002 A 
ATOM     29  C   UNL A   1      42.612  28.439  33.798  1.00  0.00     0.011 A 
ATOM     30  C   UNL A   1      41.421  27.938  35.852  1.00  0.00     0.011 A 
ATOM     31  C   UNL A   1      43.090  27.129  33.742  1.00  0.00     0.021 A 
ATOM     32  C   UNL A   1      41.877  26.615  35.785  1.00  0.00     0.021 A 
ATOM     33  C   UNL A   1      42.718  26.222  34.738  1.00  0.00     0.067 A 
BRANCH  33  34
ATOM     34  S   UNL A   1      43.403  24.578  34.706  1.00  0.00     0.175 S 
ATOM     35  C   UNL A   1      44.561  24.540  36.048  1.00  0.00     0.163 C 
ATOM     36  O   UNL A   1      42.310  23.673  35.016  1.00  0.00    -0.224 OA
ATOM     37  O   UNL A   1      44.147  24.437  33.469  1.00  0.00    -0.224 OA
ENDBRANCH  33  34
ENDBRANCH  14  28
ENDBRANCH   6  11
ENDBRANCH   3   5
ENDBRANCH   2   3
ENDBRANCH   1   2
BRANCH   1  38
ATOM     38  C   UNL A   1      35.110  32.256  30.557  1.00  0.00     0.275 C 
BRANCH  38  39
ATOM     39  O   UNL A   1      36.514  32.011  30.755  1.00  0.00    -0.458 OA
BRANCH  39  40
ATOM     40  C   UNL A   1      36.811  30.812  31.305  1.00  0.00     0.338 C 
ATOM     41  O   UNL A   1      36.219  30.244  32.207  1.00  0.00    -0.246 OA
BRANCH  40  42
ATOM     42  C   UNL A   1      37.969  30.209  30.628  1.00  0.00     0.060 A 
ATOM     43  C   UNL A   1      38.995  29.692  31.408  1.00  0.00     0.016 A 
ATOM     44  C   UNL A   1      38.138  30.342  29.254  1.00  0.00     0.016 A 
ATOM     45  C   UNL A   1      40.250  29.462  30.854  1.00  0.00     0.010 A 
ATOM     46  C   UNL A   1      39.357  29.965  28.673  1.00  0.00     0.010 A 
ATOM     47  C   UNL A   1      40.449  29.572  29.471  1.00  0.00    -0.014 A 
BRANCH  47  48
ATOM     48  C   UNL A   1      41.789  29.300  28.868  1.00  0.00     0.031 A 
ATOM     49  C   UNL A   1      42.120  27.927  28.330  1.00  0.00     0.074 A 
ATOM     50  C   UNL A   1      42.718  30.278  28.800  1.00  0.00     0.049 A 
ATOM     51  N   UNL A   1      43.278  27.440  27.961  1.00  0.00    -0.248 NA
ATOM     52  C   UNL A   1      41.006  26.972  28.209  1.00  0.00     0.031 C 
ATOM     53  C   UNL A   1      42.530  31.667  29.226  1.00  0.00     0.029 A 
ATOM     54  N   UNL A   1      44.014  30.253  28.340  1.00  0.00    -0.354 N 
ATOM     55  C   UNL A   1      43.045  26.109  27.628  1.00  0.00     0.074 A 
ATOM     56  C   UNL A   1      41.636  25.863  27.845  1.00  0.00     0.031 C 
ATOM     57  C   UNL A   1      43.644  32.366  28.970  1.00  0.00     0.029 A 
ATOM     58  C   UNL A   1      44.666  31.459  28.467  1.00  0.00     0.049 A 
ATOM     59  H   UNL A   1      44.436  29.450  27.959  1.00  0.00     0.167 HD
ATOM     60  C   UNL A   1      43.924  25.177  27.186  1.00  0.00     0.031 A 
ATOM     61  C   UNL A   1      45.954  31.797  28.258  1.00  0.00     0.031 A 
ATOM     62  C   UNL A   1      45.318  25.442  26.930  1.00  0.00     0.049 A 
ATOM     63  C   UNL A   1      46.921  30.737  27.816  1.00  0.00     0.074 A 
ATOM     64  C   UNL A   1      46.289  24.571  26.466  1.00  0.00     0.029 A 
ATOM     65  N   UNL A   1      45.935  26.672  27.104  1.00  0.00    -0.354 N 
ATOM     66  N   UNL A   1      46.694  29.473  27.557  1.00  0.00    -0.248 NA
ATOM     67  C   UNL A   1      48.322  31.148  27.651  1.00  0.00     0.031 C 
ATOM     68  C   UNL A   1      47.504  25.262  26.407  1.00  0.00     0.029 A 
ATOM     69  C   UNL A   1      47.278  26.579  26.772  1.00  0.00     0.049 A 
ATOM     70  H   UNL A   1      45.487  27.492  27.416  1.00  0.00     0.167 HD
ATOM     71  C   UNL A   1      47.920  28.940  27.176  1.00  0.00     0.074 A 
ATOM     72  C   UNL A   1      48.880  30.023  27.225  1.00  0.00     0.031 C 
ATOM     73  C   UNL A   1      48.220  27.668  26.820  1.00  0.00     0.031 A 
BRANCH  60  74
ATOM     74  C   UNL A   1      43.422  23.768  26.988  1.00  0.00    -0.014 A 
ATOM     75  C   UNL A   1      43.243  22.886  28.069  1.00  0.00     0.010 A 
ATOM     76  C   UNL A   1      43.080  23.333  25.694  1.00  0.00     0.010 A 
ATOM     77  C   UNL A   1      42.773  21.587  27.854  1.00  0.00     0.020 A 
ATOM     78  C   UNL A   1      42.580  22.045  25.477  1.00  0.00     0.020 A 
ATOM     79  C   UNL A   1      42.447  21.174  26.558  1.00  0.00     0.054 A 
BRANCH  79  80
ATOM     80  S   UNL A   1      41.821  19.488  26.311  1.00  0.00     0.124 S 
ATOM     81  O   UNL A   1      42.219  18.835  27.555  1.00  0.00    -0.237 OA
ATOM     82  O   UNL A   1      40.385  19.701  26.147  1.00  0.00    -0.237 OA
ATOM     83  O   UNL A   1      42.520  19.028  25.115  1.00  0.00    -0.744 OA
ENDBRANCH  79  80
ENDBRANCH  60  74
BRANCH  61  84
ATOM     84  C   UNL A   1      46.406  33.191  28.524  1.00  0.00    -0.014 A 
ATOM     85  C   UNL A   1      46.366  34.164  27.510  1.00  0.00     0.010 A 
ATOM     86  C   UNL A   1      46.855  33.561  29.807  1.00  0.00     0.010 A 
ATOM     87  C   UNL A   1      46.775  35.475  27.772  1.00  0.00     0.020 A 
ATOM     88  C   UNL A   1      47.232  34.878  30.080  1.00  0.00     0.020 A 
ATOM     89  C   UNL A   1      47.201  35.825  29.056  1.00  0.00     0.054 A 
BRANCH  89  90
ATOM     90  S   UNL A   1      47.670  37.547  29.387  1.00  0.00     0.124 S 
ATOM     91  O   UNL A   1      47.896  37.527  30.828  1.00  0.00    -0.237 OA
ATOM     92  O   UNL A   1      48.864  37.714  28.562  1.00  0.00    -0.237 OA
ATOM     93  O   UNL A   1      46.506  38.310  28.946  1.00  0.00    -0.744 OA
ENDBRANCH  89  90
ENDBRANCH  61  84
BRANCH  73  94
ATOM     94  C   UNL A   1      49.639  27.384  26.404  1.00  0.00    -0.014 A 
ATOM     95  C   UNL A   1      50.045  27.501  25.063  1.00  0.00     0.010 A 
ATOM     96  C   UNL A   1      50.589  27.045  27.383  1.00  0.00     0.010 A 
ATOM     97  C   UNL A   1      51.375  27.258  24.706  1.00  0.00     0.020 A 
ATOM     98  C   UNL A   1      51.924  26.828  27.035  1.00  0.00     0.020 A 
ATOM     99  C   UNL A   1      52.306  26.925  25.695  1.00  0.00     0.054 A 
BRANCH  99 100
ATOM    100  S   UNL A   1      54.035  26.665  25.215  1.00  0.00     0.124 S 
ATOM    101  O   UNL A   1      53.907  25.701  24.125  1.00  0.00    -0.237 OA
ATOM    102  O   UNL A   1      54.464  28.005  24.822  1.00  0.00    -0.237 OA
ATOM    103  O   UNL A   1      54.659  26.149  26.432  1.00  0.00    -0.744 OA
ENDBRANCH  99 100
ENDBRANCH  73  94
ENDBRANCH  47  48
ENDBRANCH  40  42
ENDBRANCH  39  40
ENDBRANCH  38  39
ENDBRANCH   1  38
TORSDOF 21
ENDMDL
MODEL 3
REMARK VINA RESULT:     -10.0      5.774      7.635
REMARK SMILES COc1cc([C@H]2CC(c3ccc(S(C)(=O)=O)cc3)=NN2c2ccc(C(=O)OCCOC(=O)c3ccc(-c4c5nc(c(-c6ccc(S(=O)(=O)[O-])cc6)c6ccc([nH]6)c(-c6ccc(S(=O)(=O)[O-])cc6)c6nc(c(-c7ccc(S(=O)(=O)[O-])cc7)c7ccc4[nH]7)C=C6)C=C5)cc3)cc2)cc(OC)c1OC
REMARK SMILES IDX 28 1 27 2 25 3 26 4 24 5 21 6 22 7 94 8 23 9 93 10 20 11
REMARK SMILES IDX 6 12 7 13 8 14 19 15 5 16 3 17 4 18 99 19 96 20 95 21 2 22
REMARK SMILES IDX 1 23 100 24 101 25 97 26 98 27 9 28 10 29 18 30 11 31 17 32
REMARK SMILES IDX 12 33 13 34 14 35 15 36 16 37 29 38 30 39 31 40 32 41 33 42
REMARK SMILES IDX 34 43 92 44 35 45 91 46 36 47 37 48 38 49 85 50 39 51 90 52
REMARK SMILES IDX 84 53 86 54 40 55 89 56 83 57 82 58 41 60 71 61 52 62 70 63
REMARK SMILES IDX 53 64 56 65 69 66 87 67 54 68 55 69 68 71 88 72 57 73 42 74
REMARK SMILES IDX 43 75 51 76 44 77 50 78 45 79 46 80 47 81 48 82 49 83 72 84
REMARK SMILES IDX 73 85 81 86 74 87 80 88 75 89 76 90 77 91 78 92 79 93 58 94
REMARK SMILES IDX 59 95 67 96 60 97 66 98 61 99 62 100 63 101 64 102 65 103
REMARK H PARENT 86 59 56 70
REMARK Flexibility Score: inf
ROOT
ATOM      1  C   UNL A   1      36.338  30.841  28.792  1.00  0.00     0.275 C 
ENDROOT
BRANCH   1   2
ATOM      2  O   UNL A   1      35.613  30.735  27.549  1.00  0.00    -0.458 OA
BRANCH   2   3
ATOM      3  C   UNL A   1      34.263  30.747  27.666  1.00  0.00     0.338 C 
ATOM      4  O   UNL A   1      33.583  31.665  28.099  1.00  0.00    -0.246 OA
BRANCH   3   5
ATOM      5  C   UNL A   1      33.667  29.500  27.139  1.00  0.00     0.060 A 
ATOM      6  C   UNL A   1      32.509  27.045  26.390  1.00  0.00     0.060 A 
ATOM      7  C   UNL A   1      31.746  28.031  27.018  1.00  0.00     0.029 A 
ATOM      8  C   UNL A   1      33.854  27.323  26.105  1.00  0.00     0.029 A 
ATOM      9  C   UNL A   1      32.328  29.224  27.427  1.00  0.00     0.018 A 
ATOM     10  C   UNL A   1      34.430  28.553  26.454  1.00  0.00     0.018 A 
BRANCH   6  11
ATOM     11  N   UNL A   1      31.942  25.806  26.115  1.00  0.00    -0.257 N 
ATOM     12  C   UNL A   1      30.654  25.658  25.421  1.00  0.00     0.144 C 
ATOM     13  C   UNL A   1      30.695  24.188  24.959  1.00  0.00     0.091 C 
ATOM     14  C   UNL A   1      32.088  23.804  25.380  1.00  0.00     0.071 C 
ATOM     15  N   UNL A   1      32.756  24.720  26.006  1.00  0.00    -0.176 NA
BRANCH  12  16
ATOM     16  C   UNL A   1      30.440  26.673  24.300  1.00  0.00    -0.015 A 
ATOM     17  C   UNL A   1      28.942  28.139  23.026  1.00  0.00     0.164 A 
ATOM     18  C   UNL A   1      29.152  27.143  24.000  1.00  0.00     0.056 A 
ATOM     19  C   UNL A   1      30.019  28.718  22.331  1.00  0.00     0.203 A 
ATOM     20  C   UNL A   1      31.315  28.236  22.614  1.00  0.00     0.164 A 
ATOM     21  C   UNL A   1      31.507  27.239  23.592  1.00  0.00     0.056 A 
BRANCH  17  22
ATOM     22  O   UNL A   1      27.655  28.599  22.893  1.00  0.00    -0.493 OA
ATOM     23  C   UNL A   1      26.746  27.886  23.730  1.00  0.00     0.278 C 
ENDBRANCH  17  22
BRANCH  19  24
ATOM     24  O   UNL A   1      29.941  29.735  21.424  1.00  0.00    -0.490 OA
ATOM     25  C   UNL A   1      29.147  30.884  21.649  1.00  0.00     0.278 C 
ENDBRANCH  19  24
BRANCH  20  26
ATOM     26  O   UNL A   1      32.511  28.612  22.052  1.00  0.00    -0.493 OA
ATOM     27  C   UNL A   1      33.715  27.989  22.476  1.00  0.00     0.278 C 
ENDBRANCH  20  26
ENDBRANCH  12  16
BRANCH  14  28
ATOM     28  C   UNL A   1      32.618  22.442  25.181  1.00  0.00    -0.002 A 
ATOM     29  C   UNL A   1      31.727  21.367  25.299  1.00  0.00     0.011 A 
ATOM     30  C   UNL A   1      33.958  22.214  24.860  1.00  0.00     0.011 A 
ATOM     31  C   UNL A   1      32.160  20.063  25.050  1.00  0.00     0.021 A 
ATOM     32  C   UNL A   1      34.403  20.906  24.635  1.00  0.00     0.021 A 
ATOM     33  C   UNL A   1      33.500  19.840  24.719  1.00  0.00     0.067 A 
BRANCH  33  34
ATOM     34  S   UNL A   1      34.024  18.186  24.318  1.00  0.00     0.175 S 
ATOM     35  C   UNL A   1      33.179  17.144  25.477  1.00  0.00     0.163 C 
ATOM     36  O   UNL A   1      33.511  17.905  22.988  1.00  0.00    -0.224 OA
ATOM     37  O   UNL A   1      35.446  18.098  24.591  1.00  0.00    -0.224 OA
ENDBRANCH  33  34
ENDBRANCH  14  28
ENDBRANCH   6  11
ENDBRANCH   3   5
ENDBRANCH   2   3
ENDBRANCH   1   2
BRANCH   1  38
ATOM     38  C   UNL A   1      36.567  29.476  29.444  1.00  0.00     0.275 C 
BRANCH  38  39
ATOM     39  O   UNL A   1      37.315  29.604  30.667  1.00  0.00    -0.458 OA
BRANCH  39  40
ATOM     40  C   UNL A   1      38.649  29.756  30.505  1.00  0.00     0.338 C 
ATOM     41  O   UNL A   1      39.277  29.719  29.461  1.00  0.00    -0.246 OA
BRANCH  40  42
ATOM     42  C   UNL A   1      39.294  30.030  31.798  1.00  0.00     0.060 A 
ATOM     43  C   UNL A   1      40.641  30.368  31.804  1.00  0.00     0.016 A 
ATOM     44  C   UNL A   1      38.640  29.754  32.993  1.00  0.00     0.016 A 
ATOM     45  C   UNL A   1      41.383  30.268  32.977  1.00  0.00     0.010 A 
ATOM     46  C   UNL A   1      39.357  29.803  34.197  1.00  0.00     0.010 A 
ATOM     47  C   UNL A   1      40.751  30.006  34.201  1.00  0.00    -0.014 A 
BRANCH  47  48
ATOM     48  C   UNL A   1      41.540  29.925  35.466  1.00  0.00     0.031 A 
ATOM     49  C   UNL A   1      41.470  31.041  36.483  1.00  0.00     0.074 A 
ATOM     50  C   UNL A   1      42.326  28.855  35.714  1.00  0.00     0.049 A 
ATOM     51  N   UNL A   1      42.223  31.253  37.533  1.00  0.00    -0.248 NA
ATOM     52  C   UNL A   1      40.428  32.062  36.283  1.00  0.00     0.031 C 
ATOM     53  C   UNL A   1      42.456  27.674  34.856  1.00  0.00     0.029 A 
ATOM     54  N   UNL A   1      43.166  28.583  36.768  1.00  0.00    -0.354 N 
ATOM     55  C   UNL A   1      41.792  32.459  38.077  1.00  0.00     0.074 A 
ATOM     56  C   UNL A   1      40.714  32.936  37.238  1.00  0.00     0.031 C 
ATOM     57  C   UNL A   1      43.284  26.793  35.434  1.00  0.00     0.029 A 
ATOM     58  C   UNL A   1      43.833  27.386  36.646  1.00  0.00     0.049 A 
ATOM     59  H   UNL A   1      43.281  29.188  37.536  1.00  0.00     0.167 HD
ATOM     60  C   UNL A   1      42.253  33.110  39.173  1.00  0.00     0.031 A 
ATOM     61  C   UNL A   1      44.817  26.839  37.386  1.00  0.00     0.031 A 
ATOM     62  C   UNL A   1      43.297  32.606  40.029  1.00  0.00     0.049 A 
ATOM     63  C   UNL A   1      45.347  27.600  38.567  1.00  0.00     0.074 A 
ATOM     64  C   UNL A   1      43.826  33.181  41.172  1.00  0.00     0.029 A 
ATOM     65  N   UNL A   1      43.962  31.402  39.844  1.00  0.00    -0.354 N 
ATOM     66  N   UNL A   1      44.963  28.763  39.036  1.00  0.00    -0.248 NA
ATOM     67  C   UNL A   1      46.453  26.982  39.311  1.00  0.00     0.031 C 
ATOM     68  C   UNL A   1      44.844  32.349  41.649  1.00  0.00     0.029 A 
ATOM     69  C   UNL A   1      44.908  31.226  40.842  1.00  0.00     0.049 A 
ATOM     70  H   UNL A   1      43.788  30.767  39.112  1.00  0.00     0.167 HD
ATOM     71  C   UNL A   1      45.765  29.006  40.145  1.00  0.00     0.074 A 
ATOM     72  C   UNL A   1      46.645  27.863  40.284  1.00  0.00     0.031 C 
ATOM     73  C   UNL A   1      45.772  30.079  40.971  1.00  0.00     0.031 A 
BRANCH  60  74
ATOM     74  C   UNL A   1      41.664  34.462  39.492  1.00  0.00    -0.014 A 
ATOM     75  C   UNL A   1      42.162  35.643  38.912  1.00  0.00     0.010 A 
ATOM     76  C   UNL A   1      40.559  34.545  40.360  1.00  0.00     0.010 A 
ATOM     77  C   UNL A   1      41.593  36.881  39.225  1.00  0.00     0.020 A 
ATOM     78  C   UNL A   1      39.966  35.778  40.653  1.00  0.00     0.020 A 
ATOM     79  C   UNL A   1      40.500  36.941  40.097  1.00  0.00     0.054 A 
BRANCH  79  80
ATOM     80  S   UNL A   1      39.770  38.560  40.470  1.00  0.00     0.124 S 
ATOM     81  O   UNL A   1      38.611  38.579  39.581  1.00  0.00    -0.237 OA
ATOM     82  O   UNL A   1      39.465  38.454  41.895  1.00  0.00    -0.237 OA
ATOM     83  O   UNL A   1      40.830  39.506  40.132  1.00  0.00    -0.744 OA
ENDBRANCH  79  80
ENDBRANCH  60  74
BRANCH  61  84
ATOM     84  C   UNL A   1      45.400  25.526  36.992  1.00  0.00    -0.014 A 
ATOM     85  C   UNL A   1      44.898  24.328  37.529  1.00  0.00     0.010 A 
ATOM     86  C   UNL A   1      46.447  25.466  36.051  1.00  0.00     0.010 A 
ATOM     87  C   UNL A   1      45.438  23.098  37.139  1.00  0.00     0.020 A 
ATOM     88  C   UNL A   1      46.964  24.238  35.635  1.00  0.00     0.020 A 
ATOM     89  C   UNL A   1      46.464  23.060  36.192  1.00  0.00     0.054 A 
BRANCH  89  90
ATOM     90  S   UNL A   1      47.108  21.449  35.658  1.00  0.00     0.124 S 
ATOM     91  O   UNL A   1      46.440  20.537  36.581  1.00  0.00    -0.237 OA
ATOM     92  O   UNL A   1      46.666  21.377  34.268  1.00  0.00    -0.237 OA
ATOM     93  O   UNL A   1      48.551  21.579  35.840  1.00  0.00    -0.744 OA
ENDBRANCH  89  90
ENDBRANCH  61  84
BRANCH  73  94
ATOM     94  C   UNL A   1      46.727  30.051  42.133  1.00  0.00    -0.014 A 
ATOM     95  C   UNL A   1      48.044  30.528  42.010  1.00  0.00     0.010 A 
ATOM     96  C   UNL A   1      46.278  29.585  43.382  1.00  0.00     0.010 A 
ATOM     97  C   UNL A   1      48.904  30.516  43.112  1.00  0.00     0.020 A 
ATOM     98  C   UNL A   1      47.126  29.597  44.492  1.00  0.00     0.020 A 
ATOM     99  C   UNL A   1      48.438  30.052  44.347  1.00  0.00     0.054 A 
BRANCH  99 100
ATOM    100  S   UNL A   1      49.556  30.094  45.774  1.00  0.00     0.124 S 
ATOM    101  O   UNL A   1      50.500  29.028  45.452  1.00  0.00    -0.237 OA
ATOM    102  O   UNL A   1      50.096  31.451  45.718  1.00  0.00    -0.237 OA
ATOM    103  O   UNL A   1      48.678  29.826  46.911  1.00  0.00    -0.744 OA
ENDBRANCH  99 100
ENDBRANCH  73  94
ENDBRANCH  47  48
ENDBRANCH  40  42
ENDBRANCH  39  40
ENDBRANCH  38  39
ENDBRANCH   1  38
TORSDOF 21
ENDMDL
