MODEL 1
REMARK VINA RESULT:     -10.0      0.000      0.000
REMARK SMILES Cc1cc(C[NH+]2C[C@@H](C)[C@H](C)C2)oc1C(=O)OCCOC(=O)c1ccc(-c2c3nc(c(-c4ccc(S(=O)(=O)[O-])cc4)c4ccc([nH]4)c(-c4ccc(S(=O)(=O)[O-])cc4)c4nc(c(-c5ccc(S(=O)(=O)[O-])cc5)c5ccc2[nH]5)C=C4)C=C3)cc1
REMARK SMILES IDX 19 1 18 2 17 3 15 4 16 5 14 6 1 7 2 8 3 9 4 10 13 11 5 12
REMARK SMILES IDX 6 13 7 14 12 15 8 17 10 18 9 19 11 20 20 21 21 22 22 23
REMARK SMILES IDX 23 24 24 25 82 26 25 27 81 28 26 29 27 30 28 31 75 32 29 33
REMARK SMILES IDX 80 34 74 35 76 36 30 37 79 38 73 39 72 40 31 42 61 43 42 44
REMARK SMILES IDX 60 45 43 46 46 47 59 48 77 49 44 50 45 51 58 53 78 54 47 55
REMARK SMILES IDX 32 56 33 57 41 58 34 59 40 60 35 61 36 62 37 63 38 64 39 65
REMARK SMILES IDX 62 66 63 67 71 68 64 69 70 70 65 71 66 72 67 73 68 74 69 75
REMARK SMILES IDX 48 76 49 77 57 78 50 79 56 80 51 81 52 82 53 83 54 84 55 85
REMARK H PARENT 6 16 76 41 46 52
REMARK Flexibility Score: inf
ROOT
ATOM      1  C   UNL A   1      34.467  32.753  28.473  1.00  0.00     0.275 C 
ENDROOT
BRANCH   1   2
ATOM      2  C   UNL A   1      33.555  33.953  28.188  1.00  0.00     0.275 C 
BRANCH   2   3
ATOM      3  O   UNL A   1      32.787  34.320  29.349  1.00  0.00    -0.456 OA
BRANCH   3   4
ATOM      4  C   UNL A   1      33.014  35.577  29.840  1.00  0.00     0.374 C 
ATOM      5  O   UNL A   1      32.739  36.604  29.237  1.00  0.00    -0.242 OA
BRANCH   4   6
ATOM      6  C   UNL A   1      33.528  35.510  31.193  1.00  0.00     0.215 A 
ATOM      7  C   UNL A   1      33.514  37.892  32.229  1.00  0.00     0.049 C 
ATOM      8  C   UNL A   1      33.785  36.434  32.200  1.00  0.00     0.003 A 
ATOM      9  C   UNL A   1      34.392  35.698  33.263  1.00  0.00     0.056 A 
ATOM     10  C   UNL A   1      34.495  34.389  32.847  1.00  0.00     0.159 A 
ATOM     11  O   UNL A   1      33.907  34.265  31.627  1.00  0.00    -0.448 OA
BRANCH  10  12
ATOM     12  C   UNL A   1      35.093  33.136  33.407  1.00  0.00     0.338 C 
BRANCH  12  13
ATOM     13  N   UNL A   1      36.466  33.250  33.902  1.00  0.00    -0.328 N 
ATOM     14  C   UNL A   1      37.186  31.990  34.090  1.00  0.00     0.266 C 
ATOM     15  C   UNL A   1      37.322  34.217  33.222  1.00  0.00     0.266 C 
ATOM     16  H   UNL A   1      36.272  33.630  34.828  1.00  0.00     0.348 HD
ATOM     17  C   UNL A   1      38.655  32.410  34.032  1.00  0.00     0.049 C 
ATOM     18  C   UNL A   1      38.626  33.473  32.934  1.00  0.00     0.049 C 
ATOM     19  C   UNL A   1      39.593  31.246  33.741  1.00  0.00     0.014 C 
ATOM     20  C   UNL A   1      39.837  34.392  32.912  1.00  0.00     0.014 C 
ENDBRANCH  12  13
ENDBRANCH  10  12
ENDBRANCH   4   6
ENDBRANCH   3   4
ENDBRANCH   2   3
ENDBRANCH   1   2
BRANCH   1  21
ATOM     21  O   UNL A   1      34.428  31.781  27.413  1.00  0.00    -0.458 OA
BRANCH  21  22
ATOM     22  C   UNL A   1      34.445  30.486  27.809  1.00  0.00     0.338 C 
ATOM     23  O   UNL A   1      33.488  29.731  27.866  1.00  0.00    -0.246 OA
BRANCH  22  24
ATOM     24  C   UNL A   1      35.835  30.054  28.045  1.00  0.00     0.060 A 
ATOM     25  C   UNL A   1      36.169  29.613  29.328  1.00  0.00     0.016 A 
ATOM     26  C   UNL A   1      36.811  30.116  27.047  1.00  0.00     0.016 A 
ATOM     27  C   UNL A   1      37.472  29.216  29.619  1.00  0.00     0.010 A 
ATOM     28  C   UNL A   1      38.124  29.729  27.343  1.00  0.00     0.010 A 
ATOM     29  C   UNL A   1      38.462  29.281  28.631  1.00  0.00    -0.014 A 
BRANCH  29  30
ATOM     30  C   UNL A   1      39.857  28.919  28.976  1.00  0.00     0.031 A 
ATOM     31  C   UNL A   1      40.730  29.910  29.691  1.00  0.00     0.074 A 
ATOM     32  C   UNL A   1      40.323  27.690  28.686  1.00  0.00     0.049 A 
ATOM     33  N   UNL A   1      41.976  29.790  30.068  1.00  0.00    -0.248 NA
ATOM     34  C   UNL A   1      40.119  31.206  30.026  1.00  0.00     0.031 C 
ATOM     35  C   UNL A   1      39.555  26.626  28.038  1.00  0.00     0.029 A 
ATOM     36  N   UNL A   1      41.555  27.127  28.908  1.00  0.00    -0.354 N 
ATOM     37  C   UNL A   1      42.305  30.995  30.676  1.00  0.00     0.074 A 
ATOM     38  C   UNL A   1      41.132  31.839  30.603  1.00  0.00     0.031 C 
ATOM     39  C   UNL A   1      40.331  25.536  27.922  1.00  0.00     0.029 A 
ATOM     40  C   UNL A   1      41.659  25.834  28.455  1.00  0.00     0.049 A 
ATOM     41  H   UNL A   1      42.294  27.604  29.350  1.00  0.00     0.167 HD
ATOM     42  C   UNL A   1      43.478  31.364  31.244  1.00  0.00     0.031 A 
ATOM     43  C   UNL A   1      42.709  24.990  28.458  1.00  0.00     0.031 A 
ATOM     44  C   UNL A   1      44.645  30.525  31.313  1.00  0.00     0.049 A 
ATOM     45  C   UNL A   1      44.017  25.443  29.044  1.00  0.00     0.074 A 
ATOM     46  C   UNL A   1      45.880  30.810  31.869  1.00  0.00     0.029 A 
ATOM     47  N   UNL A   1      44.723  29.237  30.805  1.00  0.00    -0.354 N 
ATOM     48  N   UNL A   1      44.312  26.587  29.614  1.00  0.00    -0.248 NA
ATOM     49  C   UNL A   1      45.136  24.492  28.986  1.00  0.00     0.031 C 
ATOM     50  C   UNL A   1      46.718  29.708  31.664  1.00  0.00     0.029 A 
ATOM     51  C   UNL A   1      45.991  28.721  31.017  1.00  0.00     0.049 A 
ATOM     52  H   UNL A   1      43.987  28.760  30.360  1.00  0.00     0.167 HD
ATOM     53  C   UNL A   1      45.644  26.488  29.997  1.00  0.00     0.074 A 
ATOM     54  C   UNL A   1      46.095  25.167  29.607  1.00  0.00     0.031 C 
ATOM     55  C   UNL A   1      46.424  27.407  30.617  1.00  0.00     0.031 A 
BRANCH  42  56
ATOM     56  C   UNL A   1      43.564  32.756  31.804  1.00  0.00    -0.014 A 
ATOM     57  C   UNL A   1      43.343  33.007  33.170  1.00  0.00     0.010 A 
ATOM     58  C   UNL A   1      43.893  33.828  30.954  1.00  0.00     0.010 A 
ATOM     59  C   UNL A   1      43.414  34.310  33.670  1.00  0.00     0.020 A 
ATOM     60  C   UNL A   1      43.984  35.129  31.453  1.00  0.00     0.020 A 
ATOM     61  C   UNL A   1      43.725  35.365  32.805  1.00  0.00     0.054 A 
BRANCH  61  62
ATOM     62  S   UNL A   1      43.818  37.049  33.475  1.00  0.00     0.124 S 
ATOM     63  O   UNL A   1      45.089  37.015  34.196  1.00  0.00    -0.237 OA
ATOM     64  O   UNL A   1      43.802  37.877  32.272  1.00  0.00    -0.237 OA
ATOM     65  O   UNL A   1      42.628  37.154  34.315  1.00  0.00    -0.744 OA
ENDBRANCH  61  62
ENDBRANCH  42  56
BRANCH  43  66
ATOM     66  C   UNL A   1      42.570  23.633  27.863  1.00  0.00    -0.014 A 
ATOM     67  C   UNL A   1      42.195  22.536  28.659  1.00  0.00     0.010 A 
ATOM     68  C   UNL A   1      42.808  23.434  26.491  1.00  0.00     0.010 A 
ATOM     69  C   UNL A   1      42.073  21.263  28.094  1.00  0.00     0.020 A 
ATOM     70  C   UNL A   1      42.665  22.167  25.920  1.00  0.00     0.020 A 
ATOM     71  C   UNL A   1      42.308  21.086  26.728  1.00  0.00     0.054 A 
BRANCH  71  72
ATOM     72  S   UNL A   1      42.092  19.438  26.001  1.00  0.00     0.124 S 
ATOM     73  O   UNL A   1      40.649  19.387  25.789  1.00  0.00    -0.237 OA
ATOM     74  O   UNL A   1      42.907  19.512  24.790  1.00  0.00    -0.237 OA
ATOM     75  O   UNL A   1      42.607  18.542  27.034  1.00  0.00    -0.744 OA
ENDBRANCH  71  72
ENDBRANCH  43  66
BRANCH  55  76
ATOM     76  C   UNL A   1      47.841  27.010  30.929  1.00  0.00    -0.014 A 
ATOM     77  C   UNL A   1      48.891  27.321  30.048  1.00  0.00     0.010 A 
ATOM     78  C   UNL A   1      48.131  26.364  32.145  1.00  0.00     0.010 A 
ATOM     79  C   UNL A   1      50.206  26.967  30.365  1.00  0.00     0.020 A 
ATOM     80  C   UNL A   1      49.446  26.027  32.474  1.00  0.00     0.020 A 
ATOM     81  C   UNL A   1      50.474  26.319  31.575  1.00  0.00     0.054 A 
BRANCH  81  82
ATOM     82  S   UNL A   1      52.193  25.911  31.990  1.00  0.00     0.124 S 
ATOM     83  O   UNL A   1      52.064  24.553  32.512  1.00  0.00    -0.237 OA
ATOM     84  O   UNL A   1      52.873  26.026  30.701  1.00  0.00    -0.237 OA
ATOM     85  O   UNL A   1      52.561  26.927  32.973  1.00  0.00    -0.744 OA
ENDBRANCH  81  82
ENDBRANCH  55  76
ENDBRANCH  29  30
ENDBRANCH  22  24
ENDBRANCH  21  22
ENDBRANCH   1  21
TORSDOF 16
ENDMDL
MODEL 2
REMARK VINA RESULT:      -9.9      2.564     12.049
REMARK SMILES Cc1cc(C[NH+]2C[C@@H](C)[C@H](C)C2)oc1C(=O)OCCOC(=O)c1ccc(-c2c3nc(c(-c4ccc(S(=O)(=O)[O-])cc4)c4ccc([nH]4)c(-c4ccc(S(=O)(=O)[O-])cc4)c4nc(c(-c5ccc(S(=O)(=O)[O-])cc5)c5ccc2[nH]5)C=C4)C=C3)cc1
REMARK SMILES IDX 19 1 18 2 17 3 15 4 16 5 14 6 1 7 2 8 3 9 4 10 13 11 5 12
REMARK SMILES IDX 6 13 7 14 12 15 8 17 10 18 9 19 11 20 20 21 21 22 22 23
REMARK SMILES IDX 23 24 24 25 82 26 25 27 81 28 26 29 27 30 28 31 75 32 29 33
REMARK SMILES IDX 80 34 74 35 76 36 30 37 79 38 73 39 72 40 31 42 61 43 42 44
REMARK SMILES IDX 60 45 43 46 46 47 59 48 77 49 44 50 45 51 58 53 78 54 47 55
REMARK SMILES IDX 32 56 33 57 41 58 34 59 40 60 35 61 36 62 37 63 38 64 39 65
REMARK SMILES IDX 62 66 63 67 71 68 64 69 70 70 65 71 66 72 67 73 68 74 69 75
REMARK SMILES IDX 48 76 49 77 57 78 50 79 56 80 51 81 52 82 53 83 54 84 55 85
REMARK H PARENT 6 16 76 41 46 52
REMARK Flexibility Score: inf
ROOT
ATOM      1  C   UNL A   1      40.034  21.068  26.867  1.00  0.00     0.275 C 
ENDROOT
BRANCH   1   2
ATOM      2  C   UNL A   1      40.761  19.859  26.265  1.00  0.00     0.275 C 
BRANCH   2   3
ATOM      3  O   UNL A   1      42.141  19.817  26.672  1.00  0.00    -0.456 OA
BRANCH   3   4
ATOM      4  C   UNL A   1      42.967  19.046  25.899  1.00  0.00     0.374 C 
ATOM      5  O   UNL A   1      42.755  17.871  25.639  1.00  0.00    -0.242 OA
BRANCH   4   6
ATOM      6  C   UNL A   1      44.054  19.842  25.365  1.00  0.00     0.215 A 
ATOM      7  C   UNL A   1      46.268  18.495  25.552  1.00  0.00     0.049 C 
ATOM      8  C   UNL A   1      45.428  19.675  25.232  1.00  0.00     0.003 A 
ATOM      9  C   UNL A   1      45.924  20.907  24.706  1.00  0.00     0.056 A 
ATOM     10  C   UNL A   1      44.848  21.756  24.571  1.00  0.00     0.159 A 
ATOM     11  O   UNL A   1      43.712  21.086  24.901  1.00  0.00    -0.448 OA
BRANCH  10  12
ATOM     12  C   UNL A   1      44.663  23.188  24.173  1.00  0.00     0.338 C 
BRANCH  12  13
ATOM     13  N   UNL A   1      44.577  24.150  25.273  1.00  0.00    -0.328 N 
ATOM     14  C   UNL A   1      45.854  24.615  25.818  1.00  0.00     0.266 C 
ATOM     15  C   UNL A   1      43.677  25.281  25.075  1.00  0.00     0.266 C 
ATOM     16  H   UNL A   1      44.147  23.552  25.978  1.00  0.00     0.348 HD
ATOM     17  C   UNL A   1      45.493  25.948  26.475  1.00  0.00     0.049 C 
ATOM     18  C   UNL A   1      44.482  26.517  25.478  1.00  0.00     0.049 C 
ATOM     19  C   UNL A   1      46.704  26.842  26.705  1.00  0.00     0.014 C 
ATOM     20  C   UNL A   1      43.612  27.635  26.029  1.00  0.00     0.014 C 
ENDBRANCH  12  13
ENDBRANCH  10  12
ENDBRANCH   4   6
ENDBRANCH   3   4
ENDBRANCH   2   3
ENDBRANCH   1   2
BRANCH   1  21
ATOM     21  O   UNL A   1      39.952  22.165  25.940  1.00  0.00    -0.458 OA
BRANCH  21  22
ATOM     22  C   UNL A   1      38.858  22.955  26.067  1.00  0.00     0.338 C 
ATOM     23  O   UNL A   1      37.718  22.676  25.732  1.00  0.00    -0.246 OA
BRANCH  22  24
ATOM     24  C   UNL A   1      39.212  24.183  26.804  1.00  0.00     0.060 A 
ATOM     25  C   UNL A   1      40.014  25.123  26.153  1.00  0.00     0.016 A 
ATOM     26  C   UNL A   1      38.804  24.399  28.122  1.00  0.00     0.016 A 
ATOM     27  C   UNL A   1      40.402  26.290  26.805  1.00  0.00     0.010 A 
ATOM     28  C   UNL A   1      39.204  25.567  28.783  1.00  0.00     0.010 A 
ATOM     29  C   UNL A   1      40.008  26.517  28.129  1.00  0.00    -0.014 A 
BRANCH  29  30
ATOM     30  C   UNL A   1      40.485  27.732  28.831  1.00  0.00     0.031 A 
ATOM     31  C   UNL A   1      41.886  27.780  29.371  1.00  0.00     0.074 A 
ATOM     32  C   UNL A   1      39.677  28.802  28.946  1.00  0.00     0.049 A 
ATOM     33  N   UNL A   1      42.485  28.742  30.023  1.00  0.00    -0.248 NA
ATOM     34  C   UNL A   1      42.721  26.590  29.146  1.00  0.00     0.031 C 
ATOM     35  C   UNL A   1      38.315  28.892  28.419  1.00  0.00     0.029 A 
ATOM     36  N   UNL A   1      39.891  30.023  29.534  1.00  0.00    -0.354 N 
ATOM     37  C   UNL A   1      43.764  28.273  30.296  1.00  0.00     0.074 A 
ATOM     38  C   UNL A   1      43.849  26.934  29.753  1.00  0.00     0.031 C 
ATOM     39  C   UNL A   1      37.816  30.107  28.703  1.00  0.00     0.029 A 
ATOM     40  C   UNL A   1      38.810  30.867  29.458  1.00  0.00     0.049 A 
ATOM     41  H   UNL A   1      40.738  30.270  29.971  1.00  0.00     0.167 HD
ATOM     42  C   UNL A   1      44.777  28.902  30.941  1.00  0.00     0.031 A 
ATOM     43  C   UNL A   1      38.634  32.108  29.952  1.00  0.00     0.031 A 
ATOM     44  C   UNL A   1      44.690  30.231  31.484  1.00  0.00     0.049 A 
ATOM     45  C   UNL A   1      39.754  32.763  30.713  1.00  0.00     0.074 A 
ATOM     46  C   UNL A   1      45.663  30.954  32.153  1.00  0.00     0.029 A 
ATOM     47  N   UNL A   1      43.564  31.038  31.423  1.00  0.00    -0.354 N 
ATOM     48  N   UNL A   1      40.957  32.305  30.964  1.00  0.00    -0.248 NA
ATOM     49  C   UNL A   1      39.492  34.102  31.259  1.00  0.00     0.031 C 
ATOM     50  C   UNL A   1      45.113  32.184  32.531  1.00  0.00     0.029 A 
ATOM     51  C   UNL A   1      43.810  32.243  32.060  1.00  0.00     0.049 A 
ATOM     52  H   UNL A   1      42.715  30.791  30.991  1.00  0.00     0.167 HD
ATOM     53  C   UNL A   1      41.602  33.305  31.682  1.00  0.00     0.074 A 
ATOM     54  C   UNL A   1      40.660  34.399  31.815  1.00  0.00     0.031 C 
ATOM     55  C   UNL A   1      42.860  33.318  32.187  1.00  0.00     0.031 A 
BRANCH  42  56
ATOM     56  C   UNL A   1      46.057  28.136  31.125  1.00  0.00    -0.014 A 
ATOM     57  C   UNL A   1      47.123  28.271  30.219  1.00  0.00     0.010 A 
ATOM     58  C   UNL A   1      46.203  27.284  32.235  1.00  0.00     0.010 A 
ATOM     59  C   UNL A   1      48.301  27.539  30.400  1.00  0.00     0.020 A 
ATOM     60  C   UNL A   1      47.384  26.566  32.430  1.00  0.00     0.020 A 
ATOM     61  C   UNL A   1      48.420  26.684  31.500  1.00  0.00     0.054 A 
BRANCH  61  62
ATOM     62  S   UNL A   1      49.959  25.748  31.720  1.00  0.00     0.124 S 
ATOM     63  O   UNL A   1      50.138  25.152  30.399  1.00  0.00    -0.237 OA
ATOM     64  O   UNL A   1      50.923  26.788  32.075  1.00  0.00    -0.237 OA
ATOM     65  O   UNL A   1      49.642  24.807  32.790  1.00  0.00    -0.744 OA
ENDBRANCH  61  62
ENDBRANCH  42  56
BRANCH  43  66
ATOM     66  C   UNL A   1      37.334  32.806  29.761  1.00  0.00    -0.014 A 
ATOM     67  C   UNL A   1      36.445  32.974  30.837  1.00  0.00     0.010 A 
ATOM     68  C   UNL A   1      36.982  33.311  28.497  1.00  0.00     0.010 A 
ATOM     69  C   UNL A   1      35.222  33.624  30.649  1.00  0.00     0.020 A 
ATOM     70  C   UNL A   1      35.770  33.981  28.310  1.00  0.00     0.020 A 
ATOM     71  C   UNL A   1      34.892  34.124  29.386  1.00  0.00     0.054 A 
BRANCH  71  72
ATOM     72  S   UNL A   1      33.325  35.013  29.171  1.00  0.00     0.124 S 
ATOM     73  O   UNL A   1      33.782  36.333  28.747  1.00  0.00    -0.237 OA
ATOM     74  O   UNL A   1      32.644  34.221  28.150  1.00  0.00    -0.237 OA
ATOM     75  O   UNL A   1      32.718  34.957  30.499  1.00  0.00    -0.744 OA
ENDBRANCH  71  72
ENDBRANCH  43  66
BRANCH  55  76
ATOM     76  C   UNL A   1      43.298  34.560  32.913  1.00  0.00    -0.014 A 
ATOM     77  C   UNL A   1      43.971  35.594  32.237  1.00  0.00     0.010 A 
ATOM     78  C   UNL A   1      42.987  34.718  34.275  1.00  0.00     0.010 A 
ATOM     79  C   UNL A   1      44.349  36.753  32.920  1.00  0.00     0.020 A 
ATOM     80  C   UNL A   1      43.345  35.884  34.956  1.00  0.00     0.020 A 
ATOM     81  C   UNL A   1      44.036  36.889  34.276  1.00  0.00     0.054 A 
BRANCH  81  82
ATOM     82  S   UNL A   1      44.495  38.421  35.134  1.00  0.00     0.124 S 
ATOM     83  O   UNL A   1      43.848  38.248  36.431  1.00  0.00    -0.237 OA
ATOM     84  O   UNL A   1      45.955  38.362  35.147  1.00  0.00    -0.237 OA
ATOM     85  O   UNL A   1      43.930  39.471  34.289  1.00  0.00    -0.744 OA
ENDBRANCH  81  82
ENDBRANCH  55  76
ENDBRANCH  29  30
ENDBRANCH  22  24
ENDBRANCH  21  22
ENDBRANCH   1  21
TORSDOF 16
ENDMDL
MODEL 3
REMARK VINA RESULT:      -9.8      4.266     12.386
REMARK SMILES Cc1cc(C[NH+]2C[C@@H](C)[C@H](C)C2)oc1C(=O)OCCOC(=O)c1ccc(-c2c3nc(c(-c4ccc(S(=O)(=O)[O-])cc4)c4ccc([nH]4)c(-c4ccc(S(=O)(=O)[O-])cc4)c4nc(c(-c5ccc(S(=O)(=O)[O-])cc5)c5ccc2[nH]5)C=C4)C=C3)cc1
REMARK SMILES IDX 19 1 18 2 17 3 15 4 16 5 14 6 1 7 2 8 3 9 4 10 13 11 5 12
REMARK SMILES IDX 6 13 7 14 12 15 8 17 10 18 9 19 11 20 20 21 21 22 22 23
REMARK SMILES IDX 23 24 24 25 82 26 25 27 81 28 26 29 27 30 28 31 75 32 29 33
REMARK SMILES IDX 80 34 74 35 76 36 30 37 79 38 73 39 72 40 31 42 61 43 42 44
REMARK SMILES IDX 60 45 43 46 46 47 59 48 77 49 44 50 45 51 58 53 78 54 47 55
REMARK SMILES IDX 32 56 33 57 41 58 34 59 40 60 35 61 36 62 37 63 38 64 39 65
REMARK SMILES IDX 62 66 63 67 71 68 64 69 70 70 65 71 66 72 67 73 68 74 69 75
REMARK SMILES IDX 48 76 49 77 57 78 50 79 56 80 51 81 52 82 53 83 54 84 55 85
REMARK H PARENT 6 16 76 41 46 52
REMARK Flexibility Score: inf
ROOT
ATOM      1  C   UNL A   1      44.453  24.609  24.992  1.00  0.00     0.275 C 
ENDROOT
BRANCH   1   2
ATOM      2  C   UNL A   1      44.795  23.114  24.984  1.00  0.00     0.275 C 
BRANCH   2   3
ATOM      3  O   UNL A   1      43.659  22.314  24.605  1.00  0.00    -0.456 OA
BRANCH   3   4
ATOM      4  C   UNL A   1      43.279  21.356  25.505  1.00  0.00     0.374 C 
ATOM      5  O   UNL A   1      43.927  20.346  25.737  1.00  0.00    -0.242 OA
BRANCH   4   6
ATOM      6  C   UNL A   1      42.071  21.756  26.197  1.00  0.00     0.215 A 
ATOM      7  C   UNL A   1      42.703  22.752  28.511  1.00  0.00     0.049 C 
ATOM      8  C   UNL A   1      41.779  22.300  27.442  1.00  0.00     0.003 A 
ATOM      9  C   UNL A   1      40.354  22.351  27.524  1.00  0.00     0.056 A 
ATOM     10  C   UNL A   1      39.858  21.822  26.354  1.00  0.00     0.159 A 
ATOM     11  O   UNL A   1      40.896  21.531  25.526  1.00  0.00    -0.448 OA
BRANCH  10  12
ATOM     12  C   UNL A   1      38.496  21.499  25.823  1.00  0.00     0.338 C 
BRANCH  12  13
ATOM     13  N   UNL A   1      37.796  22.594  25.150  1.00  0.00    -0.328 N 
ATOM     14  C   UNL A   1      37.012  22.225  23.970  1.00  0.00     0.266 C 
ATOM     15  C   UNL A   1      37.021  23.489  26.004  1.00  0.00     0.266 C 
ATOM     16  H   UNL A   1      38.603  23.125  24.824  1.00  0.00     0.348 HD
ATOM     17  C   UNL A   1      35.996  23.361  23.852  1.00  0.00     0.049 C 
ATOM     18  C   UNL A   1      35.661  23.627  25.320  1.00  0.00     0.049 C 
ATOM     19  C   UNL A   1      34.789  22.990  23.001  1.00  0.00     0.014 C 
ATOM     20  C   UNL A   1      35.001  24.970  25.585  1.00  0.00     0.014 C 
ENDBRANCH  12  13
ENDBRANCH  10  12
ENDBRANCH   4   6
ENDBRANCH   3   4
ENDBRANCH   2   3
ENDBRANCH   1   2
BRANCH   1  21
ATOM     21  O   UNL A   1      43.718  24.989  26.169  1.00  0.00    -0.458 OA
BRANCH  21  22
ATOM     22  C   UNL A   1      42.509  25.557  25.943  1.00  0.00     0.338 C 
ATOM     23  O   UNL A   1      41.772  25.346  24.993  1.00  0.00    -0.246 OA
BRANCH  22  24
ATOM     24  C   UNL A   1      42.127  26.394  27.097  1.00  0.00     0.060 A 
ATOM     25  C   UNL A   1      42.737  27.645  27.222  1.00  0.00     0.016 A 
ATOM     26  C   UNL A   1      41.222  25.953  28.066  1.00  0.00     0.016 A 
ATOM     27  C   UNL A   1      42.436  28.469  28.303  1.00  0.00     0.010 A 
ATOM     28  C   UNL A   1      40.929  26.777  29.159  1.00  0.00     0.010 A 
ATOM     29  C   UNL A   1      41.537  28.037  29.285  1.00  0.00    -0.014 A 
BRANCH  29  30
ATOM     30  C   UNL A   1      41.280  28.899  30.464  1.00  0.00     0.031 A 
ATOM     31  C   UNL A   1      42.175  28.805  31.666  1.00  0.00     0.074 A 
ATOM     32  C   UNL A   1      40.272  29.790  30.436  1.00  0.00     0.049 A 
ATOM     33  N   UNL A   1      42.110  29.461  32.795  1.00  0.00    -0.248 NA
ATOM     34  C   UNL A   1      43.290  27.849  31.585  1.00  0.00     0.031 C 
ATOM     35  C   UNL A   1      39.367  30.008  29.307  1.00  0.00     0.029 A 
ATOM     36  N   UNL A   1      39.848  30.688  31.384  1.00  0.00    -0.354 N 
ATOM     37  C   UNL A   1      43.167  28.993  33.566  1.00  0.00     0.074 A 
ATOM     38  C   UNL A   1      43.848  27.986  32.781  1.00  0.00     0.031 C 
ATOM     39  C   UNL A   1      38.498  30.982  29.625  1.00  0.00     0.029 A 
ATOM     40  C   UNL A   1      38.763  31.433  30.990  1.00  0.00     0.049 A 
ATOM     41  H   UNL A   1      40.280  30.788  32.263  1.00  0.00     0.167 HD
ATOM     42  C   UNL A   1      43.536  29.369  34.814  1.00  0.00     0.031 A 
ATOM     43  C   UNL A   1      38.055  32.366  31.657  1.00  0.00     0.031 A 
ATOM     44  C   UNL A   1      42.856  30.368  35.595  1.00  0.00     0.049 A 
ATOM     45  C   UNL A   1      38.452  32.725  33.062  1.00  0.00     0.074 A 
ATOM     46  C   UNL A   1      43.156  30.818  36.869  1.00  0.00     0.029 A 
ATOM     47  N   UNL A   1      41.735  31.070  35.176  1.00  0.00    -0.354 N 
ATOM     48  N   UNL A   1      39.453  32.271  33.777  1.00  0.00    -0.248 NA
ATOM     49  C   UNL A   1      37.621  33.722  33.752  1.00  0.00     0.031 C 
ATOM     50  C   UNL A   1      42.194  31.765  37.237  1.00  0.00     0.029 A 
ATOM     51  C   UNL A   1      41.319  31.935  36.174  1.00  0.00     0.049 A 
ATOM     52  H   UNL A   1      41.300  30.969  34.299  1.00  0.00     0.167 HD
ATOM     53  C   UNL A   1      39.383  32.939  34.994  1.00  0.00     0.074 A 
ATOM     54  C   UNL A   1      38.249  33.837  34.915  1.00  0.00     0.031 C 
ATOM     55  C   UNL A   1      40.185  32.819  36.080  1.00  0.00     0.031 A 
BRANCH  42  56
ATOM     56  C   UNL A   1      44.714  28.663  35.425  1.00  0.00    -0.014 A 
ATOM     57  C   UNL A   1      46.011  29.197  35.332  1.00  0.00     0.010 A 
ATOM     58  C   UNL A   1      44.516  27.458  36.124  1.00  0.00     0.010 A 
ATOM     59  C   UNL A   1      47.097  28.519  35.894  1.00  0.00     0.020 A 
ATOM     60  C   UNL A   1      45.594  26.787  36.704  1.00  0.00     0.020 A 
ATOM     61  C   UNL A   1      46.882  27.313  36.570  1.00  0.00     0.054 A 
BRANCH  61  62
ATOM     62  S   UNL A   1      48.303  26.452  37.299  1.00  0.00     0.124 S 
ATOM     63  O   UNL A   1      49.004  27.544  37.969  1.00  0.00    -0.237 OA
ATOM     64  O   UNL A   1      47.671  25.476  38.184  1.00  0.00    -0.237 OA
ATOM     65  O   UNL A   1      48.994  25.884  36.145  1.00  0.00    -0.744 OA
ENDBRANCH  61  62
ENDBRANCH  42  56
BRANCH  43  66
ATOM     66  C   UNL A   1      36.881  33.009  31.008  1.00  0.00    -0.014 A 
ATOM     67  C   UNL A   1      35.575  32.716  31.436  1.00  0.00     0.010 A 
ATOM     68  C   UNL A   1      37.068  33.927  29.958  1.00  0.00     0.010 A 
ATOM     69  C   UNL A   1      34.477  33.320  30.817  1.00  0.00     0.020 A 
ATOM     70  C   UNL A   1      35.974  34.549  29.353  1.00  0.00     0.020 A 
ATOM     71  C   UNL A   1      34.682  34.234  29.779  1.00  0.00     0.054 A 
BRANCH  71  72
ATOM     72  S   UNL A   1      33.249  35.050  29.024  1.00  0.00     0.124 S 
ATOM     73  O   UNL A   1      32.372  35.247  30.174  1.00  0.00    -0.237 OA
ATOM     74  O   UNL A   1      33.832  36.263  28.458  1.00  0.00    -0.237 OA
ATOM     75  O   UNL A   1      32.783  34.075  28.040  1.00  0.00    -0.744 OA
ENDBRANCH  71  72
ENDBRANCH  43  66
BRANCH  55  76
ATOM     76  C   UNL A   1      39.877  33.694  37.264  1.00  0.00    -0.014 A 
ATOM     77  C   UNL A   1      40.340  35.020  37.324  1.00  0.00     0.010 A 
ATOM     78  C   UNL A   1      39.071  33.198  38.305  1.00  0.00     0.010 A 
ATOM     79  C   UNL A   1      40.023  35.828  38.420  1.00  0.00     0.020 A 
ATOM     80  C   UNL A   1      38.736  34.010  39.391  1.00  0.00     0.020 A 
ATOM     81  C   UNL A   1      39.226  35.316  39.448  1.00  0.00     0.054 A 
BRANCH  81  82
ATOM     82  S   UNL A   1      38.787  36.397  40.839  1.00  0.00     0.124 S 
ATOM     83  O   UNL A   1      40.077  36.581  41.497  1.00  0.00    -0.237 OA
ATOM     84  O   UNL A   1      38.247  37.580  40.173  1.00  0.00    -0.237 OA
ATOM     85  O   UNL A   1      37.809  35.612  41.588  1.00  0.00    -0.744 OA
ENDBRANCH  81  82
ENDBRANCH  55  76
ENDBRANCH  29  30
ENDBRANCH  22  24
ENDBRANCH  21  22
ENDBRANCH   1  21
TORSDOF 16
ENDMDL
