MODEL 1
REMARK VINA RESULT:     -10.2      0.000      0.000
REMARK SMILES C=C(C)COc1cc(/C=C/c2cc(C(=O)OCCOC(=O)c3ccc(-c4c5nc(c(-c6ccc(S(=O)(=O)[O-])cc6)c6ccc([nH]6)c(-c6ccc(S(=O)(=O)[O-])cc6)c6nc(c(-c7ccc(S(=O)(=O)[O-])cc7)c7ccc4[nH]7)C=C6)C=C5)cc3)ncn2)ccc1OC
REMARK SMILES IDX 17 1 16 2 14 3 15 4 13 5 11 6 12 7 84 8 83 9 82 10 10 11
REMARK SMILES IDX 9 12 8 13 6 14 7 15 87 16 86 17 85 18 5 19 4 20 2 21 1 22
REMARK SMILES IDX 3 23 88 24 89 25 18 26 19 27 20 28 21 29 22 30 23 31 81 32
REMARK SMILES IDX 24 33 80 34 25 35 26 36 27 37 74 38 28 39 79 40 73 41 75 42
REMARK SMILES IDX 29 43 78 44 72 45 71 46 30 48 60 49 41 50 59 51 42 52 45 53
REMARK SMILES IDX 58 54 76 55 43 56 44 57 57 59 77 60 46 61 31 62 32 63 40 64
REMARK SMILES IDX 33 65 39 66 34 67 35 68 36 69 37 70 38 71 61 72 62 73 70 74
REMARK SMILES IDX 63 75 69 76 64 77 65 78 66 79 67 80 68 81 47 82 48 83 56 84
REMARK SMILES IDX 49 85 55 86 50 87 51 88 52 89 53 90 54 91
REMARK H PARENT 75 47 45 58
REMARK Flexibility Score: inf
ROOT
ATOM      1  C   UNL A   1      45.696  24.083  25.158  1.00  0.00     0.275 C 
ENDROOT
BRANCH   1   2
ATOM      2  O   UNL A   1      44.773  23.057  24.738  1.00  0.00    -0.457 OA
BRANCH   2   3
ATOM      3  C   UNL A   1      44.981  21.817  25.262  1.00  0.00     0.357 C 
ATOM      4  O   UNL A   1      46.074  21.309  25.460  1.00  0.00    -0.244 OA
BRANCH   3   5
ATOM      5  C   UNL A   1      43.681  21.177  25.642  1.00  0.00     0.152 A 
ATOM      6  C   UNL A   1      41.436  21.223  26.247  1.00  0.00     0.067 A 
ATOM      7  C   UNL A   1      42.596  21.932  26.003  1.00  0.00     0.064 A 
ATOM      8  N   UNL A   1      41.357  19.884  26.243  1.00  0.00    -0.237 NA
ATOM      9  C   UNL A   1      42.485  19.245  25.911  1.00  0.00     0.223 A 
ATOM     10  N   UNL A   1      43.636  19.827  25.560  1.00  0.00    -0.229 NA
BRANCH   6  11
ATOM     11  C   UNL A   1      40.176  21.958  26.360  1.00  0.00     0.029 C 
ATOM     12  C   UNL A   1      39.098  21.381  25.805  1.00  0.00     0.010 C 
BRANCH  12  13
ATOM     13  C   UNL A   1      37.807  21.995  25.487  1.00  0.00    -0.022 A 
ATOM     14  C   UNL A   1      35.456  21.961  24.864  1.00  0.00     0.162 A 
ATOM     15  C   UNL A   1      36.703  21.318  24.957  1.00  0.00     0.058 A 
ATOM     16  C   UNL A   1      35.300  23.278  25.316  1.00  0.00     0.160 A 
ATOM     17  C   UNL A   1      36.425  23.968  25.771  1.00  0.00     0.051 A 
ATOM     18  C   UNL A   1      37.662  23.337  25.855  1.00  0.00     0.012 A 
BRANCH  14  19
ATOM     19  O   UNL A   1      34.394  21.206  24.445  1.00  0.00    -0.485 OA
BRANCH  19  20
ATOM     20  C   UNL A   1      34.401  19.884  25.002  1.00  0.00     0.260 C 
BRANCH  20  21
ATOM     21  C   UNL A   1      33.382  19.054  24.246  1.00  0.00    -0.043 C 
ATOM     22  C   UNL A   1      32.440  19.614  23.463  1.00  0.00     0.011 C 
ATOM     23  C   UNL A   1      33.538  17.562  24.315  1.00  0.00     0.042 C 
ENDBRANCH  20  21
ENDBRANCH  19  20
ENDBRANCH  14  19
BRANCH  16  24
ATOM     24  O   UNL A   1      34.173  24.045  25.395  1.00  0.00    -0.493 OA
ATOM     25  C   UNL A   1      34.229  25.391  24.961  1.00  0.00     0.278 C 
ENDBRANCH  16  24
ENDBRANCH  12  13
ENDBRANCH   6  11
ENDBRANCH   3   5
ENDBRANCH   2   3
ENDBRANCH   1   2
BRANCH   1  26
ATOM     26  C   UNL A   1      44.983  25.422  25.380  1.00  0.00     0.275 C 
BRANCH  26  27
ATOM     27  O   UNL A   1      43.607  25.248  25.758  1.00  0.00    -0.458 OA
BRANCH  27  28
ATOM     28  C   UNL A   1      42.845  26.365  25.676  1.00  0.00     0.338 C 
ATOM     29  O   UNL A   1      42.268  26.790  24.690  1.00  0.00    -0.246 OA
BRANCH  28  30
ATOM     30  C   UNL A   1      42.700  26.963  27.011  1.00  0.00     0.060 A 
ATOM     31  C   UNL A   1      41.877  26.316  27.932  1.00  0.00     0.016 A 
ATOM     32  C   UNL A   1      43.278  28.191  27.324  1.00  0.00     0.016 A 
ATOM     33  C   UNL A   1      41.582  26.905  29.154  1.00  0.00     0.010 A 
ATOM     34  C   UNL A   1      43.010  28.770  28.569  1.00  0.00     0.010 A 
ATOM     35  C   UNL A   1      42.143  28.139  29.484  1.00  0.00    -0.014 A 
BRANCH  35  36
ATOM     36  C   UNL A   1      41.780  28.804  30.757  1.00  0.00     0.031 A 
ATOM     37  C   UNL A   1      40.586  29.715  30.796  1.00  0.00     0.074 A 
ATOM     38  C   UNL A   1      42.505  28.583  31.870  1.00  0.00     0.049 A 
ATOM     39  N   UNL A   1      40.208  30.540  31.736  1.00  0.00    -0.248 NA
ATOM     40  C   UNL A   1      39.706  29.698  29.616  1.00  0.00     0.031 C 
ATOM     41  C   UNL A   1      43.627  27.646  31.983  1.00  0.00     0.029 A 
ATOM     42  N   UNL A   1      42.409  29.136  33.122  1.00  0.00    -0.354 N 
ATOM     43  C   UNL A   1      39.068  31.169  31.247  1.00  0.00     0.074 A 
ATOM     44  C   UNL A   1      38.821  30.636  29.925  1.00  0.00     0.031 C 
ATOM     45  C   UNL A   1      44.111  27.691  33.234  1.00  0.00     0.029 A 
ATOM     46  C   UNL A   1      43.387  28.708  33.988  1.00  0.00     0.049 A 
ATOM     47  H   UNL A   1      41.706  29.778  33.375  1.00  0.00     0.167 HD
ATOM     48  C   UNL A   1      38.302  32.109  31.851  1.00  0.00     0.031 A 
ATOM     49  C   UNL A   1      43.695  29.125  35.232  1.00  0.00     0.031 A 
ATOM     50  C   UNL A   1      38.557  32.622  33.169  1.00  0.00     0.049 A 
ATOM     51  C   UNL A   1      42.886  30.235  35.846  1.00  0.00     0.074 A 
ATOM     52  C   UNL A   1      37.866  33.598  33.865  1.00  0.00     0.029 A 
ATOM     53  N   UNL A   1      39.580  32.187  34.001  1.00  0.00    -0.354 N 
ATOM     54  N   UNL A   1      41.852  30.873  35.349  1.00  0.00    -0.248 NA
ATOM     55  C   UNL A   1      43.290  30.691  37.183  1.00  0.00     0.031 C 
ATOM     56  C   UNL A   1      38.494  33.780  35.101  1.00  0.00     0.029 A 
ATOM     57  C   UNL A   1      39.541  32.877  35.198  1.00  0.00     0.049 A 
ATOM     58  H   UNL A   1      40.236  31.489  33.771  1.00  0.00     0.167 HD
ATOM     59  C   UNL A   1      41.459  31.777  36.328  1.00  0.00     0.074 A 
ATOM     60  C   UNL A   1      42.365  31.605  37.445  1.00  0.00     0.031 C 
ATOM     61  C   UNL A   1      40.438  32.669  36.306  1.00  0.00     0.031 A 
BRANCH  48  62
ATOM     62  C   UNL A   1      37.145  32.672  31.070  1.00  0.00    -0.014 A 
ATOM     63  C   UNL A   1      35.827  32.235  31.296  1.00  0.00     0.010 A 
ATOM     64  C   UNL A   1      37.377  33.680  30.116  1.00  0.00     0.010 A 
ATOM     65  C   UNL A   1      34.768  32.770  30.557  1.00  0.00     0.020 A 
ATOM     66  C   UNL A   1      36.318  34.236  29.393  1.00  0.00     0.020 A 
ATOM     67  C   UNL A   1      35.021  33.764  29.607  1.00  0.00     0.054 A 
BRANCH  67  68
ATOM     68  S   UNL A   1      33.626  34.454  28.675  1.00  0.00     0.124 S 
ATOM     69  O   UNL A   1      34.250  35.587  27.995  1.00  0.00    -0.237 OA
ATOM     70  O   UNL A   1      33.234  33.343  27.812  1.00  0.00    -0.237 OA
ATOM     71  O   UNL A   1      32.658  34.808  29.709  1.00  0.00    -0.744 OA
ENDBRANCH  67  68
ENDBRANCH  48  62
BRANCH  49  72
ATOM     72  C   UNL A   1      44.846  28.524  35.960  1.00  0.00    -0.014 A 
ATOM     73  C   UNL A   1      46.149  29.018  35.772  1.00  0.00     0.010 A 
ATOM     74  C   UNL A   1      44.646  27.446  36.842  1.00  0.00     0.010 A 
ATOM     75  C   UNL A   1      47.232  28.430  36.432  1.00  0.00     0.020 A 
ATOM     76  C   UNL A   1      45.722  26.874  37.528  1.00  0.00     0.020 A 
ATOM     77  C   UNL A   1      47.011  27.359  37.304  1.00  0.00     0.054 A 
BRANCH  77  78
ATOM     78  S   UNL A   1      48.428  26.629  38.172  1.00  0.00     0.124 S 
ATOM     79  O   UNL A   1      48.885  27.744  38.996  1.00  0.00    -0.237 OA
ATOM     80  O   UNL A   1      47.818  25.515  38.895  1.00  0.00    -0.237 OA
ATOM     81  O   UNL A   1      49.328  26.240  37.089  1.00  0.00    -0.744 OA
ENDBRANCH  77  78
ENDBRANCH  49  72
BRANCH  61  82
ATOM     82  C   UNL A   1      40.195  33.478  37.550  1.00  0.00    -0.014 A 
ATOM     83  C   UNL A   1      39.342  33.017  38.568  1.00  0.00     0.010 A 
ATOM     84  C   UNL A   1      40.904  34.679  37.735  1.00  0.00     0.010 A 
ATOM     85  C   UNL A   1      39.192  33.756  39.745  1.00  0.00     0.020 A 
ATOM     86  C   UNL A   1      40.775  35.406  38.919  1.00  0.00     0.020 A 
ATOM     87  C   UNL A   1      39.913  34.942  39.915  1.00  0.00     0.054 A 
BRANCH  87  88
ATOM     88  S   UNL A   1      39.760  35.842  41.483  1.00  0.00     0.124 S 
ATOM     89  O   UNL A   1      38.319  36.058  41.570  1.00  0.00    -0.237 OA
ATOM     90  O   UNL A   1      40.313  34.898  42.450  1.00  0.00    -0.237 OA
ATOM     91  O   UNL A   1      40.560  37.046  41.271  1.00  0.00    -0.744 OA
ENDBRANCH  87  88
ENDBRANCH  61  82
ENDBRANCH  35  36
ENDBRANCH  28  30
ENDBRANCH  27  28
ENDBRANCH  26  27
ENDBRANCH   1  26
TORSDOF 20
ENDMDL
MODEL 2
REMARK VINA RESULT:     -10.0      4.457     12.744
REMARK SMILES C=C(C)COc1cc(/C=C/c2cc(C(=O)OCCOC(=O)c3ccc(-c4c5nc(c(-c6ccc(S(=O)(=O)[O-])cc6)c6ccc([nH]6)c(-c6ccc(S(=O)(=O)[O-])cc6)c6nc(c(-c7ccc(S(=O)(=O)[O-])cc7)c7ccc4[nH]7)C=C6)C=C5)cc3)ncn2)ccc1OC
REMARK SMILES IDX 17 1 16 2 14 3 15 4 13 5 11 6 12 7 84 8 83 9 82 10 10 11
REMARK SMILES IDX 9 12 8 13 6 14 7 15 87 16 86 17 85 18 5 19 4 20 2 21 1 22
REMARK SMILES IDX 3 23 88 24 89 25 18 26 19 27 20 28 21 29 22 30 23 31 81 32
REMARK SMILES IDX 24 33 80 34 25 35 26 36 27 37 74 38 28 39 79 40 73 41 75 42
REMARK SMILES IDX 29 43 78 44 72 45 71 46 30 48 60 49 41 50 59 51 42 52 45 53
REMARK SMILES IDX 58 54 76 55 43 56 44 57 57 59 77 60 46 61 31 62 32 63 40 64
REMARK SMILES IDX 33 65 39 66 34 67 35 68 36 69 37 70 38 71 61 72 62 73 70 74
REMARK SMILES IDX 63 75 69 76 64 77 65 78 66 79 67 80 68 81 47 82 48 83 56 84
REMARK SMILES IDX 49 85 55 86 50 87 51 88 52 89 53 90 54 91
REMARK H PARENT 75 47 45 58
REMARK Flexibility Score: inf
ROOT
ATOM      1  C   UNL A   1      33.510  33.750  27.847  1.00  0.00     0.275 C 
ENDROOT
BRANCH   1   2
ATOM      2  O   UNL A   1      34.104  34.832  28.593  1.00  0.00    -0.457 OA
BRANCH   2   3
ATOM      3  C   UNL A   1      33.300  35.432  29.515  1.00  0.00     0.357 C 
ATOM      4  O   UNL A   1      32.271  36.041  29.263  1.00  0.00    -0.244 OA
BRANCH   3   5
ATOM      5  C   UNL A   1      33.805  35.183  30.903  1.00  0.00     0.152 A 
ATOM      6  C   UNL A   1      34.985  33.976  32.503  1.00  0.00     0.067 A 
ATOM      7  C   UNL A   1      34.503  34.044  31.210  1.00  0.00     0.064 A 
ATOM      8  N   UNL A   1      34.725  34.888  33.453  1.00  0.00    -0.237 NA
ATOM      9  C   UNL A   1      34.005  35.942  33.052  1.00  0.00     0.223 A 
ATOM     10  N   UNL A   1      33.571  36.162  31.806  1.00  0.00    -0.229 NA
BRANCH   6  11
ATOM     11  C   UNL A   1      35.967  32.943  32.832  1.00  0.00     0.029 C 
ATOM     12  C   UNL A   1      36.421  32.933  34.095  1.00  0.00     0.010 C 
BRANCH  12  13
ATOM     13  C   UNL A   1      37.601  32.248  34.627  1.00  0.00    -0.022 A 
ATOM     14  C   UNL A   1      39.305  31.794  36.302  1.00  0.00     0.162 A 
ATOM     15  C   UNL A   1      38.302  32.628  35.776  1.00  0.00     0.058 A 
ATOM     16  C   UNL A   1      39.601  30.567  35.692  1.00  0.00     0.160 A 
ATOM     17  C   UNL A   1      38.948  30.235  34.504  1.00  0.00     0.051 A 
ATOM     18  C   UNL A   1      37.963  31.063  33.977  1.00  0.00     0.012 A 
BRANCH  14  19
ATOM     19  O   UNL A   1      39.870  32.169  37.490  1.00  0.00    -0.485 OA
BRANCH  19  20
ATOM     20  C   UNL A   1      40.986  33.055  37.317  1.00  0.00     0.260 C 
BRANCH  20  21
ATOM     21  C   UNL A   1      40.657  34.360  38.015  1.00  0.00    -0.043 C 
ATOM     22  C   UNL A   1      40.755  34.503  39.350  1.00  0.00     0.011 C 
ATOM     23  C   UNL A   1      40.326  35.533  37.137  1.00  0.00     0.042 C 
ENDBRANCH  20  21
ENDBRANCH  19  20
ENDBRANCH  14  19
BRANCH  16  24
ATOM     24  O   UNL A   1      40.464  29.584  36.084  1.00  0.00    -0.493 OA
ATOM     25  C   UNL A   1      41.350  29.030  35.130  1.00  0.00     0.278 C 
ENDBRANCH  16  24
ENDBRANCH  12  13
ENDBRANCH   6  11
ENDBRANCH   3   5
ENDBRANCH   2   3
ENDBRANCH   1   2
BRANCH   1  26
ATOM     26  C   UNL A   1      33.990  32.386  28.358  1.00  0.00     0.275 C 
BRANCH  26  27
ATOM     27  O   UNL A   1      34.356  31.503  27.283  1.00  0.00    -0.458 OA
BRANCH  27  28
ATOM     28  C   UNL A   1      34.504  30.204  27.636  1.00  0.00     0.338 C 
ATOM     29  O   UNL A   1      33.708  29.297  27.454  1.00  0.00    -0.246 OA
BRANCH  28  30
ATOM     30  C   UNL A   1      35.851  29.991  28.184  1.00  0.00     0.060 A 
ATOM     31  C   UNL A   1      36.938  30.135  27.323  1.00  0.00     0.016 A 
ATOM     32  C   UNL A   1      36.043  29.558  29.494  1.00  0.00     0.016 A 
ATOM     33  C   UNL A   1      38.221  29.805  27.740  1.00  0.00     0.010 A 
ATOM     34  C   UNL A   1      37.339  29.258  29.927  1.00  0.00     0.010 A 
ATOM     35  C   UNL A   1      38.434  29.360  29.046  1.00  0.00    -0.014 A 
BRANCH  35  36
ATOM     36  C   UNL A   1      39.788  28.943  29.476  1.00  0.00     0.031 A 
ATOM     37  C   UNL A   1      40.627  29.892  30.285  1.00  0.00     0.074 A 
ATOM     38  C   UNL A   1      40.257  27.722  29.157  1.00  0.00     0.049 A 
ATOM     39  N   UNL A   1      41.893  29.814  30.597  1.00  0.00    -0.248 NA
ATOM     40  C   UNL A   1      39.948  31.090  30.807  1.00  0.00     0.031 C 
ATOM     41  C   UNL A   1      39.503  26.677  28.459  1.00  0.00     0.029 A 
ATOM     42  N   UNL A   1      41.487  27.154  29.374  1.00  0.00    -0.354 N 
ATOM     43  C   UNL A   1      42.174  30.968  31.318  1.00  0.00     0.074 A 
ATOM     44  C   UNL A   1      40.949  31.734  31.391  1.00  0.00     0.031 C 
ATOM     45  C   UNL A   1      40.286  25.597  28.308  1.00  0.00     0.029 A 
ATOM     46  C   UNL A   1      41.615  25.898  28.829  1.00  0.00     0.049 A 
ATOM     47  H   UNL A   1      42.207  27.602  29.872  1.00  0.00     0.167 HD
ATOM     48  C   UNL A   1      43.353  31.352  31.865  1.00  0.00     0.031 A 
ATOM     49  C   UNL A   1      42.695  25.101  28.718  1.00  0.00     0.031 A 
ATOM     50  C   UNL A   1      44.560  30.575  31.790  1.00  0.00     0.049 A 
ATOM     51  C   UNL A   1      44.014  25.589  29.252  1.00  0.00     0.074 A 
ATOM     52  C   UNL A   1      45.817  30.882  32.279  1.00  0.00     0.029 A 
ATOM     53  N   UNL A   1      44.656  29.323  31.198  1.00  0.00    -0.354 N 
ATOM     54  N   UNL A   1      44.288  26.713  29.872  1.00  0.00    -0.248 NA
ATOM     55  C   UNL A   1      45.175  24.707  29.064  1.00  0.00     0.031 C 
ATOM     56  C   UNL A   1      46.682  29.834  31.949  1.00  0.00     0.029 A 
ATOM     57  C   UNL A   1      45.951  28.848  31.305  1.00  0.00     0.049 A 
ATOM     58  H   UNL A   1      43.912  28.844  30.765  1.00  0.00     0.167 HD
ATOM     59  C   UNL A   1      45.641  26.657  30.180  1.00  0.00     0.074 A 
ATOM     60  C   UNL A   1      46.132  25.389  29.680  1.00  0.00     0.031 C 
ATOM     61  C   UNL A   1      46.409  27.570  30.822  1.00  0.00     0.031 A 
BRANCH  48  62
ATOM     62  C   UNL A   1      43.400  32.690  32.551  1.00  0.00    -0.014 A 
ATOM     63  C   UNL A   1      43.592  33.880  31.826  1.00  0.00     0.010 A 
ATOM     64  C   UNL A   1      43.214  32.762  33.945  1.00  0.00     0.010 A 
ATOM     65  C   UNL A   1      43.635  35.112  32.485  1.00  0.00     0.020 A 
ATOM     66  C   UNL A   1      43.230  33.995  34.604  1.00  0.00     0.020 A 
ATOM     67  C   UNL A   1      43.458  35.161  33.870  1.00  0.00     0.054 A 
BRANCH  67  68
ATOM     68  S   UNL A   1      43.499  36.774  34.698  1.00  0.00     0.124 S 
ATOM     69  O   UNL A   1      44.732  37.353  34.168  1.00  0.00    -0.237 OA
ATOM     70  O   UNL A   1      42.263  37.403  34.241  1.00  0.00    -0.237 OA
ATOM     71  O   UNL A   1      43.535  36.436  36.119  1.00  0.00    -0.744 OA
ENDBRANCH  67  68
ENDBRANCH  48  62
BRANCH  49  72
ATOM     72  C   UNL A   1      42.587  23.782  28.036  1.00  0.00    -0.014 A 
ATOM     73  C   UNL A   1      42.102  22.657  28.725  1.00  0.00     0.010 A 
ATOM     74  C   UNL A   1      42.979  23.641  26.691  1.00  0.00     0.010 A 
ATOM     75  C   UNL A   1      42.033  21.413  28.090  1.00  0.00     0.020 A 
ATOM     76  C   UNL A   1      42.883  22.406  26.044  1.00  0.00     0.020 A 
ATOM     77  C   UNL A   1      42.427  21.295  26.754  1.00  0.00     0.054 A 
BRANCH  77  78
ATOM     78  S   UNL A   1      42.303  19.677  25.942  1.00  0.00     0.124 S 
ATOM     79  O   UNL A   1      42.813  18.781  26.976  1.00  0.00    -0.237 OA
ATOM     80  O   UNL A   1      40.873  19.571  25.661  1.00  0.00    -0.237 OA
ATOM     81  O   UNL A   1      43.154  19.821  24.762  1.00  0.00    -0.744 OA
ENDBRANCH  77  78
ENDBRANCH  49  72
BRANCH  61  82
ATOM     82  C   UNL A   1      47.844  27.208  31.090  1.00  0.00    -0.014 A 
ATOM     83  C   UNL A   1      48.867  27.556  30.191  1.00  0.00     0.010 A 
ATOM     84  C   UNL A   1      48.176  26.584  32.306  1.00  0.00     0.010 A 
ATOM     85  C   UNL A   1      50.200  27.270  30.501  1.00  0.00     0.020 A 
ATOM     86  C   UNL A   1      49.508  26.320  32.629  1.00  0.00     0.020 A 
ATOM     87  C   UNL A   1      50.512  26.659  31.720  1.00  0.00     0.054 A 
BRANCH  87  88
ATOM     88  S   UNL A   1      52.254  26.369  32.132  1.00  0.00     0.124 S 
ATOM     89  O   UNL A   1      52.940  27.254  31.195  1.00  0.00    -0.237 OA
ATOM     90  O   UNL A   1      52.323  26.767  33.536  1.00  0.00    -0.237 OA
ATOM     91  O   UNL A   1      52.435  24.940  31.887  1.00  0.00    -0.744 OA
ENDBRANCH  87  88
ENDBRANCH  61  82
ENDBRANCH  35  36
ENDBRANCH  28  30
ENDBRANCH  27  28
ENDBRANCH  26  27
ENDBRANCH   1  26
TORSDOF 20
ENDMDL
MODEL 3
REMARK VINA RESULT:      -9.9      4.303     11.686
REMARK SMILES C=C(C)COc1cc(/C=C/c2cc(C(=O)OCCOC(=O)c3ccc(-c4c5nc(c(-c6ccc(S(=O)(=O)[O-])cc6)c6ccc([nH]6)c(-c6ccc(S(=O)(=O)[O-])cc6)c6nc(c(-c7ccc(S(=O)(=O)[O-])cc7)c7ccc4[nH]7)C=C6)C=C5)cc3)ncn2)ccc1OC
REMARK SMILES IDX 17 1 16 2 14 3 15 4 13 5 11 6 12 7 84 8 83 9 82 10 10 11
REMARK SMILES IDX 9 12 8 13 6 14 7 15 87 16 86 17 85 18 5 19 4 20 2 21 1 22
REMARK SMILES IDX 3 23 88 24 89 25 18 26 19 27 20 28 21 29 22 30 23 31 81 32
REMARK SMILES IDX 24 33 80 34 25 35 26 36 27 37 74 38 28 39 79 40 73 41 75 42
REMARK SMILES IDX 29 43 78 44 72 45 71 46 30 48 60 49 41 50 59 51 42 52 45 53
REMARK SMILES IDX 58 54 76 55 43 56 44 57 57 59 77 60 46 61 31 62 32 63 40 64
REMARK SMILES IDX 33 65 39 66 34 67 35 68 36 69 37 70 38 71 61 72 62 73 70 74
REMARK SMILES IDX 63 75 69 76 64 77 65 78 66 79 67 80 68 81 47 82 48 83 56 84
REMARK SMILES IDX 49 85 55 86 50 87 51 88 52 89 53 90 54 91
REMARK H PARENT 75 47 45 58
REMARK Flexibility Score: inf
ROOT
ATOM      1  C   UNL A   1      34.127  34.097  29.215  1.00  0.00     0.275 C 
ENDROOT
BRANCH   1   2
ATOM      2  O   UNL A   1      35.286  33.779  30.011  1.00  0.00    -0.457 OA
BRANCH   2   3
ATOM      3  C   UNL A   1      35.050  33.496  31.322  1.00  0.00     0.357 C 
ATOM      4  O   UNL A   1      34.018  33.015  31.765  1.00  0.00    -0.244 OA
BRANCH   3   5
ATOM      5  C   UNL A   1      36.261  33.783  32.155  1.00  0.00     0.152 A 
ATOM      6  C   UNL A   1      38.523  34.235  32.452  1.00  0.00     0.067 A 
ATOM      7  C   UNL A   1      37.504  33.883  31.588  1.00  0.00     0.064 A 
ATOM      8  N   UNL A   1      38.370  34.378  33.777  1.00  0.00    -0.237 NA
ATOM      9  C   UNL A   1      37.120  34.224  34.229  1.00  0.00     0.223 A 
ATOM     10  N   UNL A   1      36.043  33.982  33.475  1.00  0.00    -0.229 NA
BRANCH   6  11
ATOM     11  C   UNL A   1      39.813  34.636  31.889  1.00  0.00     0.029 C 
ATOM     12  C   UNL A   1      40.239  33.940  30.823  1.00  0.00     0.010 C 
BRANCH  12  13
ATOM     13  C   UNL A   1      41.587  33.896  30.252  1.00  0.00    -0.022 A 
ATOM     14  C   UNL A   1      43.453  32.830  29.114  1.00  0.00     0.162 A 
ATOM     15  C   UNL A   1      42.238  32.738  29.816  1.00  0.00     0.058 A 
ATOM     16  C   UNL A   1      44.016  34.081  28.829  1.00  0.00     0.160 A 
ATOM     17  C   UNL A   1      43.397  35.225  29.335  1.00  0.00     0.051 A 
ATOM     18  C   UNL A   1      42.200  35.136  30.037  1.00  0.00     0.012 A 
BRANCH  14  19
ATOM     19  O   UNL A   1      43.978  31.667  28.617  1.00  0.00    -0.485 OA
BRANCH  19  20
ATOM     20  C   UNL A   1      43.080  30.555  28.747  1.00  0.00     0.260 C 
BRANCH  20  21
ATOM     21  C   UNL A   1      43.432  29.544  27.674  1.00  0.00    -0.043 C 
ATOM     22  C   UNL A   1      42.596  29.254  26.660  1.00  0.00     0.011 C 
ATOM     23  C   UNL A   1      44.814  28.957  27.724  1.00  0.00     0.042 C 
ENDBRANCH  20  21
ENDBRANCH  19  20
ENDBRANCH  14  19
BRANCH  16  24
ATOM     24  O   UNL A   1      45.126  34.392  28.096  1.00  0.00    -0.493 OA
ATOM     25  C   UNL A   1      45.415  35.752  27.834  1.00  0.00     0.278 C 
ENDBRANCH  16  24
ENDBRANCH  12  13
ENDBRANCH   6  11
ENDBRANCH   3   5
ENDBRANCH   2   3
ENDBRANCH   1   2
BRANCH   1  26
ATOM     26  C   UNL A   1      33.967  33.124  28.041  1.00  0.00     0.275 C 
BRANCH  26  27
ATOM     27  O   UNL A   1      35.202  32.463  27.713  1.00  0.00    -0.458 OA
BRANCH  27  28
ATOM     28  C   UNL A   1      35.186  31.117  27.856  1.00  0.00     0.338 C 
ATOM     29  O   UNL A   1      34.413  30.331  27.334  1.00  0.00    -0.246 OA
BRANCH  28  30
ATOM     30  C   UNL A   1      36.339  30.692  28.663  1.00  0.00     0.060 A 
ATOM     31  C   UNL A   1      37.534  31.396  28.518  1.00  0.00     0.016 A 
ATOM     32  C   UNL A   1      36.283  29.559  29.471  1.00  0.00     0.016 A 
ATOM     33  C   UNL A   1      38.696  30.955  29.138  1.00  0.00     0.010 A 
ATOM     34  C   UNL A   1      37.444  29.133  30.124  1.00  0.00     0.010 A 
ATOM     35  C   UNL A   1      38.663  29.817  29.945  1.00  0.00    -0.014 A 
BRANCH  35  36
ATOM     36  C   UNL A   1      39.912  29.304  30.555  1.00  0.00     0.031 A 
ATOM     37  C   UNL A   1      40.435  29.945  31.809  1.00  0.00     0.074 A 
ATOM     38  C   UNL A   1      40.562  28.265  29.998  1.00  0.00     0.049 A 
ATOM     39  N   UNL A   1      41.593  29.790  32.394  1.00  0.00    -0.248 NA
ATOM     40  C   UNL A   1      39.536  30.892  32.489  1.00  0.00     0.031 C 
ATOM     41  C   UNL A   1      40.104  27.497  28.837  1.00  0.00     0.029 A 
ATOM     42  N   UNL A   1      41.756  27.677  30.333  1.00  0.00    -0.354 N 
ATOM     43  C   UNL A   1      41.578  30.645  33.490  1.00  0.00     0.074 A 
ATOM     44  C   UNL A   1      40.300  31.323  33.483  1.00  0.00     0.031 C 
ATOM     45  C   UNL A   1      41.004  26.541  28.559  1.00  0.00     0.029 A 
ATOM     46  C   UNL A   1      42.135  26.675  29.471  1.00  0.00     0.049 A 
ATOM     47  H   UNL A   1      42.290  27.948  31.115  1.00  0.00     0.167 HD
ATOM     48  C   UNL A   1      42.549  30.846  34.413  1.00  0.00     0.031 A 
ATOM     49  C   UNL A   1      43.285  25.977  29.396  1.00  0.00     0.031 A 
ATOM     50  C   UNL A   1      43.811  30.157  34.409  1.00  0.00     0.049 A 
ATOM     51  C   UNL A   1      44.385  26.283  30.377  1.00  0.00     0.074 A 
ATOM     52  C   UNL A   1      44.879  30.307  35.276  1.00  0.00     0.029 A 
ATOM     53  N   UNL A   1      44.170  29.174  33.498  1.00  0.00    -0.354 N 
ATOM     54  N   UNL A   1      44.389  27.144  31.368  1.00  0.00    -0.248 NA
ATOM     55  C   UNL A   1      45.639  25.533  30.225  1.00  0.00     0.031 C 
ATOM     56  C   UNL A   1      45.897  29.441  34.866  1.00  0.00     0.029 A 
ATOM     57  C   UNL A   1      45.442  28.712  33.778  1.00  0.00     0.049 A 
ATOM     58  H   UNL A   1      43.601  28.853  32.761  1.00  0.00     0.167 HD
ATOM     59  C   UNL A   1      45.629  27.011  31.979  1.00  0.00     0.074 A 
ATOM     60  C   UNL A   1      46.349  25.988  31.248  1.00  0.00     0.031 C 
ATOM     61  C   UNL A   1      46.128  27.673  33.052  1.00  0.00     0.031 A 
BRANCH  48  62
ATOM     62  C   UNL A   1      42.297  31.883  35.474  1.00  0.00    -0.014 A 
ATOM     63  C   UNL A   1      42.562  33.245  35.246  1.00  0.00     0.010 A 
ATOM     64  C   UNL A   1      41.754  31.490  36.712  1.00  0.00     0.010 A 
ATOM     65  C   UNL A   1      42.323  34.190  36.247  1.00  0.00     0.020 A 
ATOM     66  C   UNL A   1      41.489  32.436  37.707  1.00  0.00     0.020 A 
ATOM     67  C   UNL A   1      41.792  33.779  37.473  1.00  0.00     0.054 A 
BRANCH  67  68
ATOM     68  S   UNL A   1      41.475  35.028  38.749  1.00  0.00     0.124 S 
ATOM     69  O   UNL A   1      41.750  36.270  38.030  1.00  0.00    -0.237 OA
ATOM     70  O   UNL A   1      40.072  34.796  39.086  1.00  0.00    -0.237 OA
ATOM     71  O   UNL A   1      42.429  34.698  39.805  1.00  0.00    -0.744 OA
ENDBRANCH  67  68
ENDBRANCH  48  62
BRANCH  49  72
ATOM     72  C   UNL A   1      43.475  24.957  28.329  1.00  0.00    -0.014 A 
ATOM     73  C   UNL A   1      43.018  23.640  28.509  1.00  0.00     0.010 A 
ATOM     74  C   UNL A   1      44.122  25.296  27.126  1.00  0.00     0.010 A 
ATOM     75  C   UNL A   1      43.228  22.676  27.518  1.00  0.00     0.020 A 
ATOM     76  C   UNL A   1      44.307  24.343  26.120  1.00  0.00     0.020 A 
ATOM     77  C   UNL A   1      43.873  23.034  26.330  1.00  0.00     0.054 A 
BRANCH  77  78
ATOM     78  S   UNL A   1      44.109  21.774  25.045  1.00  0.00     0.124 S 
ATOM     79  O   UNL A   1      45.498  21.378  25.263  1.00  0.00    -0.237 OA
ATOM     80  O   UNL A   1      43.104  20.773  25.393  1.00  0.00    -0.237 OA
ATOM     81  O   UNL A   1      43.852  22.500  23.804  1.00  0.00    -0.744 OA
ENDBRANCH  77  78
ENDBRANCH  49  72
BRANCH  61  82
ATOM     82  C   UNL A   1      47.487  27.267  33.550  1.00  0.00    -0.014 A 
ATOM     83  C   UNL A   1      48.661  27.803  32.994  1.00  0.00     0.010 A 
ATOM     84  C   UNL A   1      47.579  26.397  34.653  1.00  0.00     0.010 A 
ATOM     85  C   UNL A   1      49.908  27.462  33.527  1.00  0.00     0.020 A 
ATOM     86  C   UNL A   1      48.821  26.074  35.201  1.00  0.00     0.020 A 
ATOM     87  C   UNL A   1      49.980  26.604  34.629  1.00  0.00     0.054 A 
BRANCH  87  88
ATOM     88  S   UNL A   1      51.604  26.238  35.349  1.00  0.00     0.124 S 
ATOM     89  O   UNL A   1      51.779  24.830  35.006  1.00  0.00    -0.237 OA
ATOM     90  O   UNL A   1      52.483  27.170  34.647  1.00  0.00    -0.237 OA
ATOM     91  O   UNL A   1      51.423  26.516  36.772  1.00  0.00    -0.744 OA
ENDBRANCH  87  88
ENDBRANCH  61  82
ENDBRANCH  35  36
ENDBRANCH  28  30
ENDBRANCH  27  28
ENDBRANCH  26  27
ENDBRANCH   1  26
TORSDOF 20
ENDMDL
