MODEL 1
REMARK VINA RESULT:      -9.5      0.000      0.000
REMARK SMILES CCC[C@H](C)C(=O)N1CC[C@H](C(=O)OCCOC(=O)c2ccc(-c3c4nc(c(-c5ccc(S(=O)(=O)[O-])cc5)c5ccc([nH]5)c(-c5ccc(S(=O)(=O)[O-])cc5)c5nc(c(-c6ccc(S(=O)(=O)[O-])cc6)c6ccc3[nH]6)C=C5)C=C4)cc2)[C@@H]1C
REMARK SMILES IDX 15 1 14 2 12 3 13 4 11 5 8 6 9 7 80 8 10 9 81 10 6 11 7 12
REMARK SMILES IDX 4 13 5 14 3 15 2 16 1 17 16 18 17 19 18 20 19 21 20 22 21 23
REMARK SMILES IDX 79 24 22 25 78 26 23 27 24 28 25 29 72 30 26 31 77 32 71 33
REMARK SMILES IDX 73 34 27 35 76 36 70 37 69 38 28 40 58 41 39 42 57 43 40 44
REMARK SMILES IDX 43 45 56 46 74 47 41 48 42 49 55 51 75 52 44 53 29 54 30 55
REMARK SMILES IDX 38 56 31 57 37 58 32 59 33 60 34 61 35 62 36 63 59 64 60 65
REMARK SMILES IDX 68 66 61 67 67 68 62 69 63 70 64 71 65 72 66 73 45 74 46 75
REMARK SMILES IDX 54 76 47 77 53 78 48 79 49 80 50 81 51 82 52 83
REMARK H PARENT 73 39 43 50
REMARK Flexibility Score: inf
ROOT
ATOM      1  C   UNL A   1      33.836  30.235  27.443  1.00  0.00     0.274 C 
ENDROOT
BRANCH   1   2
ATOM      2  O   UNL A   1      33.645  28.812  27.534  1.00  0.00    -0.462 OA
BRANCH   2   3
ATOM      3  C   UNL A   1      33.653  28.120  26.363  1.00  0.00     0.311 C 
ATOM      4  O   UNL A   1      34.254  27.071  26.176  1.00  0.00    -0.252 OA
BRANCH   3   5
ATOM      5  C   UNL A   1      32.851  28.859  25.312  1.00  0.00     0.123 C 
ATOM      6  N   UNL A   1      31.516  27.969  23.540  1.00  0.00    -0.339 N 
ATOM      7  C   UNL A   1      32.906  27.788  23.166  1.00  0.00     0.121 C 
ATOM      8  C   UNL A   1      31.450  28.280  24.974  1.00  0.00     0.096 C 
ATOM      9  C   UNL A   1      33.622  28.841  23.989  1.00  0.00     0.039 C 
ATOM     10  C   UNL A   1      31.075  27.030  25.770  1.00  0.00     0.032 C 
BRANCH   6  11
ATOM     11  C   UNL A   1      30.538  27.747  22.595  1.00  0.00     0.225 C 
ATOM     12  O   UNL A   1      30.821  27.089  21.583  1.00  0.00    -0.275 OA
BRANCH  11  13
ATOM     13  C   UNL A   1      29.168  28.446  22.611  1.00  0.00     0.075 C 
ATOM     14  C   UNL A   1      28.047  27.937  23.495  1.00  0.00     0.018 C 
BRANCH  13  15
ATOM     15  C   UNL A   1      29.329  29.979  22.722  1.00  0.00     0.013 C 
BRANCH  15  16
ATOM     16  C   UNL A   1      28.063  30.804  22.472  1.00  0.00    -0.003 C 
ATOM     17  C   UNL A   1      27.615  31.579  23.702  1.00  0.00     0.004 C 
ENDBRANCH  15  16
ENDBRANCH  13  15
ENDBRANCH  11  13
ENDBRANCH   6  11
ENDBRANCH   3   5
ENDBRANCH   2   3
ENDBRANCH   1   2
BRANCH   1  18
ATOM     18  C   UNL A   1      35.096  30.635  28.212  1.00  0.00     0.275 C 
BRANCH  18  19
ATOM     19  O   UNL A   1      36.147  29.671  28.013  1.00  0.00    -0.458 OA
BRANCH  19  20
ATOM     20  C   UNL A   1      36.966  29.486  29.082  1.00  0.00     0.338 C 
ATOM     21  O   UNL A   1      36.616  29.362  30.246  1.00  0.00    -0.246 OA
BRANCH  20  22
ATOM     22  C   UNL A   1      38.371  29.310  28.644  1.00  0.00     0.060 A 
ATOM     23  C   UNL A   1      39.329  29.066  29.636  1.00  0.00     0.016 A 
ATOM     24  C   UNL A   1      38.759  29.346  27.299  1.00  0.00     0.016 A 
ATOM     25  C   UNL A   1      40.657  28.827  29.283  1.00  0.00     0.010 A 
ATOM     26  C   UNL A   1      40.098  29.120  26.950  1.00  0.00     0.010 A 
ATOM     27  C   UNL A   1      41.055  28.848  27.938  1.00  0.00    -0.014 A 
BRANCH  27  28
ATOM     28  C   UNL A   1      42.491  28.660  27.609  1.00  0.00     0.031 A 
ATOM     29  C   UNL A   1      43.447  29.793  27.849  1.00  0.00     0.074 A 
ATOM     30  C   UNL A   1      42.955  27.473  27.171  1.00  0.00     0.049 A 
ATOM     31  N   UNL A   1      44.750  29.810  27.742  1.00  0.00    -0.248 NA
ATOM     32  C   UNL A   1      42.858  31.072  28.279  1.00  0.00     0.031 C 
ATOM     33  C   UNL A   1      42.142  26.281  26.937  1.00  0.00     0.029 A 
ATOM     34  N   UNL A   1      44.232  27.066  26.870  1.00  0.00    -0.354 N 
ATOM     35  C   UNL A   1      45.139  31.093  28.103  1.00  0.00     0.074 A 
ATOM     36  C   UNL A   1      43.937  31.826  28.435  1.00  0.00     0.031 C 
ATOM     37  C   UNL A   1      42.941  25.268  26.560  1.00  0.00     0.029 A 
ATOM     38  C   UNL A   1      44.318  25.750  26.474  1.00  0.00     0.049 A 
ATOM     39  H   UNL A   1      45.015  27.659  26.931  1.00  0.00     0.167 HD
ATOM     40  C   UNL A   1      46.384  31.623  28.134  1.00  0.00     0.031 A 
ATOM     41  C   UNL A   1      45.378  25.022  26.066  1.00  0.00     0.031 A 
ATOM     42  C   UNL A   1      47.572  30.930  27.718  1.00  0.00     0.049 A 
ATOM     43  C   UNL A   1      46.738  25.674  26.010  1.00  0.00     0.074 A 
ATOM     44  C   UNL A   1      48.869  31.410  27.666  1.00  0.00     0.029 A 
ATOM     45  N   UNL A   1      47.606  29.627  27.251  1.00  0.00    -0.354 N 
ATOM     46  N   UNL A   1      47.092  26.878  26.392  1.00  0.00    -0.248 NA
ATOM     47  C   UNL A   1      47.839  24.871  25.456  1.00  0.00     0.031 C 
ATOM     48  C   UNL A   1      49.678  30.415  27.105  1.00  0.00     0.029 A 
ATOM     49  C   UNL A   1      48.895  29.296  26.870  1.00  0.00     0.049 A 
ATOM     50  H   UNL A   1      46.829  29.024  27.198  1.00  0.00     0.167 HD
ATOM     51  C   UNL A   1      48.457  26.971  26.136  1.00  0.00     0.074 A 
ATOM     52  C   UNL A   1      48.870  25.694  25.591  1.00  0.00     0.031 C 
ATOM     53  C   UNL A   1      49.293  28.021  26.328  1.00  0.00     0.031 A 
BRANCH  40  54
ATOM     54  C   UNL A   1      46.502  33.060  28.555  1.00  0.00    -0.014 A 
ATOM     55  C   UNL A   1      46.719  33.408  29.900  1.00  0.00     0.010 A 
ATOM     56  C   UNL A   1      46.411  34.074  27.585  1.00  0.00     0.010 A 
ATOM     57  C   UNL A   1      46.810  34.751  30.272  1.00  0.00     0.020 A 
ATOM     58  C   UNL A   1      46.521  35.417  27.951  1.00  0.00     0.020 A 
ATOM     59  C   UNL A   1      46.705  35.747  29.294  1.00  0.00     0.054 A 
BRANCH  59  60
ATOM     60  S   UNL A   1      46.835  37.483  29.802  1.00  0.00     0.124 S 
ATOM     61  O   UNL A   1      46.530  37.401  31.229  1.00  0.00    -0.237 OA
ATOM     62  O   UNL A   1      48.220  37.810  29.473  1.00  0.00    -0.237 OA
ATOM     63  O   UNL A   1      45.828  38.159  28.989  1.00  0.00    -0.744 OA
ENDBRANCH  59  60
ENDBRANCH  40  54
BRANCH  41  64
ATOM     64  C   UNL A   1      45.201  23.612  25.611  1.00  0.00    -0.014 A 
ATOM     65  C   UNL A   1      45.276  22.539  26.518  1.00  0.00     0.010 A 
ATOM     66  C   UNL A   1      45.010  23.333  24.244  1.00  0.00     0.010 A 
ATOM     67  C   UNL A   1      45.197  21.217  26.063  1.00  0.00     0.020 A 
ATOM     68  C   UNL A   1      44.899  22.016  23.791  1.00  0.00     0.020 A 
ATOM     69  C   UNL A   1      45.014  20.964  24.700  1.00  0.00     0.054 A 
BRANCH  69  70
ATOM     70  S   UNL A   1      44.909  19.246  24.124  1.00  0.00     0.124 S 
ATOM     71  O   UNL A   1      43.882  18.695  25.002  1.00  0.00    -0.237 OA
ATOM     72  O   UNL A   1      44.527  19.403  22.724  1.00  0.00    -0.237 OA
ATOM     73  O   UNL A   1      46.260  18.733  24.340  1.00  0.00    -0.744 OA
ENDBRANCH  69  70
ENDBRANCH  41  64
BRANCH  53  74
ATOM     74  C   UNL A   1      50.744  27.840  25.967  1.00  0.00    -0.014 A 
ATOM     75  C   UNL A   1      51.601  27.057  26.760  1.00  0.00     0.010 A 
ATOM     76  C   UNL A   1      51.237  28.399  24.773  1.00  0.00     0.010 A 
ATOM     77  C   UNL A   1      52.930  26.854  26.378  1.00  0.00     0.020 A 
ATOM     78  C   UNL A   1      52.558  28.176  24.374  1.00  0.00     0.020 A 
ATOM     79  C   UNL A   1      53.400  27.414  25.185  1.00  0.00     0.054 A 
BRANCH  79  80
ATOM     80  S   UNL A   1      55.111  27.086  24.678  1.00  0.00     0.124 S 
ATOM     81  O   UNL A   1      55.697  28.423  24.703  1.00  0.00    -0.237 OA
ATOM     82  O   UNL A   1      55.584  26.172  25.714  1.00  0.00    -0.237 OA
ATOM     83  O   UNL A   1      54.971  26.492  23.350  1.00  0.00    -0.744 OA
ENDBRANCH  79  80
ENDBRANCH  53  74
ENDBRANCH  27  28
ENDBRANCH  20  22
ENDBRANCH  19  20
ENDBRANCH  18  19
ENDBRANCH   1  18
TORSDOF 18
ENDMDL
MODEL 2
REMARK VINA RESULT:      -9.5      4.623     10.609
REMARK SMILES CCC[C@H](C)C(=O)N1CC[C@H](C(=O)OCCOC(=O)c2ccc(-c3c4nc(c(-c5ccc(S(=O)(=O)[O-])cc5)c5ccc([nH]5)c(-c5ccc(S(=O)(=O)[O-])cc5)c5nc(c(-c6ccc(S(=O)(=O)[O-])cc6)c6ccc3[nH]6)C=C5)C=C4)cc2)[C@@H]1C
REMARK SMILES IDX 15 1 14 2 12 3 13 4 11 5 8 6 9 7 80 8 10 9 81 10 6 11 7 12
REMARK SMILES IDX 4 13 5 14 3 15 2 16 1 17 16 18 17 19 18 20 19 21 20 22 21 23
REMARK SMILES IDX 79 24 22 25 78 26 23 27 24 28 25 29 72 30 26 31 77 32 71 33
REMARK SMILES IDX 73 34 27 35 76 36 70 37 69 38 28 40 58 41 39 42 57 43 40 44
REMARK SMILES IDX 43 45 56 46 74 47 41 48 42 49 55 51 75 52 44 53 29 54 30 55
REMARK SMILES IDX 38 56 31 57 37 58 32 59 33 60 34 61 35 62 36 63 59 64 60 65
REMARK SMILES IDX 68 66 61 67 67 68 62 69 63 70 64 71 65 72 66 73 45 74 46 75
REMARK SMILES IDX 54 76 47 77 53 78 48 79 49 80 50 81 51 82 52 83
REMARK H PARENT 73 39 43 50
REMARK Flexibility Score: inf
ROOT
ATOM      1  C   UNL A   1      36.662  22.064  23.761  1.00  0.00     0.274 C 
ENDROOT
BRANCH   1   2
ATOM      2  O   UNL A   1      35.409  22.709  24.051  1.00  0.00    -0.462 OA
BRANCH   2   3
ATOM      3  C   UNL A   1      34.563  22.049  24.886  1.00  0.00     0.311 C 
ATOM      4  O   UNL A   1      34.202  20.889  24.742  1.00  0.00    -0.252 OA
BRANCH   3   5
ATOM      5  C   UNL A   1      34.094  22.971  25.994  1.00  0.00     0.123 C 
ATOM      6  N   UNL A   1      32.576  24.812  25.873  1.00  0.00    -0.339 N 
ATOM      7  C   UNL A   1      33.824  25.242  25.271  1.00  0.00     0.121 C 
ATOM      8  C   UNL A   1      32.589  23.349  25.991  1.00  0.00     0.096 C 
ATOM      9  C   UNL A   1      34.843  24.302  25.887  1.00  0.00     0.039 C 
ATOM     10  C   UNL A   1      31.782  22.719  24.855  1.00  0.00     0.032 C 
BRANCH   6  11
ATOM     11  C   UNL A   1      31.606  25.755  26.136  1.00  0.00     0.225 C 
ATOM     12  O   UNL A   1      30.542  25.390  26.658  1.00  0.00    -0.275 OA
BRANCH  11  13
ATOM     13  C   UNL A   1      31.671  27.204  25.628  1.00  0.00     0.075 C 
ATOM     14  C   UNL A   1      30.756  27.681  24.518  1.00  0.00     0.018 C 
BRANCH  13  15
ATOM     15  C   UNL A   1      31.705  28.203  26.806  1.00  0.00     0.013 C 
BRANCH  15  16
ATOM     16  C   UNL A   1      33.089  28.506  27.388  1.00  0.00    -0.003 C 
ATOM     17  C   UNL A   1      34.147  28.707  26.313  1.00  0.00     0.004 C 
ENDBRANCH  15  16
ENDBRANCH  13  15
ENDBRANCH  11  13
ENDBRANCH   6  11
ENDBRANCH   3   5
ENDBRANCH   2   3
ENDBRANCH   1   2
BRANCH   1  18
ATOM     18  C   UNL A   1      37.434  21.831  25.062  1.00  0.00     0.275 C 
BRANCH  18  19
ATOM     19  O   UNL A   1      37.975  23.068  25.566  1.00  0.00    -0.458 OA
BRANCH  19  20
ATOM     20  C   UNL A   1      39.177  22.954  26.191  1.00  0.00     0.338 C 
ATOM     21  O   UNL A   1      39.957  22.020  26.089  1.00  0.00    -0.246 OA
BRANCH  20  22
ATOM     22  C   UNL A   1      39.505  24.197  26.929  1.00  0.00     0.060 A 
ATOM     23  C   UNL A   1      40.250  25.171  26.252  1.00  0.00     0.016 A 
ATOM     24  C   UNL A   1      39.076  24.440  28.240  1.00  0.00     0.016 A 
ATOM     25  C   UNL A   1      40.535  26.388  26.869  1.00  0.00     0.010 A 
ATOM     26  C   UNL A   1      39.378  25.659  28.862  1.00  0.00     0.010 A 
ATOM     27  C   UNL A   1      40.100  26.647  28.177  1.00  0.00    -0.014 A 
BRANCH  27  28
ATOM     28  C   UNL A   1      40.485  27.928  28.824  1.00  0.00     0.031 A 
ATOM     29  C   UNL A   1      41.894  28.099  29.316  1.00  0.00     0.074 A 
ATOM     30  C   UNL A   1      39.617  28.954  28.908  1.00  0.00     0.049 A 
ATOM     31  N   UNL A   1      42.474  29.164  29.804  1.00  0.00    -0.248 NA
ATOM     32  C   UNL A   1      42.768  26.917  29.236  1.00  0.00     0.031 C 
ATOM     33  C   UNL A   1      38.236  28.934  28.430  1.00  0.00     0.029 A 
ATOM     34  N   UNL A   1      39.778  30.226  29.402  1.00  0.00    -0.354 N 
ATOM     35  C   UNL A   1      43.782  28.788  30.076  1.00  0.00     0.074 A 
ATOM     36  C   UNL A   1      43.914  27.397  29.698  1.00  0.00     0.031 C 
ATOM     37  C   UNL A   1      37.684  30.145  28.625  1.00  0.00     0.029 A 
ATOM     38  C   UNL A   1      38.653  31.013  29.288  1.00  0.00     0.049 A 
ATOM     39  H   UNL A   1      40.619  30.547  29.800  1.00  0.00     0.167 HD
ATOM     40  C   UNL A   1      44.781  29.525  30.616  1.00  0.00     0.031 A 
ATOM     41  C   UNL A   1      38.423  32.280  29.693  1.00  0.00     0.031 A 
ATOM     42  C   UNL A   1      44.633  30.877  31.078  1.00  0.00     0.049 A 
ATOM     43  C   UNL A   1      39.525  33.040  30.388  1.00  0.00     0.074 A 
ATOM     44  C   UNL A   1      45.579  31.683  31.687  1.00  0.00     0.029 A 
ATOM     45  N   UNL A   1      43.460  31.611  31.017  1.00  0.00    -0.354 N 
ATOM     46  N   UNL A   1      40.768  32.680  30.603  1.00  0.00    -0.248 NA
ATOM     47  C   UNL A   1      39.189  34.375  30.906  1.00  0.00     0.031 C 
ATOM     48  C   UNL A   1      44.958  32.882  32.053  1.00  0.00     0.029 A 
ATOM     49  C   UNL A   1      43.645  32.847  31.613  1.00  0.00     0.049 A 
ATOM     50  H   UNL A   1      42.619  31.301  30.609  1.00  0.00     0.167 HD
ATOM     51  C   UNL A   1      41.363  33.748  31.268  1.00  0.00     0.074 A 
ATOM     52  C   UNL A   1      40.353  34.777  31.398  1.00  0.00     0.031 C 
ATOM     53  C   UNL A   1      42.630  33.863  31.737  1.00  0.00     0.031 A 
BRANCH  40  54
ATOM     54  C   UNL A   1      46.103  28.841  30.812  1.00  0.00    -0.014 A 
ATOM     55  C   UNL A   1      46.430  28.225  32.034  1.00  0.00     0.010 A 
ATOM     56  C   UNL A   1      47.025  28.801  29.751  1.00  0.00     0.010 A 
ATOM     57  C   UNL A   1      47.671  27.608  32.200  1.00  0.00     0.020 A 
ATOM     58  C   UNL A   1      48.259  28.168  29.908  1.00  0.00     0.020 A 
ATOM     59  C   UNL A   1      48.580  27.588  31.137  1.00  0.00     0.054 A 
BRANCH  59  60
ATOM     60  S   UNL A   1      50.183  26.773  31.375  1.00  0.00     0.124 S 
ATOM     61  O   UNL A   1      50.703  26.731  30.011  1.00  0.00    -0.237 OA
ATOM     62  O   UNL A   1      50.873  27.685  32.284  1.00  0.00    -0.237 OA
ATOM     63  O   UNL A   1      49.830  25.476  31.947  1.00  0.00    -0.744 OA
ENDBRANCH  59  60
ENDBRANCH  40  54
BRANCH  41  64
ATOM     64  C   UNL A   1      37.076  32.899  29.519  1.00  0.00    -0.014 A 
ATOM     65  C   UNL A   1      36.677  33.437  28.283  1.00  0.00     0.010 A 
ATOM     66  C   UNL A   1      36.202  33.001  30.618  1.00  0.00     0.010 A 
ATOM     67  C   UNL A   1      35.446  34.094  28.158  1.00  0.00     0.020 A 
ATOM     68  C   UNL A   1      34.960  33.628  30.489  1.00  0.00     0.020 A 
ATOM     69  C   UNL A   1      34.598  34.189  29.265  1.00  0.00     0.054 A 
BRANCH  69  70
ATOM     70  S   UNL A   1      33.004  35.040  29.089  1.00  0.00     0.124 S 
ATOM     71  O   UNL A   1      32.454  34.933  30.436  1.00  0.00    -0.237 OA
ATOM     72  O   UNL A   1      33.403  36.381  28.672  1.00  0.00    -0.237 OA
ATOM     73  O   UNL A   1      32.312  34.258  28.066  1.00  0.00    -0.744 OA
ENDBRANCH  69  70
ENDBRANCH  41  64
BRANCH  53  74
ATOM     74  C   UNL A   1      43.013  35.150  32.419  1.00  0.00    -0.014 A 
ATOM     75  C   UNL A   1      42.793  35.341  33.794  1.00  0.00     0.010 A 
ATOM     76  C   UNL A   1      43.674  36.154  31.686  1.00  0.00     0.010 A 
ATOM     77  C   UNL A   1      43.207  36.520  34.420  1.00  0.00     0.020 A 
ATOM     78  C   UNL A   1      44.113  37.323  32.314  1.00  0.00     0.020 A 
ATOM     79  C   UNL A   1      43.867  37.504  33.676  1.00  0.00     0.054 A 
BRANCH  79  80
ATOM     80  S   UNL A   1      44.451  38.998  34.522  1.00  0.00     0.124 S 
ATOM     81  O   UNL A   1      43.436  39.978  34.143  1.00  0.00    -0.237 OA
ATOM     82  O   UNL A   1      44.443  38.597  35.926  1.00  0.00    -0.237 OA
ATOM     83  O   UNL A   1      45.778  39.223  33.953  1.00  0.00    -0.744 OA
ENDBRANCH  79  80
ENDBRANCH  53  74
ENDBRANCH  27  28
ENDBRANCH  20  22
ENDBRANCH  19  20
ENDBRANCH  18  19
ENDBRANCH   1  18
TORSDOF 18
ENDMDL
MODEL 3
REMARK VINA RESULT:      -9.4      1.646      2.782
REMARK SMILES CCC[C@H](C)C(=O)N1CC[C@H](C(=O)OCCOC(=O)c2ccc(-c3c4nc(c(-c5ccc(S(=O)(=O)[O-])cc5)c5ccc([nH]5)c(-c5ccc(S(=O)(=O)[O-])cc5)c5nc(c(-c6ccc(S(=O)(=O)[O-])cc6)c6ccc3[nH]6)C=C5)C=C4)cc2)[C@@H]1C
REMARK SMILES IDX 15 1 14 2 12 3 13 4 11 5 8 6 9 7 80 8 10 9 81 10 6 11 7 12
REMARK SMILES IDX 4 13 5 14 3 15 2 16 1 17 16 18 17 19 18 20 19 21 20 22 21 23
REMARK SMILES IDX 79 24 22 25 78 26 23 27 24 28 25 29 72 30 26 31 77 32 71 33
REMARK SMILES IDX 73 34 27 35 76 36 70 37 69 38 28 40 58 41 39 42 57 43 40 44
REMARK SMILES IDX 43 45 56 46 74 47 41 48 42 49 55 51 75 52 44 53 29 54 30 55
REMARK SMILES IDX 38 56 31 57 37 58 32 59 33 60 34 61 35 62 36 63 59 64 60 65
REMARK SMILES IDX 68 66 61 67 67 68 62 69 63 70 64 71 65 72 66 73 45 74 46 75
REMARK SMILES IDX 54 76 47 77 53 78 48 79 49 80 50 81 51 82 52 83
REMARK H PARENT 73 39 43 50
REMARK Flexibility Score: inf
ROOT
ATOM      1  C   UNL A   1      34.368  30.151  26.928  1.00  0.00     0.274 C 
ENDROOT
BRANCH   1   2
ATOM      2  O   UNL A   1      34.527  28.768  26.569  1.00  0.00    -0.462 OA
BRANCH   2   3
ATOM      3  C   UNL A   1      33.498  28.191  25.891  1.00  0.00     0.311 C 
ATOM      4  O   UNL A   1      33.188  28.453  24.737  1.00  0.00    -0.252 OA
BRANCH   3   5
ATOM      5  C   UNL A   1      32.762  27.215  26.785  1.00  0.00     0.123 C 
ATOM      6  N   UNL A   1      31.498  25.280  26.178  1.00  0.00    -0.339 N 
ATOM      7  C   UNL A   1      30.700  26.442  25.834  1.00  0.00     0.121 C 
ATOM      8  C   UNL A   1      32.881  25.711  26.417  1.00  0.00     0.096 C 
ATOM      9  C   UNL A   1      31.263  27.523  26.737  1.00  0.00     0.039 C 
ATOM     10  C   UNL A   1      33.744  25.429  25.188  1.00  0.00     0.032 C 
BRANCH   6  11
ATOM     11  C   UNL A   1      30.910  24.034  26.140  1.00  0.00     0.225 C 
ATOM     12  O   UNL A   1      30.444  23.559  27.186  1.00  0.00    -0.275 OA
BRANCH  11  13
ATOM     13  C   UNL A   1      30.983  23.099  24.922  1.00  0.00     0.075 C 
ATOM     14  C   UNL A   1      30.990  23.657  23.512  1.00  0.00     0.018 C 
BRANCH  13  15
ATOM     15  C   UNL A   1      32.077  22.024  25.113  1.00  0.00     0.013 C 
BRANCH  15  16
ATOM     16  C   UNL A   1      33.116  21.919  23.992  1.00  0.00    -0.003 C 
ATOM     17  C   UNL A   1      34.531  21.735  24.519  1.00  0.00     0.004 C 
ENDBRANCH  15  16
ENDBRANCH  13  15
ENDBRANCH  11  13
ENDBRANCH   6  11
ENDBRANCH   3   5
ENDBRANCH   2   3
ENDBRANCH   1   2
BRANCH   1  18
ATOM     18  C   UNL A   1      35.132  30.439  28.222  1.00  0.00     0.275 C 
BRANCH  18  19
ATOM     19  O   UNL A   1      36.554  30.363  28.005  1.00  0.00    -0.458 OA
BRANCH  19  20
ATOM     20  C   UNL A   1      37.229  29.592  28.898  1.00  0.00     0.338 C 
ATOM     21  O   UNL A   1      36.751  29.025  29.868  1.00  0.00    -0.246 OA
BRANCH  20  22
ATOM     22  C   UNL A   1      38.635  29.400  28.469  1.00  0.00     0.060 A 
ATOM     23  C   UNL A   1      39.595  29.214  29.472  1.00  0.00     0.016 A 
ATOM     24  C   UNL A   1      39.023  29.365  27.124  1.00  0.00     0.016 A 
ATOM     25  C   UNL A   1      40.924  28.963  29.131  1.00  0.00     0.010 A 
ATOM     26  C   UNL A   1      40.362  29.128  26.786  1.00  0.00     0.010 A 
ATOM     27  C   UNL A   1      41.321  28.913  27.786  1.00  0.00    -0.014 A 
BRANCH  27  28
ATOM     28  C   UNL A   1      42.758  28.715  27.467  1.00  0.00     0.031 A 
ATOM     29  C   UNL A   1      43.721  29.841  27.718  1.00  0.00     0.074 A 
ATOM     30  C   UNL A   1      43.216  27.527  27.029  1.00  0.00     0.049 A 
ATOM     31  N   UNL A   1      45.025  29.848  27.621  1.00  0.00    -0.248 NA
ATOM     32  C   UNL A   1      43.139  31.122  28.148  1.00  0.00     0.031 C 
ATOM     33  C   UNL A   1      42.395  26.342  26.785  1.00  0.00     0.029 A 
ATOM     34  N   UNL A   1      44.492  27.110  26.735  1.00  0.00    -0.354 N 
ATOM     35  C   UNL A   1      45.421  31.126  27.989  1.00  0.00     0.074 A 
ATOM     36  C   UNL A   1      44.222  31.868  28.315  1.00  0.00     0.031 C 
ATOM     37  C   UNL A   1      43.189  25.324  26.410  1.00  0.00     0.029 A 
ATOM     38  C   UNL A   1      44.570  25.795  26.336  1.00  0.00     0.049 A 
ATOM     39  H   UNL A   1      45.279  27.698  26.804  1.00  0.00     0.167 HD
ATOM     40  C   UNL A   1      46.670  31.647  28.030  1.00  0.00     0.031 A 
ATOM     41  C   UNL A   1      45.628  25.060  25.933  1.00  0.00     0.031 A 
ATOM     42  C   UNL A   1      47.855  30.946  27.621  1.00  0.00     0.049 A 
ATOM     43  C   UNL A   1      46.992  25.702  25.888  1.00  0.00     0.074 A 
ATOM     44  C   UNL A   1      49.157  31.415  27.579  1.00  0.00     0.029 A 
ATOM     45  N   UNL A   1      47.883  29.644  27.149  1.00  0.00    -0.354 N 
ATOM     46  N   UNL A   1      47.354  26.902  26.277  1.00  0.00    -0.248 NA
ATOM     47  C   UNL A   1      48.091  24.892  25.339  1.00  0.00     0.031 C 
ATOM     48  C   UNL A   1      49.962  30.416  27.020  1.00  0.00     0.029 A 
ATOM     49  C   UNL A   1      49.172  29.304  26.776  1.00  0.00     0.049 A 
ATOM     50  H   UNL A   1      47.101  29.048  27.089  1.00  0.00     0.167 HD
ATOM     51  C   UNL A   1      48.721  26.985  26.031  1.00  0.00     0.074 A 
ATOM     52  C   UNL A   1      49.128  25.707  25.485  1.00  0.00     0.031 C 
ATOM     53  C   UNL A   1      49.563  28.028  26.232  1.00  0.00     0.031 A 
BRANCH  40  54
ATOM     54  C   UNL A   1      46.796  33.081  28.457  1.00  0.00    -0.014 A 
ATOM     55  C   UNL A   1      46.713  34.129  27.522  1.00  0.00     0.010 A 
ATOM     56  C   UNL A   1      46.985  33.383  29.817  1.00  0.00     0.010 A 
ATOM     57  C   UNL A   1      46.849  35.454  27.938  1.00  0.00     0.020 A 
ATOM     58  C   UNL A   1      47.102  34.708  30.239  1.00  0.00     0.020 A 
ATOM     59  C   UNL A   1      47.048  35.735  29.295  1.00  0.00     0.054 A 
BRANCH  59  60
ATOM     60  S   UNL A   1      47.213  37.466  29.811  1.00  0.00     0.124 S 
ATOM     61  O   UNL A   1      45.854  37.966  29.619  1.00  0.00    -0.237 OA
ATOM     62  O   UNL A   1      47.649  37.346  31.200  1.00  0.00    -0.237 OA
ATOM     63  O   UNL A   1      48.211  38.008  28.892  1.00  0.00    -0.744 OA
ENDBRANCH  59  60
ENDBRANCH  40  54
BRANCH  41  64
ATOM     64  C   UNL A   1      45.443  23.653  25.471  1.00  0.00    -0.014 A 
ATOM     65  C   UNL A   1      45.075  23.365  24.144  1.00  0.00     0.010 A 
ATOM     66  C   UNL A   1      45.584  22.590  26.383  1.00  0.00     0.010 A 
ATOM     67  C   UNL A   1      44.818  22.046  23.748  1.00  0.00     0.020 A 
ATOM     68  C   UNL A   1      45.360  21.270  25.983  1.00  0.00     0.020 A 
ATOM     69  C   UNL A   1      44.958  21.007  24.673  1.00  0.00     0.054 A 
BRANCH  69  70
ATOM     70  S   UNL A   1      44.626  19.303  24.147  1.00  0.00     0.124 S 
ATOM     71  O   UNL A   1      44.581  19.438  22.694  1.00  0.00    -0.237 OA
ATOM     72  O   UNL A   1      45.775  18.575  24.679  1.00  0.00    -0.237 OA
ATOM     73  O   UNL A   1      43.350  18.991  24.787  1.00  0.00    -0.744 OA
ENDBRANCH  69  70
ENDBRANCH  41  64
BRANCH  53  74
ATOM     74  C   UNL A   1      51.016  27.837  25.881  1.00  0.00    -0.014 A 
ATOM     75  C   UNL A   1      51.917  27.261  26.793  1.00  0.00     0.010 A 
ATOM     76  C   UNL A   1      51.466  28.168  24.589  1.00  0.00     0.010 A 
ATOM     77  C   UNL A   1      53.248  27.039  26.428  1.00  0.00     0.020 A 
ATOM     78  C   UNL A   1      52.790  27.924  24.212  1.00  0.00     0.020 A 
ATOM     79  C   UNL A   1      53.676  27.371  25.138  1.00  0.00     0.054 A 
BRANCH  79  80
ATOM     80  S   UNL A   1      55.392  27.017  24.666  1.00  0.00     0.124 S 
ATOM     81  O   UNL A   1      56.082  28.228  25.100  1.00  0.00    -0.237 OA
ATOM     82  O   UNL A   1      55.695  25.811  25.434  1.00  0.00    -0.237 OA
ATOM     83  O   UNL A   1      55.321  26.823  23.219  1.00  0.00    -0.744 OA
ENDBRANCH  79  80
ENDBRANCH  53  74
ENDBRANCH  27  28
ENDBRANCH  20  22
ENDBRANCH  19  20
ENDBRANCH  18  19
ENDBRANCH   1  18
TORSDOF 18
ENDMDL
