MODEL 1
REMARK VINA RESULT:     -13.2      0.000      0.000
REMARK SMILES O=C(OCCOC(=O)c1ccc(-c2c3nc(c(-c4ccc(S(=O)(=O)[O-])cc4)c4ccc([nH]4)c(-c4ccc(S(=O)(=O)[O-])cc4)c4nc(c(-c5ccc(S(=O)(=O)[O-])cc5)c5ccc2[nH]5)C=C4)C=C3)cc1)C1=Cc2cc(Cl)cc(C#Cc3ccccc3)c2O[C@@H]1C(F)(F)F
REMARK SMILES IDX 5 1 4 2 3 3 2 4 1 5 69 6 70 7 87 8 71 9 86 10 72 11 85 12
REMARK SMILES IDX 73 13 76 14 74 15 75 16 88 17 89 18 90 19 91 20 77 21 78 22
REMARK SMILES IDX 79 23 80 24 84 25 81 26 83 27 82 28 6 29 7 30 8 31 9 32
REMARK SMILES IDX 10 33 68 34 11 35 67 36 12 37 13 38 14 39 61 40 15 41 66 42
REMARK SMILES IDX 60 43 62 44 16 45 65 46 59 47 58 48 17 50 47 51 28 52 46 53
REMARK SMILES IDX 29 54 32 55 45 56 63 57 30 58 31 59 44 61 64 62 33 63 18 64
REMARK SMILES IDX 19 65 27 66 20 67 26 68 21 69 22 70 23 71 24 72 25 73 48 74
REMARK SMILES IDX 49 75 57 76 50 77 56 78 51 79 52 80 53 81 54 82 55 83 34 84
REMARK SMILES IDX 35 85 43 86 36 87 42 88 37 89 38 90 39 91 40 92 41 93
REMARK H PARENT 62 49 32 60
REMARK Flexibility Score: inf
ROOT
ATOM      1  C   UNL A   1      32.962  30.762  27.241  1.00  0.00     0.275 C 
ENDROOT
BRANCH   1   2
ATOM      2  C   UNL A   1      31.958  28.832  27.290  1.00  0.00     0.275 C 
BRANCH   2   3
ATOM      3  O   UNL A   1      31.647  27.929  26.059  1.00  0.00    -0.459 OA
BRANCH   3   4
ATOM      4  C   UNL A   1      31.849  26.626  26.285  1.00  0.00     0.338 C 
ATOM      5  O   UNL A   1      31.663  25.961  27.270  1.00  0.00    -0.246 OA
BRANCH   4   6
ATOM      6  C   UNL A   1      32.611  26.409  25.082  1.00  0.00     0.087 C 
ATOM      7  C   UNL A   1      34.039  26.224  25.401  1.00  0.00     0.027 C 
ATOM      8  C   UNL A   1      31.457  25.063  24.312  1.00  0.00     0.316 C 
ATOM      9  C   UNL A   1      34.887  24.636  25.247  1.00  0.00     0.020 A 
ATOM     10  O   UNL A   1      32.335  23.345  24.201  1.00  0.00    -0.474 OA
ATOM     11  C   UNL A   1      36.177  24.569  25.697  1.00  0.00     0.032 A 
ATOM     12  C   UNL A   1      34.061  23.178  24.764  1.00  0.00     0.143 A 
ATOM     13  C   UNL A   1      36.719  23.280  25.726  1.00  0.00     0.043 A 
ATOM     14  C   UNL A   1      34.678  21.957  24.870  1.00  0.00     0.069 A 
ATOM     15  Cl  UNL A   1      38.344  23.128  26.315  1.00  0.00    -0.084 Cl
ATOM     16  C   UNL A   1      36.020  22.065  25.348  1.00  0.00     0.041 A 
BRANCH   8  17
ATOM     17  C   UNL A   1      30.750  25.980  23.249  1.00  0.00     0.430 C 
ATOM     18  F   UNL A   1      30.631  25.377  22.061  1.00  0.00    -0.167 F 
ATOM     19  F   UNL A   1      29.458  26.170  23.659  1.00  0.00    -0.167 F 
ATOM     20  F   UNL A   1      31.220  27.234  23.118  1.00  0.00    -0.167 F 
ENDBRANCH   8  17
BRANCH  14  21
ATOM     21  C   UNL A   1      34.151  20.658  24.702  1.00  0.00    -0.058 C 
ATOM     22  C   UNL A   1      33.913  19.468  24.758  1.00  0.00    -0.062 C 
BRANCH  22  23
ATOM     23  C   UNL A   1      33.778  18.057  24.893  1.00  0.00     0.025 A 
ATOM     24  C   UNL A   1      34.868  17.206  24.674  1.00  0.00     0.017 A 
ATOM     25  C   UNL A   1      32.532  17.514  25.211  1.00  0.00     0.017 A 
ATOM     26  C   UNL A   1      34.715  15.822  24.805  1.00  0.00     0.001 A 
ATOM     27  C   UNL A   1      32.380  16.132  25.341  1.00  0.00     0.001 A 
ATOM     28  C   UNL A   1      33.472  15.287  25.145  1.00  0.00     0.000 A 
ENDBRANCH  22  23
ENDBRANCH  14  21
ENDBRANCH   4   6
ENDBRANCH   3   4
ENDBRANCH   2   3
ENDBRANCH   1   2
BRANCH   1  29
ATOM     29  O   UNL A   1      34.469  31.126  27.947  1.00  0.00    -0.458 OA
BRANCH  29  30
ATOM     30  C   UNL A   1      35.122  31.320  29.134  1.00  0.00     0.338 C 
ATOM     31  O   UNL A   1      34.776  31.927  30.127  1.00  0.00    -0.246 OA
BRANCH  30  32
ATOM     32  C   UNL A   1      36.246  30.335  29.112  1.00  0.00     0.060 A 
ATOM     33  C   UNL A   1      36.828  29.990  27.881  1.00  0.00     0.016 A 
ATOM     34  C   UNL A   1      36.929  30.086  30.300  1.00  0.00     0.016 A 
ATOM     35  C   UNL A   1      38.194  29.664  27.830  1.00  0.00     0.010 A 
ATOM     36  C   UNL A   1      38.267  29.706  30.247  1.00  0.00     0.010 A 
ATOM     37  C   UNL A   1      38.934  29.579  29.016  1.00  0.00    -0.014 A 
BRANCH  37  38
ATOM     38  C   UNL A   1      40.340  29.106  29.049  1.00  0.00     0.031 A 
ATOM     39  C   UNL A   1      41.371  30.177  29.220  1.00  0.00     0.074 A 
ATOM     40  C   UNL A   1      40.701  27.843  28.744  1.00  0.00     0.049 A 
ATOM     41  N   UNL A   1      42.657  30.136  29.008  1.00  0.00    -0.248 NA
ATOM     42  C   UNL A   1      40.854  31.495  29.624  1.00  0.00     0.031 C 
ATOM     43  C   UNL A   1      39.793  26.712  28.550  1.00  0.00     0.029 A 
ATOM     44  N   UNL A   1      41.947  27.309  28.502  1.00  0.00    -0.354 N 
ATOM     45  C   UNL A   1      43.093  31.438  29.206  1.00  0.00     0.074 A 
ATOM     46  C   UNL A   1      41.934  32.243  29.514  1.00  0.00     0.031 C 
ATOM     47  C   UNL A   1      40.509  25.627  28.193  1.00  0.00     0.029 A 
ATOM     48  C   UNL A   1      41.924  25.990  28.095  1.00  0.00     0.049 A 
ATOM     49  H   UNL A   1      42.781  27.822  28.608  1.00  0.00     0.167 HD
ATOM     50  C   UNL A   1      44.350  31.930  29.133  1.00  0.00     0.031 A 
ATOM     51  C   UNL A   1      42.926  25.188  27.672  1.00  0.00     0.031 A 
ATOM     52  C   UNL A   1      45.489  31.139  28.783  1.00  0.00     0.049 A 
ATOM     53  C   UNL A   1      44.330  25.752  27.593  1.00  0.00     0.074 A 
ATOM     54  C   UNL A   1      46.811  31.524  28.690  1.00  0.00     0.029 A 
ATOM     55  N   UNL A   1      45.430  29.792  28.454  1.00  0.00    -0.354 N 
ATOM     56  N   UNL A   1      44.744  26.973  27.842  1.00  0.00    -0.248 NA
ATOM     57  C   UNL A   1      45.402  24.833  27.178  1.00  0.00     0.031 C 
ATOM     58  C   UNL A   1      47.550  30.416  28.263  1.00  0.00     0.029 A 
ATOM     59  C   UNL A   1      46.695  29.328  28.150  1.00  0.00     0.049 A 
ATOM     60  H   UNL A   1      44.609  29.248  28.438  1.00  0.00     0.167 HD
ATOM     61  C   UNL A   1      46.124  26.959  27.655  1.00  0.00     0.074 A 
ATOM     62  C   UNL A   1      46.477  25.608  27.268  1.00  0.00     0.031 C 
ATOM     63  C   UNL A   1      47.020  27.968  27.796  1.00  0.00     0.031 A 
BRANCH  50  64
ATOM     64  C   UNL A   1      44.490  33.404  29.387  1.00  0.00    -0.014 A 
ATOM     65  C   UNL A   1      44.485  33.913  30.701  1.00  0.00     0.010 A 
ATOM     66  C   UNL A   1      44.493  34.297  28.303  1.00  0.00     0.010 A 
ATOM     67  C   UNL A   1      44.375  35.285  30.923  1.00  0.00     0.020 A 
ATOM     68  C   UNL A   1      44.425  35.675  28.524  1.00  0.00     0.020 A 
ATOM     69  C   UNL A   1      44.327  36.156  29.832  1.00  0.00     0.054 A 
BRANCH  69  70
ATOM     70  S   UNL A   1      44.118  37.928  30.144  1.00  0.00     0.124 S 
ATOM     71  O   UNL A   1      43.777  37.943  31.565  1.00  0.00    -0.237 OA
ATOM     72  O   UNL A   1      45.430  38.471  29.809  1.00  0.00    -0.237 OA
ATOM     73  O   UNL A   1      43.037  38.313  29.239  1.00  0.00    -0.744 OA
ENDBRANCH  69  70
ENDBRANCH  50  64
BRANCH  51  74
ATOM     74  C   UNL A   1      42.662  23.765  27.293  1.00  0.00    -0.014 A 
ATOM     75  C   UNL A   1      42.561  22.768  28.283  1.00  0.00     0.010 A 
ATOM     76  C   UNL A   1      42.518  23.388  25.944  1.00  0.00     0.010 A 
ATOM     77  C   UNL A   1      42.329  21.431  27.934  1.00  0.00     0.020 A 
ATOM     78  C   UNL A   1      42.263  22.055  25.592  1.00  0.00     0.020 A 
ATOM     79  C   UNL A   1      42.173  21.083  26.590  1.00  0.00     0.054 A 
BRANCH  79  80
ATOM     80  S   UNL A   1      41.796  19.355  26.170  1.00  0.00     0.124 S 
ATOM     81  O   UNL A   1      40.361  19.409  25.908  1.00  0.00    -0.237 OA
ATOM     82  O   UNL A   1      42.642  19.123  25.002  1.00  0.00    -0.237 OA
ATOM     83  O   UNL A   1      42.186  18.617  27.368  1.00  0.00    -0.744 OA
ENDBRANCH  79  80
ENDBRANCH  51  74
BRANCH  63  84
ATOM     84  C   UNL A   1      48.483  27.661  27.607  1.00  0.00    -0.014 A 
ATOM     85  C   UNL A   1      49.272  27.170  28.660  1.00  0.00     0.010 A 
ATOM     86  C   UNL A   1      49.024  27.720  26.309  1.00  0.00     0.010 A 
ATOM     87  C   UNL A   1      50.579  26.735  28.414  1.00  0.00     0.020 A 
ATOM     88  C   UNL A   1      50.318  27.262  26.055  1.00  0.00     0.020 A 
ATOM     89  C   UNL A   1      51.089  26.774  27.111  1.00  0.00     0.054 A 
BRANCH  89  90
ATOM     90  S   UNL A   1      52.744  26.101  26.799  1.00  0.00     0.124 S 
ATOM     91  O   UNL A   1      53.297  26.011  28.148  1.00  0.00    -0.237 OA
ATOM     92  O   UNL A   1      52.454  24.824  26.152  1.00  0.00    -0.237 OA
ATOM     93  O   UNL A   1      53.369  27.101  25.935  1.00  0.00    -0.744 OA
ENDBRANCH  89  90
ENDBRANCH  63  84
ENDBRANCH  37  38
ENDBRANCH  30  32
ENDBRANCH  29  30
ENDBRANCH   1  29
TORSDOF 17
ENDMDL
MODEL 2
REMARK VINA RESULT:     -13.0      6.121     11.788
REMARK SMILES O=C(OCCOC(=O)c1ccc(-c2c3nc(c(-c4ccc(S(=O)(=O)[O-])cc4)c4ccc([nH]4)c(-c4ccc(S(=O)(=O)[O-])cc4)c4nc(c(-c5ccc(S(=O)(=O)[O-])cc5)c5ccc2[nH]5)C=C4)C=C3)cc1)C1=Cc2cc(Cl)cc(C#Cc3ccccc3)c2O[C@@H]1C(F)(F)F
REMARK SMILES IDX 5 1 4 2 3 3 2 4 1 5 69 6 70 7 87 8 71 9 86 10 72 11 85 12
REMARK SMILES IDX 73 13 76 14 74 15 75 16 88 17 89 18 90 19 91 20 77 21 78 22
REMARK SMILES IDX 79 23 80 24 84 25 81 26 83 27 82 28 6 29 7 30 8 31 9 32
REMARK SMILES IDX 10 33 68 34 11 35 67 36 12 37 13 38 14 39 61 40 15 41 66 42
REMARK SMILES IDX 60 43 62 44 16 45 65 46 59 47 58 48 17 50 47 51 28 52 46 53
REMARK SMILES IDX 29 54 32 55 45 56 63 57 30 58 31 59 44 61 64 62 33 63 18 64
REMARK SMILES IDX 19 65 27 66 20 67 26 68 21 69 22 70 23 71 24 72 25 73 48 74
REMARK SMILES IDX 49 75 57 76 50 77 56 78 51 79 52 80 53 81 54 82 55 83 34 84
REMARK SMILES IDX 35 85 43 86 36 87 42 88 37 89 38 90 39 91 40 92 41 93
REMARK H PARENT 62 49 32 60
REMARK Flexibility Score: inf
ROOT
ATOM      1  C   UNL A   1      38.024  23.414  26.061  1.00  0.00     0.275 C 
ENDROOT
BRANCH   1   2
ATOM      2  C   UNL A   1      36.718  23.386  24.320  1.00  0.00     0.275 C 
BRANCH   2   3
ATOM      3  O   UNL A   1      35.170  23.207  24.337  1.00  0.00    -0.459 OA
BRANCH   3   4
ATOM      4  C   UNL A   1      34.503  24.260  23.852  1.00  0.00     0.338 C 
ATOM      5  O   UNL A   1      34.669  24.899  22.847  1.00  0.00    -0.246 OA
BRANCH   4   6
ATOM      6  C   UNL A   1      33.763  24.506  25.062  1.00  0.00     0.087 C 
ATOM      7  C   UNL A   1      34.364  25.619  25.819  1.00  0.00     0.027 C 
ATOM      8  C   UNL A   1      32.003  24.525  24.263  1.00  0.00     0.316 C 
ATOM      9  C   UNL A   1      33.582  27.239  25.983  1.00  0.00     0.020 A 
ATOM     10  O   UNL A   1      31.183  26.270  24.378  1.00  0.00    -0.474 OA
ATOM     11  C   UNL A   1      34.303  28.224  26.601  1.00  0.00     0.032 A 
ATOM     12  C   UNL A   1      32.073  27.631  25.202  1.00  0.00     0.143 A 
ATOM     13  C   UNL A   1      33.729  29.497  26.534  1.00  0.00     0.043 A 
ATOM     14  C   UNL A   1      31.620  28.925  25.164  1.00  0.00     0.069 A 
ATOM     15  Cl  UNL A   1      34.613  30.793  27.276  1.00  0.00    -0.084 Cl
ATOM     16  C   UNL A   1      32.485  29.825  25.860  1.00  0.00     0.041 A 
BRANCH   8  17
ATOM     17  C   UNL A   1      31.551  23.092  24.725  1.00  0.00     0.430 C 
ATOM     18  F   UNL A   1      31.553  22.965  26.056  1.00  0.00    -0.167 F 
ATOM     19  F   UNL A   1      30.236  22.939  24.376  1.00  0.00    -0.167 F 
ATOM     20  F   UNL A   1      32.151  22.043  24.131  1.00  0.00    -0.167 F 
ENDBRANCH   8  17
BRANCH  14  21
ATOM     21  C   UNL A   1      30.535  29.486  24.455  1.00  0.00    -0.058 C 
ATOM     22  C   UNL A   1      29.824  30.083  23.673  1.00  0.00    -0.062 C 
BRANCH  22  23
ATOM     23  C   UNL A   1      29.120  30.862  22.710  1.00  0.00     0.025 A 
ATOM     24  C   UNL A   1      28.694  30.298  21.501  1.00  0.00     0.017 A 
ATOM     25  C   UNL A   1      28.886  32.215  22.959  1.00  0.00     0.017 A 
ATOM     26  C   UNL A   1      28.010  31.079  20.565  1.00  0.00     0.001 A 
ATOM     27  C   UNL A   1      28.204  32.994  22.024  1.00  0.00     0.001 A 
ATOM     28  C   UNL A   1      27.759  32.425  20.830  1.00  0.00     0.000 A 
ENDBRANCH  22  23
ENDBRANCH  14  21
ENDBRANCH   4   6
ENDBRANCH   3   4
ENDBRANCH   2   3
ENDBRANCH   1   2
BRANCH   1  29
ATOM     29  O   UNL A   1      38.714  24.799  26.773  1.00  0.00    -0.458 OA
BRANCH  29  30
ATOM     30  C   UNL A   1      39.869  25.521  26.909  1.00  0.00     0.338 C 
ATOM     31  O   UNL A   1      40.901  25.471  26.271  1.00  0.00    -0.246 OA
BRANCH  30  32
ATOM     32  C   UNL A   1      39.501  26.656  27.808  1.00  0.00     0.060 A 
ATOM     33  C   UNL A   1      38.905  26.380  29.049  1.00  0.00     0.016 A 
ATOM     34  C   UNL A   1      40.090  27.897  27.579  1.00  0.00     0.016 A 
ATOM     35  C   UNL A   1      39.151  27.232  30.139  1.00  0.00     0.010 A 
ATOM     36  C   UNL A   1      40.281  28.767  28.649  1.00  0.00     0.010 A 
ATOM     37  C   UNL A   1      39.894  28.404  29.952  1.00  0.00    -0.014 A 
BRANCH  37  38
ATOM     38  C   UNL A   1      40.075  29.416  31.022  1.00  0.00     0.031 A 
ATOM     39  C   UNL A   1      41.224  29.171  31.948  1.00  0.00     0.074 A 
ATOM     40  C   UNL A   1      39.167  30.378  31.288  1.00  0.00     0.049 A 
ATOM     41  N   UNL A   1      41.475  29.687  33.118  1.00  0.00    -0.248 NA
ATOM     42  C   UNL A   1      42.184  28.145  31.507  1.00  0.00     0.031 C 
ATOM     43  C   UNL A   1      38.003  30.713  30.467  1.00  0.00     0.029 A 
ATOM     44  N   UNL A   1      39.066  31.230  32.365  1.00  0.00    -0.354 N 
ATOM     45  C   UNL A   1      42.596  29.009  33.574  1.00  0.00     0.074 A 
ATOM     46  C   UNL A   1      42.947  28.027  32.576  1.00  0.00     0.031 C 
ATOM     47  C   UNL A   1      37.292  31.679  31.083  1.00  0.00     0.029 A 
ATOM     48  C   UNL A   1      37.926  32.008  32.361  1.00  0.00     0.049 A 
ATOM     49  H   UNL A   1      39.745  31.279  33.076  1.00  0.00     0.167 HD
ATOM     50  C   UNL A   1      43.279  29.181  34.728  1.00  0.00     0.031 A 
ATOM     51  C   UNL A   1      37.446  32.861  33.292  1.00  0.00     0.031 A 
ATOM     52  C   UNL A   1      42.901  30.125  35.735  1.00  0.00     0.049 A 
ATOM     53  C   UNL A   1      38.218  33.044  34.583  1.00  0.00     0.074 A 
ATOM     54  C   UNL A   1      43.522  30.397  36.938  1.00  0.00     0.029 A 
ATOM     55  N   UNL A   1      41.785  30.945  35.655  1.00  0.00    -0.354 N 
ATOM     56  N   UNL A   1      39.316  32.442  34.980  1.00  0.00    -0.248 NA
ATOM     57  C   UNL A   1      37.692  34.021  35.550  1.00  0.00     0.031 C 
ATOM     58  C   UNL A   1      42.756  31.356  37.607  1.00  0.00     0.029 A 
ATOM     59  C   UNL A   1      41.693  31.724  36.792  1.00  0.00     0.049 A 
ATOM     60  H   UNL A   1      41.152  30.968  34.901  1.00  0.00     0.167 HD
ATOM     61  C   UNL A   1      39.632  32.993  36.220  1.00  0.00     0.074 A 
ATOM     62  C   UNL A   1      38.609  33.976  36.510  1.00  0.00     0.031 C 
ATOM     63  C   UNL A   1      40.676  32.717  37.040  1.00  0.00     0.031 A 
BRANCH  50  64
ATOM     64  C   UNL A   1      44.453  28.268  34.936  1.00  0.00    -0.014 A 
ATOM     65  C   UNL A   1      44.273  26.968  35.449  1.00  0.00     0.010 A 
ATOM     66  C   UNL A   1      45.755  28.758  34.745  1.00  0.00     0.010 A 
ATOM     67  C   UNL A   1      45.372  26.216  35.863  1.00  0.00     0.020 A 
ATOM     68  C   UNL A   1      46.860  27.990  35.120  1.00  0.00     0.020 A 
ATOM     69  C   UNL A   1      46.658  26.741  35.712  1.00  0.00     0.054 A 
BRANCH  69  70
ATOM     70  S   UNL A   1      48.066  25.775  36.318  1.00  0.00     0.124 S 
ATOM     71  O   UNL A   1      47.684  24.418  35.933  1.00  0.00    -0.237 OA
ATOM     72  O   UNL A   1      49.188  26.343  35.577  1.00  0.00    -0.237 OA
ATOM     73  O   UNL A   1      48.073  26.037  37.754  1.00  0.00    -0.744 OA
ENDBRANCH  69  70
ENDBRANCH  50  64
BRANCH  51  74
ATOM     74  C   UNL A   1      36.178  33.621  33.058  1.00  0.00    -0.014 A 
ATOM     75  C   UNL A   1      36.216  34.965  32.641  1.00  0.00     0.010 A 
ATOM     76  C   UNL A   1      34.923  33.015  33.257  1.00  0.00     0.010 A 
ATOM     77  C   UNL A   1      35.034  35.687  32.433  1.00  0.00     0.020 A 
ATOM     78  C   UNL A   1      33.736  33.727  33.029  1.00  0.00     0.020 A 
ATOM     79  C   UNL A   1      33.799  35.061  32.622  1.00  0.00     0.054 A 
BRANCH  79  80
ATOM     80  S   UNL A   1      32.280  35.996  32.272  1.00  0.00     0.124 S 
ATOM     81  O   UNL A   1      32.451  36.344  30.864  1.00  0.00    -0.237 OA
ATOM     82  O   UNL A   1      31.235  35.016  32.557  1.00  0.00    -0.237 OA
ATOM     83  O   UNL A   1      32.343  37.117  33.205  1.00  0.00    -0.744 OA
ENDBRANCH  79  80
ENDBRANCH  51  74
BRANCH  63  84
ATOM     84  C   UNL A   1      40.830  33.524  38.303  1.00  0.00    -0.014 A 
ATOM     85  C   UNL A   1      40.286  33.091  39.523  1.00  0.00     0.010 A 
ATOM     86  C   UNL A   1      41.673  34.652  38.287  1.00  0.00     0.010 A 
ATOM     87  C   UNL A   1      40.588  33.770  40.708  1.00  0.00     0.020 A 
ATOM     88  C   UNL A   1      41.997  35.317  39.471  1.00  0.00     0.020 A 
ATOM     89  C   UNL A   1      41.450  34.872  40.675  1.00  0.00     0.054 A 
BRANCH  89  90
ATOM     90  S   UNL A   1      41.916  35.666  42.238  1.00  0.00     0.124 S 
ATOM     91  O   UNL A   1      42.533  36.907  41.777  1.00  0.00    -0.237 OA
ATOM     92  O   UNL A   1      40.630  35.817  42.916  1.00  0.00    -0.237 OA
ATOM     93  O   UNL A   1      42.830  34.708  42.857  1.00  0.00    -0.744 OA
ENDBRANCH  89  90
ENDBRANCH  63  84
ENDBRANCH  37  38
ENDBRANCH  30  32
ENDBRANCH  29  30
ENDBRANCH   1  29
TORSDOF 17
ENDMDL
MODEL 3
REMARK VINA RESULT:     -12.6      5.280      8.721
REMARK SMILES O=C(OCCOC(=O)c1ccc(-c2c3nc(c(-c4ccc(S(=O)(=O)[O-])cc4)c4ccc([nH]4)c(-c4ccc(S(=O)(=O)[O-])cc4)c4nc(c(-c5ccc(S(=O)(=O)[O-])cc5)c5ccc2[nH]5)C=C4)C=C3)cc1)C1=Cc2cc(Cl)cc(C#Cc3ccccc3)c2O[C@@H]1C(F)(F)F
REMARK SMILES IDX 5 1 4 2 3 3 2 4 1 5 69 6 70 7 87 8 71 9 86 10 72 11 85 12
REMARK SMILES IDX 73 13 76 14 74 15 75 16 88 17 89 18 90 19 91 20 77 21 78 22
REMARK SMILES IDX 79 23 80 24 84 25 81 26 83 27 82 28 6 29 7 30 8 31 9 32
REMARK SMILES IDX 10 33 68 34 11 35 67 36 12 37 13 38 14 39 61 40 15 41 66 42
REMARK SMILES IDX 60 43 62 44 16 45 65 46 59 47 58 48 17 50 47 51 28 52 46 53
REMARK SMILES IDX 29 54 32 55 45 56 63 57 30 58 31 59 44 61 64 62 33 63 18 64
REMARK SMILES IDX 19 65 27 66 20 67 26 68 21 69 22 70 23 71 24 72 25 73 48 74
REMARK SMILES IDX 49 75 57 76 50 77 56 78 51 79 52 80 53 81 54 82 55 83 34 84
REMARK SMILES IDX 35 85 43 86 36 87 42 88 37 89 38 90 39 91 40 92 41 93
REMARK H PARENT 62 49 32 60
REMARK Flexibility Score: inf
ROOT
ATOM      1  C   UNL A   1      34.948  33.869  30.722  1.00  0.00     0.275 C 
ENDROOT
BRANCH   1   2
ATOM      2  C   UNL A   1      35.393  34.213  32.824  1.00  0.00     0.275 C 
BRANCH   2   3
ATOM      3  O   UNL A   1      36.663  34.918  33.389  1.00  0.00    -0.459 OA
BRANCH   3   4
ATOM      4  C   UNL A   1      37.811  34.404  32.932  1.00  0.00     0.338 C 
ATOM      5  O   UNL A   1      38.312  34.451  31.840  1.00  0.00    -0.246 OA
BRANCH   4   6
ATOM      6  C   UNL A   1      38.041  33.573  34.085  1.00  0.00     0.087 C 
ATOM      7  C   UNL A   1      37.602  32.190  33.821  1.00  0.00     0.027 C 
ATOM      8  C   UNL A   1      39.866  34.120  34.410  1.00  0.00     0.316 C 
ATOM      9  C   UNL A   1      38.752  30.812  33.617  1.00  0.00     0.020 A 
ATOM     10  O   UNL A   1      41.109  32.668  34.133  1.00  0.00    -0.474 OA
ATOM     11  C   UNL A   1      38.224  29.605  33.247  1.00  0.00     0.032 A 
ATOM     12  C   UNL A   1      40.483  31.024  33.656  1.00  0.00     0.143 A 
ATOM     13  C   UNL A   1      39.170  28.628  32.923  1.00  0.00     0.043 A 
ATOM     14  C   UNL A   1      41.321  30.005  33.281  1.00  0.00     0.069 A 
ATOM     15  Cl  UNL A   1      38.559  27.084  32.419  1.00  0.00    -0.084 Cl
ATOM     16  C   UNL A   1      40.611  28.816  32.932  1.00  0.00     0.041 A 
BRANCH   8  17
ATOM     17  C   UNL A   1      39.582  35.076  35.626  1.00  0.00     0.430 C 
ATOM     18  F   UNL A   1      40.555  35.032  36.541  1.00  0.00    -0.167 F 
ATOM     19  F   UNL A   1      39.618  36.362  35.159  1.00  0.00    -0.167 F 
ATOM     20  F   UNL A   1      38.366  34.989  36.198  1.00  0.00    -0.167 F 
ENDBRANCH   8  17
BRANCH  14  21
ATOM     21  C   UNL A   1      42.718  30.010  33.077  1.00  0.00    -0.058 C 
ATOM     22  C   UNL A   1      43.921  30.151  33.172  1.00  0.00    -0.062 C 
BRANCH  22  23
ATOM     23  C   UNL A   1      45.300  30.421  33.399  1.00  0.00     0.025 A 
ATOM     24  C   UNL A   1      46.262  29.412  33.267  1.00  0.00     0.017 A 
ATOM     25  C   UNL A   1      45.694  31.701  33.795  1.00  0.00     0.017 A 
ATOM     26  C   UNL A   1      47.611  29.693  33.500  1.00  0.00     0.001 A 
ATOM     27  C   UNL A   1      47.041  31.981  34.027  1.00  0.00     0.001 A 
ATOM     28  C   UNL A   1      48.001  30.980  33.874  1.00  0.00     0.000 A 
ENDBRANCH  22  23
ENDBRANCH  14  21
ENDBRANCH   4   6
ENDBRANCH   3   4
ENDBRANCH   2   3
ENDBRANCH   1   2
BRANCH   1  29
ATOM     29  O   UNL A   1      34.555  32.371  30.013  1.00  0.00    -0.458 OA
BRANCH  29  30
ATOM     30  C   UNL A   1      34.476  31.687  28.830  1.00  0.00     0.338 C 
ATOM     31  O   UNL A   1      33.829  31.926  27.831  1.00  0.00    -0.246 OA
BRANCH  30  32
ATOM     32  C   UNL A   1      35.626  30.733  28.867  1.00  0.00     0.060 A 
ATOM     33  C   UNL A   1      36.452  30.614  27.738  1.00  0.00     0.016 A 
ATOM     34  C   UNL A   1      36.074  30.288  30.108  1.00  0.00     0.016 A 
ATOM     35  C   UNL A   1      37.816  30.317  27.908  1.00  0.00     0.010 A 
ATOM     36  C   UNL A   1      37.412  29.937  30.262  1.00  0.00     0.010 A 
ATOM     37  C   UNL A   1      38.312  30.034  29.186  1.00  0.00    -0.014 A 
BRANCH  37  38
ATOM     38  C   UNL A   1      39.705  29.579  29.420  1.00  0.00     0.031 A 
ATOM     39  C   UNL A   1      40.675  30.653  29.798  1.00  0.00     0.074 A 
ATOM     40  C   UNL A   1      40.133  28.335  29.122  1.00  0.00     0.049 A 
ATOM     41  N   UNL A   1      41.979  30.638  29.789  1.00  0.00    -0.248 NA
ATOM     42  C   UNL A   1      40.075  31.945  30.171  1.00  0.00     0.031 C 
ATOM     43  C   UNL A   1      39.290  27.203  28.739  1.00  0.00     0.029 A 
ATOM     44  N   UNL A   1      41.413  27.828  29.057  1.00  0.00    -0.354 N 
ATOM     45  C   UNL A   1      42.353  31.935  30.109  1.00  0.00     0.074 A 
ATOM     46  C   UNL A   1      41.145  32.710  30.264  1.00  0.00     0.031 C 
ATOM     47  C   UNL A   1      40.075  26.144  28.454  1.00  0.00     0.029 A 
ATOM     48  C   UNL A   1      41.479  26.529  28.596  1.00  0.00     0.049 A 
ATOM     49  H   UNL A   1      42.209  28.346  29.315  1.00  0.00     0.167 HD
ATOM     50  C   UNL A   1      43.595  32.446  30.256  1.00  0.00     0.031 A 
ATOM     51  C   UNL A   1      42.551  25.759  28.303  1.00  0.00     0.031 A 
ATOM     52  C   UNL A   1      44.790  31.686  30.056  1.00  0.00     0.049 A 
ATOM     53  C   UNL A   1      43.938  26.344  28.469  1.00  0.00     0.074 A 
ATOM     54  C   UNL A   1      46.103  32.091  30.190  1.00  0.00     0.029 A 
ATOM     55  N   UNL A   1      44.811  30.354  29.665  1.00  0.00    -0.354 N 
ATOM     56  N   UNL A   1      44.284  27.558  28.833  1.00  0.00    -0.248 NA
ATOM     57  C   UNL A   1      45.080  25.458  28.191  1.00  0.00     0.031 C 
ATOM     58  C   UNL A   1      46.921  31.014  29.838  1.00  0.00     0.029 A 
ATOM     59  C   UNL A   1      46.117  29.921  29.546  1.00  0.00     0.049 A 
ATOM     60  H   UNL A   1      44.013  29.801  29.497  1.00  0.00     0.167 HD
ATOM     61  C   UNL A   1      45.677  27.569  28.866  1.00  0.00     0.074 A 
ATOM     62  C   UNL A   1      46.113  26.242  28.482  1.00  0.00     0.031 C 
ATOM     63  C   UNL A   1      46.519  28.582  29.189  1.00  0.00     0.031 A 
BRANCH  50  64
ATOM     64  C   UNL A   1      43.665  33.909  30.592  1.00  0.00    -0.014 A 
ATOM     65  C   UNL A   1      43.805  34.876  29.577  1.00  0.00     0.010 A 
ATOM     66  C   UNL A   1      43.727  34.308  31.938  1.00  0.00     0.010 A 
ATOM     67  C   UNL A   1      44.108  36.198  29.902  1.00  0.00     0.020 A 
ATOM     68  C   UNL A   1      43.990  35.640  32.266  1.00  0.00     0.020 A 
ATOM     69  C   UNL A   1      44.217  36.567  31.245  1.00  0.00     0.054 A 
BRANCH  69  70
ATOM     70  S   UNL A   1      44.676  38.274  31.641  1.00  0.00     0.124 S 
ATOM     71  O   UNL A   1      46.119  38.157  31.839  1.00  0.00    -0.237 OA
ATOM     72  O   UNL A   1      44.266  39.003  30.445  1.00  0.00    -0.237 OA
ATOM     73  O   UNL A   1      43.903  38.570  32.844  1.00  0.00    -0.744 OA
ENDBRANCH  69  70
ENDBRANCH  50  64
BRANCH  51  74
ATOM     74  C   UNL A   1      42.378  24.352  27.826  1.00  0.00    -0.014 A 
ATOM     75  C   UNL A   1      42.238  23.296  28.748  1.00  0.00     0.010 A 
ATOM     76  C   UNL A   1      42.360  24.048  26.451  1.00  0.00     0.010 A 
ATOM     77  C   UNL A   1      42.090  21.974  28.309  1.00  0.00     0.020 A 
ATOM     78  C   UNL A   1      42.189  22.729  26.007  1.00  0.00     0.020 A 
ATOM     79  C   UNL A   1      42.059  21.698  26.940  1.00  0.00     0.054 A 
BRANCH  79  80
ATOM     80  S   UNL A   1      41.789  19.985  26.397  1.00  0.00     0.124 S 
ATOM     81  O   UNL A   1      42.161  19.223  27.585  1.00  0.00    -0.237 OA
ATOM     82  O   UNL A   1      40.367  19.981  26.064  1.00  0.00    -0.237 OA
ATOM     83  O   UNL A   1      42.688  19.841  25.255  1.00  0.00    -0.744 OA
ENDBRANCH  79  80
ENDBRANCH  51  74
BRANCH  63  84
ATOM     84  C   UNL A   1      47.999  28.303  29.221  1.00  0.00    -0.014 A 
ATOM     85  C   UNL A   1      48.820  28.561  28.110  1.00  0.00     0.010 A 
ATOM     86  C   UNL A   1      48.591  27.928  30.442  1.00  0.00     0.010 A 
ATOM     87  C   UNL A   1      50.210  28.453  28.223  1.00  0.00     0.020 A 
ATOM     88  C   UNL A   1      49.979  27.845  30.565  1.00  0.00     0.020 A 
ATOM     89  C   UNL A   1      50.780  28.107  29.453  1.00  0.00     0.054 A 
BRANCH  89  90
ATOM     90  S   UNL A   1      52.588  28.084  29.604  1.00  0.00     0.124 S 
ATOM     91  O   UNL A   1      52.957  27.006  28.689  1.00  0.00    -0.237 OA
ATOM     92  O   UNL A   1      52.963  29.429  29.174  1.00  0.00    -0.237 OA
ATOM     93  O   UNL A   1      52.815  27.804  31.021  1.00  0.00    -0.744 OA
ENDBRANCH  89  90
ENDBRANCH  63  84
ENDBRANCH  37  38
ENDBRANCH  30  32
ENDBRANCH  29  30
ENDBRANCH   1  29
TORSDOF 17
ENDMDL
