MODEL 1
REMARK VINA RESULT:      -8.3      0.000      0.000
REMARK SMILES CC(C)Cc1ccc([C@H](CF)C(=O)OCCOC(=O)c2ccc(-c3c4nc(c(-c5ccc(S(=O)(=O)[O-])cc5)c5ccc([nH]5)c(-c5ccc(S(=O)(=O)[O-])cc5)c5nc(c(-c6ccc(S(=O)(=O)[O-])cc6)c6ccc3[nH]6)C=C5)C=C4)cc2)cc1
REMARK SMILES IDX 15 1 14 2 12 3 13 4 9 5 8 6 5 7 6 8 81 9 7 10 80 11 4 12
REMARK SMILES IDX 2 13 1 14 3 15 10 16 11 17 16 18 17 19 18 20 19 21 20 22
REMARK SMILES IDX 21 23 79 24 22 25 78 26 23 27 24 28 25 29 72 30 26 31 77 32
REMARK SMILES IDX 71 33 73 34 27 35 76 36 70 37 69 38 28 40 58 41 39 42 57 43
REMARK SMILES IDX 40 44 43 45 56 46 74 47 41 48 42 49 55 51 75 52 44 53 29 54
REMARK SMILES IDX 30 55 38 56 31 57 37 58 32 59 33 60 34 61 35 62 36 63 59 64
REMARK SMILES IDX 60 65 68 66 61 67 67 68 62 69 63 70 64 71 65 72 66 73 45 74
REMARK SMILES IDX 46 75 54 76 47 77 53 78 48 79 49 80 50 81 51 82 52 83
REMARK H PARENT 73 39 43 50
REMARK Flexibility Score: inf
ROOT
ATOM      1  C   UNL A   1      42.242  20.196  26.125  1.00  0.00     0.274 C 
ENDROOT
BRANCH   1   2
ATOM      2  O   UNL A   1      42.836  21.429  26.579  1.00  0.00    -0.462 OA
BRANCH   2   3
ATOM      3  C   UNL A   1      43.528  22.136  25.644  1.00  0.00     0.316 C 
ATOM      4  O   UNL A   1      42.999  22.767  24.735  1.00  0.00    -0.251 OA
BRANCH   3   5
ATOM      5  C   UNL A   1      45.040  22.006  25.777  1.00  0.00     0.160 C 
BRANCH   5   6
ATOM      6  C   UNL A   1      45.608  23.112  26.645  1.00  0.00    -0.031 A 
ATOM      7  C   UNL A   1      46.871  24.983  28.314  1.00  0.00    -0.048 A 
ATOM      8  C   UNL A   1      45.712  24.321  28.739  1.00  0.00     0.004 A 
ATOM      9  C   UNL A   1      47.352  24.758  27.020  1.00  0.00     0.004 A 
ATOM     10  C   UNL A   1      45.081  23.394  27.910  1.00  0.00     0.005 A 
ATOM     11  C   UNL A   1      46.726  23.829  26.193  1.00  0.00     0.005 A 
BRANCH   7  12
ATOM     12  C   UNL A   1      47.653  25.850  29.270  1.00  0.00     0.038 C 
BRANCH  12  13
ATOM     13  C   UNL A   1      46.807  26.296  30.483  1.00  0.00    -0.013 C 
ATOM     14  C   UNL A   1      47.582  26.197  31.802  1.00  0.00     0.008 C 
ATOM     15  C   UNL A   1      46.317  27.728  30.278  1.00  0.00     0.008 C 
ENDBRANCH  12  13
ENDBRANCH   7  12
ENDBRANCH   5   6
BRANCH   5  16
ATOM     16  C   UNL A   1      45.784  21.835  24.463  1.00  0.00     0.234 C 
ATOM     17  F   UNL A   1      45.409  22.845  23.625  1.00  0.00    -0.250 F 
ENDBRANCH   5  16
ENDBRANCH   3   5
ENDBRANCH   2   3
ENDBRANCH   1   2
BRANCH   1  18
ATOM     18  C   UNL A   1      40.716  20.209  26.251  1.00  0.00     0.275 C 
BRANCH  18  19
ATOM     19  O   UNL A   1      40.262  21.207  27.183  1.00  0.00    -0.458 OA
BRANCH  19  20
ATOM     20  C   UNL A   1      39.450  22.154  26.651  1.00  0.00     0.338 C 
ATOM     21  O   UNL A   1      38.425  21.964  26.022  1.00  0.00    -0.246 OA
BRANCH  20  22
ATOM     22  C   UNL A   1      39.922  23.488  27.052  1.00  0.00     0.060 A 
ATOM     23  C   UNL A   1      39.501  24.591  26.305  1.00  0.00     0.016 A 
ATOM     24  C   UNL A   1      40.834  23.647  28.094  1.00  0.00     0.016 A 
ATOM     25  C   UNL A   1      39.989  25.862  26.590  1.00  0.00     0.010 A 
ATOM     26  C   UNL A   1      41.326  24.925  28.381  1.00  0.00     0.010 A 
ATOM     27  C   UNL A   1      40.916  26.037  27.623  1.00  0.00    -0.014 A 
BRANCH  27  28
ATOM     28  C   UNL A   1      41.502  27.377  27.859  1.00  0.00     0.031 A 
ATOM     29  C   UNL A   1      42.905  27.663  27.405  1.00  0.00     0.074 A 
ATOM     30  C   UNL A   1      40.771  28.337  28.456  1.00  0.00     0.049 A 
ATOM     31  N   UNL A   1      43.632  28.733  27.595  1.00  0.00    -0.248 NA
ATOM     32  C   UNL A   1      43.581  26.602  26.640  1.00  0.00     0.031 C 
ATOM     33  C   UNL A   1      39.380  28.195  28.890  1.00  0.00     0.029 A 
ATOM     34  N   UNL A   1      41.101  29.622  28.805  1.00  0.00    -0.354 N 
ATOM     35  C   UNL A   1      44.860  28.465  27.003  1.00  0.00     0.074 A 
ATOM     36  C   UNL A   1      44.783  27.129  26.451  1.00  0.00     0.031 C 
ATOM     37  C   UNL A   1      38.977  29.348  29.448  1.00  0.00     0.029 A 
ATOM     38  C   UNL A   1      40.092  30.291  29.456  1.00  0.00     0.049 A 
ATOM     39  H   UNL A   1      41.976  30.027  28.607  1.00  0.00     0.167 HD
ATOM     40  C   UNL A   1      45.955  29.260  26.933  1.00  0.00     0.031 A 
ATOM     41  C   UNL A   1      40.079  31.513  30.023  1.00  0.00     0.031 A 
ATOM     42  C   UNL A   1      46.020  30.592  27.471  1.00  0.00     0.049 A 
ATOM     43  C   UNL A   1      41.322  32.358  29.972  1.00  0.00     0.074 A 
ATOM     44  C   UNL A   1      47.077  31.485  27.435  1.00  0.00     0.029 A 
ATOM     45  N   UNL A   1      44.985  31.225  28.143  1.00  0.00    -0.354 N 
ATOM     46  N   UNL A   1      42.479  32.088  29.413  1.00  0.00    -0.248 NA
ATOM     47  C   UNL A   1      41.261  33.671  30.630  1.00  0.00     0.031 C 
ATOM     48  C   UNL A   1      46.696  32.642  28.123  1.00  0.00     0.029 A 
ATOM     49  C   UNL A   1      45.385  32.488  28.546  1.00  0.00     0.049 A 
ATOM     50  H   UNL A   1      44.098  30.834  28.309  1.00  0.00     0.167 HD
ATOM     51  C   UNL A   1      43.275  33.205  29.636  1.00  0.00     0.074 A 
ATOM     52  C   UNL A   1      42.465  34.160  30.365  1.00  0.00     0.031 C 
ATOM     53  C   UNL A   1      44.563  33.423  29.270  1.00  0.00     0.031 A 
BRANCH  40  54
ATOM     54  C   UNL A   1      47.190  28.689  26.289  1.00  0.00    -0.014 A 
ATOM     55  C   UNL A   1      47.227  28.376  24.920  1.00  0.00     0.010 A 
ATOM     56  C   UNL A   1      48.347  28.499  27.067  1.00  0.00     0.010 A 
ATOM     57  C   UNL A   1      48.389  27.853  24.345  1.00  0.00     0.020 A 
ATOM     58  C   UNL A   1      49.518  27.998  26.493  1.00  0.00     0.020 A 
ATOM     59  C   UNL A   1      49.527  27.663  25.138  1.00  0.00     0.054 A 
BRANCH  59  60
ATOM     60  S   UNL A   1      51.031  27.006  24.366  1.00  0.00     0.124 S 
ATOM     61  O   UNL A   1      51.356  25.885  25.246  1.00  0.00    -0.237 OA
ATOM     62  O   UNL A   1      50.575  26.641  23.028  1.00  0.00    -0.237 OA
ATOM     63  O   UNL A   1      51.966  28.128  24.418  1.00  0.00    -0.744 OA
ENDBRANCH  59  60
ENDBRANCH  40  54
BRANCH  41  64
ATOM     64  C   UNL A   1      38.859  31.995  30.726  1.00  0.00    -0.014 A 
ATOM     65  C   UNL A   1      37.845  32.670  30.026  1.00  0.00     0.010 A 
ATOM     66  C   UNL A   1      38.709  31.780  32.109  1.00  0.00     0.010 A 
ATOM     67  C   UNL A   1      36.712  33.139  30.699  1.00  0.00     0.020 A 
ATOM     68  C   UNL A   1      37.567  32.224  32.780  1.00  0.00     0.020 A 
ATOM     69  C   UNL A   1      36.582  32.914  32.072  1.00  0.00     0.054 A 
BRANCH  69  70
ATOM     70  S   UNL A   1      35.086  33.492  32.922  1.00  0.00     0.124 S 
ATOM     71  O   UNL A   1      34.035  32.774  32.205  1.00  0.00    -0.237 OA
ATOM     72  O   UNL A   1      35.316  33.065  34.300  1.00  0.00    -0.237 OA
ATOM     73  O   UNL A   1      35.111  34.938  32.713  1.00  0.00    -0.744 OA
ENDBRANCH  69  70
ENDBRANCH  41  64
BRANCH  53  74
ATOM     74  C   UNL A   1      45.163  34.756  29.623  1.00  0.00    -0.014 A 
ATOM     75  C   UNL A   1      45.888  34.934  30.815  1.00  0.00     0.010 A 
ATOM     76  C   UNL A   1      45.038  35.832  28.727  1.00  0.00     0.010 A 
ATOM     77  C   UNL A   1      46.451  36.176  31.118  1.00  0.00     0.020 A 
ATOM     78  C   UNL A   1      45.620  37.069  29.015  1.00  0.00     0.020 A 
ATOM     79  C   UNL A   1      46.310  37.237  30.217  1.00  0.00     0.054 A 
BRANCH  79  80
ATOM     80  S   UNL A   1      47.082  38.831  30.611  1.00  0.00     0.124 S 
ATOM     81  O   UNL A   1      48.022  38.459  31.667  1.00  0.00    -0.237 OA
ATOM     82  O   UNL A   1      47.688  39.221  29.341  1.00  0.00    -0.237 OA
ATOM     83  O   UNL A   1      45.959  39.662  31.040  1.00  0.00    -0.744 OA
ENDBRANCH  79  80
ENDBRANCH  53  74
ENDBRANCH  27  28
ENDBRANCH  20  22
ENDBRANCH  19  20
ENDBRANCH  18  19
ENDBRANCH   1  18
TORSDOF 18
ENDMDL
MODEL 2
REMARK VINA RESULT:      -8.1      2.443      8.487
REMARK SMILES CC(C)Cc1ccc([C@H](CF)C(=O)OCCOC(=O)c2ccc(-c3c4nc(c(-c5ccc(S(=O)(=O)[O-])cc5)c5ccc([nH]5)c(-c5ccc(S(=O)(=O)[O-])cc5)c5nc(c(-c6ccc(S(=O)(=O)[O-])cc6)c6ccc3[nH]6)C=C5)C=C4)cc2)cc1
REMARK SMILES IDX 15 1 14 2 12 3 13 4 9 5 8 6 5 7 6 8 81 9 7 10 80 11 4 12
REMARK SMILES IDX 2 13 1 14 3 15 10 16 11 17 16 18 17 19 18 20 19 21 20 22
REMARK SMILES IDX 21 23 79 24 22 25 78 26 23 27 24 28 25 29 72 30 26 31 77 32
REMARK SMILES IDX 71 33 73 34 27 35 76 36 70 37 69 38 28 40 58 41 39 42 57 43
REMARK SMILES IDX 40 44 43 45 56 46 74 47 41 48 42 49 55 51 75 52 44 53 29 54
REMARK SMILES IDX 30 55 38 56 31 57 37 58 32 59 33 60 34 61 35 62 36 63 59 64
REMARK SMILES IDX 60 65 68 66 61 67 67 68 62 69 63 70 64 71 65 72 66 73 45 74
REMARK SMILES IDX 46 75 54 76 47 77 53 78 48 79 49 80 50 81 51 82 52 83
REMARK H PARENT 73 39 43 50
REMARK Flexibility Score: inf
ROOT
ATOM      1  C   UNL A   1      41.676  21.321  26.149  1.00  0.00     0.274 C 
ENDROOT
BRANCH   1   2
ATOM      2  O   UNL A   1      42.136  22.664  25.897  1.00  0.00    -0.462 OA
BRANCH   2   3
ATOM      3  C   UNL A   1      43.305  22.773  25.208  1.00  0.00     0.316 C 
ATOM      4  O   UNL A   1      43.402  22.604  23.996  1.00  0.00    -0.251 OA
BRANCH   3   5
ATOM      5  C   UNL A   1      44.512  23.047  26.095  1.00  0.00     0.160 C 
BRANCH   5   6
ATOM      6  C   UNL A   1      44.764  24.535  26.230  1.00  0.00    -0.031 A 
ATOM      7  C   UNL A   1      45.308  27.289  26.207  1.00  0.00    -0.048 A 
ATOM      8  C   UNL A   1      46.187  26.398  26.836  1.00  0.00     0.004 A 
ATOM      9  C   UNL A   1      44.119  26.804  25.655  1.00  0.00     0.004 A 
ATOM     10  C   UNL A   1      45.917  25.030  26.852  1.00  0.00     0.005 A 
ATOM     11  C   UNL A   1      43.851  25.437  25.665  1.00  0.00     0.005 A 
BRANCH   7  12
ATOM     12  C   UNL A   1      45.684  28.741  26.036  1.00  0.00     0.038 C 
BRANCH  12  13
ATOM     13  C   UNL A   1      45.188  29.618  27.206  1.00  0.00    -0.013 C 
ATOM     14  C   UNL A   1      46.092  30.832  27.448  1.00  0.00     0.008 C 
ATOM     15  C   UNL A   1      43.758  30.084  26.939  1.00  0.00     0.008 C 
ENDBRANCH  12  13
ENDBRANCH   7  12
ENDBRANCH   5   6
BRANCH   5  16
ATOM     16  C   UNL A   1      45.761  22.259  25.734  1.00  0.00     0.234 C 
ATOM     17  F   UNL A   1      45.390  20.978  25.445  1.00  0.00    -0.250 F 
ENDBRANCH   5  16
ENDBRANCH   3   5
ENDBRANCH   2   3
ENDBRANCH   1   2
BRANCH   1  18
ATOM     18  C   UNL A   1      40.193  21.145  25.810  1.00  0.00     0.275 C 
BRANCH  18  19
ATOM     19  O   UNL A   1      39.345  21.882  26.709  1.00  0.00    -0.458 OA
BRANCH  19  20
ATOM     20  C   UNL A   1      38.720  22.949  26.153  1.00  0.00     0.338 C 
ATOM     21  O   UNL A   1      37.869  22.923  25.281  1.00  0.00    -0.246 OA
BRANCH  20  22
ATOM     22  C   UNL A   1      39.129  24.178  26.851  1.00  0.00     0.060 A 
ATOM     23  C   UNL A   1      39.938  25.088  26.168  1.00  0.00     0.016 A 
ATOM     24  C   UNL A   1      38.793  24.393  28.187  1.00  0.00     0.016 A 
ATOM     25  C   UNL A   1      40.423  26.221  26.814  1.00  0.00     0.010 A 
ATOM     26  C   UNL A   1      39.281  25.533  28.837  1.00  0.00     0.010 A 
ATOM     27  C   UNL A   1      40.108  26.445  28.158  1.00  0.00    -0.014 A 
BRANCH  27  28
ATOM     28  C   UNL A   1      40.705  27.603  28.865  1.00  0.00     0.031 A 
ATOM     29  C   UNL A   1      39.872  28.827  29.118  1.00  0.00     0.074 A 
ATOM     30  C   UNL A   1      41.979  27.546  29.296  1.00  0.00     0.049 A 
ATOM     31  N   UNL A   1      40.226  29.975  29.634  1.00  0.00    -0.248 NA
ATOM     32  C   UNL A   1      38.452  28.750  28.734  1.00  0.00     0.031 C 
ATOM     33  C   UNL A   1      42.868  26.391  29.159  1.00  0.00     0.029 A 
ATOM     34  N   UNL A   1      42.747  28.486  29.935  1.00  0.00    -0.354 N 
ATOM     35  C   UNL A   1      39.086  30.768  29.609  1.00  0.00     0.074 A 
ATOM     36  C   UNL A   1      38.027  29.973  29.022  1.00  0.00     0.031 C 
ATOM     37  C   UNL A   1      44.062  26.693  29.697  1.00  0.00     0.029 A 
ATOM     38  C   UNL A   1      44.037  28.073  30.170  1.00  0.00     0.049 A 
ATOM     39  H   UNL A   1      42.407  29.371  30.200  1.00  0.00     0.167 HD
ATOM     40  C   UNL A   1      38.938  32.047  30.031  1.00  0.00     0.031 A 
ATOM     41  C   UNL A   1      45.088  28.744  30.682  1.00  0.00     0.031 A 
ATOM     42  C   UNL A   1      39.990  32.826  30.627  1.00  0.00     0.049 A 
ATOM     43  C   UNL A   1      44.910  30.178  31.100  1.00  0.00     0.074 A 
ATOM     44  C   UNL A   1      39.935  34.125  31.104  1.00  0.00     0.029 A 
ATOM     45  N   UNL A   1      41.288  32.381  30.827  1.00  0.00    -0.354 N 
ATOM     46  N   UNL A   1      43.825  30.917  31.065  1.00  0.00    -0.248 NA
ATOM     47  C   UNL A   1      46.096  30.870  31.624  1.00  0.00     0.031 C 
ATOM     48  C   UNL A   1      41.212  34.479  31.554  1.00  0.00     0.029 A 
ATOM     49  C   UNL A   1      42.049  33.385  31.401  1.00  0.00     0.049 A 
ATOM     50  H   UNL A   1      41.619  31.484  30.595  1.00  0.00     0.167 HD
ATOM     51  C   UNL A   1      44.196  32.154  31.581  1.00  0.00     0.074 A 
ATOM     52  C   UNL A   1      45.597  32.059  31.935  1.00  0.00     0.031 C 
ATOM     53  C   UNL A   1      43.443  33.270  31.747  1.00  0.00     0.031 A 
BRANCH  40  54
ATOM     54  C   UNL A   1      37.598  32.699  29.821  1.00  0.00    -0.014 A 
ATOM     55  C   UNL A   1      36.709  32.912  30.887  1.00  0.00     0.010 A 
ATOM     56  C   UNL A   1      37.242  33.140  28.532  1.00  0.00     0.010 A 
ATOM     57  C   UNL A   1      35.473  33.527  30.665  1.00  0.00     0.020 A 
ATOM     58  C   UNL A   1      36.018  33.774  28.309  1.00  0.00     0.020 A 
ATOM     59  C   UNL A   1      35.133  33.950  29.375  1.00  0.00     0.054 A 
BRANCH  59  60
ATOM     60  S   UNL A   1      33.535  34.766  29.114  1.00  0.00     0.124 S 
ATOM     61  O   UNL A   1      32.885  33.861  28.168  1.00  0.00    -0.237 OA
ATOM     62  O   UNL A   1      32.960  34.789  30.457  1.00  0.00    -0.237 OA
ATOM     63  O   UNL A   1      33.897  36.074  28.574  1.00  0.00    -0.744 OA
ENDBRANCH  59  60
ENDBRANCH  40  54
BRANCH  41  64
ATOM     64  C   UNL A   1      46.416  28.080  30.785  1.00  0.00    -0.014 A 
ATOM     65  C   UNL A   1      47.365  28.205  29.756  1.00  0.00     0.010 A 
ATOM     66  C   UNL A   1      46.736  27.312  31.921  1.00  0.00     0.010 A 
ATOM     67  C   UNL A   1      48.601  27.559  29.851  1.00  0.00     0.020 A 
ATOM     68  C   UNL A   1      47.980  26.687  32.031  1.00  0.00     0.020 A 
ATOM     69  C   UNL A   1      48.900  26.803  30.988  1.00  0.00     0.054 A 
BRANCH  69  70
ATOM     70  S   UNL A   1      50.526  26.007  31.115  1.00  0.00     0.124 S 
ATOM     71  O   UNL A   1      51.335  27.065  31.712  1.00  0.00    -0.237 OA
ATOM     72  O   UNL A   1      50.253  24.858  31.975  1.00  0.00    -0.237 OA
ATOM     73  O   UNL A   1      50.852  25.675  29.729  1.00  0.00    -0.744 OA
ENDBRANCH  69  70
ENDBRANCH  41  64
BRANCH  53  74
ATOM     74  C   UNL A   1      44.111  34.465  32.368  1.00  0.00    -0.014 A 
ATOM     75  C   UNL A   1      44.845  35.375  31.586  1.00  0.00     0.010 A 
ATOM     76  C   UNL A   1      43.965  34.703  33.746  1.00  0.00     0.010 A 
ATOM     77  C   UNL A   1      45.446  36.488  32.179  1.00  0.00     0.020 A 
ATOM     78  C   UNL A   1      44.544  35.828  34.339  1.00  0.00     0.020 A 
ATOM     79  C   UNL A   1      45.294  36.706  33.553  1.00  0.00     0.054 A 
BRANCH  79  80
ATOM     80  S   UNL A   1      46.050  38.178  34.296  1.00  0.00     0.124 S 
ATOM     81  O   UNL A   1      47.259  37.625  34.901  1.00  0.00    -0.237 OA
ATOM     82  O   UNL A   1      46.267  39.048  33.144  1.00  0.00    -0.237 OA
ATOM     83  O   UNL A   1      45.038  38.647  35.241  1.00  0.00    -0.744 OA
ENDBRANCH  79  80
ENDBRANCH  53  74
ENDBRANCH  27  28
ENDBRANCH  20  22
ENDBRANCH  19  20
ENDBRANCH  18  19
ENDBRANCH   1  18
TORSDOF 18
ENDMDL
MODEL 3
REMARK VINA RESULT:      -8.0      4.638     10.982
REMARK SMILES CC(C)Cc1ccc([C@H](CF)C(=O)OCCOC(=O)c2ccc(-c3c4nc(c(-c5ccc(S(=O)(=O)[O-])cc5)c5ccc([nH]5)c(-c5ccc(S(=O)(=O)[O-])cc5)c5nc(c(-c6ccc(S(=O)(=O)[O-])cc6)c6ccc3[nH]6)C=C5)C=C4)cc2)cc1
REMARK SMILES IDX 15 1 14 2 12 3 13 4 9 5 8 6 5 7 6 8 81 9 7 10 80 11 4 12
REMARK SMILES IDX 2 13 1 14 3 15 10 16 11 17 16 18 17 19 18 20 19 21 20 22
REMARK SMILES IDX 21 23 79 24 22 25 78 26 23 27 24 28 25 29 72 30 26 31 77 32
REMARK SMILES IDX 71 33 73 34 27 35 76 36 70 37 69 38 28 40 58 41 39 42 57 43
REMARK SMILES IDX 40 44 43 45 56 46 74 47 41 48 42 49 55 51 75 52 44 53 29 54
REMARK SMILES IDX 30 55 38 56 31 57 37 58 32 59 33 60 34 61 35 62 36 63 59 64
REMARK SMILES IDX 60 65 68 66 61 67 67 68 62 69 63 70 64 71 65 72 66 73 45 74
REMARK SMILES IDX 46 75 54 76 47 77 53 78 48 79 49 80 50 81 51 82 52 83
REMARK H PARENT 73 39 43 50
REMARK Flexibility Score: inf
ROOT
ATOM      1  C   UNL A   1      32.222  29.335  25.573  1.00  0.00     0.274 C 
ENDROOT
BRANCH   1   2
ATOM      2  O   UNL A   1      33.267  29.357  24.579  1.00  0.00    -0.462 OA
BRANCH   2   3
ATOM      3  C   UNL A   1      33.117  28.490  23.540  1.00  0.00     0.316 C 
ATOM      4  O   UNL A   1      33.568  28.686  22.416  1.00  0.00    -0.251 OA
BRANCH   3   5
ATOM      5  C   UNL A   1      32.259  27.277  23.877  1.00  0.00     0.160 C 
BRANCH   5   6
ATOM      6  C   UNL A   1      33.114  26.040  24.067  1.00  0.00    -0.031 A 
ATOM      7  C   UNL A   1      34.467  23.623  24.522  1.00  0.00    -0.048 A 
ATOM      8  C   UNL A   1      34.676  24.722  25.364  1.00  0.00     0.004 A 
ATOM      9  C   UNL A   1      33.634  23.762  23.408  1.00  0.00     0.004 A 
ATOM     10  C   UNL A   1      34.009  25.925  25.138  1.00  0.00     0.005 A 
ATOM     11  C   UNL A   1      32.962  24.961  23.184  1.00  0.00     0.005 A 
BRANCH   7  12
ATOM     12  C   UNL A   1      35.049  22.273  24.865  1.00  0.00     0.038 C 
BRANCH  12  13
ATOM     13  C   UNL A   1      36.487  22.101  24.329  1.00  0.00    -0.013 C 
ATOM     14  C   UNL A   1      36.728  22.895  23.040  1.00  0.00     0.008 C 
ATOM     15  C   UNL A   1      37.495  22.527  25.395  1.00  0.00     0.008 C 
ENDBRANCH  12  13
ENDBRANCH   7  12
ENDBRANCH   5   6
BRANCH   5  16
ATOM     16  C   UNL A   1      31.080  27.052  22.946  1.00  0.00     0.234 C 
ATOM     17  F   UNL A   1      29.951  26.938  23.704  1.00  0.00    -0.250 F 
ENDBRANCH   5  16
ENDBRANCH   3   5
ENDBRANCH   2   3
ENDBRANCH   1   2
BRANCH   1  18
ATOM     18  C   UNL A   1      32.599  30.133  26.824  1.00  0.00     0.275 C 
BRANCH  18  19
ATOM     19  O   UNL A   1      33.808  29.643  27.430  1.00  0.00    -0.458 OA
BRANCH  19  20
ATOM     20  C   UNL A   1      34.549  30.585  28.064  1.00  0.00     0.338 C 
ATOM     21  O   UNL A   1      34.159  31.663  28.477  1.00  0.00    -0.246 OA
BRANCH  20  22
ATOM     22  C   UNL A   1      35.904  30.067  28.304  1.00  0.00     0.060 A 
ATOM     23  C   UNL A   1      36.207  29.568  29.572  1.00  0.00     0.016 A 
ATOM     24  C   UNL A   1      36.891  30.149  27.321  1.00  0.00     0.016 A 
ATOM     25  C   UNL A   1      37.499  29.148  29.873  1.00  0.00     0.010 A 
ATOM     26  C   UNL A   1      38.190  29.727  27.624  1.00  0.00     0.010 A 
ATOM     27  C   UNL A   1      38.505  29.237  28.904  1.00  0.00    -0.014 A 
BRANCH  27  28
ATOM     28  C   UNL A   1      39.897  28.878  29.261  1.00  0.00     0.031 A 
ATOM     29  C   UNL A   1      40.754  29.869  29.996  1.00  0.00     0.074 A 
ATOM     30  C   UNL A   1      40.380  27.661  28.947  1.00  0.00     0.049 A 
ATOM     31  N   UNL A   1      42.018  29.788  30.319  1.00  0.00    -0.248 NA
ATOM     32  C   UNL A   1      40.102  31.120  30.419  1.00  0.00     0.031 C 
ATOM     33  C   UNL A   1      39.626  26.595  28.285  1.00  0.00     0.029 A 
ATOM     34  N   UNL A   1      41.626  27.119  29.141  1.00  0.00    -0.354 N 
ATOM     35  C   UNL A   1      42.323  30.986  30.953  1.00  0.00     0.074 A 
ATOM     36  C   UNL A   1      41.113  31.780  30.967  1.00  0.00     0.031 C 
ATOM     37  C   UNL A   1      40.426  25.528  28.126  1.00  0.00     0.029 A 
ATOM     38  C   UNL A   1      41.758  25.850  28.629  1.00  0.00     0.049 A 
ATOM     39  H   UNL A   1      42.355  27.593  29.603  1.00  0.00     0.167 HD
ATOM     40  C   UNL A   1      43.509  31.388  31.472  1.00  0.00     0.031 A 
ATOM     41  C   UNL A   1      42.840  25.050  28.548  1.00  0.00     0.031 A 
ATOM     42  C   UNL A   1      44.704  30.587  31.469  1.00  0.00     0.049 A 
ATOM     43  C   UNL A   1      44.155  25.539  29.090  1.00  0.00     0.074 A 
ATOM     44  C   UNL A   1      45.950  30.898  31.986  1.00  0.00     0.029 A 
ATOM     45  N   UNL A   1      44.803  29.317  30.921  1.00  0.00    -0.354 N 
ATOM     46  N   UNL A   1      44.429  26.677  29.683  1.00  0.00    -0.248 NA
ATOM     47  C   UNL A   1      45.307  24.638  28.950  1.00  0.00     0.031 C 
ATOM     48  C   UNL A   1      46.814  29.832  31.713  1.00  0.00     0.029 A 
ATOM     49  C   UNL A   1      46.094  28.838  31.068  1.00  0.00     0.049 A 
ATOM     50  H   UNL A   1      44.065  28.828  30.492  1.00  0.00     0.167 HD
ATOM     51  C   UNL A   1      45.781  26.620  30.003  1.00  0.00     0.074 A 
ATOM     52  C   UNL A   1      46.264  25.330  29.554  1.00  0.00     0.031 C 
ATOM     53  C   UNL A   1      46.554  27.551  30.615  1.00  0.00     0.031 A 
BRANCH  40  54
ATOM     54  C   UNL A   1      43.582  32.777  32.046  1.00  0.00    -0.014 A 
ATOM     55  C   UNL A   1      43.535  33.915  31.224  1.00  0.00     0.010 A 
ATOM     56  C   UNL A   1      43.661  32.942  33.442  1.00  0.00     0.010 A 
ATOM     57  C   UNL A   1      43.597  35.195  31.784  1.00  0.00     0.020 A 
ATOM     58  C   UNL A   1      43.701  34.218  34.008  1.00  0.00     0.020 A 
ATOM     59  C   UNL A   1      43.685  35.338  33.173  1.00  0.00     0.054 A 
BRANCH  59  60
ATOM     60  S   UNL A   1      43.741  37.007  33.880  1.00  0.00     0.124 S 
ATOM     61  O   UNL A   1      42.322  37.297  34.080  1.00  0.00    -0.237 OA
ATOM     62  O   UNL A   1      44.521  36.817  35.100  1.00  0.00    -0.237 OA
ATOM     63  O   UNL A   1      44.397  37.801  32.843  1.00  0.00    -0.744 OA
ENDBRANCH  59  60
ENDBRANCH  40  54
BRANCH  41  64
ATOM     64  C   UNL A   1      42.734  23.720  27.889  1.00  0.00    -0.014 A 
ATOM     65  C   UNL A   1      42.351  22.583  28.621  1.00  0.00     0.010 A 
ATOM     66  C   UNL A   1      43.022  23.586  26.518  1.00  0.00     0.010 A 
ATOM     67  C   UNL A   1      42.276  21.334  28.000  1.00  0.00     0.020 A 
ATOM     68  C   UNL A   1      42.923  22.343  25.887  1.00  0.00     0.020 A 
ATOM     69  C   UNL A   1      42.564  21.221  26.637  1.00  0.00     0.054 A 
BRANCH  69  70
ATOM     70  S   UNL A   1      42.420  19.599  25.836  1.00  0.00     0.124 S 
ATOM     71  O   UNL A   1      42.834  18.696  26.905  1.00  0.00    -0.237 OA
ATOM     72  O   UNL A   1      41.005  19.545  25.475  1.00  0.00    -0.237 OA
ATOM     73  O   UNL A   1      43.340  19.695  24.704  1.00  0.00    -0.744 OA
ENDBRANCH  69  70
ENDBRANCH  41  64
BRANCH  53  74
ATOM     74  C   UNL A   1      47.994  27.195  30.864  1.00  0.00    -0.014 A 
ATOM     75  C   UNL A   1      48.366  26.392  31.957  1.00  0.00     0.010 A 
ATOM     76  C   UNL A   1      48.982  27.633  29.964  1.00  0.00     0.010 A 
ATOM     77  C   UNL A   1      49.707  26.059  32.162  1.00  0.00     0.020 A 
ATOM     78  C   UNL A   1      50.322  27.283  30.153  1.00  0.00     0.020 A 
ATOM     79  C   UNL A   1      50.677  26.510  31.260  1.00  0.00     0.054 A 
BRANCH  79  80
ATOM     80  S   UNL A   1      52.408  26.034  31.524  1.00  0.00     0.124 S 
ATOM     81  O   UNL A   1      52.271  24.693  32.086  1.00  0.00    -0.237 OA
ATOM     82  O   UNL A   1      52.969  26.096  30.177  1.00  0.00    -0.237 OA
ATOM     83  O   UNL A   1      52.909  27.051  32.447  1.00  0.00    -0.744 OA
ENDBRANCH  79  80
ENDBRANCH  53  74
ENDBRANCH  27  28
ENDBRANCH  20  22
ENDBRANCH  19  20
ENDBRANCH  18  19
ENDBRANCH   1  18
TORSDOF 18
ENDMDL
