MODEL 1
REMARK VINA RESULT:     -10.5      0.000      0.000
REMARK SMILES CO[C@@H]1C[C@@H](C(=O)OCCOC(=O)c2ccc(-c3c4nc(c(-c5ccc(S(=O)(=O)[O-])cc5)c5ccc([nH]5)c(-c5ccc(S(=O)(=O)[O-])cc5)c5nc(c(-c6ccc(S(=O)(=O)[O-])cc6)c6ccc3[nH]6)C=C5)C=C4)cc2)N(S(=O)(=O)c2ccc(Cl)cc2F)C1
REMARK SMILES IDX 10 1 9 2 8 3 6 4 7 5 5 6 3 7 4 8 86 9 74 10 2 11 1 12 75 13
REMARK SMILES IDX 76 14 77 15 78 16 79 17 84 18 80 19 83 20 85 21 81 22 82 23
REMARK SMILES IDX 11 24 12 25 13 26 14 27 15 28 73 29 16 30 72 31 17 32 18 33
REMARK SMILES IDX 19 34 66 35 20 36 71 37 65 38 67 39 21 40 70 41 64 42 63 43
REMARK SMILES IDX 22 45 52 46 33 47 51 48 34 49 37 50 50 51 68 52 35 53 36 54
REMARK SMILES IDX 49 56 69 57 38 58 23 59 24 60 32 61 25 62 31 63 26 64 27 65
REMARK SMILES IDX 28 66 29 67 30 68 53 69 54 70 62 71 55 72 61 73 56 74 57 75
REMARK SMILES IDX 58 76 59 77 60 78 39 79 40 80 48 81 41 82 47 83 42 84 43 85
REMARK SMILES IDX 44 86 45 87 46 88
REMARK H PARENT 67 44 37 55
REMARK Flexibility Score: inf
ROOT
ATOM      1  C   UNL A   1      32.758  29.408  26.660  1.00  0.00     0.275 C 
ENDROOT
BRANCH   1   2
ATOM      2  C   UNL A   1      31.800  28.211  26.645  1.00  0.00     0.274 C 
BRANCH   2   3
ATOM      3  O   UNL A   1      32.546  26.984  26.505  1.00  0.00    -0.461 OA
BRANCH   3   4
ATOM      4  C   UNL A   1      31.780  25.876  26.352  1.00  0.00     0.324 C 
ATOM      5  O   UNL A   1      30.641  25.789  26.811  1.00  0.00    -0.250 OA
BRANCH   4   6
ATOM      6  C   UNL A   1      32.333  24.849  25.395  1.00  0.00     0.185 C 
ATOM      7  C   UNL A   1      34.119  23.287  24.996  1.00  0.00     0.135 C 
ATOM      8  C   UNL A   1      33.647  24.326  25.985  1.00  0.00     0.065 C 
ATOM      9  C   UNL A   1      33.599  23.783  23.646  1.00  0.00     0.135 C 
ATOM     10  N   UNL A   1      32.563  24.844  23.918  1.00  0.00    -0.181 NA
BRANCH   7  11
ATOM     11  O   UNL A   1      33.531  22.026  25.328  1.00  0.00    -0.380 OA
ATOM     12  C   UNL A   1      33.187  21.281  24.160  1.00  0.00     0.195 C 
ENDBRANCH   7  11
BRANCH  10  13
ATOM     13  S   UNL A   1      32.757  26.259  23.034  1.00  0.00     0.246 S 
ATOM     14  O   UNL A   1      33.872  26.986  23.601  1.00  0.00    -0.207 OA
ATOM     15  O   UNL A   1      32.772  25.881  21.633  1.00  0.00    -0.207 OA
BRANCH  13  16
ATOM     16  C   UNL A   1      31.329  27.288  23.172  1.00  0.00     0.118 A 
ATOM     17  C   UNL A   1      30.112  26.659  23.487  1.00  0.00     0.026 A 
ATOM     18  C   UNL A   1      31.341  28.648  22.930  1.00  0.00     0.144 A 
ATOM     19  C   UNL A   1      28.911  27.367  23.401  1.00  0.00     0.022 A 
ATOM     20  C   UNL A   1      30.142  29.349  22.780  1.00  0.00     0.061 A 
ATOM     21  F   UNL A   1      32.484  29.334  22.838  1.00  0.00    -0.205 F 
ATOM     22  C   UNL A   1      28.929  28.695  22.985  1.00  0.00     0.044 A 
ATOM     23  Cl  UNL A   1      27.447  29.525  22.719  1.00  0.00    -0.084 Cl
ENDBRANCH  13  16
ENDBRANCH  10  13
ENDBRANCH   4   6
ENDBRANCH   3   4
ENDBRANCH   2   3
ENDBRANCH   1   2
BRANCH   1  24
ATOM     24  O   UNL A   1      33.928  29.136  27.458  1.00  0.00    -0.458 OA
BRANCH  24  25
ATOM     25  C   UNL A   1      34.540  30.236  27.973  1.00  0.00     0.338 C 
ATOM     26  O   UNL A   1      34.058  31.346  28.111  1.00  0.00    -0.246 OA
BRANCH  25  27
ATOM     27  C   UNL A   1      35.949  29.923  28.281  1.00  0.00     0.060 A 
ATOM     28  C   UNL A   1      36.930  30.023  27.296  1.00  0.00     0.016 A 
ATOM     29  C   UNL A   1      36.288  29.457  29.551  1.00  0.00     0.016 A 
ATOM     30  C   UNL A   1      38.256  29.712  27.581  1.00  0.00     0.010 A 
ATOM     31  C   UNL A   1      37.623  29.162  29.848  1.00  0.00     0.010 A 
ATOM     32  C   UNL A   1      38.619  29.295  28.866  1.00  0.00    -0.014 A 
BRANCH  32  33
ATOM     33  C   UNL A   1      40.040  28.978  29.158  1.00  0.00     0.031 A 
ATOM     34  C   UNL A   1      40.919  30.003  29.819  1.00  0.00     0.074 A 
ATOM     35  C   UNL A   1      40.522  27.760  28.847  1.00  0.00     0.049 A 
ATOM     36  N   UNL A   1      42.196  29.943  30.091  1.00  0.00    -0.248 NA
ATOM     37  C   UNL A   1      40.276  31.264  30.224  1.00  0.00     0.031 C 
ATOM     38  C   UNL A   1      39.744  26.675  28.241  1.00  0.00     0.029 A 
ATOM     39  N   UNL A   1      41.773  27.219  29.003  1.00  0.00    -0.354 N 
ATOM     40  C   UNL A   1      42.520  31.167  30.664  1.00  0.00     0.074 A 
ATOM     41  C   UNL A   1      41.307  31.956  30.687  1.00  0.00     0.031 C 
ATOM     42  C   UNL A   1      40.526  25.594  28.106  1.00  0.00     0.029 A 
ATOM     43  C   UNL A   1      41.875  25.926  28.548  1.00  0.00     0.049 A 
ATOM     44  H   UNL A   1      42.527  27.711  29.404  1.00  0.00     0.167 HD
ATOM     45  C   UNL A   1      43.722  31.593  31.123  1.00  0.00     0.031 A 
ATOM     46  C   UNL A   1      42.942  25.107  28.468  1.00  0.00     0.031 A 
ATOM     47  C   UNL A   1      44.917  30.789  31.093  1.00  0.00     0.049 A 
ATOM     48  C   UNL A   1      44.271  25.615  28.951  1.00  0.00     0.074 A 
ATOM     49  C   UNL A   1      46.188  31.115  31.530  1.00  0.00     0.029 A 
ATOM     50  N   UNL A   1      44.986  29.493  30.599  1.00  0.00    -0.354 N 
ATOM     51  N   UNL A   1      44.565  26.784  29.471  1.00  0.00    -0.248 NA
ATOM     52  C   UNL A   1      45.413  24.698  28.838  1.00  0.00     0.031 C 
ATOM     53  C   UNL A   1      47.036  30.037  31.252  1.00  0.00     0.029 A 
ATOM     54  C   UNL A   1      46.280  29.013  30.703  1.00  0.00     0.049 A 
ATOM     55  H   UNL A   1      44.225  28.990  30.227  1.00  0.00     0.167 HD
ATOM     56  C   UNL A   1      45.921  26.735  29.770  1.00  0.00     0.074 A 
ATOM     57  C   UNL A   1      46.383  25.414  29.389  1.00  0.00     0.031 C 
ATOM     58  C   UNL A   1      46.714  27.695  30.310  1.00  0.00     0.031 A 
BRANCH  45  59
ATOM     59  C   UNL A   1      43.810  33.005  31.645  1.00  0.00    -0.014 A 
ATOM     60  C   UNL A   1      43.622  33.303  33.007  1.00  0.00     0.010 A 
ATOM     61  C   UNL A   1      44.102  34.055  30.753  1.00  0.00     0.010 A 
ATOM     62  C   UNL A   1      43.675  34.626  33.458  1.00  0.00     0.020 A 
ATOM     63  C   UNL A   1      44.186  35.375  31.205  1.00  0.00     0.020 A 
ATOM     64  C   UNL A   1      43.952  35.656  32.552  1.00  0.00     0.054 A 
BRANCH  64  65
ATOM     65  S   UNL A   1      44.023  37.362  33.165  1.00  0.00     0.124 S 
ATOM     66  O   UNL A   1      42.831  37.430  34.006  1.00  0.00    -0.237 OA
ATOM     67  O   UNL A   1      45.297  37.393  33.879  1.00  0.00    -0.237 OA
ATOM     68  O   UNL A   1      43.974  38.170  31.948  1.00  0.00    -0.744 OA
ENDBRANCH  64  65
ENDBRANCH  45  59
BRANCH  46  69
ATOM     69  C   UNL A   1      42.792  23.742  27.890  1.00  0.00    -0.014 A 
ATOM     70  C   UNL A   1      42.381  22.661  28.689  1.00  0.00     0.010 A 
ATOM     71  C   UNL A   1      43.029  23.523  26.520  1.00  0.00     0.010 A 
ATOM     72  C   UNL A   1      42.218  21.388  28.132  1.00  0.00     0.020 A 
ATOM     73  C   UNL A   1      42.838  22.259  25.952  1.00  0.00     0.020 A 
ATOM     74  C   UNL A   1      42.443  21.196  26.766  1.00  0.00     0.054 A 
BRANCH  74  75
ATOM     75  S   UNL A   1      42.164  19.550  26.054  1.00  0.00     0.124 S 
ATOM     76  O   UNL A   1      40.733  19.579  25.773  1.00  0.00    -0.237 OA
ATOM     77  O   UNL A   1      43.040  19.562  24.885  1.00  0.00    -0.237 OA
ATOM     78  O   UNL A   1      42.577  18.641  27.121  1.00  0.00    -0.744 OA
ENDBRANCH  74  75
ENDBRANCH  46  69
BRANCH  58  79
ATOM     79  C   UNL A   1      48.153  27.327  30.559  1.00  0.00    -0.014 A 
ATOM     80  C   UNL A   1      49.159  27.632  29.627  1.00  0.00     0.010 A 
ATOM     81  C   UNL A   1      48.501  26.692  31.765  1.00  0.00     0.010 A 
ATOM     82  C   UNL A   1      50.484  27.264  29.876  1.00  0.00     0.020 A 
ATOM     83  C   UNL A   1      49.828  26.351  32.031  1.00  0.00     0.020 A 
ATOM     84  C   UNL A   1      50.808  26.623  31.075  1.00  0.00     0.054 A 
BRANCH  84  85
ATOM     85  S   UNL A   1      52.537  26.173  31.386  1.00  0.00     0.124 S 
ATOM     86  O   UNL A   1      52.969  27.236  32.288  1.00  0.00    -0.237 OA
ATOM     87  O   UNL A   1      52.421  24.846  31.986  1.00  0.00    -0.237 OA
ATOM     88  O   UNL A   1      53.145  26.198  30.057  1.00  0.00    -0.744 OA
ENDBRANCH  84  85
ENDBRANCH  58  79
ENDBRANCH  32  33
ENDBRANCH  25  27
ENDBRANCH  24  25
ENDBRANCH   1  24
TORSDOF 17
ENDMDL
MODEL 2
REMARK VINA RESULT:     -10.5      1.953      3.167
REMARK SMILES CO[C@@H]1C[C@@H](C(=O)OCCOC(=O)c2ccc(-c3c4nc(c(-c5ccc(S(=O)(=O)[O-])cc5)c5ccc([nH]5)c(-c5ccc(S(=O)(=O)[O-])cc5)c5nc(c(-c6ccc(S(=O)(=O)[O-])cc6)c6ccc3[nH]6)C=C5)C=C4)cc2)N(S(=O)(=O)c2ccc(Cl)cc2F)C1
REMARK SMILES IDX 10 1 9 2 8 3 6 4 7 5 5 6 3 7 4 8 86 9 74 10 2 11 1 12 75 13
REMARK SMILES IDX 76 14 77 15 78 16 79 17 84 18 80 19 83 20 85 21 81 22 82 23
REMARK SMILES IDX 11 24 12 25 13 26 14 27 15 28 73 29 16 30 72 31 17 32 18 33
REMARK SMILES IDX 19 34 66 35 20 36 71 37 65 38 67 39 21 40 70 41 64 42 63 43
REMARK SMILES IDX 22 45 52 46 33 47 51 48 34 49 37 50 50 51 68 52 35 53 36 54
REMARK SMILES IDX 49 56 69 57 38 58 23 59 24 60 32 61 25 62 31 63 26 64 27 65
REMARK SMILES IDX 28 66 29 67 30 68 53 69 54 70 62 71 55 72 61 73 56 74 57 75
REMARK SMILES IDX 58 76 59 77 60 78 39 79 40 80 48 81 41 82 47 83 42 84 43 85
REMARK SMILES IDX 44 86 45 87 46 88
REMARK H PARENT 67 44 37 55
REMARK Flexibility Score: inf
ROOT
ATOM      1  C   UNL A   1      32.675  29.665  26.415  1.00  0.00     0.275 C 
ENDROOT
BRANCH   1   2
ATOM      2  C   UNL A   1      32.484  29.131  24.991  1.00  0.00     0.274 C 
BRANCH   2   3
ATOM      3  O   UNL A   1      31.218  28.447  24.884  1.00  0.00    -0.461 OA
BRANCH   3   4
ATOM      4  C   UNL A   1      31.200  27.436  23.983  1.00  0.00     0.324 C 
ATOM      5  O   UNL A   1      31.272  27.628  22.769  1.00  0.00    -0.250 OA
BRANCH   4   6
ATOM      6  C   UNL A   1      31.310  26.053  24.577  1.00  0.00     0.185 C 
ATOM      7  C   UNL A   1      31.375  24.786  26.621  1.00  0.00     0.135 C 
ATOM      8  C   UNL A   1      31.296  26.202  26.102  1.00  0.00     0.065 C 
ATOM      9  C   UNL A   1      32.184  24.037  25.562  1.00  0.00     0.135 C 
ATOM     10  N   UNL A   1      32.229  24.901  24.327  1.00  0.00    -0.181 NA
BRANCH   7  11
ATOM     11  O   UNL A   1      30.053  24.249  26.715  1.00  0.00    -0.380 OA
ATOM     12  C   UNL A   1      30.066  22.823  26.772  1.00  0.00     0.195 C 
ENDBRANCH   7  11
BRANCH  10  13
ATOM     13  S   UNL A   1      33.758  25.099  23.662  1.00  0.00     0.246 S 
ATOM     14  O   UNL A   1      33.677  24.765  22.256  1.00  0.00    -0.207 OA
ATOM     15  O   UNL A   1      34.228  26.410  24.071  1.00  0.00    -0.207 OA
BRANCH  13  16
ATOM     16  C   UNL A   1      34.916  23.992  24.404  1.00  0.00     0.118 A 
ATOM     17  C   UNL A   1      35.802  24.531  25.353  1.00  0.00     0.026 A 
ATOM     18  C   UNL A   1      35.029  22.660  24.058  1.00  0.00     0.144 A 
ATOM     19  C   UNL A   1      36.878  23.774  25.820  1.00  0.00     0.022 A 
ATOM     20  C   UNL A   1      36.136  21.916  24.471  1.00  0.00     0.061 A 
ATOM     21  F   UNL A   1      34.093  22.042  23.332  1.00  0.00    -0.205 F 
ATOM     22  C   UNL A   1      37.074  22.488  25.326  1.00  0.00     0.044 A 
ATOM     23  Cl  UNL A   1      38.486  21.611  25.770  1.00  0.00    -0.084 Cl
ENDBRANCH  13  16
ENDBRANCH  10  13
ENDBRANCH   4   6
ENDBRANCH   3   4
ENDBRANCH   2   3
ENDBRANCH   1   2
BRANCH   1  24
ATOM     24  O   UNL A   1      34.002  29.390  26.906  1.00  0.00    -0.458 OA
BRANCH  24  25
ATOM     25  C   UNL A   1      34.495  30.313  27.776  1.00  0.00     0.338 C 
ATOM     26  O   UNL A   1      33.930  31.314  28.181  1.00  0.00    -0.246 OA
BRANCH  25  27
ATOM     27  C   UNL A   1      35.891  29.979  28.118  1.00  0.00     0.060 A 
ATOM     28  C   UNL A   1      36.891  30.035  27.149  1.00  0.00     0.016 A 
ATOM     29  C   UNL A   1      36.197  29.537  29.405  1.00  0.00     0.016 A 
ATOM     30  C   UNL A   1      38.205  29.705  27.465  1.00  0.00     0.010 A 
ATOM     31  C   UNL A   1      37.521  29.223  29.733  1.00  0.00     0.010 A 
ATOM     32  C   UNL A   1      38.537  29.311  28.767  1.00  0.00    -0.014 A 
BRANCH  32  33
ATOM     33  C   UNL A   1      39.945  28.973  29.093  1.00  0.00     0.031 A 
ATOM     34  C   UNL A   1      40.825  29.986  29.770  1.00  0.00     0.074 A 
ATOM     35  C   UNL A   1      40.414  27.745  28.797  1.00  0.00     0.049 A 
ATOM     36  N   UNL A   1      42.094  29.906  30.072  1.00  0.00    -0.248 NA
ATOM     37  C   UNL A   1      40.194  31.259  30.155  1.00  0.00     0.031 C 
ATOM     38  C   UNL A   1      39.633  26.671  28.178  1.00  0.00     0.029 A 
ATOM     39  N   UNL A   1      41.653  27.186  28.985  1.00  0.00    -0.354 N 
ATOM     40  C   UNL A   1      42.425  31.128  30.647  1.00  0.00     0.074 A 
ATOM     41  C   UNL A   1      41.225  31.937  30.639  1.00  0.00     0.031 C 
ATOM     42  C   UNL A   1      40.401  25.577  28.065  1.00  0.00     0.029 A 
ATOM     43  C   UNL A   1      41.745  25.889  28.536  1.00  0.00     0.049 A 
ATOM     44  H   UNL A   1      42.405  27.667  29.401  1.00  0.00     0.167 HD
ATOM     45  C   UNL A   1      43.623  31.536  31.132  1.00  0.00     0.031 A 
ATOM     46  C   UNL A   1      42.799  25.053  28.484  1.00  0.00     0.031 A 
ATOM     47  C   UNL A   1      44.805  30.713  31.133  1.00  0.00     0.049 A 
ATOM     48  C   UNL A   1      44.125  25.542  28.995  1.00  0.00     0.074 A 
ATOM     49  C   UNL A   1      46.071  31.021  31.598  1.00  0.00     0.029 A 
ATOM     50  N   UNL A   1      44.865  29.414  30.645  1.00  0.00    -0.354 N 
ATOM     51  N   UNL A   1      44.426  26.708  29.519  1.00  0.00    -0.248 NA
ATOM     52  C   UNL A   1      45.254  24.606  28.913  1.00  0.00     0.031 C 
ATOM     53  C   UNL A   1      46.907  29.928  31.343  1.00  0.00     0.029 A 
ATOM     54  C   UNL A   1      46.148  28.914  30.781  1.00  0.00     0.049 A 
ATOM     55  H   UNL A   1      44.104  28.922  30.258  1.00  0.00     0.167 HD
ATOM     56  C   UNL A   1      45.774  26.639  29.849  1.00  0.00     0.074 A 
ATOM     57  C   UNL A   1      46.223  25.308  29.483  1.00  0.00     0.031 C 
ATOM     58  C   UNL A   1      46.570  27.587  30.403  1.00  0.00     0.031 A 
BRANCH  45  59
ATOM     59  C   UNL A   1      43.721  32.949  31.651  1.00  0.00    -0.014 A 
ATOM     60  C   UNL A   1      43.986  34.034  30.795  1.00  0.00     0.010 A 
ATOM     61  C   UNL A   1      43.531  33.197  33.023  1.00  0.00     0.010 A 
ATOM     62  C   UNL A   1      44.106  35.330  31.308  1.00  0.00     0.020 A 
ATOM     63  C   UNL A   1      43.620  34.494  33.536  1.00  0.00     0.020 A 
ATOM     64  C   UNL A   1      43.927  35.551  32.678  1.00  0.00     0.054 A 
BRANCH  64  65
ATOM     65  S   UNL A   1      44.081  37.243  33.316  1.00  0.00     0.124 S 
ATOM     66  O   UNL A   1      44.321  38.006  32.093  1.00  0.00    -0.237 OA
ATOM     67  O   UNL A   1      42.784  37.465  33.950  1.00  0.00    -0.237 OA
ATOM     68  O   UNL A   1      45.215  37.166  34.234  1.00  0.00    -0.744 OA
ENDBRANCH  64  65
ENDBRANCH  45  59
BRANCH  46  69
ATOM     69  C   UNL A   1      42.641  23.688  27.908  1.00  0.00    -0.014 A 
ATOM     70  C   UNL A   1      42.132  22.631  28.684  1.00  0.00     0.010 A 
ATOM     71  C   UNL A   1      42.969  23.445  26.561  1.00  0.00     0.010 A 
ATOM     72  C   UNL A   1      41.963  21.359  28.127  1.00  0.00     0.020 A 
ATOM     73  C   UNL A   1      42.772  22.183  25.991  1.00  0.00     0.020 A 
ATOM     74  C   UNL A   1      42.279  21.145  26.783  1.00  0.00     0.054 A 
BRANCH  74  75
ATOM     75  S   UNL A   1      41.991  19.502  26.065  1.00  0.00     0.124 S 
ATOM     76  O   UNL A   1      42.784  19.562  24.842  1.00  0.00    -0.237 OA
ATOM     77  O   UNL A   1      42.499  18.612  27.107  1.00  0.00    -0.237 OA
ATOM     78  O   UNL A   1      40.543  19.461  25.874  1.00  0.00    -0.744 OA
ENDBRANCH  74  75
ENDBRANCH  46  69
BRANCH  58  79
ATOM     79  C   UNL A   1      47.996  27.198  30.686  1.00  0.00    -0.014 A 
ATOM     80  C   UNL A   1      49.012  27.394  29.736  1.00  0.00     0.010 A 
ATOM     81  C   UNL A   1      48.323  26.655  31.942  1.00  0.00     0.010 A 
ATOM     82  C   UNL A   1      50.325  27.007  30.019  1.00  0.00     0.020 A 
ATOM     83  C   UNL A   1      49.639  26.297  32.240  1.00  0.00     0.020 A 
ATOM     84  C   UNL A   1      50.628  26.458  31.269  1.00  0.00     0.054 A 
BRANCH  84  85
ATOM     85  S   UNL A   1      52.342  25.982  31.621  1.00  0.00     0.124 S 
ATOM     86  O   UNL A   1      52.197  24.576  31.985  1.00  0.00    -0.237 OA
ATOM     87  O   UNL A   1      53.014  26.238  30.350  1.00  0.00    -0.237 OA
ATOM     88  O   UNL A   1      52.731  26.872  32.714  1.00  0.00    -0.744 OA
ENDBRANCH  84  85
ENDBRANCH  58  79
ENDBRANCH  32  33
ENDBRANCH  25  27
ENDBRANCH  24  25
ENDBRANCH   1  24
TORSDOF 17
ENDMDL
MODEL 3
REMARK VINA RESULT:     -10.5      2.185      3.505
REMARK SMILES CO[C@@H]1C[C@@H](C(=O)OCCOC(=O)c2ccc(-c3c4nc(c(-c5ccc(S(=O)(=O)[O-])cc5)c5ccc([nH]5)c(-c5ccc(S(=O)(=O)[O-])cc5)c5nc(c(-c6ccc(S(=O)(=O)[O-])cc6)c6ccc3[nH]6)C=C5)C=C4)cc2)N(S(=O)(=O)c2ccc(Cl)cc2F)C1
REMARK SMILES IDX 10 1 9 2 8 3 6 4 7 5 5 6 3 7 4 8 86 9 74 10 2 11 1 12 75 13
REMARK SMILES IDX 76 14 77 15 78 16 79 17 84 18 80 19 83 20 85 21 81 22 82 23
REMARK SMILES IDX 11 24 12 25 13 26 14 27 15 28 73 29 16 30 72 31 17 32 18 33
REMARK SMILES IDX 19 34 66 35 20 36 71 37 65 38 67 39 21 40 70 41 64 42 63 43
REMARK SMILES IDX 22 45 52 46 33 47 51 48 34 49 37 50 50 51 68 52 35 53 36 54
REMARK SMILES IDX 49 56 69 57 38 58 23 59 24 60 32 61 25 62 31 63 26 64 27 65
REMARK SMILES IDX 28 66 29 67 30 68 53 69 54 70 62 71 55 72 61 73 56 74 57 75
REMARK SMILES IDX 58 76 59 77 60 78 39 79 40 80 48 81 41 82 47 83 42 84 43 85
REMARK SMILES IDX 44 86 45 87 46 88
REMARK H PARENT 67 44 37 55
REMARK Flexibility Score: inf
ROOT
ATOM      1  C   UNL A   1      32.357  29.423  27.266  1.00  0.00     0.275 C 
ENDROOT
BRANCH   1   2
ATOM      2  C   UNL A   1      31.724  28.339  26.387  1.00  0.00     0.274 C 
BRANCH   2   3
ATOM      3  O   UNL A   1      32.614  27.209  26.277  1.00  0.00    -0.461 OA
BRANCH   3   4
ATOM      4  C   UNL A   1      31.993  26.022  26.077  1.00  0.00     0.324 C 
ATOM      5  O   UNL A   1      31.034  25.653  26.754  1.00  0.00    -0.250 OA
BRANCH   4   6
ATOM      6  C   UNL A   1      32.415  25.286  24.829  1.00  0.00     0.185 C 
ATOM      7  C   UNL A   1      31.844  24.793  22.544  1.00  0.00     0.135 C 
ATOM      8  C   UNL A   1      31.339  25.526  23.764  1.00  0.00     0.065 C 
ATOM      9  C   UNL A   1      32.637  23.615  23.110  1.00  0.00     0.135 C 
ATOM     10  N   UNL A   1      32.884  23.891  24.571  1.00  0.00    -0.181 NA
BRANCH   7  11
ATOM     11  O   UNL A   1      32.700  25.662  21.798  1.00  0.00    -0.380 OA
ATOM     12  C   UNL A   1      32.586  25.436  20.394  1.00  0.00     0.195 C 
ENDBRANCH   7  11
BRANCH  10  13
ATOM     13  S   UNL A   1      32.517  22.615  25.600  1.00  0.00     0.246 S 
ATOM     14  O   UNL A   1      33.134  22.886  26.880  1.00  0.00    -0.207 OA
ATOM     15  O   UNL A   1      31.083  22.405  25.514  1.00  0.00    -0.207 OA
BRANCH  13  16
ATOM     16  C   UNL A   1      33.195  21.102  24.995  1.00  0.00     0.118 A 
ATOM     17  C   UNL A   1      32.290  20.139  24.514  1.00  0.00     0.026 A 
ATOM     18  C   UNL A   1      34.543  20.802  25.026  1.00  0.00     0.144 A 
ATOM     19  C   UNL A   1      32.728  18.846  24.222  1.00  0.00     0.022 A 
ATOM     20  C   UNL A   1      34.981  19.496  24.797  1.00  0.00     0.061 A 
ATOM     21  F   UNL A   1      35.465  21.739  25.266  1.00  0.00    -0.205 F 
ATOM     22  C   UNL A   1      34.064  18.514  24.427  1.00  0.00     0.044 A 
ATOM     23  Cl  UNL A   1      34.579  16.885  24.228  1.00  0.00    -0.084 Cl
ENDBRANCH  13  16
ENDBRANCH  10  13
ENDBRANCH   4   6
ENDBRANCH   3   4
ENDBRANCH   2   3
ENDBRANCH   1   2
BRANCH   1  24
ATOM     24  O   UNL A   1      33.788  29.265  27.347  1.00  0.00    -0.458 OA
BRANCH  24  25
ATOM     25  C   UNL A   1      34.458  30.348  27.826  1.00  0.00     0.338 C 
ATOM     26  O   UNL A   1      34.045  31.491  27.905  1.00  0.00    -0.246 OA
BRANCH  25  27
ATOM     27  C   UNL A   1      35.839  29.963  28.177  1.00  0.00     0.060 A 
ATOM     28  C   UNL A   1      36.155  29.556  29.472  1.00  0.00     0.016 A 
ATOM     29  C   UNL A   1      36.848  30.073  27.220  1.00  0.00     0.016 A 
ATOM     30  C   UNL A   1      37.459  29.208  29.809  1.00  0.00     0.010 A 
ATOM     31  C   UNL A   1      38.158  29.704  27.548  1.00  0.00     0.010 A 
ATOM     32  C   UNL A   1      38.472  29.262  28.845  1.00  0.00    -0.014 A 
BRANCH  32  33
ATOM     33  C   UNL A   1      39.856  28.876  29.215  1.00  0.00     0.031 A 
ATOM     34  C   UNL A   1      40.728  29.837  29.973  1.00  0.00     0.074 A 
ATOM     35  C   UNL A   1      40.310  27.651  28.887  1.00  0.00     0.049 A 
ATOM     36  N   UNL A   1      41.981  29.714  30.325  1.00  0.00    -0.248 NA
ATOM     37  C   UNL A   1      40.110  31.107  30.386  1.00  0.00     0.031 C 
ATOM     38  C   UNL A   1      39.533  26.623  28.188  1.00  0.00     0.029 A 
ATOM     39  N   UNL A   1      41.527  27.054  29.102  1.00  0.00    -0.354 N 
ATOM     40  C   UNL A   1      42.314  30.902  30.966  1.00  0.00     0.074 A 
ATOM     41  C   UNL A   1      41.134  31.739  30.943  1.00  0.00     0.031 C 
ATOM     42  C   UNL A   1      40.280  25.516  28.060  1.00  0.00     0.029 A 
ATOM     43  C   UNL A   1      41.609  25.776  28.601  1.00  0.00     0.049 A 
ATOM     44  H   UNL A   1      42.270  27.498  29.570  1.00  0.00     0.167 HD
ATOM     45  C   UNL A   1      43.498  31.260  31.520  1.00  0.00     0.031 A 
ATOM     46  C   UNL A   1      42.646  24.917  28.558  1.00  0.00     0.031 A 
ATOM     47  C   UNL A   1      44.660  30.409  31.535  1.00  0.00     0.049 A 
ATOM     48  C   UNL A   1      43.959  25.351  29.146  1.00  0.00     0.074 A 
ATOM     49  C   UNL A   1      45.912  30.665  32.066  1.00  0.00     0.029 A 
ATOM     50  N   UNL A   1      44.712  29.131  30.993  1.00  0.00    -0.354 N 
ATOM     51  N   UNL A   1      44.263  26.486  29.732  1.00  0.00    -0.248 NA
ATOM     52  C   UNL A   1      45.069  24.392  29.070  1.00  0.00     0.031 C 
ATOM     53  C   UNL A   1      46.734  29.564  31.800  1.00  0.00     0.029 A 
ATOM     54  C   UNL A   1      45.977  28.594  31.161  1.00  0.00     0.049 A 
ATOM     55  H   UNL A   1      43.959  28.674  30.553  1.00  0.00     0.167 HD
ATOM     56  C   UNL A   1      45.593  26.370  30.115  1.00  0.00     0.074 A 
ATOM     57  C   UNL A   1      46.027  25.046  29.711  1.00  0.00     0.031 C 
ATOM     58  C   UNL A   1      46.385  27.275  30.744  1.00  0.00     0.031 A 
BRANCH  45  59
ATOM     59  C   UNL A   1      43.606  32.645  32.103  1.00  0.00    -0.014 A 
ATOM     60  C   UNL A   1      43.414  32.887  33.476  1.00  0.00     0.010 A 
ATOM     61  C   UNL A   1      43.921  33.728  31.260  1.00  0.00     0.010 A 
ATOM     62  C   UNL A   1      43.486  34.189  33.984  1.00  0.00     0.020 A 
ATOM     63  C   UNL A   1      44.024  35.026  31.769  1.00  0.00     0.020 A 
ATOM     64  C   UNL A   1      43.786  35.252  33.126  1.00  0.00     0.054 A 
BRANCH  64  65
ATOM     65  S   UNL A   1      43.881  36.929  33.813  1.00  0.00     0.124 S 
ATOM     66  O   UNL A   1      42.585  37.056  34.476  1.00  0.00    -0.237 OA
ATOM     67  O   UNL A   1      45.036  36.844  34.703  1.00  0.00    -0.237 OA
ATOM     68  O   UNL A   1      44.064  37.776  32.637  1.00  0.00    -0.744 OA
ENDBRANCH  64  65
ENDBRANCH  45  59
BRANCH  46  69
ATOM     69  C   UNL A   1      42.482  23.582  27.917  1.00  0.00    -0.014 A 
ATOM     70  C   UNL A   1      43.069  23.303  26.670  1.00  0.00     0.010 A 
ATOM     71  C   UNL A   1      41.761  22.566  28.571  1.00  0.00     0.010 A 
ATOM     72  C   UNL A   1      42.931  22.038  26.087  1.00  0.00     0.020 A 
ATOM     73  C   UNL A   1      41.647  21.291  28.008  1.00  0.00     0.020 A 
ATOM     74  C   UNL A   1      42.225  21.039  26.763  1.00  0.00     0.054 A 
BRANCH  74  75
ATOM     75  S   UNL A   1      42.113  19.388  26.018  1.00  0.00     0.124 S 
ATOM     76  O   UNL A   1      40.679  19.255  25.786  1.00  0.00    -0.237 OA
ATOM     77  O   UNL A   1      42.938  19.527  24.820  1.00  0.00    -0.237 OA
ATOM     78  O   UNL A   1      42.667  18.509  27.047  1.00  0.00    -0.744 OA
ENDBRANCH  74  75
ENDBRANCH  46  69
BRANCH  58  79
ATOM     79  C   UNL A   1      47.788  26.839  31.071  1.00  0.00    -0.014 A 
ATOM     80  C   UNL A   1      48.079  26.115  32.240  1.00  0.00     0.010 A 
ATOM     81  C   UNL A   1      48.827  27.137  30.170  1.00  0.00     0.010 A 
ATOM     82  C   UNL A   1      49.394  25.739  32.526  1.00  0.00     0.020 A 
ATOM     83  C   UNL A   1      50.136  26.735  30.437  1.00  0.00     0.020 A 
ATOM     84  C   UNL A   1      50.414  26.055  31.624  1.00  0.00     0.054 A 
BRANCH  84  85
ATOM     85  S   UNL A   1      52.109  25.538  32.006  1.00  0.00     0.124 S 
ATOM     86  O   UNL A   1      52.354  26.219  33.274  1.00  0.00    -0.237 OA
ATOM     87  O   UNL A   1      51.992  24.084  32.085  1.00  0.00    -0.237 OA
ATOM     88  O   UNL A   1      52.887  26.033  30.872  1.00  0.00    -0.744 OA
ENDBRANCH  84  85
ENDBRANCH  58  79
ENDBRANCH  32  33
ENDBRANCH  25  27
ENDBRANCH  24  25
ENDBRANCH   1  24
TORSDOF 17
ENDMDL
