MODEL 1
REMARK VINA RESULT:     -11.5      0.000      0.000
REMARK SMILES O=C(OCCOC(=O)[C@@H]1CN(c2nccc(N3CCC(O)CC3)n2)CC[NH2+]1)c1ccc(-c2c3nc(c(-c4ccc(S(=O)(=O)[O-])cc4)c4ccc([nH]4)c(-c4ccc(S(=O)(=O)[O-])cc4)c4nc(c(-c5ccc(S(=O)(=O)[O-])cc5)c5ccc2[nH]5)C=C4)C=C3)cc1
REMARK SMILES IDX 4 1 3 2 2 3 1 4 28 5 29 6 87 7 30 8 86 9 31 10 32 11 33 12
REMARK SMILES IDX 80 13 34 14 85 15 79 16 81 17 35 18 84 19 78 20 77 21 36 23
REMARK SMILES IDX 66 24 47 25 65 26 48 27 51 28 64 29 82 30 49 31 50 32 63 34
REMARK SMILES IDX 83 35 52 36 37 37 38 38 46 39 39 40 45 41 40 42 41 43 42 44
REMARK SMILES IDX 43 45 44 46 67 47 68 48 76 49 69 50 75 51 70 52 71 53 72 54
REMARK SMILES IDX 73 55 74 56 53 57 54 58 62 59 55 60 61 61 56 62 57 63 58 64
REMARK SMILES IDX 59 65 60 66 5 67 6 68 7 69 8 70 9 71 10 72 27 73 11 74 26 75
REMARK SMILES IDX 25 78 12 79 13 80 24 81 14 82 16 83 15 84 17 85 18 86 23 87
REMARK SMILES IDX 19 88 22 89 20 90 21 91
REMARK H PARENT 81 22 51 33 27 76 27 77 21 92
REMARK Flexibility Score: inf
ROOT
ATOM      1  C   UNL A   1      43.142  23.333  26.622  1.00  0.00     0.275 C 
ENDROOT
BRANCH   1   2
ATOM      2  O   UNL A   1      42.309  24.265  25.904  1.00  0.00    -0.458 OA
BRANCH   2   3
ATOM      3  C   UNL A   1      42.259  25.619  25.936  1.00  0.00     0.338 C 
ATOM      4  O   UNL A   1      42.621  26.237  24.934  1.00  0.00    -0.246 OA
BRANCH   3   5
ATOM      5  C   UNL A   1      41.922  26.419  27.157  1.00  0.00     0.060 A 
ATOM      6  C   UNL A   1      40.889  26.143  28.057  1.00  0.00     0.016 A 
ATOM      7  C   UNL A   1      42.746  27.530  27.426  1.00  0.00     0.016 A 
ATOM      8  C   UNL A   1      40.726  26.891  29.226  1.00  0.00     0.010 A 
ATOM      9  C   UNL A   1      42.584  28.290  28.593  1.00  0.00     0.010 A 
ATOM     10  C   UNL A   1      41.566  27.970  29.500  1.00  0.00    -0.014 A 
BRANCH  10  11
ATOM     11  C   UNL A   1      41.227  28.868  30.627  1.00  0.00     0.031 A 
ATOM     12  C   UNL A   1      42.055  28.755  31.871  1.00  0.00     0.074 A 
ATOM     13  C   UNL A   1      40.276  29.815  30.519  1.00  0.00     0.049 A 
ATOM     14  N   UNL A   1      42.044  29.508  32.938  1.00  0.00    -0.248 NA
ATOM     15  C   UNL A   1      43.067  27.685  31.895  1.00  0.00     0.031 C 
ATOM     16  C   UNL A   1      39.500  30.103  29.314  1.00  0.00     0.029 A 
ATOM     17  N   UNL A   1      39.795  30.711  31.439  1.00  0.00    -0.354 N 
ATOM     18  C   UNL A   1      43.077  29.034  33.736  1.00  0.00     0.074 A 
ATOM     19  C   UNL A   1      43.647  27.886  33.067  1.00  0.00     0.031 C 
ATOM     20  C   UNL A   1      38.580  31.044  29.592  1.00  0.00     0.029 A 
ATOM     21  C   UNL A   1      38.735  31.459  30.981  1.00  0.00     0.049 A 
ATOM     22  H   UNL A   1      40.174  30.810  32.342  1.00  0.00     0.167 HD
ATOM     23  C   UNL A   1      43.533  29.534  34.906  1.00  0.00     0.031 A 
ATOM     24  C   UNL A   1      37.986  32.386  31.611  1.00  0.00     0.031 A 
ATOM     25  C   UNL A   1      42.916  30.638  35.587  1.00  0.00     0.049 A 
ATOM     26  C   UNL A   1      38.397  32.810  32.995  1.00  0.00     0.074 A 
ATOM     27  C   UNL A   1      43.273  31.219  36.788  1.00  0.00     0.029 A 
ATOM     28  N   UNL A   1      41.791  31.311  35.130  1.00  0.00    -0.354 N 
ATOM     29  N   UNL A   1      39.409  32.386  33.717  1.00  0.00    -0.248 NA
ATOM     30  C   UNL A   1      37.606  33.872  33.628  1.00  0.00     0.031 C 
ATOM     31  C   UNL A   1      42.322  32.200  37.091  1.00  0.00     0.029 A 
ATOM     32  C   UNL A   1      41.414  32.278  36.044  1.00  0.00     0.049 A 
ATOM     33  H   UNL A   1      41.328  31.126  34.280  1.00  0.00     0.167 HD
ATOM     34  C   UNL A   1      39.419  33.179  34.858  1.00  0.00     0.074 A 
ATOM     35  C   UNL A   1      38.298  34.093  34.737  1.00  0.00     0.031 C 
ATOM     36  C   UNL A   1      40.293  33.174  35.896  1.00  0.00     0.031 A 
BRANCH  23  37
ATOM     37  C   UNL A   1      44.716  28.840  35.520  1.00  0.00    -0.014 A 
ATOM     38  C   UNL A   1      44.547  27.787  36.439  1.00  0.00     0.010 A 
ATOM     39  C   UNL A   1      46.015  29.281  35.215  1.00  0.00     0.010 A 
ATOM     40  C   UNL A   1      45.651  27.231  37.089  1.00  0.00     0.020 A 
ATOM     41  C   UNL A   1      47.124  28.709  35.843  1.00  0.00     0.020 A 
ATOM     42  C   UNL A   1      46.933  27.705  36.795  1.00  0.00     0.054 A 
BRANCH  42  43
ATOM     43  S   UNL A   1      48.349  26.989  37.672  1.00  0.00     0.124 S 
ATOM     44  O   UNL A   1      47.747  26.596  38.945  1.00  0.00    -0.237 OA
ATOM     45  O   UNL A   1      48.744  25.887  36.798  1.00  0.00    -0.237 OA
ATOM     46  O   UNL A   1      49.303  28.092  37.750  1.00  0.00    -0.744 OA
ENDBRANCH  42  43
ENDBRANCH  23  37
BRANCH  24  47
ATOM     47  C   UNL A   1      36.818  33.006  30.924  1.00  0.00    -0.014 A 
ATOM     48  C   UNL A   1      35.511  32.822  31.406  1.00  0.00     0.010 A 
ATOM     49  C   UNL A   1      37.012  33.794  29.773  1.00  0.00     0.010 A 
ATOM     50  C   UNL A   1      34.420  33.396  30.743  1.00  0.00     0.020 A 
ATOM     51  C   UNL A   1      35.925  34.386  29.118  1.00  0.00     0.020 A 
ATOM     52  C   UNL A   1      34.634  34.176  29.604  1.00  0.00     0.054 A 
BRANCH  52  53
ATOM     53  S   UNL A   1      33.205  34.943  28.787  1.00  0.00     0.124 S 
ATOM     54  O   UNL A   1      32.805  33.910  27.837  1.00  0.00    -0.237 OA
ATOM     55  O   UNL A   1      32.288  35.165  29.903  1.00  0.00    -0.237 OA
ATOM     56  O   UNL A   1      33.759  36.158  28.194  1.00  0.00    -0.744 OA
ENDBRANCH  52  53
ENDBRANCH  24  47
BRANCH  36  57
ATOM     57  C   UNL A   1      40.111  34.226  36.955  1.00  0.00    -0.014 A 
ATOM     58  C   UNL A   1      40.736  35.481  36.861  1.00  0.00     0.010 A 
ATOM     59  C   UNL A   1      39.247  33.966  38.034  1.00  0.00     0.010 A 
ATOM     60  C   UNL A   1      40.524  36.446  37.848  1.00  0.00     0.020 A 
ATOM     61  C   UNL A   1      39.008  34.939  39.004  1.00  0.00     0.020 A 
ATOM     62  C   UNL A   1      39.661  36.169  38.913  1.00  0.00     0.054 A 
BRANCH  62  63
ATOM     63  S   UNL A   1      39.366  37.453  40.157  1.00  0.00     0.124 S 
ATOM     64  O   UNL A   1      38.377  38.297  39.492  1.00  0.00    -0.237 OA
ATOM     65  O   UNL A   1      38.875  36.687  41.300  1.00  0.00    -0.237 OA
ATOM     66  O   UNL A   1      40.681  38.064  40.344  1.00  0.00    -0.744 OA
ENDBRANCH  62  63
ENDBRANCH  36  57
ENDBRANCH  10  11
ENDBRANCH   3   5
ENDBRANCH   2   3
ENDBRANCH   1   2
BRANCH   1  67
ATOM     67  C   UNL A   1      42.708  21.874  26.487  1.00  0.00     0.274 C 
BRANCH  67  68
ATOM     68  O   UNL A   1      41.534  21.739  25.677  1.00  0.00    -0.458 OA
BRANCH  68  69
ATOM     69  C   UNL A   1      40.499  21.007  26.192  1.00  0.00     0.366 C 
ATOM     70  O   UNL A   1      40.573  19.831  26.531  1.00  0.00    -0.245 OA
BRANCH  69  71
ATOM     71  C   UNL A   1      39.250  21.876  26.312  1.00  0.00     0.313 C 
ATOM     72  C   UNL A   1      38.158  21.412  25.314  1.00  0.00     0.197 C 
ATOM     73  N   UNL A   1      39.584  23.330  26.231  1.00  0.00    -0.332 N 
ATOM     74  N   UNL A   1      36.993  22.287  25.444  1.00  0.00    -0.328 N 
ATOM     75  C   UNL A   1      38.316  24.085  26.394  1.00  0.00     0.283 C 
ATOM     76  H   UNL A   1      40.002  23.541  25.324  1.00  0.00     0.347 HD
ATOM     77  H   UNL A   1      40.255  23.586  26.956  1.00  0.00     0.347 HD
ATOM     78  C   UNL A   1      37.237  23.720  25.356  1.00  0.00     0.181 C 
BRANCH  74  79
ATOM     79  C   UNL A   1      35.774  21.827  25.019  1.00  0.00     0.227 A 
ATOM     80  N   UNL A   1      34.838  22.724  24.677  1.00  0.00    -0.221 NA
ATOM     81  N   UNL A   1      35.557  20.502  25.071  1.00  0.00    -0.196 NA
ATOM     82  C   UNL A   1      33.631  22.240  24.349  1.00  0.00     0.119 A 
ATOM     83  C   UNL A   1      34.329  20.047  24.763  1.00  0.00     0.134 A 
ATOM     84  C   UNL A   1      33.325  20.905  24.370  1.00  0.00     0.067 A 
BRANCH  83  85
ATOM     85  N   UNL A   1      34.070  18.697  24.880  1.00  0.00    -0.356 N 
ATOM     86  C   UNL A   1      32.815  18.233  25.440  1.00  0.00     0.121 C 
ATOM     87  C   UNL A   1      35.024  17.733  24.358  1.00  0.00     0.121 C 
ATOM     88  C   UNL A   1      32.104  17.362  24.409  1.00  0.00     0.053 C 
ATOM     89  C   UNL A   1      34.349  16.761  23.395  1.00  0.00     0.053 C 
ATOM     90  C   UNL A   1      33.009  16.236  23.914  1.00  0.00     0.118 C 
BRANCH  90  91
ATOM     91  O   UNL A   1      33.187  15.273  24.956  1.00  0.00    -0.393 OA
ATOM     92  H   UNL A   1      33.994  14.762  24.790  1.00  0.00     0.210 HD
ENDBRANCH  90  91
ENDBRANCH  83  85
ENDBRANCH  74  79
ENDBRANCH  69  71
ENDBRANCH  68  69
ENDBRANCH  67  68
ENDBRANCH   1  67
TORSDOF 17
ENDMDL
MODEL 2
REMARK VINA RESULT:     -11.2      2.219      4.239
REMARK SMILES O=C(OCCOC(=O)[C@@H]1CN(c2nccc(N3CCC(O)CC3)n2)CC[NH2+]1)c1ccc(-c2c3nc(c(-c4ccc(S(=O)(=O)[O-])cc4)c4ccc([nH]4)c(-c4ccc(S(=O)(=O)[O-])cc4)c4nc(c(-c5ccc(S(=O)(=O)[O-])cc5)c5ccc2[nH]5)C=C4)C=C3)cc1
REMARK SMILES IDX 4 1 3 2 2 3 1 4 28 5 29 6 87 7 30 8 86 9 31 10 32 11 33 12
REMARK SMILES IDX 80 13 34 14 85 15 79 16 81 17 35 18 84 19 78 20 77 21 36 23
REMARK SMILES IDX 66 24 47 25 65 26 48 27 51 28 64 29 82 30 49 31 50 32 63 34
REMARK SMILES IDX 83 35 52 36 37 37 38 38 46 39 39 40 45 41 40 42 41 43 42 44
REMARK SMILES IDX 43 45 44 46 67 47 68 48 76 49 69 50 75 51 70 52 71 53 72 54
REMARK SMILES IDX 73 55 74 56 53 57 54 58 62 59 55 60 61 61 56 62 57 63 58 64
REMARK SMILES IDX 59 65 60 66 5 67 6 68 7 69 8 70 9 71 10 72 27 73 11 74 26 75
REMARK SMILES IDX 25 78 12 79 13 80 24 81 14 82 16 83 15 84 17 85 18 86 23 87
REMARK SMILES IDX 19 88 22 89 20 90 21 91
REMARK H PARENT 81 22 51 33 27 76 27 77 21 92
REMARK Flexibility Score: inf
ROOT
ATOM      1  C   UNL A   1      39.649  23.144  26.926  1.00  0.00     0.275 C 
ENDROOT
BRANCH   1   2
ATOM      2  O   UNL A   1      40.669  23.997  26.368  1.00  0.00    -0.458 OA
BRANCH   2   3
ATOM      3  C   UNL A   1      40.791  25.347  26.362  1.00  0.00     0.338 C 
ATOM      4  O   UNL A   1      41.220  25.886  25.341  1.00  0.00    -0.246 OA
BRANCH   3   5
ATOM      5  C   UNL A   1      40.566  26.217  27.561  1.00  0.00     0.060 A 
ATOM      6  C   UNL A   1      39.514  26.099  28.473  1.00  0.00     0.016 A 
ATOM      7  C   UNL A   1      41.527  27.222  27.794  1.00  0.00     0.016 A 
ATOM      8  C   UNL A   1      39.456  26.895  29.620  1.00  0.00     0.010 A 
ATOM      9  C   UNL A   1      41.471  28.029  28.940  1.00  0.00     0.010 A 
ATOM     10  C   UNL A   1      40.427  27.866  29.859  1.00  0.00    -0.014 A 
BRANCH  10  11
ATOM     11  C   UNL A   1      40.213  28.831  30.962  1.00  0.00     0.031 A 
ATOM     12  C   UNL A   1      41.037  28.655  32.202  1.00  0.00     0.074 A 
ATOM     13  C   UNL A   1      39.383  29.882  30.833  1.00  0.00     0.049 A 
ATOM     14  N   UNL A   1      41.130  29.433  33.246  1.00  0.00    -0.248 NA
ATOM     15  C   UNL A   1      41.912  27.470  32.250  1.00  0.00     0.031 C 
ATOM     16  C   UNL A   1      38.633  30.227  29.626  1.00  0.00     0.029 A 
ATOM     17  N   UNL A   1      39.026  30.857  31.730  1.00  0.00    -0.354 N 
ATOM     18  C   UNL A   1      42.107  28.861  34.049  1.00  0.00     0.074 A 
ATOM     19  C   UNL A   1      42.526  27.633  33.410  1.00  0.00     0.031 C 
ATOM     20  C   UNL A   1      37.837  31.281  29.884  1.00  0.00     0.029 A 
ATOM     21  C   UNL A   1      38.058  31.715  31.258  1.00  0.00     0.049 A 
ATOM     22  H   UNL A   1      39.424  30.935  32.626  1.00  0.00     0.167 HD
ATOM     23  C   UNL A   1      42.634  29.336  35.199  1.00  0.00     0.031 A 
ATOM     24  C   UNL A   1      37.435  32.743  31.866  1.00  0.00     0.031 A 
ATOM     25  C   UNL A   1      42.164  30.526  35.852  1.00  0.00     0.049 A 
ATOM     26  C   UNL A   1      37.910  33.154  33.233  1.00  0.00     0.074 A 
ATOM     27  C   UNL A   1      42.603  31.094  37.031  1.00  0.00     0.029 A 
ATOM     28  N   UNL A   1      41.123  31.317  35.384  1.00  0.00    -0.354 N 
ATOM     29  N   UNL A   1      38.872  32.632  33.959  1.00  0.00    -0.248 NA
ATOM     30  C   UNL A   1      37.261  34.323  33.840  1.00  0.00     0.031 C 
ATOM     31  C   UNL A   1      41.781  32.191  37.313  1.00  0.00     0.029 A 
ATOM     32  C   UNL A   1      40.877  32.348  36.271  1.00  0.00     0.049 A 
ATOM     33  H   UNL A   1      40.631  31.165  34.544  1.00  0.00     0.167 HD
ATOM     34  C   UNL A   1      38.992  33.450  35.075  1.00  0.00     0.074 A 
ATOM     35  C   UNL A   1      37.988  34.489  34.936  1.00  0.00     0.031 C 
ATOM     36  C   UNL A   1      39.871  33.369  36.106  1.00  0.00     0.031 A 
BRANCH  23  37
ATOM     37  C   UNL A   1      43.732  28.521  35.824  1.00  0.00    -0.014 A 
ATOM     38  C   UNL A   1      45.084  28.761  35.513  1.00  0.00     0.010 A 
ATOM     39  C   UNL A   1      43.405  27.466  36.693  1.00  0.00     0.010 A 
ATOM     40  C   UNL A   1      46.084  27.921  36.010  1.00  0.00     0.020 A 
ATOM     41  C   UNL A   1      44.405  26.640  37.214  1.00  0.00     0.020 A 
ATOM     42  C   UNL A   1      45.736  26.858  36.848  1.00  0.00     0.054 A 
BRANCH  42  43
ATOM     43  S   UNL A   1      47.046  25.764  37.457  1.00  0.00     0.124 S 
ATOM     44  O   UNL A   1      46.679  24.487  36.848  1.00  0.00    -0.237 OA
ATOM     45  O   UNL A   1      48.257  26.386  36.927  1.00  0.00    -0.237 OA
ATOM     46  O   UNL A   1      46.902  25.825  38.909  1.00  0.00    -0.744 OA
ENDBRANCH  42  43
ENDBRANCH  23  37
BRANCH  24  47
ATOM     47  C   UNL A   1      36.342  33.480  31.170  1.00  0.00    -0.014 A 
ATOM     48  C   UNL A   1      36.372  33.677  29.778  1.00  0.00     0.010 A 
ATOM     49  C   UNL A   1      35.255  33.992  31.904  1.00  0.00     0.010 A 
ATOM     50  C   UNL A   1      35.349  34.384  29.137  1.00  0.00     0.020 A 
ATOM     51  C   UNL A   1      34.219  34.683  31.264  1.00  0.00     0.020 A 
ATOM     52  C   UNL A   1      34.278  34.882  29.884  1.00  0.00     0.054 A 
BRANCH  52  53
ATOM     53  S   UNL A   1      32.943  35.761  29.021  1.00  0.00     0.124 S 
ATOM     54  O   UNL A   1      32.054  36.122  30.121  1.00  0.00    -0.237 OA
ATOM     55  O   UNL A   1      33.655  36.871  28.392  1.00  0.00    -0.237 OA
ATOM     56  O   UNL A   1      32.417  34.762  28.093  1.00  0.00    -0.744 OA
ENDBRANCH  52  53
ENDBRANCH  24  47
BRANCH  36  57
ATOM     57  C   UNL A   1      39.831  34.466  37.133  1.00  0.00    -0.014 A 
ATOM     58  C   UNL A   1      40.559  35.657  36.970  1.00  0.00     0.010 A 
ATOM     59  C   UNL A   1      38.996  34.318  38.257  1.00  0.00     0.010 A 
ATOM     60  C   UNL A   1      40.478  36.667  37.931  1.00  0.00     0.020 A 
ATOM     61  C   UNL A   1      38.888  35.339  39.201  1.00  0.00     0.020 A 
ATOM     62  C   UNL A   1      39.642  36.501  39.040  1.00  0.00     0.054 A 
BRANCH  62  63
ATOM     63  S   UNL A   1      39.518  37.846  40.249  1.00  0.00     0.124 S 
ATOM     64  O   UNL A   1      40.813  38.504  40.104  1.00  0.00    -0.237 OA
ATOM     65  O   UNL A   1      38.368  38.606  39.766  1.00  0.00    -0.237 OA
ATOM     66  O   UNL A   1      39.310  37.152  41.519  1.00  0.00    -0.744 OA
ENDBRANCH  62  63
ENDBRANCH  36  57
ENDBRANCH  10  11
ENDBRANCH   3   5
ENDBRANCH   2   3
ENDBRANCH   1   2
BRANCH   1  67
ATOM     67  C   UNL A   1      39.196  22.020  25.994  1.00  0.00     0.274 C 
BRANCH  67  68
ATOM     68  O   UNL A   1      37.903  22.280  25.434  1.00  0.00    -0.458 OA
BRANCH  68  69
ATOM     69  C   UNL A   1      37.186  21.203  24.989  1.00  0.00     0.366 C 
ATOM     70  O   UNL A   1      37.648  20.082  24.805  1.00  0.00    -0.245 OA
BRANCH  69  71
ATOM     71  C   UNL A   1      35.725  21.592  24.786  1.00  0.00     0.313 C 
ATOM     72  C   UNL A   1      35.574  23.132  24.684  1.00  0.00     0.197 C 
ATOM     73  N   UNL A   1      34.840  20.950  25.804  1.00  0.00    -0.332 N 
ATOM     74  N   UNL A   1      34.158  23.461  24.518  1.00  0.00    -0.328 N 
ATOM     75  C   UNL A   1      33.445  21.359  25.499  1.00  0.00     0.283 C 
ATOM     76  H   UNL A   1      35.100  21.265  26.739  1.00  0.00     0.347 HD
ATOM     77  H   UNL A   1      34.934  19.935  25.774  1.00  0.00     0.347 HD
ATOM     78  C   UNL A   1      33.235  22.886  25.486  1.00  0.00     0.181 C 
BRANCH  74  79
ATOM     79  C   UNL A   1      33.824  24.670  23.968  1.00  0.00     0.227 A 
ATOM     80  N   UNL A   1      33.745  24.764  22.632  1.00  0.00    -0.221 NA
ATOM     81  N   UNL A   1      33.698  25.719  24.800  1.00  0.00    -0.196 NA
ATOM     82  C   UNL A   1      33.502  25.981  22.127  1.00  0.00     0.119 A 
ATOM     83  C   UNL A   1      33.481  26.933  24.263  1.00  0.00     0.134 A 
ATOM     84  C   UNL A   1      33.355  27.102  22.901  1.00  0.00     0.067 A 
BRANCH  83  85
ATOM     85  N   UNL A   1      33.420  28.029  25.098  1.00  0.00    -0.356 N 
ATOM     86  C   UNL A   1      32.954  29.309  24.602  1.00  0.00     0.121 C 
ATOM     87  C   UNL A   1      33.742  27.878  26.508  1.00  0.00     0.121 C 
ATOM     88  C   UNL A   1      31.745  29.749  25.421  1.00  0.00     0.053 C 
ATOM     89  C   UNL A   1      32.609  28.400  27.387  1.00  0.00     0.053 C 
ATOM     90  C   UNL A   1      32.056  29.747  26.916  1.00  0.00     0.118 C 
BRANCH  90  91
ATOM     91  O   UNL A   1      32.951  30.820  27.219  1.00  0.00    -0.393 OA
ATOM     92  H   UNL A   1      33.233  31.248  26.395  1.00  0.00     0.210 HD
ENDBRANCH  90  91
ENDBRANCH  83  85
ENDBRANCH  74  79
ENDBRANCH  69  71
ENDBRANCH  68  69
ENDBRANCH  67  68
ENDBRANCH   1  67
TORSDOF 17
ENDMDL
MODEL 3
REMARK VINA RESULT:     -11.1      4.705      7.576
REMARK SMILES O=C(OCCOC(=O)[C@@H]1CN(c2nccc(N3CCC(O)CC3)n2)CC[NH2+]1)c1ccc(-c2c3nc(c(-c4ccc(S(=O)(=O)[O-])cc4)c4ccc([nH]4)c(-c4ccc(S(=O)(=O)[O-])cc4)c4nc(c(-c5ccc(S(=O)(=O)[O-])cc5)c5ccc2[nH]5)C=C4)C=C3)cc1
REMARK SMILES IDX 4 1 3 2 2 3 1 4 28 5 29 6 87 7 30 8 86 9 31 10 32 11 33 12
REMARK SMILES IDX 80 13 34 14 85 15 79 16 81 17 35 18 84 19 78 20 77 21 36 23
REMARK SMILES IDX 66 24 47 25 65 26 48 27 51 28 64 29 82 30 49 31 50 32 63 34
REMARK SMILES IDX 83 35 52 36 37 37 38 38 46 39 39 40 45 41 40 42 41 43 42 44
REMARK SMILES IDX 43 45 44 46 67 47 68 48 76 49 69 50 75 51 70 52 71 53 72 54
REMARK SMILES IDX 73 55 74 56 53 57 54 58 62 59 55 60 61 61 56 62 57 63 58 64
REMARK SMILES IDX 59 65 60 66 5 67 6 68 7 69 8 70 9 71 10 72 27 73 11 74 26 75
REMARK SMILES IDX 25 78 12 79 13 80 24 81 14 82 16 83 15 84 17 85 18 86 23 87
REMARK SMILES IDX 19 88 22 89 20 90 21 91
REMARK H PARENT 81 22 51 33 27 76 27 77 21 92
REMARK Flexibility Score: inf
ROOT
ATOM      1  C   UNL A   1      40.448  21.364  26.725  1.00  0.00     0.275 C 
ENDROOT
BRANCH   1   2
ATOM      2  O   UNL A   1      39.402  21.919  25.902  1.00  0.00    -0.458 OA
BRANCH   2   3
ATOM      3  C   UNL A   1      38.679  23.058  26.033  1.00  0.00     0.338 C 
ATOM      4  O   UNL A   1      37.647  23.169  25.371  1.00  0.00    -0.246 OA
BRANCH   3   5
ATOM      5  C   UNL A   1      39.122  24.247  26.828  1.00  0.00     0.060 A 
ATOM      6  C   UNL A   1      38.788  24.514  28.159  1.00  0.00     0.016 A 
ATOM      7  C   UNL A   1      39.977  25.157  26.172  1.00  0.00     0.016 A 
ATOM      8  C   UNL A   1      39.344  25.599  28.843  1.00  0.00     0.010 A 
ATOM      9  C   UNL A   1      40.532  26.252  26.850  1.00  0.00     0.010 A 
ATOM     10  C   UNL A   1      40.212  26.476  28.195  1.00  0.00    -0.014 A 
BRANCH  10  11
ATOM     11  C   UNL A   1      40.603  27.728  28.882  1.00  0.00     0.031 A 
ATOM     12  C   UNL A   1      41.977  27.787  29.479  1.00  0.00     0.074 A 
ATOM     13  C   UNL A   1      39.802  28.810  28.895  1.00  0.00     0.049 A 
ATOM     14  N   UNL A   1      42.599  28.802  30.015  1.00  0.00    -0.248 NA
ATOM     15  C   UNL A   1      42.776  26.550  29.419  1.00  0.00     0.031 C 
ATOM     16  C   UNL A   1      38.502  28.910  28.233  1.00  0.00     0.029 A 
ATOM     17  N   UNL A   1      39.960  30.035  29.492  1.00  0.00    -0.354 N 
ATOM     18  C   UNL A   1      43.875  28.342  30.308  1.00  0.00     0.074 A 
ATOM     19  C   UNL A   1      43.918  26.939  29.961  1.00  0.00     0.031 C 
ATOM     20  C   UNL A   1      37.942  30.095  28.533  1.00  0.00     0.029 A 
ATOM     21  C   UNL A   1      38.863  30.856  29.367  1.00  0.00     0.049 A 
ATOM     22  H   UNL A   1      40.781  30.300  29.966  1.00  0.00     0.167 HD
ATOM     23  C   UNL A   1      44.928  29.037  30.791  1.00  0.00     0.031 A 
ATOM     24  C   UNL A   1      38.639  32.090  29.861  1.00  0.00     0.031 A 
ATOM     25  C   UNL A   1      44.851  30.415  31.189  1.00  0.00     0.049 A 
ATOM     26  C   UNL A   1      39.770  32.792  30.562  1.00  0.00     0.074 A 
ATOM     27  C   UNL A   1      45.844  31.219  31.713  1.00  0.00     0.029 A 
ATOM     28  N   UNL A   1      43.697  31.185  31.126  1.00  0.00    -0.354 N 
ATOM     29  N   UNL A   1      40.990  32.360  30.788  1.00  0.00    -0.248 NA
ATOM     30  C   UNL A   1      39.519  34.162  31.025  1.00  0.00     0.031 C 
ATOM     31  C   UNL A   1      45.273  32.456  32.032  1.00  0.00     0.029 A 
ATOM     32  C   UNL A   1      43.942  32.445  31.639  1.00  0.00     0.049 A 
ATOM     33  H   UNL A   1      42.832  30.878  30.770  1.00  0.00     0.167 HD
ATOM     34  C   UNL A   1      41.672  33.429  31.353  1.00  0.00     0.074 A 
ATOM     35  C   UNL A   1      40.721  34.520  31.454  1.00  0.00     0.031 C 
ATOM     36  C   UNL A   1      42.975  33.512  31.727  1.00  0.00     0.031 A 
BRANCH  23  37
ATOM     37  C   UNL A   1      46.217  28.280  30.955  1.00  0.00    -0.014 A 
ATOM     38  C   UNL A   1      47.161  28.216  29.913  1.00  0.00     0.010 A 
ATOM     39  C   UNL A   1      46.463  27.578  32.147  1.00  0.00     0.010 A 
ATOM     40  C   UNL A   1      48.298  27.413  30.036  1.00  0.00     0.020 A 
ATOM     41  C   UNL A   1      47.613  26.795  32.285  1.00  0.00     0.020 A 
ATOM     42  C   UNL A   1      48.510  26.698  31.218  1.00  0.00     0.054 A 
BRANCH  42  43
ATOM     43  S   UNL A   1      49.976  25.640  31.345  1.00  0.00     0.124 S 
ATOM     44  O   UNL A   1      49.595  24.726  32.420  1.00  0.00    -0.237 OA
ATOM     45  O   UNL A   1      50.059  25.044  30.014  1.00  0.00    -0.237 OA
ATOM     46  O   UNL A   1      51.050  26.574  31.674  1.00  0.00    -0.744 OA
ENDBRANCH  42  43
ENDBRANCH  23  37
BRANCH  24  47
ATOM     47  C   UNL A   1      37.318  32.753  29.662  1.00  0.00    -0.014 A 
ATOM     48  C   UNL A   1      36.412  32.898  30.726  1.00  0.00     0.010 A 
ATOM     49  C   UNL A   1      36.961  33.250  28.394  1.00  0.00     0.010 A 
ATOM     50  C   UNL A   1      35.168  33.508  30.524  1.00  0.00     0.020 A 
ATOM     51  C   UNL A   1      35.726  33.879  28.192  1.00  0.00     0.020 A 
ATOM     52  C   UNL A   1      34.834  33.996  29.259  1.00  0.00     0.054 A 
BRANCH  52  53
ATOM     53  S   UNL A   1      33.231  34.820  29.034  1.00  0.00     0.124 S 
ATOM     54  O   UNL A   1      32.661  34.752  30.376  1.00  0.00    -0.237 OA
ATOM     55  O   UNL A   1      33.625  36.152  28.580  1.00  0.00    -0.237 OA
ATOM     56  O   UNL A   1      32.561  33.999  28.027  1.00  0.00    -0.744 OA
ENDBRANCH  52  53
ENDBRANCH  24  47
BRANCH  36  57
ATOM     57  C   UNL A   1      43.465  34.845  32.222  1.00  0.00    -0.014 A 
ATOM     58  C   UNL A   1      43.957  35.823  31.340  1.00  0.00     0.010 A 
ATOM     59  C   UNL A   1      43.373  35.139  33.595  1.00  0.00     0.010 A 
ATOM     60  C   UNL A   1      44.380  37.061  31.830  1.00  0.00     0.020 A 
ATOM     61  C   UNL A   1      43.764  36.385  34.083  1.00  0.00     0.020 A 
ATOM     62  C   UNL A   1      44.280  37.334  33.198  1.00  0.00     0.054 A 
BRANCH  62  63
ATOM     63  S   UNL A   1      44.791  38.963  33.803  1.00  0.00     0.124 S 
ATOM     64  O   UNL A   1      46.244  38.889  33.682  1.00  0.00    -0.237 OA
ATOM     65  O   UNL A   1      44.127  39.874  32.873  1.00  0.00    -0.237 OA
ATOM     66  O   UNL A   1      44.280  39.001  35.173  1.00  0.00    -0.744 OA
ENDBRANCH  62  63
ENDBRANCH  36  57
ENDBRANCH  10  11
ENDBRANCH   3   5
ENDBRANCH   2   3
ENDBRANCH   1   2
BRANCH   1  67
ATOM     67  C   UNL A   1      40.720  19.880  26.475  1.00  0.00     0.274 C 
BRANCH  67  68
ATOM     68  O   UNL A   1      41.707  19.684  25.456  1.00  0.00    -0.458 OA
BRANCH  68  69
ATOM     69  C   UNL A   1      42.661  18.731  25.685  1.00  0.00     0.366 C 
ATOM     70  O   UNL A   1      42.439  17.530  25.801  1.00  0.00    -0.245 OA
BRANCH  69  71
ATOM     71  C   UNL A   1      44.043  19.374  25.744  1.00  0.00     0.313 C 
ATOM     72  C   UNL A   1      43.943  20.911  25.564  1.00  0.00     0.197 C 
ATOM     73  N   UNL A   1      45.000  18.704  24.813  1.00  0.00    -0.332 N 
ATOM     74  N   UNL A   1      45.290  21.482  25.599  1.00  0.00    -0.328 N 
ATOM     75  C   UNL A   1      46.316  19.375  24.972  1.00  0.00     0.283 C 
ATOM     76  H   UNL A   1      44.674  18.798  23.851  1.00  0.00     0.347 HD
ATOM     77  H   UNL A   1      45.074  17.709  25.027  1.00  0.00     0.347 HD
ATOM     78  C   UNL A   1      46.275  20.892  24.704  1.00  0.00     0.181 C 
BRANCH  74  79
ATOM     79  C   UNL A   1      45.434  22.809  25.909  1.00  0.00     0.227 A 
ATOM     80  N   UNL A   1      44.359  23.483  26.346  1.00  0.00    -0.221 NA
ATOM     81  N   UNL A   1      46.623  23.382  25.658  1.00  0.00    -0.196 NA
ATOM     82  C   UNL A   1      44.516  24.797  26.556  1.00  0.00     0.119 A 
ATOM     83  C   UNL A   1      46.744  24.707  25.852  1.00  0.00     0.134 A 
ATOM     84  C   UNL A   1      45.693  25.459  26.330  1.00  0.00     0.067 A 
BRANCH  83  85
ATOM     85  N   UNL A   1      47.936  25.322  25.531  1.00  0.00    -0.356 N 
ATOM     86  C   UNL A   1      48.212  25.730  24.167  1.00  0.00     0.121 C 
ATOM     87  C   UNL A   1      48.886  25.644  26.584  1.00  0.00     0.121 C 
ATOM     88  C   UNL A   1      48.469  27.233  24.140  1.00  0.00     0.053 C 
ATOM     89  C   UNL A   1      49.266  27.121  26.545  1.00  0.00     0.053 C 
ATOM     90  C   UNL A   1      49.562  27.628  25.132  1.00  0.00     0.118 C 
BRANCH  90  91
ATOM     91  O   UNL A   1      50.827  27.162  24.657  1.00  0.00    -0.393 OA
ATOM     92  H   UNL A   1      51.165  27.773  23.983  1.00  0.00     0.210 HD
ENDBRANCH  90  91
ENDBRANCH  83  85
ENDBRANCH  74  79
ENDBRANCH  69  71
ENDBRANCH  68  69
ENDBRANCH  67  68
ENDBRANCH   1  67
TORSDOF 17
ENDMDL
