MODEL 1
REMARK VINA RESULT:      -8.7      0.000      0.000
REMARK SMILES CCc1cc(N2CCC[C@H](C(=O)OCCOC(=O)c3ccc(-c4c5nc(c(-c6ccc(S(=O)(=O)[O-])cc6)c6ccc([nH]6)c(-c6ccc(S(=O)(=O)[O-])cc6)c6nc(c(-c7ccc(S(=O)(=O)[O-])cc7)c7ccc4[nH]7)C=C6)C=C5)cc3)C2)nc(-c2ccc(Cl)cc2)n1
REMARK SMILES IDX 15 1 14 2 13 3 11 4 12 5 10 6 6 7 7 8 79 9 8 10 9 11 5 12
REMARK SMILES IDX 3 13 4 14 89 15 81 16 80 17 2 18 1 19 82 20 83 21 88 22
REMARK SMILES IDX 84 23 87 24 85 25 86 26 16 27 17 28 18 29 19 30 20 31 78 32
REMARK SMILES IDX 21 33 77 34 22 35 23 36 24 37 71 38 25 39 76 40 70 41 72 42
REMARK SMILES IDX 26 43 75 44 69 45 68 46 27 48 57 49 38 50 56 51 39 52 42 53
REMARK SMILES IDX 55 54 73 55 40 56 41 57 54 59 74 60 43 61 28 62 29 63 37 64
REMARK SMILES IDX 30 65 36 66 31 67 32 68 33 69 34 70 35 71 58 72 59 73 67 74
REMARK SMILES IDX 60 75 66 76 61 77 62 78 63 79 64 80 65 81 44 82 45 83 53 84
REMARK SMILES IDX 46 85 52 86 47 87 48 88 49 89 50 90 51 91
REMARK H PARENT 72 47 42 58
REMARK Flexibility Score: inf
ROOT
ATOM      1  C   UNL A   1      41.944  25.404  25.576  1.00  0.00     0.275 C 
ENDROOT
BRANCH   1   2
ATOM      2  C   UNL A   1      43.344  25.910  25.919  1.00  0.00     0.274 C 
BRANCH   2   3
ATOM      3  O   UNL A   1      44.310  25.418  24.977  1.00  0.00    -0.462 OA
BRANCH   3   4
ATOM      4  C   UNL A   1      45.543  25.980  24.977  1.00  0.00     0.310 C 
ATOM      5  O   UNL A   1      45.764  27.182  25.084  1.00  0.00    -0.252 OA
BRANCH   4   6
ATOM      6  C   UNL A   1      46.659  24.955  24.846  1.00  0.00     0.118 C 
ATOM      7  N   UNL A   1      47.250  24.719  27.219  1.00  0.00    -0.356 N 
ATOM      8  C   UNL A   1      48.575  25.305  27.068  1.00  0.00     0.118 C 
ATOM      9  C   UNL A   1      46.660  24.040  26.067  1.00  0.00     0.133 C 
ATOM     10  C   UNL A   1      48.681  26.174  25.820  1.00  0.00     0.022 C 
ATOM     11  C   UNL A   1      48.062  25.515  24.586  1.00  0.00     0.019 C 
BRANCH   7  12
ATOM     12  C   UNL A   1      46.400  25.147  28.225  1.00  0.00     0.132 A 
ATOM     13  C   UNL A   1      44.847  24.633  29.941  1.00  0.00     0.046 A 
ATOM     14  C   UNL A   1      45.678  24.199  28.931  1.00  0.00     0.070 A 
ATOM     15  N   UNL A   1      44.706  25.935  30.233  1.00  0.00    -0.233 NA
ATOM     16  C   UNL A   1      45.422  26.792  29.481  1.00  0.00     0.161 A 
ATOM     17  N   UNL A   1      46.287  26.458  28.503  1.00  0.00    -0.211 NA
BRANCH  13  18
ATOM     18  C   UNL A   1      44.046  23.648  30.748  1.00  0.00     0.053 C 
ATOM     19  C   UNL A   1      44.315  23.780  32.239  1.00  0.00     0.011 C 
ENDBRANCH  13  18
BRANCH  16  20
ATOM     20  C   UNL A   1      45.187  28.213  29.739  1.00  0.00     0.019 A 
ATOM     21  C   UNL A   1      45.842  28.875  30.791  1.00  0.00     0.013 A 
ATOM     22  C   UNL A   1      44.246  28.934  28.984  1.00  0.00     0.013 A 
ATOM     23  C   UNL A   1      45.578  30.220  31.068  1.00  0.00     0.021 A 
ATOM     24  C   UNL A   1      43.981  30.280  29.255  1.00  0.00     0.021 A 
ATOM     25  C   UNL A   1      44.651  30.917  30.296  1.00  0.00     0.041 A 
ATOM     26  Cl  UNL A   1      44.319  32.569  30.644  1.00  0.00    -0.084 Cl
ENDBRANCH  16  20
ENDBRANCH   7  12
ENDBRANCH   4   6
ENDBRANCH   3   4
ENDBRANCH   2   3
ENDBRANCH   1   2
BRANCH   1  27
ATOM     27  O   UNL A   1      40.952  26.392  25.895  1.00  0.00    -0.458 OA
BRANCH  27  28
ATOM     28  C   UNL A   1      39.952  25.945  26.690  1.00  0.00     0.338 C 
ATOM     29  O   UNL A   1      39.302  24.922  26.570  1.00  0.00    -0.246 OA
BRANCH  28  30
ATOM     30  C   UNL A   1      39.834  26.834  27.852  1.00  0.00     0.060 A 
ATOM     31  C   UNL A   1      40.410  28.104  27.764  1.00  0.00     0.016 A 
ATOM     32  C   UNL A   1      39.240  26.395  29.033  1.00  0.00     0.016 A 
ATOM     33  C   UNL A   1      40.411  28.942  28.873  1.00  0.00     0.010 A 
ATOM     34  C   UNL A   1      39.243  27.236  30.147  1.00  0.00     0.010 A 
ATOM     35  C   UNL A   1      39.845  28.505  30.075  1.00  0.00    -0.014 A 
BRANCH  35  36
ATOM     36  C   UNL A   1      39.968  29.342  31.290  1.00  0.00     0.031 A 
ATOM     37  C   UNL A   1      41.133  29.127  32.213  1.00  0.00     0.074 A 
ATOM     38  C   UNL A   1      39.060  30.302  31.542  1.00  0.00     0.049 A 
ATOM     39  N   UNL A   1      41.381  29.678  33.371  1.00  0.00    -0.248 NA
ATOM     40  C   UNL A   1      42.156  28.162  31.771  1.00  0.00     0.031 C 
ATOM     41  C   UNL A   1      37.928  30.645  30.680  1.00  0.00     0.029 A 
ATOM     42  N   UNL A   1      38.951  31.166  32.600  1.00  0.00    -0.354 N 
ATOM     43  C   UNL A   1      42.578  29.120  33.806  1.00  0.00     0.074 A 
ATOM     44  C   UNL A   1      42.998  28.174  32.796  1.00  0.00     0.031 C 
ATOM     45  C   UNL A   1      37.240  31.652  31.243  1.00  0.00     0.029 A 
ATOM     46  C   UNL A   1      37.853  31.990  32.524  1.00  0.00     0.049 A 
ATOM     47  H   UNL A   1      39.597  31.195  33.342  1.00  0.00     0.167 HD
ATOM     48  C   UNL A   1      43.265  29.377  34.944  1.00  0.00     0.031 A 
ATOM     49  C   UNL A   1      37.383  32.894  33.405  1.00  0.00     0.031 A 
ATOM     50  C   UNL A   1      42.834  30.314  35.947  1.00  0.00     0.049 A 
ATOM     51  C   UNL A   1      38.121  33.101  34.700  1.00  0.00     0.074 A 
ATOM     52  C   UNL A   1      43.436  30.623  37.154  1.00  0.00     0.029 A 
ATOM     53  N   UNL A   1      41.695  31.098  35.854  1.00  0.00    -0.354 N 
ATOM     54  N   UNL A   1      39.228  32.534  35.118  1.00  0.00    -0.248 NA
ATOM     55  C   UNL A   1      37.543  34.067  35.644  1.00  0.00     0.031 C 
ATOM     56  C   UNL A   1      42.642  31.573  37.806  1.00  0.00     0.029 A 
ATOM     57  C   UNL A   1      41.572  31.888  36.984  1.00  0.00     0.049 A 
ATOM     58  H   UNL A   1      41.067  31.094  35.097  1.00  0.00     0.167 HD
ATOM     59  C   UNL A   1      39.492  33.093  36.363  1.00  0.00     0.074 A 
ATOM     60  C   UNL A   1      38.437  34.051  36.624  1.00  0.00     0.031 C 
ATOM     61  C   UNL A   1      40.515  32.839  37.216  1.00  0.00     0.031 A 
BRANCH  48  62
ATOM     62  C   UNL A   1      44.536  28.608  35.174  1.00  0.00    -0.014 A 
ATOM     63  C   UNL A   1      44.526  27.371  35.843  1.00  0.00     0.010 A 
ATOM     64  C   UNL A   1      45.756  29.115  34.689  1.00  0.00     0.010 A 
ATOM     65  C   UNL A   1      45.717  26.671  36.054  1.00  0.00     0.020 A 
ATOM     66  C   UNL A   1      46.947  28.407  34.879  1.00  0.00     0.020 A 
ATOM     67  C   UNL A   1      46.921  27.196  35.575  1.00  0.00     0.054 A 
BRANCH  67  68
ATOM     68  S   UNL A   1      48.451  26.260  35.846  1.00  0.00     0.124 S 
ATOM     69  O   UNL A   1      47.939  24.979  36.326  1.00  0.00    -0.237 OA
ATOM     70  O   UNL A   1      49.053  26.235  34.515  1.00  0.00    -0.237 OA
ATOM     71  O   UNL A   1      49.173  27.054  36.837  1.00  0.00    -0.744 OA
ENDBRANCH  67  68
ENDBRANCH  48  62
BRANCH  49  72
ATOM     72  C   UNL A   1      36.137  33.649  33.109  1.00  0.00    -0.014 A 
ATOM     73  C   UNL A   1      36.196  34.955  32.594  1.00  0.00     0.010 A 
ATOM     74  C   UNL A   1      34.879  33.068  33.357  1.00  0.00     0.010 A 
ATOM     75  C   UNL A   1      35.023  35.676  32.354  1.00  0.00     0.020 A 
ATOM     76  C   UNL A   1      33.703  33.776  33.094  1.00  0.00     0.020 A 
ATOM     77  C   UNL A   1      33.783  35.083  32.609  1.00  0.00     0.054 A 
BRANCH  77  78
ATOM     78  S   UNL A   1      32.270  36.021  32.261  1.00  0.00     0.124 S 
ATOM     79  O   UNL A   1      31.232  35.035  32.546  1.00  0.00    -0.237 OA
ATOM     80  O   UNL A   1      32.360  37.134  33.202  1.00  0.00    -0.237 OA
ATOM     81  O   UNL A   1      32.415  36.390  30.855  1.00  0.00    -0.744 OA
ENDBRANCH  77  78
ENDBRANCH  49  72
BRANCH  61  82
ATOM     82  C   UNL A   1      40.565  33.641  38.487  1.00  0.00    -0.014 A 
ATOM     83  C   UNL A   1      41.195  34.896  38.531  1.00  0.00     0.010 A 
ATOM     84  C   UNL A   1      39.933  33.145  39.641  1.00  0.00     0.010 A 
ATOM     85  C   UNL A   1      41.218  35.630  39.720  1.00  0.00     0.020 A 
ATOM     86  C   UNL A   1      39.935  33.886  40.825  1.00  0.00     0.020 A 
ATOM     87  C   UNL A   1      40.592  35.118  40.861  1.00  0.00     0.054 A 
BRANCH  87  88
ATOM     88  S   UNL A   1      40.602  36.103  42.384  1.00  0.00     0.124 S 
ATOM     89  O   UNL A   1      39.329  36.812  42.295  1.00  0.00    -0.237 OA
ATOM     90  O   UNL A   1      40.683  35.084  43.427  1.00  0.00    -0.237 OA
ATOM     91  O   UNL A   1      41.793  36.939  42.246  1.00  0.00    -0.744 OA
ENDBRANCH  87  88
ENDBRANCH  61  82
ENDBRANCH  35  36
ENDBRANCH  28  30
ENDBRANCH  27  28
ENDBRANCH   1  27
TORSDOF 17
ENDMDL
MODEL 2
REMARK VINA RESULT:      -8.6      1.672      3.313
REMARK SMILES CCc1cc(N2CCC[C@H](C(=O)OCCOC(=O)c3ccc(-c4c5nc(c(-c6ccc(S(=O)(=O)[O-])cc6)c6ccc([nH]6)c(-c6ccc(S(=O)(=O)[O-])cc6)c6nc(c(-c7ccc(S(=O)(=O)[O-])cc7)c7ccc4[nH]7)C=C6)C=C5)cc3)C2)nc(-c2ccc(Cl)cc2)n1
REMARK SMILES IDX 15 1 14 2 13 3 11 4 12 5 10 6 6 7 7 8 79 9 8 10 9 11 5 12
REMARK SMILES IDX 3 13 4 14 89 15 81 16 80 17 2 18 1 19 82 20 83 21 88 22
REMARK SMILES IDX 84 23 87 24 85 25 86 26 16 27 17 28 18 29 19 30 20 31 78 32
REMARK SMILES IDX 21 33 77 34 22 35 23 36 24 37 71 38 25 39 76 40 70 41 72 42
REMARK SMILES IDX 26 43 75 44 69 45 68 46 27 48 57 49 38 50 56 51 39 52 42 53
REMARK SMILES IDX 55 54 73 55 40 56 41 57 54 59 74 60 43 61 28 62 29 63 37 64
REMARK SMILES IDX 30 65 36 66 31 67 32 68 33 69 34 70 35 71 58 72 59 73 67 74
REMARK SMILES IDX 60 75 66 76 61 77 62 78 63 79 64 80 65 81 44 82 45 83 53 84
REMARK SMILES IDX 46 85 52 86 47 87 48 88 49 89 50 90 51 91
REMARK H PARENT 72 47 42 58
REMARK Flexibility Score: inf
ROOT
ATOM      1  C   UNL A   1      42.253  25.835  25.598  1.00  0.00     0.275 C 
ENDROOT
BRANCH   1   2
ATOM      2  C   UNL A   1      43.492  26.539  26.149  1.00  0.00     0.274 C 
BRANCH   2   3
ATOM      3  O   UNL A   1      43.481  26.542  27.585  1.00  0.00    -0.462 OA
BRANCH   3   4
ATOM      4  C   UNL A   1      44.573  27.022  28.229  1.00  0.00     0.310 C 
ATOM      5  O   UNL A   1      45.199  28.022  27.894  1.00  0.00    -0.252 OA
BRANCH   4   6
ATOM      6  C   UNL A   1      44.949  26.196  29.450  1.00  0.00     0.118 C 
ATOM      7  N   UNL A   1      45.804  24.192  28.314  1.00  0.00    -0.356 N 
ATOM      8  C   UNL A   1      44.736  23.324  28.790  1.00  0.00     0.118 C 
ATOM      9  C   UNL A   1      46.174  25.344  29.133  1.00  0.00     0.133 C 
ATOM     10  C   UNL A   1      43.497  24.108  29.203  1.00  0.00     0.022 C 
ATOM     11  C   UNL A   1      43.831  25.337  30.052  1.00  0.00     0.019 C 
BRANCH   7  12
ATOM     12  C   UNL A   1      46.154  24.210  26.974  1.00  0.00     0.132 A 
ATOM     13  C   UNL A   1      45.863  23.364  24.778  1.00  0.00     0.046 A 
ATOM     14  C   UNL A   1      45.521  23.329  26.112  1.00  0.00     0.070 A 
ATOM     15  N   UNL A   1      46.800  24.203  24.309  1.00  0.00    -0.233 NA
ATOM     16  C   UNL A   1      47.385  25.006  25.216  1.00  0.00     0.161 A 
ATOM     17  N   UNL A   1      47.088  25.068  26.529  1.00  0.00    -0.211 NA
BRANCH  13  18
ATOM     18  C   UNL A   1      45.202  22.438  23.794  1.00  0.00     0.053 C 
ATOM     19  C   UNL A   1      45.091  21.020  24.333  1.00  0.00     0.011 C 
ENDBRANCH  13  18
BRANCH  16  20
ATOM     20  C   UNL A   1      48.474  25.845  24.714  1.00  0.00     0.019 A 
ATOM     21  C   UNL A   1      49.607  26.106  25.502  1.00  0.00     0.013 A 
ATOM     22  C   UNL A   1      48.380  26.467  23.458  1.00  0.00     0.013 A 
ATOM     23  C   UNL A   1      50.623  26.949  25.041  1.00  0.00     0.021 A 
ATOM     24  C   UNL A   1      49.395  27.308  22.990  1.00  0.00     0.021 A 
ATOM     25  C   UNL A   1      50.513  27.544  23.786  1.00  0.00     0.041 A 
ATOM     26  Cl  UNL A   1      51.759  28.589  23.223  1.00  0.00    -0.084 Cl
ENDBRANCH  16  20
ENDBRANCH   7  12
ENDBRANCH   4   6
ENDBRANCH   3   4
ENDBRANCH   2   3
ENDBRANCH   1   2
BRANCH   1  27
ATOM     27  O   UNL A   1      41.080  26.641  25.786  1.00  0.00    -0.458 OA
BRANCH  27  28
ATOM     28  C   UNL A   1      40.159  26.103  26.619  1.00  0.00     0.338 C 
ATOM     29  O   UNL A   1      39.597  25.027  26.518  1.00  0.00    -0.246 OA
BRANCH  28  30
ATOM     30  C   UNL A   1      40.014  26.972  27.792  1.00  0.00     0.060 A 
ATOM     31  C   UNL A   1      40.556  28.258  27.725  1.00  0.00     0.016 A 
ATOM     32  C   UNL A   1      39.427  26.500  28.965  1.00  0.00     0.016 A 
ATOM     33  C   UNL A   1      40.530  29.080  28.845  1.00  0.00     0.010 A 
ATOM     34  C   UNL A   1      39.404  27.326  30.091  1.00  0.00     0.010 A 
ATOM     35  C   UNL A   1      39.972  28.611  30.040  1.00  0.00    -0.014 A 
BRANCH  35  36
ATOM     36  C   UNL A   1      40.069  29.433  31.266  1.00  0.00     0.031 A 
ATOM     37  C   UNL A   1      41.225  29.222  32.202  1.00  0.00     0.074 A 
ATOM     38  C   UNL A   1      39.145  30.378  31.519  1.00  0.00     0.049 A 
ATOM     39  N   UNL A   1      41.451  29.761  33.370  1.00  0.00    -0.248 NA
ATOM     40  C   UNL A   1      42.266  28.277  31.760  1.00  0.00     0.031 C 
ATOM     41  C   UNL A   1      38.019  30.717  30.647  1.00  0.00     0.029 A 
ATOM     42  N   UNL A   1      39.011  31.228  32.587  1.00  0.00    -0.354 N 
ATOM     43  C   UNL A   1      42.650  29.213  33.812  1.00  0.00     0.074 A 
ATOM     44  C   UNL A   1      43.095  28.286  32.796  1.00  0.00     0.031 C 
ATOM     45  C   UNL A   1      37.311  31.709  31.214  1.00  0.00     0.029 A 
ATOM     46  C   UNL A   1      37.904  32.038  32.507  1.00  0.00     0.049 A 
ATOM     47  H   UNL A   1      39.647  31.255  33.337  1.00  0.00     0.167 HD
ATOM     48  C   UNL A   1      43.318  29.464  34.963  1.00  0.00     0.031 A 
ATOM     49  C   UNL A   1      37.411  32.924  33.393  1.00  0.00     0.031 A 
ATOM     50  C   UNL A   1      42.863  30.382  35.972  1.00  0.00     0.049 A 
ATOM     51  C   UNL A   1      38.129  33.124  34.701  1.00  0.00     0.074 A 
ATOM     52  C   UNL A   1      43.445  30.684  37.191  1.00  0.00     0.029 A 
ATOM     53  N   UNL A   1      41.715  31.153  35.875  1.00  0.00    -0.354 N 
ATOM     54  N   UNL A   1      39.238  32.565  35.125  1.00  0.00    -0.248 NA
ATOM     55  C   UNL A   1      37.526  34.070  35.649  1.00  0.00     0.031 C 
ATOM     56  C   UNL A   1      42.631  31.615  37.844  1.00  0.00     0.029 A 
ATOM     57  C   UNL A   1      41.567  31.926  37.013  1.00  0.00     0.049 A 
ATOM     58  H   UNL A   1      41.096  31.151  35.109  1.00  0.00     0.167 HD
ATOM     59  C   UNL A   1      39.479  33.112  36.381  1.00  0.00     0.074 A 
ATOM     60  C   UNL A   1      38.408  34.053  36.640  1.00  0.00     0.031 C 
ATOM     61  C   UNL A   1      40.495  32.860  37.243  1.00  0.00     0.031 A 
BRANCH  48  62
ATOM     62  C   UNL A   1      44.597  28.709  35.198  1.00  0.00    -0.014 A 
ATOM     63  C   UNL A   1      44.593  27.456  35.837  1.00  0.00     0.010 A 
ATOM     64  C   UNL A   1      45.818  29.246  34.751  1.00  0.00     0.010 A 
ATOM     65  C   UNL A   1      45.790  26.769  36.055  1.00  0.00     0.020 A 
ATOM     66  C   UNL A   1      47.015  28.552  34.947  1.00  0.00     0.020 A 
ATOM     67  C   UNL A   1      46.995  27.324  35.613  1.00  0.00     0.054 A 
BRANCH  67  68
ATOM     68  S   UNL A   1      48.534  26.404  35.891  1.00  0.00     0.124 S 
ATOM     69  O   UNL A   1      48.197  25.087  35.358  1.00  0.00    -0.237 OA
ATOM     70  O   UNL A   1      49.508  27.165  35.113  1.00  0.00    -0.237 OA
ATOM     71  O   UNL A   1      48.715  26.463  37.339  1.00  0.00    -0.744 OA
ENDBRANCH  67  68
ENDBRANCH  48  62
BRANCH  49  72
ATOM     72  C   UNL A   1      36.158  33.666  33.092  1.00  0.00    -0.014 A 
ATOM     73  C   UNL A   1      36.204  34.917  32.452  1.00  0.00     0.010 A 
ATOM     74  C   UNL A   1      34.909  33.131  33.457  1.00  0.00     0.010 A 
ATOM     75  C   UNL A   1      35.026  35.630  32.205  1.00  0.00     0.020 A 
ATOM     76  C   UNL A   1      33.728  33.827  33.189  1.00  0.00     0.020 A 
ATOM     77  C   UNL A   1      33.796  35.081  32.578  1.00  0.00     0.054 A 
BRANCH  77  78
ATOM     78  S   UNL A   1      32.276  36.005  32.220  1.00  0.00     0.124 S 
ATOM     79  O   UNL A   1      32.425  36.290  30.797  1.00  0.00    -0.237 OA
ATOM     80  O   UNL A   1      31.230  35.045  32.567  1.00  0.00    -0.237 OA
ATOM     81  O   UNL A   1      32.366  37.164  33.105  1.00  0.00    -0.744 OA
ENDBRANCH  77  78
ENDBRANCH  49  72
BRANCH  61  82
ATOM     82  C   UNL A   1      40.517  33.646  38.525  1.00  0.00    -0.014 A 
ATOM     83  C   UNL A   1      39.877  33.170  39.681  1.00  0.00     0.010 A 
ATOM     84  C   UNL A   1      41.228  34.859  38.579  1.00  0.00     0.010 A 
ATOM     85  C   UNL A   1      39.921  33.912  40.865  1.00  0.00     0.020 A 
ATOM     86  C   UNL A   1      41.292  35.591  39.767  1.00  0.00     0.020 A 
ATOM     87  C   UNL A   1      40.625  35.119  40.899  1.00  0.00     0.054 A 
BRANCH  87  88
ATOM     88  S   UNL A   1      40.701  36.047  42.456  1.00  0.00     0.124 S 
ATOM     89  O   UNL A   1      39.288  36.232  42.768  1.00  0.00    -0.237 OA
ATOM     90  O   UNL A   1      41.427  35.137  43.339  1.00  0.00    -0.237 OA
ATOM     91  O   UNL A   1      41.426  37.265  42.096  1.00  0.00    -0.744 OA
ENDBRANCH  87  88
ENDBRANCH  61  82
ENDBRANCH  35  36
ENDBRANCH  28  30
ENDBRANCH  27  28
ENDBRANCH   1  27
TORSDOF 17
ENDMDL
MODEL 3
REMARK VINA RESULT:      -8.6      1.456      2.460
REMARK SMILES CCc1cc(N2CCC[C@H](C(=O)OCCOC(=O)c3ccc(-c4c5nc(c(-c6ccc(S(=O)(=O)[O-])cc6)c6ccc([nH]6)c(-c6ccc(S(=O)(=O)[O-])cc6)c6nc(c(-c7ccc(S(=O)(=O)[O-])cc7)c7ccc4[nH]7)C=C6)C=C5)cc3)C2)nc(-c2ccc(Cl)cc2)n1
REMARK SMILES IDX 15 1 14 2 13 3 11 4 12 5 10 6 6 7 7 8 79 9 8 10 9 11 5 12
REMARK SMILES IDX 3 13 4 14 89 15 81 16 80 17 2 18 1 19 82 20 83 21 88 22
REMARK SMILES IDX 84 23 87 24 85 25 86 26 16 27 17 28 18 29 19 30 20 31 78 32
REMARK SMILES IDX 21 33 77 34 22 35 23 36 24 37 71 38 25 39 76 40 70 41 72 42
REMARK SMILES IDX 26 43 75 44 69 45 68 46 27 48 57 49 38 50 56 51 39 52 42 53
REMARK SMILES IDX 55 54 73 55 40 56 41 57 54 59 74 60 43 61 28 62 29 63 37 64
REMARK SMILES IDX 30 65 36 66 31 67 32 68 33 69 34 70 35 71 58 72 59 73 67 74
REMARK SMILES IDX 60 75 66 76 61 77 62 78 63 79 64 80 65 81 44 82 45 83 53 84
REMARK SMILES IDX 46 85 52 86 47 87 48 88 49 89 50 90 51 91
REMARK H PARENT 72 47 42 58
REMARK Flexibility Score: inf
ROOT
ATOM      1  C   UNL A   1      42.774  26.501  25.327  1.00  0.00     0.275 C 
ENDROOT
BRANCH   1   2
ATOM      2  C   UNL A   1      43.922  27.256  25.995  1.00  0.00     0.274 C 
BRANCH   2   3
ATOM      3  O   UNL A   1      45.066  27.319  25.128  1.00  0.00    -0.462 OA
BRANCH   3   4
ATOM      4  C   UNL A   1      46.183  27.929  25.592  1.00  0.00     0.310 C 
ATOM      5  O   UNL A   1      46.206  28.745  26.507  1.00  0.00    -0.252 OA
BRANCH   4   6
ATOM      6  C   UNL A   1      47.443  27.484  24.865  1.00  0.00     0.118 C 
ATOM      7  N   UNL A   1      47.596  25.187  25.724  1.00  0.00    -0.356 N 
ATOM      8  C   UNL A   1      48.822  25.424  26.472  1.00  0.00     0.118 C 
ATOM      9  C   UNL A   1      47.345  25.998  24.534  1.00  0.00     0.133 C 
ATOM     10  C   UNL A   1      49.036  26.902  26.776  1.00  0.00     0.022 C 
ATOM     11  C   UNL A   1      48.771  27.798  25.564  1.00  0.00     0.019 C 
BRANCH   7  12
ATOM     12  C   UNL A   1      46.514  24.562  26.323  1.00  0.00     0.132 A 
ATOM     13  C   UNL A   1      44.553  23.244  26.126  1.00  0.00     0.046 A 
ATOM     14  C   UNL A   1      45.617  23.876  25.521  1.00  0.00     0.070 A 
ATOM     15  N   UNL A   1      44.357  23.301  27.452  1.00  0.00    -0.233 NA
ATOM     16  C   UNL A   1      45.258  24.011  28.155  1.00  0.00     0.161 A 
ATOM     17  N   UNL A   1      46.348  24.626  27.655  1.00  0.00    -0.211 NA
BRANCH  13  18
ATOM     18  C   UNL A   1      43.552  22.476  25.307  1.00  0.00     0.053 C 
ATOM     19  C   UNL A   1      43.550  20.995  25.652  1.00  0.00     0.011 C 
ENDBRANCH  13  18
BRANCH  16  20
ATOM     20  C   UNL A   1      44.982  24.150  29.586  1.00  0.00     0.019 A 
ATOM     21  C   UNL A   1      44.165  23.225  30.257  1.00  0.00     0.013 A 
ATOM     22  C   UNL A   1      45.469  25.253  30.307  1.00  0.00     0.013 A 
ATOM     23  C   UNL A   1      43.860  23.388  31.612  1.00  0.00     0.021 A 
ATOM     24  C   UNL A   1      45.170  25.418  31.663  1.00  0.00     0.021 A 
ATOM     25  C   UNL A   1      44.367  24.483  32.310  1.00  0.00     0.041 A 
ATOM     26  Cl  UNL A   1      43.983  24.688  33.975  1.00  0.00    -0.084 Cl
ENDBRANCH  16  20
ENDBRANCH   7  12
ENDBRANCH   4   6
ENDBRANCH   3   4
ENDBRANCH   2   3
ENDBRANCH   1   2
BRANCH   1  27
ATOM     27  O   UNL A   1      41.525  27.171  25.548  1.00  0.00    -0.458 OA
BRANCH  27  28
ATOM     28  C   UNL A   1      40.678  26.520  26.379  1.00  0.00     0.338 C 
ATOM     29  O   UNL A   1      40.218  25.400  26.249  1.00  0.00    -0.246 OA
BRANCH  28  30
ATOM     30  C   UNL A   1      40.479  27.330  27.586  1.00  0.00     0.060 A 
ATOM     31  C   UNL A   1      40.977  28.635  27.588  1.00  0.00     0.016 A 
ATOM     32  C   UNL A   1      39.885  26.786  28.723  1.00  0.00     0.016 A 
ATOM     33  C   UNL A   1      40.900  29.404  28.743  1.00  0.00     0.010 A 
ATOM     34  C   UNL A   1      39.810  27.559  29.884  1.00  0.00     0.010 A 
ATOM     35  C   UNL A   1      40.334  28.863  29.903  1.00  0.00    -0.014 A 
BRANCH  35  36
ATOM     36  C   UNL A   1      40.377  29.632  31.166  1.00  0.00     0.031 A 
ATOM     37  C   UNL A   1      41.519  29.416  32.117  1.00  0.00     0.074 A 
ATOM     38  C   UNL A   1      39.416  30.534  31.440  1.00  0.00     0.049 A 
ATOM     39  N   UNL A   1      41.702  29.909  33.313  1.00  0.00    -0.248 NA
ATOM     40  C   UNL A   1      42.601  28.527  31.658  1.00  0.00     0.031 C 
ATOM     41  C   UNL A   1      38.299  30.875  30.558  1.00  0.00     0.029 A 
ATOM     42  N   UNL A   1      39.231  31.329  32.541  1.00  0.00    -0.354 N 
ATOM     43  C   UNL A   1      42.909  29.382  33.758  1.00  0.00     0.074 A 
ATOM     44  C   UNL A   1      43.406  28.516  32.711  1.00  0.00     0.031 C 
ATOM     45  C   UNL A   1      37.546  31.816  31.152  1.00  0.00     0.029 A 
ATOM     46  C   UNL A   1      38.099  32.106  32.472  1.00  0.00     0.049 A 
ATOM     47  H   UNL A   1      39.850  31.343  33.306  1.00  0.00     0.167 HD
ATOM     48  C   UNL A   1      43.544  29.602  34.933  1.00  0.00     0.031 A 
ATOM     49  C   UNL A   1      37.558  32.934  33.385  1.00  0.00     0.031 A 
ATOM     50  C   UNL A   1      43.037  30.458  35.971  1.00  0.00     0.049 A 
ATOM     51  C   UNL A   1      38.241  33.099  34.716  1.00  0.00     0.074 A 
ATOM     52  C   UNL A   1      43.583  30.724  37.216  1.00  0.00     0.029 A 
ATOM     53  N   UNL A   1      41.865  31.195  35.882  1.00  0.00    -0.354 N 
ATOM     54  N   UNL A   1      39.359  32.558  35.141  1.00  0.00    -0.248 NA
ATOM     55  C   UNL A   1      37.587  33.981  35.692  1.00  0.00     0.031 C 
ATOM     56  C   UNL A   1      42.723  31.597  37.891  1.00  0.00     0.029 A 
ATOM     57  C   UNL A   1      41.667  31.911  37.050  1.00  0.00     0.049 A 
ATOM     58  H   UNL A   1      41.264  31.207  35.104  1.00  0.00     0.167 HD
ATOM     59  C   UNL A   1      39.555  33.055  36.424  1.00  0.00     0.074 A 
ATOM     60  C   UNL A   1      38.447  33.948  36.700  1.00  0.00     0.031 C 
ATOM     61  C   UNL A   1      40.560  32.798  37.297  1.00  0.00     0.031 A 
BRANCH  48  62
ATOM     62  C   UNL A   1      44.842  28.879  35.164  1.00  0.00    -0.014 A 
ATOM     63  C   UNL A   1      46.071  29.462  34.806  1.00  0.00     0.010 A 
ATOM     64  C   UNL A   1      44.837  27.611  35.773  1.00  0.00     0.010 A 
ATOM     65  C   UNL A   1      47.269  28.775  35.020  1.00  0.00     0.020 A 
ATOM     66  C   UNL A   1      46.034  26.930  36.010  1.00  0.00     0.020 A 
ATOM     67  C   UNL A   1      47.242  27.510  35.616  1.00  0.00     0.054 A 
BRANCH  67  68
ATOM     68  S   UNL A   1      48.812  26.646  35.901  1.00  0.00     0.124 S 
ATOM     69  O   UNL A   1      49.200  27.154  37.215  1.00  0.00    -0.237 OA
ATOM     70  O   UNL A   1      48.418  25.241  35.863  1.00  0.00    -0.237 OA
ATOM     71  O   UNL A   1      49.654  27.083  34.790  1.00  0.00    -0.744 OA
ENDBRANCH  67  68
ENDBRANCH  48  62
BRANCH  49  72
ATOM     72  C   UNL A   1      36.288  33.648  33.088  1.00  0.00    -0.014 A 
ATOM     73  C   UNL A   1      36.305  34.964  32.596  1.00  0.00     0.010 A 
ATOM     74  C   UNL A   1      35.050  33.017  33.311  1.00  0.00     0.010 A 
ATOM     75  C   UNL A   1      35.108  35.646  32.355  1.00  0.00     0.020 A 
ATOM     76  C   UNL A   1      33.851  33.686  33.047  1.00  0.00     0.020 A 
ATOM     77  C   UNL A   1      33.889  35.003  32.585  1.00  0.00     0.054 A 
BRANCH  77  78
ATOM     78  S   UNL A   1      32.346  35.891  32.235  1.00  0.00     0.124 S 
ATOM     79  O   UNL A   1      32.432  36.089  30.792  1.00  0.00    -0.237 OA
ATOM     80  O   UNL A   1      31.325  34.946  32.684  1.00  0.00    -0.237 OA
ATOM     81  O   UNL A   1      32.460  37.102  33.044  1.00  0.00    -0.744 OA
ENDBRANCH  77  78
ENDBRANCH  49  72
BRANCH  61  82
ATOM     82  C   UNL A   1      40.529  33.526  38.613  1.00  0.00    -0.014 A 
ATOM     83  C   UNL A   1      41.190  34.754  38.780  1.00  0.00     0.010 A 
ATOM     84  C   UNL A   1      39.790  32.988  39.682  1.00  0.00     0.010 A 
ATOM     85  C   UNL A   1      41.138  35.419  40.009  1.00  0.00     0.020 A 
ATOM     86  C   UNL A   1      39.718  33.662  40.904  1.00  0.00     0.020 A 
ATOM     87  C   UNL A   1      40.405  34.867  41.064  1.00  0.00     0.054 A 
BRANCH  87  88
ATOM     88  S   UNL A   1      40.320  35.764  42.637  1.00  0.00     0.124 S 
ATOM     89  O   UNL A   1      41.378  36.757  42.478  1.00  0.00    -0.237 OA
ATOM     90  O   UNL A   1      38.957  36.291  42.635  1.00  0.00    -0.237 OA
ATOM     91  O   UNL A   1      40.579  34.731  43.638  1.00  0.00    -0.744 OA
ENDBRANCH  87  88
ENDBRANCH  61  82
ENDBRANCH  35  36
ENDBRANCH  28  30
ENDBRANCH  27  28
ENDBRANCH   1  27
TORSDOF 17
ENDMDL
