MODEL 1
REMARK VINA RESULT:     -13.0      0.000      0.000
REMARK SMILES Cc1nc2cc(S(=O)(=O)N3CCC(C(=O)OCCOC(=O)c4ccc(-c5c6nc(c(-c7ccc(S(=O)(=O)[O-])cc7)c7ccc([nH]7)c(-c7ccc(S(=O)(=O)[O-])cc7)c7nc(c(-c8ccc(S(=O)(=O)[O-])cc8)c8ccc5[nH]8)C=C7)C=C6)cc4)CC3)ccc2n1C1CCCC1
REMARK SMILES IDX 17 1 16 2 14 3 15 4 13 5 10 6 11 7 83 8 12 9 82 10 7 11 8 12
REMARK SMILES IDX 9 13 6 14 1 15 2 16 3 17 87 18 4 19 86 20 5 21 85 22 84 23
REMARK SMILES IDX 88 24 89 25 92 26 90 27 91 28 18 29 19 30 20 31 21 32 22 33
REMARK SMILES IDX 23 34 81 35 24 36 80 37 25 38 26 39 27 40 74 41 28 42 79 43
REMARK SMILES IDX 73 44 75 45 29 46 78 47 72 48 71 49 30 51 60 52 41 53 59 54
REMARK SMILES IDX 42 55 45 56 58 57 76 58 43 59 44 60 57 62 77 63 46 64 31 65
REMARK SMILES IDX 32 66 40 67 33 68 39 69 34 70 35 71 36 72 37 73 38 74 61 75
REMARK SMILES IDX 62 76 70 77 63 78 69 79 64 80 65 81 66 82 67 83 68 84 47 85
REMARK SMILES IDX 48 86 56 87 49 88 55 89 50 90 51 91 52 92 53 93 54 94
REMARK H PARENT 75 50 45 61
REMARK Flexibility Score: inf
ROOT
ATOM      1  C   UNL A   1      40.023  21.875  26.988  1.00  0.00     0.274 C 
ENDROOT
BRANCH   1   2
ATOM      2  O   UNL A   1      38.853  21.885  26.141  1.00  0.00    -0.462 OA
BRANCH   2   3
ATOM      3  C   UNL A   1      38.200  23.068  26.030  1.00  0.00     0.309 C 
ATOM      4  O   UNL A   1      38.686  24.161  26.295  1.00  0.00    -0.252 OA
BRANCH   3   5
ATOM      5  C   UNL A   1      36.808  22.925  25.457  1.00  0.00     0.102 C 
ATOM      6  N   UNL A   1      34.015  22.942  24.872  1.00  0.00    -0.198 NA
ATOM      7  C   UNL A   1      34.675  21.643  25.144  1.00  0.00     0.103 C 
ATOM      8  C   UNL A   1      34.874  24.074  24.453  1.00  0.00     0.103 C 
ATOM      9  C   UNL A   1      35.925  21.813  26.013  1.00  0.00     0.032 C 
ATOM     10  C   UNL A   1      36.019  24.225  25.452  1.00  0.00     0.032 C 
BRANCH   6  11
ATOM     11  S   UNL A   1      32.420  22.914  24.274  1.00  0.00     0.243 S 
ATOM     12  O   UNL A   1      31.588  22.330  25.311  1.00  0.00    -0.207 OA
ATOM     13  O   UNL A   1      32.482  22.335  22.952  1.00  0.00    -0.207 OA
BRANCH  11  14
ATOM     14  C   UNL A   1      31.861  24.592  24.055  1.00  0.00     0.085 A 
ATOM     15  C   UNL A   1      31.621  30.290  25.867  1.00  0.00     0.088 C 
ATOM     16  C   UNL A   1      31.511  28.923  25.290  1.00  0.00     0.106 A 
ATOM     17  N   UNL A   1      32.112  27.869  25.802  1.00  0.00    -0.233 NA
ATOM     18  N   UNL A   1      30.770  28.576  24.172  1.00  0.00    -0.325 N 
ATOM     19  C   UNL A   1      31.842  26.833  24.957  1.00  0.00     0.090 A 
ATOM     20  C   UNL A   1      30.992  27.232  23.929  1.00  0.00     0.068 A 
ATOM     21  C   UNL A   1      32.290  25.508  25.028  1.00  0.00     0.052 A 
ATOM     22  C   UNL A   1      30.562  26.333  22.944  1.00  0.00     0.030 A 
ATOM     23  C   UNL A   1      31.017  25.006  23.024  1.00  0.00     0.024 A 
BRANCH  18  24
ATOM     24  C   UNL A   1      29.913  29.474  23.428  1.00  0.00     0.089 C 
ATOM     25  C   UNL A   1      30.317  29.755  21.983  1.00  0.00     0.025 C 
ATOM     26  C   UNL A   1      28.450  29.043  23.299  1.00  0.00     0.025 C 
ATOM     27  C   UNL A   1      29.096  30.485  21.431  1.00  0.00     0.002 C 
ATOM     28  C   UNL A   1      27.890  29.953  22.208  1.00  0.00     0.002 C 
ENDBRANCH  18  24
ENDBRANCH  11  14
ENDBRANCH   6  11
ENDBRANCH   3   5
ENDBRANCH   2   3
ENDBRANCH   1   2
BRANCH   1  29
ATOM     29  C   UNL A   1      41.258  21.506  26.160  1.00  0.00     0.275 C 
BRANCH  29  30
ATOM     30  O   UNL A   1      42.346  22.365  26.538  1.00  0.00    -0.458 OA
BRANCH  30  31
ATOM     31  C   UNL A   1      42.891  23.123  25.556  1.00  0.00     0.338 C 
ATOM     32  O   UNL A   1      43.105  22.794  24.403  1.00  0.00    -0.246 OA
BRANCH  31  33
ATOM     33  C   UNL A   1      42.832  24.525  26.030  1.00  0.00     0.060 A 
ATOM     34  C   UNL A   1      43.551  24.946  27.155  1.00  0.00     0.016 A 
ATOM     35  C   UNL A   1      41.820  25.324  25.493  1.00  0.00     0.016 A 
ATOM     36  C   UNL A   1      43.122  26.067  27.857  1.00  0.00     0.010 A 
ATOM     37  C   UNL A   1      41.394  26.439  26.203  1.00  0.00     0.010 A 
ATOM     38  C   UNL A   1      41.983  26.757  27.432  1.00  0.00    -0.014 A 
BRANCH  38  39
ATOM     39  C   UNL A   1      41.552  27.949  28.159  1.00  0.00     0.031 A 
ATOM     40  C   UNL A   1      42.508  29.066  28.022  1.00  0.00     0.074 A 
ATOM     41  C   UNL A   1      40.408  28.145  28.850  1.00  0.00     0.049 A 
ATOM     42  N   UNL A   1      43.297  29.495  28.947  1.00  0.00    -0.248 NA
ATOM     43  C   UNL A   1      42.732  29.662  26.700  1.00  0.00     0.031 C 
ATOM     44  C   UNL A   1      39.254  27.272  29.002  1.00  0.00     0.029 A 
ATOM     45  N   UNL A   1      40.013  29.264  29.525  1.00  0.00    -0.354 N 
ATOM     46  C   UNL A   1      44.014  30.532  28.378  1.00  0.00     0.074 A 
ATOM     47  C   UNL A   1      43.750  30.482  26.961  1.00  0.00     0.031 C 
ATOM     48  C   UNL A   1      38.196  27.981  29.472  1.00  0.00     0.029 A 
ATOM     49  C   UNL A   1      38.657  29.310  29.839  1.00  0.00     0.049 A 
ATOM     50  H   UNL A   1      40.638  29.985  29.770  1.00  0.00     0.167 HD
ATOM     51  C   UNL A   1      44.620  31.482  29.136  1.00  0.00     0.031 A 
ATOM     52  C   UNL A   1      37.977  30.353  30.389  1.00  0.00     0.031 A 
ATOM     53  C   UNL A   1      44.704  31.109  30.520  1.00  0.00     0.049 A 
ATOM     54  C   UNL A   1      38.976  31.174  31.117  1.00  0.00     0.074 A 
ATOM     55  C   UNL A   1      45.274  30.043  31.189  1.00  0.00     0.029 A 
ATOM     56  N   UNL A   1      43.786  31.657  31.386  1.00  0.00    -0.354 N 
ATOM     57  N   UNL A   1      39.577  30.774  32.201  1.00  0.00    -0.248 NA
ATOM     58  C   UNL A   1      39.633  32.253  30.394  1.00  0.00     0.031 C 
ATOM     59  C   UNL A   1      44.333  29.703  32.200  1.00  0.00     0.029 A 
ATOM     60  C   UNL A   1      43.288  30.628  32.144  1.00  0.00     0.049 A 
ATOM     61  H   UNL A   1      43.534  32.607  31.448  1.00  0.00     0.167 HD
ATOM     62  C   UNL A   1      40.883  31.215  32.058  1.00  0.00     0.074 A 
ATOM     63  C   UNL A   1      40.838  32.189  30.967  1.00  0.00     0.031 C 
ATOM     64  C   UNL A   1      41.927  30.557  32.639  1.00  0.00     0.031 A 
BRANCH  51  65
ATOM     65  C   UNL A   1      44.852  32.876  28.651  1.00  0.00    -0.014 A 
ATOM     66  C   UNL A   1      43.787  33.764  28.413  1.00  0.00     0.010 A 
ATOM     67  C   UNL A   1      46.154  33.406  28.623  1.00  0.00     0.010 A 
ATOM     68  C   UNL A   1      43.997  35.093  28.062  1.00  0.00     0.020 A 
ATOM     69  C   UNL A   1      46.376  34.758  28.329  1.00  0.00     0.020 A 
ATOM     70  C   UNL A   1      45.293  35.583  28.021  1.00  0.00     0.054 A 
BRANCH  70  71
ATOM     71  S   UNL A   1      45.515  37.332  27.625  1.00  0.00     0.124 S 
ATOM     72  O   UNL A   1      46.563  37.272  26.608  1.00  0.00    -0.237 OA
ATOM     73  O   UNL A   1      44.191  37.714  27.138  1.00  0.00    -0.237 OA
ATOM     74  O   UNL A   1      45.906  37.923  28.900  1.00  0.00    -0.744 OA
ENDBRANCH  70  71
ENDBRANCH  51  65
BRANCH  52  75
ATOM     75  C   UNL A   1      36.662  30.925  29.973  1.00  0.00    -0.014 A 
ATOM     76  C   UNL A   1      36.355  31.092  28.609  1.00  0.00     0.010 A 
ATOM     77  C   UNL A   1      35.867  31.622  30.911  1.00  0.00     0.010 A 
ATOM     78  C   UNL A   1      35.383  32.013  28.191  1.00  0.00     0.020 A 
ATOM     79  C   UNL A   1      34.894  32.548  30.498  1.00  0.00     0.020 A 
ATOM     80  C   UNL A   1      34.697  32.775  29.136  1.00  0.00     0.054 A 
BRANCH  80  81
ATOM     81  S   UNL A   1      33.645  34.143  28.559  1.00  0.00     0.124 S 
ATOM     82  O   UNL A   1      33.012  34.578  29.801  1.00  0.00    -0.237 OA
ATOM     83  O   UNL A   1      34.615  35.071  27.985  1.00  0.00    -0.237 OA
ATOM     84  O   UNL A   1      32.751  33.510  27.594  1.00  0.00    -0.744 OA
ENDBRANCH  80  81
ENDBRANCH  52  75
BRANCH  64  85
ATOM     85  C   UNL A   1      41.666  29.482  33.675  1.00  0.00    -0.014 A 
ATOM     86  C   UNL A   1      41.888  29.830  35.022  1.00  0.00     0.010 A 
ATOM     87  C   UNL A   1      41.448  28.125  33.365  1.00  0.00     0.010 A 
ATOM     88  C   UNL A   1      41.955  28.858  36.020  1.00  0.00     0.020 A 
ATOM     89  C   UNL A   1      41.482  27.143  34.371  1.00  0.00     0.020 A 
ATOM     90  C   UNL A   1      41.768  27.516  35.686  1.00  0.00     0.054 A 
BRANCH  90  91
ATOM     91  S   UNL A   1      41.951  26.281  37.003  1.00  0.00     0.124 S 
ATOM     92  O   UNL A   1      40.614  26.258  37.593  1.00  0.00    -0.237 OA
ATOM     93  O   UNL A   1      42.324  25.076  36.264  1.00  0.00    -0.237 OA
ATOM     94  O   UNL A   1      42.999  26.829  37.861  1.00  0.00    -0.744 OA
ENDBRANCH  90  91
ENDBRANCH  64  85
ENDBRANCH  38  39
ENDBRANCH  31  33
ENDBRANCH  30  31
ENDBRANCH  29  30
ENDBRANCH   1  29
TORSDOF 17
ENDMDL
MODEL 2
REMARK VINA RESULT:     -12.9      0.965      1.985
REMARK SMILES Cc1nc2cc(S(=O)(=O)N3CCC(C(=O)OCCOC(=O)c4ccc(-c5c6nc(c(-c7ccc(S(=O)(=O)[O-])cc7)c7ccc([nH]7)c(-c7ccc(S(=O)(=O)[O-])cc7)c7nc(c(-c8ccc(S(=O)(=O)[O-])cc8)c8ccc5[nH]8)C=C7)C=C6)cc4)CC3)ccc2n1C1CCCC1
REMARK SMILES IDX 17 1 16 2 14 3 15 4 13 5 10 6 11 7 83 8 12 9 82 10 7 11 8 12
REMARK SMILES IDX 9 13 6 14 1 15 2 16 3 17 87 18 4 19 86 20 5 21 85 22 84 23
REMARK SMILES IDX 88 24 89 25 92 26 90 27 91 28 18 29 19 30 20 31 21 32 22 33
REMARK SMILES IDX 23 34 81 35 24 36 80 37 25 38 26 39 27 40 74 41 28 42 79 43
REMARK SMILES IDX 73 44 75 45 29 46 78 47 72 48 71 49 30 51 60 52 41 53 59 54
REMARK SMILES IDX 42 55 45 56 58 57 76 58 43 59 44 60 57 62 77 63 46 64 31 65
REMARK SMILES IDX 32 66 40 67 33 68 39 69 34 70 35 71 36 72 37 73 38 74 61 75
REMARK SMILES IDX 62 76 70 77 63 78 69 79 64 80 65 81 66 82 67 83 68 84 47 85
REMARK SMILES IDX 48 86 56 87 49 88 55 89 50 90 51 91 52 92 53 93 54 94
REMARK H PARENT 75 50 45 61
REMARK Flexibility Score: inf
ROOT
ATOM      1  C   UNL A   1      40.309  20.905  26.830  1.00  0.00     0.274 C 
ENDROOT
BRANCH   1   2
ATOM      2  O   UNL A   1      39.236  21.413  26.008  1.00  0.00    -0.462 OA
BRANCH   2   3
ATOM      3  C   UNL A   1      38.492  20.490  25.350  1.00  0.00     0.309 C 
ATOM      4  O   UNL A   1      38.896  19.386  25.005  1.00  0.00    -0.252 OA
BRANCH   3   5
ATOM      5  C   UNL A   1      37.057  20.922  25.145  1.00  0.00     0.102 C 
ATOM      6  N   UNL A   1      34.383  21.393  24.269  1.00  0.00    -0.198 NA
ATOM      7  C   UNL A   1      35.344  22.521  24.253  1.00  0.00     0.103 C 
ATOM      8  C   UNL A   1      34.690  20.242  25.151  1.00  0.00     0.103 C 
ATOM      9  C   UNL A   1      36.791  22.032  24.134  1.00  0.00     0.032 C 
ATOM     10  C   UNL A   1      36.112  19.763  24.865  1.00  0.00     0.032 C 
BRANCH   6  11
ATOM     11  S   UNL A   1      32.739  21.744  23.994  1.00  0.00     0.243 S 
ATOM     12  O   UNL A   1      31.978  21.033  25.007  1.00  0.00    -0.207 OA
ATOM     13  O   UNL A   1      32.496  21.523  22.587  1.00  0.00    -0.207 OA
BRANCH  11  14
ATOM     14  C   UNL A   1      32.469  23.482  24.278  1.00  0.00     0.085 A 
ATOM     15  C   UNL A   1      30.739  28.876  22.350  1.00  0.00     0.088 C 
ATOM     16  C   UNL A   1      31.266  27.642  22.993  1.00  0.00     0.106 A 
ATOM     17  N   UNL A   1      31.309  26.472  22.390  1.00  0.00    -0.233 NA
ATOM     18  N   UNL A   1      31.782  27.557  24.276  1.00  0.00    -0.325 N 
ATOM     19  C   UNL A   1      31.770  25.585  23.318  1.00  0.00     0.090 A 
ATOM     20  C   UNL A   1      32.092  26.229  24.510  1.00  0.00     0.068 A 
ATOM     21  C   UNL A   1      31.952  24.202  23.191  1.00  0.00     0.052 A 
ATOM     22  C   UNL A   1      32.601  25.523  25.608  1.00  0.00     0.030 A 
ATOM     23  C   UNL A   1      32.779  24.136  25.471  1.00  0.00     0.024 A 
BRANCH  18  24
ATOM     24  C   UNL A   1      31.971  28.676  25.174  1.00  0.00     0.089 C 
ATOM     25  C   UNL A   1      31.604  28.440  26.637  1.00  0.00     0.025 C 
ATOM     26  C   UNL A   1      33.397  29.226  25.262  1.00  0.00     0.025 C 
ATOM     27  C   UNL A   1      32.166  29.679  27.326  1.00  0.00     0.002 C 
ATOM     28  C   UNL A   1      33.374  30.121  26.499  1.00  0.00     0.002 C 
ENDBRANCH  18  24
ENDBRANCH  11  14
ENDBRANCH   6  11
ENDBRANCH   3   5
ENDBRANCH   2   3
ENDBRANCH   1   2
BRANCH   1  29
ATOM     29  C   UNL A   1      41.658  21.347  26.251  1.00  0.00     0.275 C 
BRANCH  29  30
ATOM     30  O   UNL A   1      41.578  22.736  25.894  1.00  0.00    -0.458 OA
BRANCH  30  31
ATOM     31  C   UNL A   1      42.714  23.310  25.429  1.00  0.00     0.338 C 
ATOM     32  O   UNL A   1      43.440  22.896  24.542  1.00  0.00    -0.246 OA
BRANCH  31  33
ATOM     33  C   UNL A   1      42.710  24.705  25.925  1.00  0.00     0.060 A 
ATOM     34  C   UNL A   1      43.362  25.061  27.111  1.00  0.00     0.016 A 
ATOM     35  C   UNL A   1      41.798  25.578  25.326  1.00  0.00     0.016 A 
ATOM     36  C   UNL A   1      42.953  26.198  27.799  1.00  0.00     0.010 A 
ATOM     37  C   UNL A   1      41.391  26.709  26.023  1.00  0.00     0.010 A 
ATOM     38  C   UNL A   1      41.900  26.969  27.300  1.00  0.00    -0.014 A 
BRANCH  38  39
ATOM     39  C   UNL A   1      41.491  28.176  28.014  1.00  0.00     0.031 A 
ATOM     40  C   UNL A   1      42.460  29.278  27.853  1.00  0.00     0.074 A 
ATOM     41  C   UNL A   1      40.357  28.397  28.713  1.00  0.00     0.049 A 
ATOM     42  N   UNL A   1      43.264  29.710  28.765  1.00  0.00    -0.248 NA
ATOM     43  C   UNL A   1      42.679  29.854  26.521  1.00  0.00     0.031 C 
ATOM     44  C   UNL A   1      39.193  27.541  28.889  1.00  0.00     0.029 A 
ATOM     45  N   UNL A   1      39.983  29.530  29.376  1.00  0.00    -0.354 N 
ATOM     46  C   UNL A   1      43.989  30.729  28.174  1.00  0.00     0.074 A 
ATOM     47  C   UNL A   1      43.710  30.663  26.761  1.00  0.00     0.031 C 
ATOM     48  C   UNL A   1      38.149  28.271  29.359  1.00  0.00     0.029 A 
ATOM     49  C   UNL A   1      38.631  29.598  29.703  1.00  0.00     0.049 A 
ATOM     50  H   UNL A   1      40.620  30.245  29.606  1.00  0.00     0.167 HD
ATOM     51  C   UNL A   1      44.614  31.681  28.914  1.00  0.00     0.031 A 
ATOM     52  C   UNL A   1      37.969  30.657  30.245  1.00  0.00     0.031 A 
ATOM     53  C   UNL A   1      44.707  31.326  30.302  1.00  0.00     0.049 A 
ATOM     54  C   UNL A   1      38.986  31.475  30.952  1.00  0.00     0.074 A 
ATOM     55  C   UNL A   1      45.269  30.262  30.979  1.00  0.00     0.029 A 
ATOM     56  N   UNL A   1      43.804  31.899  31.168  1.00  0.00    -0.354 N 
ATOM     57  N   UNL A   1      39.592  31.081  32.036  1.00  0.00    -0.248 NA
ATOM     58  C   UNL A   1      39.650  32.535  30.208  1.00  0.00     0.031 C 
ATOM     59  C   UNL A   1      44.334  29.949  32.004  1.00  0.00     0.029 A 
ATOM     60  C   UNL A   1      43.300  30.886  31.945  1.00  0.00     0.049 A 
ATOM     61  H   UNL A   1      43.565  32.852  31.220  1.00  0.00     0.167 HD
ATOM     62  C   UNL A   1      40.902  31.504  31.875  1.00  0.00     0.074 A 
ATOM     63  C   UNL A   1      40.860  32.463  30.771  1.00  0.00     0.031 C 
ATOM     64  C   UNL A   1      41.944  30.840  32.454  1.00  0.00     0.031 A 
BRANCH  51  65
ATOM     65  C   UNL A   1      44.860  33.065  28.407  1.00  0.00    -0.014 A 
ATOM     66  C   UNL A   1      43.805  33.900  27.995  1.00  0.00     0.010 A 
ATOM     67  C   UNL A   1      46.134  33.647  28.530  1.00  0.00     0.010 A 
ATOM     68  C   UNL A   1      44.013  35.224  27.621  1.00  0.00     0.020 A 
ATOM     69  C   UNL A   1      46.345  34.995  28.213  1.00  0.00     0.020 A 
ATOM     70  C   UNL A   1      45.285  35.764  27.731  1.00  0.00     0.054 A 
BRANCH  70  71
ATOM     71  S   UNL A   1      45.496  37.505  27.297  1.00  0.00     0.124 S 
ATOM     72  O   UNL A   1      44.130  37.887  26.944  1.00  0.00    -0.237 OA
ATOM     73  O   UNL A   1      46.006  38.079  28.540  1.00  0.00    -0.237 OA
ATOM     74  O   UNL A   1      46.446  37.468  26.190  1.00  0.00    -0.744 OA
ENDBRANCH  70  71
ENDBRANCH  51  65
BRANCH  52  75
ATOM     75  C   UNL A   1      36.658  31.241  29.834  1.00  0.00    -0.014 A 
ATOM     76  C   UNL A   1      36.445  31.654  28.504  1.00  0.00     0.010 A 
ATOM     77  C   UNL A   1      35.755  31.708  30.814  1.00  0.00     0.010 A 
ATOM     78  C   UNL A   1      35.455  32.595  28.186  1.00  0.00     0.020 A 
ATOM     79  C   UNL A   1      34.762  32.654  30.502  1.00  0.00     0.020 A 
ATOM     80  C   UNL A   1      34.656  33.130  29.196  1.00  0.00     0.054 A 
BRANCH  80  81
ATOM     81  S   UNL A   1      33.572  34.536  28.799  1.00  0.00     0.124 S 
ATOM     82  O   UNL A   1      33.022  34.869  30.110  1.00  0.00    -0.237 OA
ATOM     83  O   UNL A   1      34.504  35.510  28.239  1.00  0.00    -0.237 OA
ATOM     84  O   UNL A   1      32.615  33.979  27.846  1.00  0.00    -0.744 OA
ENDBRANCH  80  81
ENDBRANCH  52  75
BRANCH  64  85
ATOM     85  C   UNL A   1      41.678  29.783  33.508  1.00  0.00    -0.014 A 
ATOM     86  C   UNL A   1      42.024  30.107  34.834  1.00  0.00     0.010 A 
ATOM     87  C   UNL A   1      41.337  28.448  33.215  1.00  0.00     0.010 A 
ATOM     88  C   UNL A   1      42.090  29.127  35.825  1.00  0.00     0.020 A 
ATOM     89  C   UNL A   1      41.370  27.461  34.216  1.00  0.00     0.020 A 
ATOM     90  C   UNL A   1      41.779  27.805  35.507  1.00  0.00     0.054 A 
BRANCH  90  91
ATOM     91  S   UNL A   1      41.963  26.553  36.808  1.00  0.00     0.124 S 
ATOM     92  O   UNL A   1      43.131  27.039  37.541  1.00  0.00    -0.237 OA
ATOM     93  O   UNL A   1      40.695  26.648  37.527  1.00  0.00    -0.237 OA
ATOM     94  O   UNL A   1      42.166  25.306  36.074  1.00  0.00    -0.744 OA
ENDBRANCH  90  91
ENDBRANCH  64  85
ENDBRANCH  38  39
ENDBRANCH  31  33
ENDBRANCH  30  31
ENDBRANCH  29  30
ENDBRANCH   1  29
TORSDOF 17
ENDMDL
MODEL 3
REMARK VINA RESULT:     -12.7      2.716      9.616
REMARK SMILES Cc1nc2cc(S(=O)(=O)N3CCC(C(=O)OCCOC(=O)c4ccc(-c5c6nc(c(-c7ccc(S(=O)(=O)[O-])cc7)c7ccc([nH]7)c(-c7ccc(S(=O)(=O)[O-])cc7)c7nc(c(-c8ccc(S(=O)(=O)[O-])cc8)c8ccc5[nH]8)C=C7)C=C6)cc4)CC3)ccc2n1C1CCCC1
REMARK SMILES IDX 17 1 16 2 14 3 15 4 13 5 10 6 11 7 83 8 12 9 82 10 7 11 8 12
REMARK SMILES IDX 9 13 6 14 1 15 2 16 3 17 87 18 4 19 86 20 5 21 85 22 84 23
REMARK SMILES IDX 88 24 89 25 92 26 90 27 91 28 18 29 19 30 20 31 21 32 22 33
REMARK SMILES IDX 23 34 81 35 24 36 80 37 25 38 26 39 27 40 74 41 28 42 79 43
REMARK SMILES IDX 73 44 75 45 29 46 78 47 72 48 71 49 30 51 60 52 41 53 59 54
REMARK SMILES IDX 42 55 45 56 58 57 76 58 43 59 44 60 57 62 77 63 46 64 31 65
REMARK SMILES IDX 32 66 40 67 33 68 39 69 34 70 35 71 36 72 37 73 38 74 61 75
REMARK SMILES IDX 62 76 70 77 63 78 69 79 64 80 65 81 66 82 67 83 68 84 47 85
REMARK SMILES IDX 48 86 56 87 49 88 55 89 50 90 51 91 52 92 53 93 54 94
REMARK H PARENT 75 50 45 61
REMARK Flexibility Score: inf
ROOT
ATOM      1  C   UNL A   1      34.745  32.022  27.938  1.00  0.00     0.274 C 
ENDROOT
BRANCH   1   2
ATOM      2  O   UNL A   1      34.068  30.750  27.830  1.00  0.00    -0.462 OA
BRANCH   2   3
ATOM      3  C   UNL A   1      34.819  29.703  27.407  1.00  0.00     0.309 C 
ATOM      4  O   UNL A   1      36.014  29.563  27.638  1.00  0.00    -0.252 OA
BRANCH   3   5
ATOM      5  C   UNL A   1      34.013  28.654  26.674  1.00  0.00     0.102 C 
ATOM      6  N   UNL A   1      32.165  27.141  25.112  1.00  0.00    -0.198 NA
ATOM      7  C   UNL A   1      32.166  26.961  26.583  1.00  0.00     0.103 C 
ATOM      8  C   UNL A   1      33.386  27.705  24.489  1.00  0.00     0.103 C 
ATOM      9  C   UNL A   1      32.702  28.199  27.307  1.00  0.00     0.032 C 
ATOM     10  C   UNL A   1      33.763  28.996  25.213  1.00  0.00     0.032 C 
BRANCH   6  11
ATOM     11  S   UNL A   1      31.247  26.053  24.176  1.00  0.00     0.243 S 
ATOM     12  O   UNL A   1      31.458  26.407  22.784  1.00  0.00    -0.207 OA
ATOM     13  O   UNL A   1      29.921  26.031  24.748  1.00  0.00    -0.207 OA
BRANCH  11  14
ATOM     14  C   UNL A   1      31.909  24.413  24.393  1.00  0.00     0.085 A 
ATOM     15  C   UNL A   1      36.567  20.695  24.933  1.00  0.00     0.088 C 
ATOM     16  C   UNL A   1      35.291  21.441  24.756  1.00  0.00     0.106 A 
ATOM     17  N   UNL A   1      35.231  22.747  24.597  1.00  0.00    -0.233 NA
ATOM     18  N   UNL A   1      34.025  20.879  24.722  1.00  0.00    -0.325 N 
ATOM     19  C   UNL A   1      33.904  23.061  24.555  1.00  0.00     0.090 A 
ATOM     20  C   UNL A   1      33.115  21.916  24.615  1.00  0.00     0.068 A 
ATOM     21  C   UNL A   1      33.308  24.324  24.447  1.00  0.00     0.052 A 
ATOM     22  C   UNL A   1      31.716  21.988  24.572  1.00  0.00     0.030 A 
ATOM     23  C   UNL A   1      31.128  23.258  24.465  1.00  0.00     0.024 A 
BRANCH  18  24
ATOM     24  C   UNL A   1      33.741  19.461  24.769  1.00  0.00     0.089 C 
ATOM     25  C   UNL A   1      32.993  18.960  26.002  1.00  0.00     0.025 C 
ATOM     26  C   UNL A   1      32.905  18.911  23.612  1.00  0.00     0.025 C 
ATOM     27  C   UNL A   1      32.627  17.531  25.612  1.00  0.00     0.002 C 
ATOM     28  C   UNL A   1      32.473  17.526  24.091  1.00  0.00     0.002 C 
ENDBRANCH  18  24
ENDBRANCH  11  14
ENDBRANCH   6  11
ENDBRANCH   3   5
ENDBRANCH   2   3
ENDBRANCH   1   2
BRANCH   1  29
ATOM     29  C   UNL A   1      34.290  32.742  29.213  1.00  0.00     0.275 C 
BRANCH  29  30
ATOM     30  O   UNL A   1      35.420  32.904  30.084  1.00  0.00    -0.458 OA
BRANCH  30  31
ATOM     31  C   UNL A   1      35.320  32.355  31.319  1.00  0.00     0.338 C 
ATOM     32  O   UNL A   1      34.338  32.337  32.041  1.00  0.00    -0.246 OA
BRANCH  31  33
ATOM     33  C   UNL A   1      36.490  31.461  31.474  1.00  0.00     0.060 A 
ATOM     34  C   UNL A   1      37.784  31.973  31.630  1.00  0.00     0.016 A 
ATOM     35  C   UNL A   1      36.291  30.113  31.171  1.00  0.00     0.016 A 
ATOM     36  C   UNL A   1      38.875  31.183  31.285  1.00  0.00     0.010 A 
ATOM     37  C   UNL A   1      37.386  29.332  30.823  1.00  0.00     0.010 A 
ATOM     38  C   UNL A   1      38.667  29.893  30.789  1.00  0.00    -0.014 A 
BRANCH  38  39
ATOM     39  C   UNL A   1      39.819  29.058  30.452  1.00  0.00     0.031 A 
ATOM     40  C   UNL A   1      40.662  28.765  31.628  1.00  0.00     0.074 A 
ATOM     41  C   UNL A   1      40.139  28.508  29.262  1.00  0.00     0.049 A 
ATOM     42  N   UNL A   1      41.827  29.267  31.859  1.00  0.00    -0.248 NA
ATOM     43  C   UNL A   1      40.107  27.971  32.730  1.00  0.00     0.031 C 
ATOM     44  C   UNL A   1      39.401  28.515  28.007  1.00  0.00     0.029 A 
ATOM     45  N   UNL A   1      41.216  27.727  28.956  1.00  0.00    -0.354 N 
ATOM     46  C   UNL A   1      42.235  28.730  33.066  1.00  0.00     0.074 A 
ATOM     47  C   UNL A   1      41.081  28.077  33.634  1.00  0.00     0.031 C 
ATOM     48  C   UNL A   1      39.895  27.563  27.174  1.00  0.00     0.029 A 
ATOM     49  C   UNL A   1      41.107  27.018  27.763  1.00  0.00     0.049 A 
ATOM     50  H   UNL A   1      42.010  27.669  29.536  1.00  0.00     0.167 HD
ATOM     51  C   UNL A   1      43.546  28.688  33.423  1.00  0.00     0.031 A 
ATOM     52  C   UNL A   1      41.968  26.078  27.284  1.00  0.00     0.031 A 
ATOM     53  C   UNL A   1      44.366  29.526  32.595  1.00  0.00     0.049 A 
ATOM     54  C   UNL A   1      43.284  26.348  27.915  1.00  0.00     0.074 A 
ATOM     55  C   UNL A   1      44.366  30.876  32.306  1.00  0.00     0.029 A 
ATOM     56  N   UNL A   1      45.094  28.920  31.596  1.00  0.00    -0.354 N 
ATOM     57  N   UNL A   1      44.007  27.396  27.639  1.00  0.00    -0.248 NA
ATOM     58  C   UNL A   1      43.587  25.687  29.176  1.00  0.00     0.031 C 
ATOM     59  C   UNL A   1      44.651  30.949  30.914  1.00  0.00     0.029 A 
ATOM     60  C   UNL A   1      44.889  29.653  30.454  1.00  0.00     0.049 A 
ATOM     61  H   UNL A   1      45.653  28.114  31.684  1.00  0.00     0.167 HD
ATOM     62  C   UNL A   1      44.528  27.790  28.861  1.00  0.00     0.074 A 
ATOM     63  C   UNL A   1      44.303  26.654  29.756  1.00  0.00     0.031 C 
ATOM     64  C   UNL A   1      44.841  29.093  29.118  1.00  0.00     0.031 A 
BRANCH  51  65
ATOM     65  C   UNL A   1      44.102  27.641  34.332  1.00  0.00    -0.014 A 
ATOM     66  C   UNL A   1      44.301  27.882  35.704  1.00  0.00     0.010 A 
ATOM     67  C   UNL A   1      44.241  26.316  33.882  1.00  0.00     0.010 A 
ATOM     68  C   UNL A   1      44.719  26.884  36.577  1.00  0.00     0.020 A 
ATOM     69  C   UNL A   1      44.605  25.289  34.764  1.00  0.00     0.020 A 
ATOM     70  C   UNL A   1      44.870  25.590  36.100  1.00  0.00     0.054 A 
BRANCH  70  71
ATOM     71  S   UNL A   1      45.351  24.313  37.283  1.00  0.00     0.124 S 
ATOM     72  O   UNL A   1      44.963  23.095  36.574  1.00  0.00    -0.237 OA
ATOM     73  O   UNL A   1      46.789  24.531  37.414  1.00  0.00    -0.237 OA
ATOM     74  O   UNL A   1      44.561  24.631  38.469  1.00  0.00    -0.744 OA
ENDBRANCH  70  71
ENDBRANCH  51  65
BRANCH  52  75
ATOM     75  C   UNL A   1      41.650  24.741  26.702  1.00  0.00    -0.014 A 
ATOM     76  C   UNL A   1      40.586  23.973  27.213  1.00  0.00     0.010 A 
ATOM     77  C   UNL A   1      42.600  24.080  25.892  1.00  0.00     0.010 A 
ATOM     78  C   UNL A   1      40.541  22.583  27.033  1.00  0.00     0.020 A 
ATOM     79  C   UNL A   1      42.563  22.687  25.710  1.00  0.00     0.020 A 
ATOM     80  C   UNL A   1      41.559  21.941  26.328  1.00  0.00     0.054 A 
BRANCH  80  81
ATOM     81  S   UNL A   1      41.619  20.123  26.341  1.00  0.00     0.124 S 
ATOM     82  O   UNL A   1      40.233  19.776  26.038  1.00  0.00    -0.237 OA
ATOM     83  O   UNL A   1      42.589  19.827  25.291  1.00  0.00    -0.237 OA
ATOM     84  O   UNL A   1      42.059  19.800  27.696  1.00  0.00    -0.744 OA
ENDBRANCH  80  81
ENDBRANCH  52  75
BRANCH  64  85
ATOM     85  C   UNL A   1      44.881  30.101  27.987  1.00  0.00    -0.014 A 
ATOM     86  C   UNL A   1      46.111  30.747  27.753  1.00  0.00     0.010 A 
ATOM     87  C   UNL A   1      43.736  30.591  27.328  1.00  0.00     0.010 A 
ATOM     88  C   UNL A   1      46.191  31.880  26.943  1.00  0.00     0.020 A 
ATOM     89  C   UNL A   1      43.816  31.713  26.484  1.00  0.00     0.020 A 
ATOM     90  C   UNL A   1      45.039  32.367  26.325  1.00  0.00     0.054 A 
BRANCH  90  91
ATOM     91  S   UNL A   1      45.179  33.892  25.351  1.00  0.00     0.124 S 
ATOM     92  O   UNL A   1      44.550  33.511  24.088  1.00  0.00    -0.237 OA
ATOM     93  O   UNL A   1      44.430  34.856  26.154  1.00  0.00    -0.237 OA
ATOM     94  O   UNL A   1      46.618  34.135  25.278  1.00  0.00    -0.744 OA
ENDBRANCH  90  91
ENDBRANCH  64  85
ENDBRANCH  38  39
ENDBRANCH  31  33
ENDBRANCH  30  31
ENDBRANCH  29  30
ENDBRANCH   1  29
TORSDOF 17
ENDMDL
