MODEL 1
REMARK VINA RESULT:     -11.5      0.000      0.000
REMARK SMILES Cc1ccc(-c2ncccc2C(=O)OCCOC(=O)c2ccc(-c3c4nc(c(-c5ccc(S(=O)(=O)[O-])cc5)c5ccc([nH]5)c(-c5ccc(S(=O)(=O)[O-])cc5)c5nc(c(-c6ccc(S(=O)(=O)[O-])cc6)c6ccc3[nH]6)C=C5)C=C4)cc2)c(Cl)c1
REMARK SMILES IDX 16 1 15 2 14 3 12 4 13 5 11 6 6 7 7 8 8 9 10 10 9 11 5 12
REMARK SMILES IDX 1 13 2 14 3 15 82 16 4 17 80 18 81 19 17 20 18 21 19 22
REMARK SMILES IDX 20 23 21 24 79 25 22 26 78 27 23 28 24 29 25 30 72 31 26 32
REMARK SMILES IDX 77 33 71 34 73 35 27 36 76 37 70 38 69 39 28 41 58 42 39 43
REMARK SMILES IDX 57 44 40 45 43 46 56 47 74 48 41 49 42 50 55 52 75 53 44 54
REMARK SMILES IDX 29 55 30 56 38 57 31 58 37 59 32 60 33 61 34 62 35 63 36 64
REMARK SMILES IDX 59 65 60 66 68 67 61 68 67 69 62 70 63 71 64 72 65 73 66 74
REMARK SMILES IDX 45 75 46 76 54 77 47 78 53 79 48 80 49 81 50 82 51 83 52 84
REMARK H PARENT 73 40 43 51
REMARK Flexibility Score: inf
ROOT
ATOM      1  C   UNL A   1      38.325  22.283  25.816  1.00  0.00     0.275 C 
ENDROOT
BRANCH   1   2
ATOM      2  C   UNL A   1      36.811  22.458  25.753  1.00  0.00     0.275 C 
BRANCH   2   3
ATOM      3  O   UNL A   1      36.156  21.174  25.632  1.00  0.00    -0.458 OA
BRANCH   3   4
ATOM      4  C   UNL A   1      34.848  21.158  25.996  1.00  0.00     0.340 C 
ATOM      5  O   UNL A   1      34.415  21.429  27.102  1.00  0.00    -0.246 OA
BRANCH   4   6
ATOM      6  C   UNL A   1      34.008  20.666  24.885  1.00  0.00     0.086 A 
ATOM      7  C   UNL A   1      33.158  21.492  24.125  1.00  0.00     0.086 A 
ATOM      8  N   UNL A   1      32.286  20.979  23.220  1.00  0.00    -0.255 NA
ATOM      9  C   UNL A   1      32.220  19.631  23.111  1.00  0.00     0.112 A 
ATOM     10  C   UNL A   1      33.939  19.280  24.718  1.00  0.00     0.019 A 
ATOM     11  C   UNL A   1      33.016  18.751  23.827  1.00  0.00     0.021 A 
BRANCH   7  12
ATOM     12  C   UNL A   1      33.007  22.929  24.375  1.00  0.00     0.020 A 
ATOM     13  C   UNL A   1      32.767  27.673  26.526  1.00  0.00     0.044 C 
ATOM     14  C   UNL A   1      32.955  26.285  26.006  1.00  0.00    -0.050 A 
ATOM     15  C   UNL A   1      34.173  25.982  24.730  1.00  0.00     0.004 A 
ATOM     16  C   UNL A   1      31.830  25.002  26.401  1.00  0.00     0.024 A 
ATOM     17  C   UNL A   1      34.196  24.180  23.804  1.00  0.00     0.012 A 
ATOM     18  C   UNL A   1      31.852  23.409  25.632  1.00  0.00     0.050 A 
ATOM     19  Cl  UNL A   1      30.602  22.303  26.103  1.00  0.00    -0.084 Cl
ENDBRANCH   7  12
ENDBRANCH   4   6
ENDBRANCH   3   4
ENDBRANCH   2   3
ENDBRANCH   1   2
BRANCH   1  20
ATOM     20  O   UNL A   1      38.953  23.553  25.567  1.00  0.00    -0.458 OA
BRANCH  20  21
ATOM     21  C   UNL A   1      40.038  23.780  26.331  1.00  0.00     0.338 C 
ATOM     22  O   UNL A   1      41.034  23.080  26.429  1.00  0.00    -0.246 OA
BRANCH  21  23
ATOM     23  C   UNL A   1      39.966  25.085  26.991  1.00  0.00     0.060 A 
ATOM     24  C   UNL A   1      41.331  26.245  26.860  1.00  0.00     0.016 A 
ATOM     25  C   UNL A   1      38.955  25.152  28.424  1.00  0.00     0.016 A 
ATOM     26  C   UNL A   1      41.653  27.509  28.408  1.00  0.00     0.010 A 
ATOM     27  C   UNL A   1      39.203  26.314  29.744  1.00  0.00     0.010 A 
ATOM     28  C   UNL A   1      40.507  27.513  29.808  1.00  0.00    -0.014 A 
BRANCH  28  29
ATOM     29  C   UNL A   1      40.491  28.643  30.846  1.00  0.00     0.031 A 
ATOM     30  C   UNL A   1      41.399  28.623  32.077  1.00  0.00     0.074 A 
ATOM     31  C   UNL A   1      39.573  29.644  30.812  1.00  0.00     0.049 A 
ATOM     32  N   UNL A   1      41.297  29.305  33.200  1.00  0.00    -0.248 NA
ATOM     33  C   UNL A   1      42.515  27.670  32.090  1.00  0.00     0.031 C 
ATOM     34  C   UNL A   1      38.525  29.820  29.820  1.00  0.00     0.029 A 
ATOM     35  N   UNL A   1      39.342  30.718  31.656  1.00  0.00    -0.354 N 
ATOM     36  C   UNL A   1      42.248  28.773  34.071  1.00  0.00     0.074 A 
ATOM     37  C   UNL A   1      42.866  27.669  33.369  1.00  0.00     0.031 C 
ATOM     38  C   UNL A   1      37.839  30.942  30.023  1.00  0.00     0.029 A 
ATOM     39  C   UNL A   1      38.289  31.524  31.262  1.00  0.00     0.049 A 
ATOM     40  H   UNL A   1      39.878  30.891  32.464  1.00  0.00     0.167 HD
ATOM     41  C   UNL A   1      42.617  29.183  35.315  1.00  0.00     0.031 A 
ATOM     42  C   UNL A   1      37.674  32.588  31.810  1.00  0.00     0.031 A 
ATOM     43  C   UNL A   1      42.131  30.390  35.945  1.00  0.00     0.049 A 
ATOM     44  C   UNL A   1      38.172  33.109  33.108  1.00  0.00     0.074 A 
ATOM     45  C   UNL A   1      42.567  30.983  37.120  1.00  0.00     0.029 A 
ATOM     46  N   UNL A   1      41.138  31.213  35.434  1.00  0.00    -0.354 N 
ATOM     47  N   UNL A   1      39.083  32.588  33.892  1.00  0.00    -0.248 NA
ATOM     48  C   UNL A   1      37.587  34.364  33.587  1.00  0.00     0.031 C 
ATOM     49  C   UNL A   1      41.820  32.147  37.332  1.00  0.00     0.029 A 
ATOM     50  C   UNL A   1      40.950  32.306  36.266  1.00  0.00     0.049 A 
ATOM     51  H   UNL A   1      40.639  31.044  34.602  1.00  0.00     0.167 HD
ATOM     52  C   UNL A   1      39.208  33.473  34.948  1.00  0.00     0.074 A 
ATOM     53  C   UNL A   1      38.284  34.563  34.698  1.00  0.00     0.031 C 
ATOM     54  C   UNL A   1      40.027  33.385  36.022  1.00  0.00     0.031 A 
BRANCH  41  55
ATOM     55  C   UNL A   1      43.627  28.346  36.079  1.00  0.00    -0.014 A 
ATOM     56  C   UNL A   1      45.009  28.604  36.015  1.00  0.00     0.010 A 
ATOM     57  C   UNL A   1      43.182  27.294  36.905  1.00  0.00     0.010 A 
ATOM     58  C   UNL A   1      45.924  27.775  36.675  1.00  0.00     0.020 A 
ATOM     59  C   UNL A   1      44.091  26.489  37.605  1.00  0.00     0.020 A 
ATOM     60  C   UNL A   1      45.459  26.714  37.456  1.00  0.00     0.054 A 
BRANCH  60  61
ATOM     61  S   UNL A   1      46.670  25.641  38.280  1.00  0.00     0.124 S 
ATOM     62  O   UNL A   1      45.882  25.084  39.375  1.00  0.00    -0.237 OA
ATOM     63  O   UNL A   1      47.034  24.696  37.227  1.00  0.00    -0.237 OA
ATOM     64  O   UNL A   1      47.732  26.560  38.681  1.00  0.00    -0.744 OA
ENDBRANCH  60  61
ENDBRANCH  41  55
BRANCH  42  65
ATOM     65  C   UNL A   1      36.530  33.222  31.086  1.00  0.00    -0.014 A 
ATOM     66  C   UNL A   1      35.285  33.372  31.721  1.00  0.00     0.010 A 
ATOM     67  C   UNL A   1      36.721  33.802  29.816  1.00  0.00     0.010 A 
ATOM     68  C   UNL A   1      34.256  34.093  31.105  1.00  0.00     0.020 A 
ATOM     69  C   UNL A   1      35.706  34.551  29.212  1.00  0.00     0.020 A 
ATOM     70  C   UNL A   1      34.476  34.688  29.859  1.00  0.00     0.054 A 
BRANCH  70  71
ATOM     71  S   UNL A   1      33.160  35.702  29.130  1.00  0.00     0.124 S 
ATOM     72  O   UNL A   1      32.483  36.220  30.314  1.00  0.00    -0.237 OA
ATOM     73  O   UNL A   1      33.911  36.684  28.351  1.00  0.00    -0.237 OA
ATOM     74  O   UNL A   1      32.390  34.746  28.336  1.00  0.00    -0.744 OA
ENDBRANCH  70  71
ENDBRANCH  42  65
BRANCH  54  75
ATOM     75  C   UNL A   1      39.993  34.535  36.984  1.00  0.00    -0.014 A 
ATOM     76  C   UNL A   1      40.785  35.679  36.782  1.00  0.00     0.010 A 
ATOM     77  C   UNL A   1      39.155  34.462  38.111  1.00  0.00     0.010 A 
ATOM     78  C   UNL A   1      40.769  36.716  37.717  1.00  0.00     0.020 A 
ATOM     79  C   UNL A   1      39.116  35.509  39.032  1.00  0.00     0.020 A 
ATOM     80  C   UNL A   1      39.936  36.623  38.836  1.00  0.00     0.054 A 
BRANCH  80  81
ATOM     81  S   UNL A   1      39.912  37.995  40.020  1.00  0.00     0.124 S 
ATOM     82  O   UNL A   1      41.210  38.621  39.785  1.00  0.00    -0.237 OA
ATOM     83  O   UNL A   1      38.751  38.770  39.589  1.00  0.00    -0.237 OA
ATOM     84  O   UNL A   1      39.765  37.332  41.315  1.00  0.00    -0.744 OA
ENDBRANCH  80  81
ENDBRANCH  54  75
ENDBRANCH  28  29
ENDBRANCH  21  23
ENDBRANCH  20  21
ENDBRANCH   1  20
TORSDOF 15
ENDMDL
MODEL 2
REMARK VINA RESULT:     -11.3      7.002     12.652
REMARK SMILES Cc1ccc(-c2ncccc2C(=O)OCCOC(=O)c2ccc(-c3c4nc(c(-c5ccc(S(=O)(=O)[O-])cc5)c5ccc([nH]5)c(-c5ccc(S(=O)(=O)[O-])cc5)c5nc(c(-c6ccc(S(=O)(=O)[O-])cc6)c6ccc3[nH]6)C=C5)C=C4)cc2)c(Cl)c1
REMARK SMILES IDX 16 1 15 2 14 3 12 4 13 5 11 6 6 7 7 8 8 9 10 10 9 11 5 12
REMARK SMILES IDX 1 13 2 14 3 15 82 16 4 17 80 18 81 19 17 20 18 21 19 22
REMARK SMILES IDX 20 23 21 24 79 25 22 26 78 27 23 28 24 29 25 30 72 31 26 32
REMARK SMILES IDX 77 33 71 34 73 35 27 36 76 37 70 38 69 39 28 41 58 42 39 43
REMARK SMILES IDX 57 44 40 45 43 46 56 47 74 48 41 49 42 50 55 52 75 53 44 54
REMARK SMILES IDX 29 55 30 56 38 57 31 58 37 59 32 60 33 61 34 62 35 63 36 64
REMARK SMILES IDX 59 65 60 66 68 67 61 68 67 69 62 70 63 71 64 72 65 73 66 74
REMARK SMILES IDX 45 75 46 76 54 77 47 78 53 79 48 80 49 81 50 82 51 83 52 84
REMARK H PARENT 73 40 43 51
REMARK Flexibility Score: inf
ROOT
ATOM      1  C   UNL A   1      34.040  30.819  27.509  1.00  0.00     0.275 C 
ENDROOT
BRANCH   1   2
ATOM      2  C   UNL A   1      34.000  29.671  26.506  1.00  0.00     0.275 C 
BRANCH   2   3
ATOM      3  O   UNL A   1      32.891  29.832  25.592  1.00  0.00    -0.458 OA
BRANCH   3   4
ATOM      4  C   UNL A   1      31.761  29.162  25.934  1.00  0.00     0.340 C 
ATOM      5  O   UNL A   1      31.508  28.712  27.038  1.00  0.00    -0.246 OA
BRANCH   4   6
ATOM      6  C   UNL A   1      30.902  28.957  24.750  1.00  0.00     0.086 A 
ATOM      7  C   UNL A   1      30.741  27.714  24.109  1.00  0.00     0.086 A 
ATOM      8  N   UNL A   1      30.072  27.598  22.933  1.00  0.00    -0.255 NA
ATOM      9  C   UNL A   1      29.607  28.736  22.364  1.00  0.00     0.112 A 
ATOM     10  C   UNL A   1      30.376  30.106  24.152  1.00  0.00     0.019 A 
ATOM     11  C   UNL A   1      29.731  29.997  22.928  1.00  0.00     0.021 A 
BRANCH   7  12
ATOM     12  C   UNL A   1      31.430  26.495  24.544  1.00  0.00     0.020 A 
ATOM     13  C   UNL A   1      34.711  23.047  26.673  1.00  0.00     0.044 C 
ATOM     14  C   UNL A   1      33.791  24.121  26.191  1.00  0.00    -0.050 A 
ATOM     15  C   UNL A   1      32.077  24.108  26.708  1.00  0.00     0.004 A 
ATOM     16  C   UNL A   1      34.264  25.225  24.917  1.00  0.00     0.024 A 
ATOM     17  C   UNL A   1      30.769  25.362  25.802  1.00  0.00     0.012 A 
ATOM     18  C   UNL A   1      33.149  26.354  24.135  1.00  0.00     0.050 A 
ATOM     19  Cl  UNL A   1      33.793  27.306  22.836  1.00  0.00    -0.084 Cl
ENDBRANCH   7  12
ENDBRANCH   4   6
ENDBRANCH   3   4
ENDBRANCH   2   3
ENDBRANCH   1   2
BRANCH   1  20
ATOM     20  O   UNL A   1      34.595  30.341  28.747  1.00  0.00    -0.458 OA
BRANCH  20  21
ATOM     21  C   UNL A   1      35.607  31.096  29.215  1.00  0.00     0.338 C 
ATOM     22  O   UNL A   1      35.542  32.237  29.644  1.00  0.00    -0.246 OA
BRANCH  21  23
ATOM     23  C   UNL A   1      36.857  30.338  29.278  1.00  0.00     0.060 A 
ATOM     24  C   UNL A   1      37.991  30.568  30.652  1.00  0.00     0.016 A 
ATOM     25  C   UNL A   1      37.521  29.843  27.730  1.00  0.00     0.016 A 
ATOM     26  C   UNL A   1      39.968  30.310  30.304  1.00  0.00     0.010 A 
ATOM     27  C   UNL A   1      39.250  29.548  27.455  1.00  0.00     0.010 A 
ATOM     28  C   UNL A   1      40.520  29.750  28.675  1.00  0.00    -0.014 A 
BRANCH  28  29
ATOM     29  C   UNL A   1      41.941  29.223  28.430  1.00  0.00     0.031 A 
ATOM     30  C   UNL A   1      43.154  30.153  28.400  1.00  0.00     0.074 A 
ATOM     31  C   UNL A   1      42.184  27.932  28.083  1.00  0.00     0.049 A 
ATOM     32  N   UNL A   1      44.354  29.943  27.899  1.00  0.00    -0.248 NA
ATOM     33  C   UNL A   1      42.988  31.514  28.924  1.00  0.00     0.031 C 
ATOM     34  C   UNL A   1      41.193  26.880  27.922  1.00  0.00     0.029 A 
ATOM     35  N   UNL A   1      43.356  27.262  27.771  1.00  0.00    -0.354 N 
ATOM     36  C   UNL A   1      45.019  31.169  27.941  1.00  0.00     0.074 A 
ATOM     37  C   UNL A   1      44.065  32.128  28.453  1.00  0.00     0.031 C 
ATOM     38  C   UNL A   1      41.760  25.708  27.651  1.00  0.00     0.029 A 
ATOM     39  C   UNL A   1      43.173  25.925  27.466  1.00  0.00     0.049 A 
ATOM     40  H   UNL A   1      44.238  27.699  27.766  1.00  0.00     0.167 HD
ATOM     41  C   UNL A   1      46.311  31.471  27.636  1.00  0.00     0.031 A 
ATOM     42  C   UNL A   1      43.989  24.948  27.032  1.00  0.00     0.031 A 
ATOM     43  C   UNL A   1      47.313  30.486  27.299  1.00  0.00     0.049 A 
ATOM     44  C   UNL A   1      45.427  25.258  26.828  1.00  0.00     0.074 A 
ATOM     45  C   UNL A   1      48.679  30.668  27.143  1.00  0.00     0.029 A 
ATOM     46  N   UNL A   1      47.071  29.134  27.111  1.00  0.00    -0.354 N 
ATOM     47  N   UNL A   1      46.019  26.424  26.895  1.00  0.00    -0.248 NA
ATOM     48  C   UNL A   1      46.311  24.132  26.519  1.00  0.00     0.031 C 
ATOM     49  C   UNL A   1      49.257  29.431  26.835  1.00  0.00     0.029 A 
ATOM     50  C   UNL A   1      48.259  28.470  26.845  1.00  0.00     0.049 A 
ATOM     51  H   UNL A   1      46.184  28.708  27.160  1.00  0.00     0.167 HD
ATOM     52  C   UNL A   1      47.360  26.169  26.668  1.00  0.00     0.074 A 
ATOM     53  C   UNL A   1      47.490  24.738  26.470  1.00  0.00     0.031 C 
ATOM     54  C   UNL A   1      48.387  27.050  26.639  1.00  0.00     0.031 A 
BRANCH  41  55
ATOM     55  C   UNL A   1      46.740  32.927  27.688  1.00  0.00    -0.014 A 
ATOM     56  C   UNL A   1      46.639  33.773  26.568  1.00  0.00     0.010 A 
ATOM     57  C   UNL A   1      47.225  33.471  28.895  1.00  0.00     0.010 A 
ATOM     58  C   UNL A   1      47.104  35.093  26.623  1.00  0.00     0.020 A 
ATOM     59  C   UNL A   1      47.649  34.804  28.968  1.00  0.00     0.020 A 
ATOM     60  C   UNL A   1      47.618  35.597  27.821  1.00  0.00     0.054 A 
BRANCH  60  61
ATOM     61  S   UNL A   1      48.237  37.303  27.855  1.00  0.00     0.124 S 
ATOM     62  O   UNL A   1      47.084  38.029  28.379  1.00  0.00    -0.237 OA
ATOM     63  O   UNL A   1      49.383  37.214  28.756  1.00  0.00    -0.237 OA
ATOM     64  O   UNL A   1      48.567  37.581  26.459  1.00  0.00    -0.744 OA
ENDBRANCH  60  61
ENDBRANCH  41  55
BRANCH  42  65
ATOM     65  C   UNL A   1      43.430  23.583  26.792  1.00  0.00    -0.014 A 
ATOM     66  C   UNL A   1      43.316  23.083  25.483  1.00  0.00     0.010 A 
ATOM     67  C   UNL A   1      43.142  22.728  27.874  1.00  0.00     0.010 A 
ATOM     68  C   UNL A   1      42.932  21.756  25.260  1.00  0.00     0.020 A 
ATOM     69  C   UNL A   1      42.789  21.392  27.657  1.00  0.00     0.020 A 
ATOM     70  C   UNL A   1      42.682  20.915  26.349  1.00  0.00     0.054 A 
BRANCH  70  71
ATOM     71  S   UNL A   1      42.285  19.172  26.034  1.00  0.00     0.124 S 
ATOM     72  O   UNL A   1      42.678  18.539  27.289  1.00  0.00    -0.237 OA
ATOM     73  O   UNL A   1      40.849  19.217  25.771  1.00  0.00    -0.237 OA
ATOM     74  O   UNL A   1      43.112  18.835  24.876  1.00  0.00    -0.744 OA
ENDBRANCH  70  71
ENDBRANCH  42  65
BRANCH  54  75
ATOM     75  C   UNL A   1      49.756  26.472  26.432  1.00  0.00    -0.014 A 
ATOM     76  C   UNL A   1      50.532  26.028  27.516  1.00  0.00     0.010 A 
ATOM     77  C   UNL A   1      50.272  26.381  25.126  1.00  0.00     0.010 A 
ATOM     78  C   UNL A   1      51.821  25.537  27.301  1.00  0.00     0.020 A 
ATOM     79  C   UNL A   1      51.548  25.864  24.906  1.00  0.00     0.020 A 
ATOM     80  C   UNL A   1      52.321  25.461  25.997  1.00  0.00     0.054 A 
BRANCH  80  81
ATOM     81  S   UNL A   1      53.987  24.794  25.740  1.00  0.00     0.124 S 
ATOM     82  O   UNL A   1      54.474  25.612  24.633  1.00  0.00    -0.237 OA
ATOM     83  O   UNL A   1      54.630  25.033  27.030  1.00  0.00    -0.237 OA
ATOM     84  O   UNL A   1      53.751  23.387  25.421  1.00  0.00    -0.744 OA
ENDBRANCH  80  81
ENDBRANCH  54  75
ENDBRANCH  28  29
ENDBRANCH  21  23
ENDBRANCH  20  21
ENDBRANCH   1  20
TORSDOF 15
ENDMDL
MODEL 3
REMARK VINA RESULT:     -10.7      1.507      2.918
REMARK SMILES Cc1ccc(-c2ncccc2C(=O)OCCOC(=O)c2ccc(-c3c4nc(c(-c5ccc(S(=O)(=O)[O-])cc5)c5ccc([nH]5)c(-c5ccc(S(=O)(=O)[O-])cc5)c5nc(c(-c6ccc(S(=O)(=O)[O-])cc6)c6ccc3[nH]6)C=C5)C=C4)cc2)c(Cl)c1
REMARK SMILES IDX 16 1 15 2 14 3 12 4 13 5 11 6 6 7 7 8 8 9 10 10 9 11 5 12
REMARK SMILES IDX 1 13 2 14 3 15 82 16 4 17 80 18 81 19 17 20 18 21 19 22
REMARK SMILES IDX 20 23 21 24 79 25 22 26 78 27 23 28 24 29 25 30 72 31 26 32
REMARK SMILES IDX 77 33 71 34 73 35 27 36 76 37 70 38 69 39 28 41 58 42 39 43
REMARK SMILES IDX 57 44 40 45 43 46 56 47 74 48 41 49 42 50 55 52 75 53 44 54
REMARK SMILES IDX 29 55 30 56 38 57 31 58 37 59 32 60 33 61 34 62 35 63 36 64
REMARK SMILES IDX 59 65 60 66 68 67 61 68 67 69 62 70 63 71 64 72 65 73 66 74
REMARK SMILES IDX 45 75 46 76 54 77 47 78 53 79 48 80 49 81 50 82 51 83 52 84
REMARK H PARENT 73 40 43 51
REMARK Flexibility Score: inf
ROOT
ATOM      1  C   UNL A   1      37.746  23.132  25.581  1.00  0.00     0.275 C 
ENDROOT
BRANCH   1   2
ATOM      2  C   UNL A   1      36.310  23.298  26.069  1.00  0.00     0.275 C 
BRANCH   2   3
ATOM      3  O   UNL A   1      35.856  24.654  25.860  1.00  0.00    -0.458 OA
BRANCH   3   4
ATOM      4  C   UNL A   1      34.817  24.788  24.996  1.00  0.00     0.340 C 
ATOM      5  O   UNL A   1      34.850  24.543  23.803  1.00  0.00    -0.246 OA
BRANCH   4   6
ATOM      6  C   UNL A   1      33.646  25.372  25.681  1.00  0.00     0.086 A 
ATOM      7  C   UNL A   1      32.465  24.657  25.954  1.00  0.00     0.086 A 
ATOM      8  N   UNL A   1      31.355  25.269  26.441  1.00  0.00    -0.255 NA
ATOM      9  C   UNL A   1      31.405  26.613  26.605  1.00  0.00     0.112 A 
ATOM     10  C   UNL A   1      33.673  26.753  25.899  1.00  0.00     0.019 A 
ATOM     11  C   UNL A   1      32.526  27.388  26.353  1.00  0.00     0.021 A 
BRANCH   7  12
ATOM     12  C   UNL A   1      32.271  23.257  25.564  1.00  0.00     0.020 A 
ATOM     13  C   UNL A   1      32.455  18.608  23.210  1.00  0.00     0.044 C 
ATOM     14  C   UNL A   1      32.554  19.953  23.853  1.00  0.00    -0.050 A 
ATOM     15  C   UNL A   1      33.095  20.075  25.555  1.00  0.00     0.004 A 
ATOM     16  C   UNL A   1      31.890  21.382  23.089  1.00  0.00     0.024 A 
ATOM     17  C   UNL A   1      32.916  21.850  26.516  1.00  0.00     0.012 A 
ATOM     18  C   UNL A   1      31.756  22.951  23.895  1.00  0.00     0.050 A 
ATOM     19  Cl  UNL A   1      30.994  24.223  22.996  1.00  0.00    -0.084 Cl
ENDBRANCH   7  12
ENDBRANCH   4   6
ENDBRANCH   3   4
ENDBRANCH   2   3
ENDBRANCH   1   2
BRANCH   1  20
ATOM     20  O   UNL A   1      38.442  24.381  25.738  1.00  0.00    -0.458 OA
BRANCH  20  21
ATOM     21  C   UNL A   1      39.362  24.369  26.721  1.00  0.00     0.338 C 
ATOM     22  O   UNL A   1      40.208  23.514  26.932  1.00  0.00    -0.246 OA
BRANCH  21  23
ATOM     23  C   UNL A   1      39.334  25.610  27.496  1.00  0.00     0.060 A 
ATOM     24  C   UNL A   1      40.578  26.878  27.227  1.00  0.00     0.016 A 
ATOM     25  C   UNL A   1      38.604  25.492  29.088  1.00  0.00     0.016 A 
ATOM     26  C   UNL A   1      41.104  28.039  28.798  1.00  0.00     0.010 A 
ATOM     27  C   UNL A   1      39.020  26.564  30.440  1.00  0.00     0.010 A 
ATOM     28  C   UNL A   1      40.239  27.850  30.376  1.00  0.00    -0.014 A 
BRANCH  28  29
ATOM     29  C   UNL A   1      40.346  28.893  31.497  1.00  0.00     0.031 A 
ATOM     30  C   UNL A   1      41.440  28.823  32.563  1.00  0.00     0.074 A 
ATOM     31  C   UNL A   1      39.397  29.845  31.692  1.00  0.00     0.049 A 
ATOM     32  N   UNL A   1      41.495  29.409  33.742  1.00  0.00    -0.248 NA
ATOM     33  C   UNL A   1      42.580  27.930  32.319  1.00  0.00     0.031 C 
ATOM     34  C   UNL A   1      38.198  30.045  30.896  1.00  0.00     0.029 A 
ATOM     35  N   UNL A   1      39.264  30.837  32.652  1.00  0.00    -0.354 N 
ATOM     36  C   UNL A   1      42.592  28.859  34.405  1.00  0.00     0.074 A 
ATOM     37  C   UNL A   1      43.132  27.847  33.523  1.00  0.00     0.031 C 
ATOM     38  C   UNL A   1      37.511  31.110  31.299  1.00  0.00     0.029 A 
ATOM     39  C   UNL A   1      38.132  31.616  32.498  1.00  0.00     0.049 A 
ATOM     40  H   UNL A   1      39.917  30.972  33.376  1.00  0.00     0.167 HD
ATOM     41  C   UNL A   1      43.141  29.189  35.606  1.00  0.00     0.031 A 
ATOM     42  C   UNL A   1      37.572  32.601  33.224  1.00  0.00     0.031 A 
ATOM     43  C   UNL A   1      42.717  30.317  36.405  1.00  0.00     0.049 A 
ATOM     44  C   UNL A   1      38.252  33.042  34.468  1.00  0.00     0.074 A 
ATOM     45  C   UNL A   1      43.313  30.837  37.543  1.00  0.00     0.029 A 
ATOM     46  N   UNL A   1      41.624  31.124  36.128  1.00  0.00    -0.354 N 
ATOM     47  N   UNL A   1      39.296  32.510  35.052  1.00  0.00    -0.248 NA
ATOM     48  C   UNL A   1      37.705  34.225  35.139  1.00  0.00     0.031 C 
ATOM     49  C   UNL A   1      42.566  31.941  37.969  1.00  0.00     0.029 A 
ATOM     50  C   UNL A   1      41.531  32.138  37.070  1.00  0.00     0.049 A 
ATOM     51  H   UNL A   1      41.005  30.996  35.373  1.00  0.00     0.167 HD
ATOM     52  C   UNL A   1      39.556  33.314  36.147  1.00  0.00     0.074 A 
ATOM     53  C   UNL A   1      38.563  34.372  36.139  1.00  0.00     0.031 C 
ATOM     54  C   UNL A   1      40.540  33.184  37.068  1.00  0.00     0.031 A 
BRANCH  41  55
ATOM     55  C   UNL A   1      44.292  28.347  36.127  1.00  0.00    -0.014 A 
ATOM     56  C   UNL A   1      45.635  28.686  35.879  1.00  0.00     0.010 A 
ATOM     57  C   UNL A   1      44.025  27.206  36.910  1.00  0.00     0.010 A 
ATOM     58  C   UNL A   1      46.676  27.857  36.314  1.00  0.00     0.020 A 
ATOM     59  C   UNL A   1      45.065  26.396  37.387  1.00  0.00     0.020 A 
ATOM     60  C   UNL A   1      46.383  26.709  37.054  1.00  0.00     0.054 A 
BRANCH  60  61
ATOM     61  S   UNL A   1      47.751  25.639  37.582  1.00  0.00     0.124 S 
ATOM     62  O   UNL A   1      47.148  24.312  37.488  1.00  0.00    -0.237 OA
ATOM     63  O   UNL A   1      48.787  25.927  36.594  1.00  0.00    -0.237 OA
ATOM     64  O   UNL A   1      48.045  26.094  38.938  1.00  0.00    -0.744 OA
ENDBRANCH  60  61
ENDBRANCH  41  55
BRANCH  42  65
ATOM     65  C   UNL A   1      36.304  33.229  32.746  1.00  0.00    -0.014 A 
ATOM     66  C   UNL A   1      35.117  33.080  33.484  1.00  0.00     0.010 A 
ATOM     67  C   UNL A   1      36.310  34.093  31.633  1.00  0.00     0.010 A 
ATOM     68  C   UNL A   1      33.963  33.785  33.122  1.00  0.00     0.020 A 
ATOM     69  C   UNL A   1      35.168  34.824  31.288  1.00  0.00     0.020 A 
ATOM     70  C   UNL A   1      33.999  34.661  32.033  1.00  0.00     0.054 A 
BRANCH  70  71
ATOM     71  S   UNL A   1      32.518  35.638  31.648  1.00  0.00     0.124 S 
ATOM     72  O   UNL A   1      32.944  36.988  32.003  1.00  0.00    -0.237 OA
ATOM     73  O   UNL A   1      32.336  35.388  30.221  1.00  0.00    -0.237 OA
ATOM     74  O   UNL A   1      31.490  35.058  32.511  1.00  0.00    -0.744 OA
ENDBRANCH  70  71
ENDBRANCH  42  65
BRANCH  54  75
ATOM     75  C   UNL A   1      40.617  34.252  38.118  1.00  0.00    -0.014 A 
ATOM     76  C   UNL A   1      41.329  35.444  37.896  1.00  0.00     0.010 A 
ATOM     77  C   UNL A   1      39.968  34.051  39.349  1.00  0.00     0.010 A 
ATOM     78  C   UNL A   1      41.423  36.402  38.907  1.00  0.00     0.020 A 
ATOM     79  C   UNL A   1      40.037  35.020  40.350  1.00  0.00     0.020 A 
ATOM     80  C   UNL A   1      40.778  36.182  40.128  1.00  0.00     0.054 A 
BRANCH  80  81
ATOM     81  S   UNL A   1      40.892  37.454  41.414  1.00  0.00     0.124 S 
ATOM     82  O   UNL A   1      41.287  36.670  42.582  1.00  0.00    -0.237 OA
ATOM     83  O   UNL A   1      41.915  38.354  40.886  1.00  0.00    -0.237 OA
ATOM     84  O   UNL A   1      39.544  38.016  41.466  1.00  0.00    -0.744 OA
ENDBRANCH  80  81
ENDBRANCH  54  75
ENDBRANCH  28  29
ENDBRANCH  21  23
ENDBRANCH  20  21
ENDBRANCH   1  20
TORSDOF 15
ENDMDL
