MODEL 1
REMARK VINA RESULT:     -11.6      0.000      0.000
REMARK SMILES Cc1ccc(-c2cc(Cl)cc3c2O[C@@H](C(F)(F)F)C(C(=O)OCCOC(=O)c2ccc(-c4c5nc(c(-c6ccc(S(=O)(=O)[O-])cc6)c6ccc([nH]6)c(-c6ccc(S(=O)(=O)[O-])cc6)c6nc(c(-c7ccc(S(=O)(=O)[O-])cc7)c7ccc4[nH]7)C=C6)C=C5)cc2)=C3)cc1
REMARK SMILES IDX 24 1 23 2 22 3 20 4 21 5 19 6 6 7 7 8 12 9 8 10 11 11 13 12
REMARK SMILES IDX 9 13 10 14 88 15 14 16 5 17 1 18 2 19 3 20 90 21 4 22 89 23
REMARK SMILES IDX 15 24 16 25 17 26 18 27 25 28 26 29 27 30 28 31 29 32 87 33
REMARK SMILES IDX 30 34 86 35 31 36 32 37 33 38 80 39 34 40 85 41 79 42 81 43
REMARK SMILES IDX 35 44 84 45 78 46 77 47 36 49 66 50 47 51 65 52 48 53 51 54
REMARK SMILES IDX 64 55 82 56 49 57 50 58 63 60 83 61 52 62 37 63 38 64 46 65
REMARK SMILES IDX 39 66 45 67 40 68 41 69 42 70 43 71 44 72 67 73 68 74 76 75
REMARK SMILES IDX 69 76 75 77 70 78 71 79 72 80 73 81 74 82 53 83 54 84 62 85
REMARK SMILES IDX 55 86 61 87 56 88 57 89 58 90 59 91 60 92
REMARK H PARENT 81 48 51 59
REMARK Flexibility Score: inf
ROOT
ATOM      1  C   UNL A   1      48.040  28.227  34.388  1.00  0.00     0.275 C 
ENDROOT
BRANCH   1   2
ATOM      2  C   UNL A   1      49.343  28.185  33.495  1.00  0.00     0.275 C 
BRANCH   2   3
ATOM      3  O   UNL A   1      49.129  27.830  32.118  1.00  0.00    -0.459 OA
BRANCH   3   4
ATOM      4  C   UNL A   1      48.604  28.807  31.063  1.00  0.00     0.338 C 
ATOM      5  O   UNL A   1      47.393  28.828  31.035  1.00  0.00    -0.246 OA
BRANCH   4   6
ATOM      6  C   UNL A   1      49.955  29.690  29.943  1.00  0.00     0.087 C 
ATOM      7  C   UNL A   1      48.060  26.576  25.887  1.00  0.00     0.026 A 
ATOM      8  C   UNL A   1      49.019  26.572  24.307  1.00  0.00     0.033 A 
ATOM      9  C   UNL A   1      48.760  27.443  27.338  1.00  0.00     0.135 A 
ATOM     10  C   UNL A   1      50.765  27.222  24.209  1.00  0.00     0.042 A 
ATOM     11  C   UNL A   1      50.459  28.366  27.148  1.00  0.00     0.019 A 
ATOM     12  O   UNL A   1      47.947  28.206  29.048  1.00  0.00    -0.475 OA
ATOM     13  Cl  UNL A   1      51.679  27.066  22.747  1.00  0.00    -0.084 Cl
ATOM     14  C   UNL A   1      51.449  28.158  25.619  1.00  0.00     0.032 A 
ATOM     15  C   UNL A   1      50.804  29.575  28.595  1.00  0.00     0.027 C 
ATOM     16  C   UNL A   1      48.541  29.975  29.682  1.00  0.00     0.316 C 
BRANCH   7  17
ATOM     17  C   UNL A   1      46.832  25.716  25.803  1.00  0.00    -0.015 A 
ATOM     18  C   UNL A   1      43.166  23.546  24.960  1.00  0.00     0.044 C 
ATOM     19  C   UNL A   1      44.425  24.262  25.327  1.00  0.00    -0.051 A 
ATOM     20  C   UNL A   1      45.667  23.623  25.316  1.00  0.00     0.004 A 
ATOM     21  C   UNL A   1      44.377  25.589  25.732  1.00  0.00     0.004 A 
ATOM     22  C   UNL A   1      46.840  24.330  25.632  1.00  0.00     0.009 A 
ATOM     23  C   UNL A   1      45.561  26.291  25.958  1.00  0.00     0.009 A 
ENDBRANCH   7  17
BRANCH  16  24
ATOM     24  C   UNL A   1      48.778  31.060  31.174  1.00  0.00     0.430 C 
ATOM     25  F   UNL A   1      48.903  32.406  30.854  1.00  0.00    -0.167 F 
ATOM     26  F   UNL A   1      47.658  31.013  31.945  1.00  0.00    -0.167 F 
ATOM     27  F   UNL A   1      49.825  30.826  31.992  1.00  0.00    -0.167 F 
ENDBRANCH  16  24
ENDBRANCH   4   6
ENDBRANCH   3   4
ENDBRANCH   2   3
ENDBRANCH   1   2
BRANCH   1  28
ATOM     28  O   UNL A   1      47.841  28.835  35.716  1.00  0.00    -0.458 OA
BRANCH  28  29
ATOM     29  C   UNL A   1      46.957  28.462  36.685  1.00  0.00     0.338 C 
ATOM     30  O   UNL A   1      47.277  27.870  37.699  1.00  0.00    -0.246 OA
BRANCH  29  31
ATOM     31  C   UNL A   1      45.587  28.829  36.291  1.00  0.00     0.060 A 
ATOM     32  C   UNL A   1      45.280  30.301  35.268  1.00  0.00     0.016 A 
ATOM     33  C   UNL A   1      44.723  27.390  35.816  1.00  0.00     0.016 A 
ATOM     34  C   UNL A   1      44.091  29.898  33.679  1.00  0.00     0.010 A 
ATOM     35  C   UNL A   1      43.765  27.245  34.464  1.00  0.00     0.010 A 
ATOM     36  C   UNL A   1      43.436  28.432  33.372  1.00  0.00    -0.014 A 
BRANCH  36  37
ATOM     37  C   UNL A   1      42.721  28.077  32.101  1.00  0.00     0.031 A 
ATOM     38  C   UNL A   1      41.164  28.173  31.873  1.00  0.00     0.074 A 
ATOM     39  C   UNL A   1      43.718  27.894  31.181  1.00  0.00     0.049 A 
ATOM     40  N   UNL A   1      40.645  28.047  30.699  1.00  0.00    -0.248 NA
ATOM     41  C   UNL A   1      40.012  28.445  32.799  1.00  0.00     0.031 C 
ATOM     42  C   UNL A   1      43.867  27.985  29.731  1.00  0.00     0.029 A 
ATOM     43  N   UNL A   1      44.969  27.313  31.543  1.00  0.00    -0.354 N 
ATOM     44  C   UNL A   1      39.357  28.615  30.665  1.00  0.00     0.074 A 
ATOM     45  C   UNL A   1      39.012  28.885  32.013  1.00  0.00     0.031 C 
ATOM     46  C   UNL A   1      44.895  27.184  29.348  1.00  0.00     0.029 A 
ATOM     47  C   UNL A   1      45.308  26.430  30.528  1.00  0.00     0.049 A 
ATOM     48  H   UNL A   1      45.491  27.503  32.356  1.00  0.00     0.167 HD
ATOM     49  C   UNL A   1      38.813  28.873  29.443  1.00  0.00     0.031 A 
ATOM     50  C   UNL A   1      45.064  25.103  30.765  1.00  0.00     0.031 A 
ATOM     51  C   UNL A   1      39.675  28.220  28.480  1.00  0.00     0.049 A 
ATOM     52  C   UNL A   1      44.033  24.586  29.836  1.00  0.00     0.074 A 
ATOM     53  C   UNL A   1      40.781  28.674  27.794  1.00  0.00     0.029 A 
ATOM     54  N   UNL A   1      39.776  26.850  28.564  1.00  0.00    -0.354 N 
ATOM     55  N   UNL A   1      42.995  25.266  29.450  1.00  0.00    -0.248 NA
ATOM     56  C   UNL A   1      44.087  23.231  29.331  1.00  0.00     0.031 C 
ATOM     57  C   UNL A   1      41.566  27.527  27.480  1.00  0.00     0.029 A 
ATOM     58  C   UNL A   1      40.918  26.395  27.952  1.00  0.00     0.049 A 
ATOM     59  H   UNL A   1      39.115  26.270  29.006  1.00  0.00     0.167 HD
ATOM     60  C   UNL A   1      42.252  24.485  28.621  1.00  0.00     0.074 A 
ATOM     61  C   UNL A   1      42.914  23.185  28.685  1.00  0.00     0.031 C 
ATOM     62  C   UNL A   1      41.156  24.964  27.961  1.00  0.00     0.031 A 
BRANCH  49  63
ATOM     63  C   UNL A   1      37.673  29.756  28.956  1.00  0.00    -0.014 A 
ATOM     64  C   UNL A   1      37.758  31.120  29.340  1.00  0.00     0.010 A 
ATOM     65  C   UNL A   1      36.491  29.388  28.282  1.00  0.00     0.010 A 
ATOM     66  C   UNL A   1      36.740  32.051  29.132  1.00  0.00     0.020 A 
ATOM     67  C   UNL A   1      35.451  30.335  28.043  1.00  0.00     0.020 A 
ATOM     68  C   UNL A   1      35.582  31.658  28.483  1.00  0.00     0.054 A 
BRANCH  68  69
ATOM     69  S   UNL A   1      34.303  32.925  28.237  1.00  0.00     0.124 S 
ATOM     70  O   UNL A   1      33.936  33.276  29.608  1.00  0.00    -0.237 OA
ATOM     71  O   UNL A   1      35.023  33.961  27.502  1.00  0.00    -0.237 OA
ATOM     72  O   UNL A   1      33.265  32.234  27.478  1.00  0.00    -0.744 OA
ENDBRANCH  68  69
ENDBRANCH  49  63
BRANCH  50  73
ATOM     73  C   UNL A   1      45.051  24.740  32.218  1.00  0.00    -0.014 A 
ATOM     74  C   UNL A   1      44.061  23.931  32.689  1.00  0.00     0.010 A 
ATOM     75  C   UNL A   1      46.170  24.853  33.041  1.00  0.00     0.010 A 
ATOM     76  C   UNL A   1      44.356  23.019  33.737  1.00  0.00     0.020 A 
ATOM     77  C   UNL A   1      46.472  23.913  34.109  1.00  0.00     0.020 A 
ATOM     78  C   UNL A   1      45.739  22.631  34.439  1.00  0.00     0.054 A 
BRANCH  78  79
ATOM     79  S   UNL A   1      46.236  20.662  35.986  1.00  0.00     0.124 S 
ATOM     80  O   UNL A   1      45.326  19.495  35.756  1.00  0.00    -0.237 OA
ATOM     81  O   UNL A   1      47.579  20.098  35.768  1.00  0.00    -0.237 OA
ATOM     82  O   UNL A   1      46.039  20.956  37.433  1.00  0.00    -0.744 OA
ENDBRANCH  78  79
ENDBRANCH  50  73
BRANCH  62  83
ATOM     83  C   UNL A   1      40.147  24.065  27.310  1.00  0.00    -0.014 A 
ATOM     84  C   UNL A   1      38.915  24.539  26.870  1.00  0.00     0.010 A 
ATOM     85  C   UNL A   1      40.406  22.685  27.119  1.00  0.00     0.010 A 
ATOM     86  C   UNL A   1      38.066  23.744  26.117  1.00  0.00     0.020 A 
ATOM     87  C   UNL A   1      39.532  21.853  26.432  1.00  0.00     0.020 A 
ATOM     88  C   UNL A   1      38.376  22.404  25.909  1.00  0.00     0.054 A 
BRANCH  88  89
ATOM     89  S   UNL A   1      37.158  21.386  25.077  1.00  0.00     0.124 S 
ATOM     90  O   UNL A   1      36.959  22.121  23.829  1.00  0.00    -0.237 OA
ATOM     91  O   UNL A   1      37.865  20.114  24.951  1.00  0.00    -0.237 OA
ATOM     92  O   UNL A   1      36.019  21.385  25.989  1.00  0.00    -0.744 OA
ENDBRANCH  88  89
ENDBRANCH  62  83
ENDBRANCH  36  37
ENDBRANCH  29  31
ENDBRANCH  28  29
ENDBRANCH   1  28
TORSDOF 16
ENDMDL
MODEL 2
REMARK VINA RESULT:     -11.5      3.557      6.137
REMARK SMILES Cc1ccc(-c2cc(Cl)cc3c2O[C@@H](C(F)(F)F)C(C(=O)OCCOC(=O)c2ccc(-c4c5nc(c(-c6ccc(S(=O)(=O)[O-])cc6)c6ccc([nH]6)c(-c6ccc(S(=O)(=O)[O-])cc6)c6nc(c(-c7ccc(S(=O)(=O)[O-])cc7)c7ccc4[nH]7)C=C6)C=C5)cc2)=C3)cc1
REMARK SMILES IDX 24 1 23 2 22 3 20 4 21 5 19 6 6 7 7 8 12 9 8 10 11 11 13 12
REMARK SMILES IDX 9 13 10 14 88 15 14 16 5 17 1 18 2 19 3 20 90 21 4 22 89 23
REMARK SMILES IDX 15 24 16 25 17 26 18 27 25 28 26 29 27 30 28 31 29 32 87 33
REMARK SMILES IDX 30 34 86 35 31 36 32 37 33 38 80 39 34 40 85 41 79 42 81 43
REMARK SMILES IDX 35 44 84 45 78 46 77 47 36 49 66 50 47 51 65 52 48 53 51 54
REMARK SMILES IDX 64 55 82 56 49 57 50 58 63 60 83 61 52 62 37 63 38 64 46 65
REMARK SMILES IDX 39 66 45 67 40 68 41 69 42 70 43 71 44 72 67 73 68 74 76 75
REMARK SMILES IDX 69 76 75 77 70 78 71 79 72 80 73 81 74 82 53 83 54 84 62 85
REMARK SMILES IDX 55 86 61 87 56 88 57 89 58 90 59 91 60 92
REMARK H PARENT 81 48 51 59
REMARK Flexibility Score: inf
ROOT
ATOM      1  C   UNL A   1      44.862  32.464  38.991  1.00  0.00     0.275 C 
ENDROOT
BRANCH   1   2
ATOM      2  C   UNL A   1      44.276  33.908  38.728  1.00  0.00     0.275 C 
BRANCH   2   3
ATOM      3  O   UNL A   1      43.337  33.999  37.643  1.00  0.00    -0.459 OA
BRANCH   3   4
ATOM      4  C   UNL A   1      43.364  35.110  36.590  1.00  0.00     0.338 C 
ATOM      5  O   UNL A   1      42.452  35.894  36.742  1.00  0.00    -0.246 OA
BRANCH   4   6
ATOM      6  C   UNL A   1      44.745  34.962  35.201  1.00  0.00     0.087 C 
ATOM      7  C   UNL A   1      40.724  33.254  31.937  1.00  0.00     0.026 A 
ATOM      8  C   UNL A   1      41.206  32.583  30.284  1.00  0.00     0.033 A 
ATOM      9  C   UNL A   1      42.041  33.652  33.142  1.00  0.00     0.135 A 
ATOM     10  C   UNL A   1      42.962  32.087  29.893  1.00  0.00     0.042 A 
ATOM     11  C   UNL A   1      43.896  33.400  32.621  1.00  0.00     0.019 A 
ATOM     12  O   UNL A   1      42.128  34.863  34.783  1.00  0.00    -0.475 OA
ATOM     13  Cl  UNL A   1      43.344  31.327  28.385  1.00  0.00    -0.084 Cl
ATOM     14  C   UNL A   1      44.298  32.547  31.048  1.00  0.00     0.032 A 
ATOM     15  C   UNL A   1      45.119  34.281  33.805  1.00  0.00     0.027 C 
ATOM     16  C   UNL A   1      43.717  35.997  35.052  1.00  0.00     0.316 C 
BRANCH   7  17
ATOM     17  C   UNL A   1      39.235  33.265  32.128  1.00  0.00    -0.015 A 
ATOM     18  C   UNL A   1      35.066  33.202  33.342  1.00  0.00     0.044 C 
ATOM     19  C   UNL A   1      36.475  33.219  32.845  1.00  0.00    -0.051 A 
ATOM     20  C   UNL A   1      37.079  34.390  32.382  1.00  0.00     0.004 A 
ATOM     21  C   UNL A   1      37.209  32.042  32.797  1.00  0.00     0.004 A 
ATOM     22  C   UNL A   1      38.419  34.384  31.953  1.00  0.00     0.009 A 
ATOM     23  C   UNL A   1      38.559  32.077  32.448  1.00  0.00     0.009 A 
ENDBRANCH   7  17
BRANCH  16  24
ATOM     24  C   UNL A   1      44.791  36.843  36.313  1.00  0.00     0.430 C 
ATOM     25  F   UNL A   1      45.549  37.876  35.776  1.00  0.00    -0.167 F 
ATOM     26  F   UNL A   1      44.002  37.464  37.231  1.00  0.00    -0.167 F 
ATOM     27  F   UNL A   1      45.690  36.112  37.003  1.00  0.00    -0.167 F 
ENDBRANCH  16  24
ENDBRANCH   4   6
ENDBRANCH   3   4
ENDBRANCH   2   3
ENDBRANCH   1   2
BRANCH   1  28
ATOM     28  O   UNL A   1      44.898  31.298  38.091  1.00  0.00    -0.458 OA
BRANCH  28  29
ATOM     29  C   UNL A   1      43.843  30.617  37.558  1.00  0.00     0.338 C 
ATOM     30  O   UNL A   1      42.696  30.739  37.947  1.00  0.00    -0.246 OA
BRANCH  29  31
ATOM     31  C   UNL A   1      44.310  29.698  36.507  1.00  0.00     0.060 A 
ATOM     32  C   UNL A   1      43.742  27.971  36.467  1.00  0.00     0.016 A 
ATOM     33  C   UNL A   1      44.299  30.529  34.974  1.00  0.00     0.016 A 
ATOM     34  C   UNL A   1      43.066  27.427  34.638  1.00  0.00     0.010 A 
ATOM     35  C   UNL A   1      43.709  29.908  33.547  1.00  0.00     0.010 A 
ATOM     36  C   UNL A   1      43.076  28.405  33.328  1.00  0.00    -0.014 A 
BRANCH  36  37
ATOM     37  C   UNL A   1      42.401  28.079  32.027  1.00  0.00     0.031 A 
ATOM     38  C   UNL A   1      40.851  28.167  31.756  1.00  0.00     0.074 A 
ATOM     39  C   UNL A   1      43.426  27.930  31.133  1.00  0.00     0.049 A 
ATOM     40  N   UNL A   1      40.367  28.070  30.565  1.00  0.00    -0.248 NA
ATOM     41  C   UNL A   1      39.670  28.403  32.656  1.00  0.00     0.031 C 
ATOM     42  C   UNL A   1      43.617  28.063  29.691  1.00  0.00     0.029 A 
ATOM     43  N   UNL A   1      44.672  27.351  31.514  1.00  0.00    -0.354 N 
ATOM     44  C   UNL A   1      39.076  28.627  30.508  1.00  0.00     0.074 A 
ATOM     45  C   UNL A   1      38.689  28.856  31.853  1.00  0.00     0.031 C 
ATOM     46  C   UNL A   1      44.663  27.283  29.316  1.00  0.00     0.029 A 
ATOM     47  C   UNL A   1      45.048  26.499  30.486  1.00  0.00     0.049 A 
ATOM     48  H   UNL A   1      45.169  27.522  32.347  1.00  0.00     0.167 HD
ATOM     49  C   UNL A   1      38.565  28.915  29.279  1.00  0.00     0.031 A 
ATOM     50  C   UNL A   1      44.811  25.165  30.678  1.00  0.00     0.031 A 
ATOM     51  C   UNL A   1      39.461  28.297  28.324  1.00  0.00     0.049 A 
ATOM     52  C   UNL A   1      43.812  24.664  29.706  1.00  0.00     0.074 A 
ATOM     53  C   UNL A   1      40.582  28.779  27.684  1.00  0.00     0.029 A 
ATOM     54  N   UNL A   1      39.572  26.925  28.373  1.00  0.00    -0.354 N 
ATOM     55  N   UNL A   1      42.780  25.345  29.309  1.00  0.00    -0.248 NA
ATOM     56  C   UNL A   1      43.894  23.324  29.166  1.00  0.00     0.031 C 
ATOM     57  C   UNL A   1      41.387  27.649  27.361  1.00  0.00     0.029 A 
ATOM     58  C   UNL A   1      40.736  26.498  27.782  1.00  0.00     0.049 A 
ATOM     59  H   UNL A   1      38.904  26.327  28.779  1.00  0.00     0.167 HD
ATOM     60  C   UNL A   1      42.069  24.582  28.437  1.00  0.00     0.074 A 
ATOM     61  C   UNL A   1      42.741  23.286  28.484  1.00  0.00     0.031 C 
ATOM     62  C   UNL A   1      40.987  25.069  27.759  1.00  0.00     0.031 A 
BRANCH  49  63
ATOM     63  C   UNL A   1      37.431  29.801  28.783  1.00  0.00    -0.014 A 
ATOM     64  C   UNL A   1      37.536  31.171  29.137  1.00  0.00     0.010 A 
ATOM     65  C   UNL A   1      36.238  29.432  28.128  1.00  0.00     0.010 A 
ATOM     66  C   UNL A   1      36.527  32.110  28.918  1.00  0.00     0.020 A 
ATOM     67  C   UNL A   1      35.208  30.387  27.878  1.00  0.00     0.020 A 
ATOM     68  C   UNL A   1      35.358  31.717  28.289  1.00  0.00     0.054 A 
BRANCH  68  69
ATOM     69  S   UNL A   1      34.093  32.994  28.027  1.00  0.00     0.124 S 
ATOM     70  O   UNL A   1      33.066  32.274  27.275  1.00  0.00    -0.237 OA
ATOM     71  O   UNL A   1      33.724  33.358  29.392  1.00  0.00    -0.237 OA
ATOM     72  O   UNL A   1      34.791  34.033  27.276  1.00  0.00    -0.744 OA
ENDBRANCH  68  69
ENDBRANCH  49  63
BRANCH  50  73
ATOM     73  C   UNL A   1      44.759  24.761  32.120  1.00  0.00    -0.014 A 
ATOM     74  C   UNL A   1      43.782  23.905  32.533  1.00  0.00     0.010 A 
ATOM     75  C   UNL A   1      45.843  24.889  32.986  1.00  0.00     0.010 A 
ATOM     76  C   UNL A   1      44.072  22.975  33.566  1.00  0.00     0.020 A 
ATOM     77  C   UNL A   1      46.140  23.931  34.039  1.00  0.00     0.020 A 
ATOM     78  C   UNL A   1      45.442  22.616  34.308  1.00  0.00     0.054 A 
BRANCH  78  79
ATOM     79  S   UNL A   1      45.953  20.622  35.820  1.00  0.00     0.124 S 
ATOM     80  O   UNL A   1      47.403  20.246  35.817  1.00  0.00    -0.237 OA
ATOM     81  O   UNL A   1      45.675  20.904  37.238  1.00  0.00    -0.237 OA
ATOM     82  O   UNL A   1      45.281  19.358  35.413  1.00  0.00    -0.744 OA
ENDBRANCH  78  79
ENDBRANCH  50  73
BRANCH  62  83
ATOM     83  C   UNL A   1      40.007  24.180  27.054  1.00  0.00    -0.014 A 
ATOM     84  C   UNL A   1      40.321  22.870  26.706  1.00  0.00     0.010 A 
ATOM     85  C   UNL A   1      38.713  24.641  26.705  1.00  0.00     0.010 A 
ATOM     86  C   UNL A   1      39.356  22.004  26.215  1.00  0.00     0.020 A 
ATOM     87  C   UNL A   1      37.754  23.809  26.142  1.00  0.00     0.020 A 
ATOM     88  C   UNL A   1      38.081  22.482  25.928  1.00  0.00     0.054 A 
BRANCH  88  89
ATOM     89  S   UNL A   1      36.930  21.360  25.135  1.00  0.00     0.124 S 
ATOM     90  O   UNL A   1      36.675  22.043  23.868  1.00  0.00    -0.237 OA
ATOM     91  O   UNL A   1      37.720  20.135  25.041  1.00  0.00    -0.237 OA
ATOM     92  O   UNL A   1      35.798  21.310  26.054  1.00  0.00    -0.744 OA
ENDBRANCH  88  89
ENDBRANCH  62  83
ENDBRANCH  36  37
ENDBRANCH  29  31
ENDBRANCH  28  29
ENDBRANCH   1  28
TORSDOF 16
ENDMDL
MODEL 3
REMARK VINA RESULT:     -11.2      4.251      7.201
REMARK SMILES Cc1ccc(-c2cc(Cl)cc3c2O[C@@H](C(F)(F)F)C(C(=O)OCCOC(=O)c2ccc(-c4c5nc(c(-c6ccc(S(=O)(=O)[O-])cc6)c6ccc([nH]6)c(-c6ccc(S(=O)(=O)[O-])cc6)c6nc(c(-c7ccc(S(=O)(=O)[O-])cc7)c7ccc4[nH]7)C=C6)C=C5)cc2)=C3)cc1
REMARK SMILES IDX 24 1 23 2 22 3 20 4 21 5 19 6 6 7 7 8 12 9 8 10 11 11 13 12
REMARK SMILES IDX 9 13 10 14 88 15 14 16 5 17 1 18 2 19 3 20 90 21 4 22 89 23
REMARK SMILES IDX 15 24 16 25 17 26 18 27 25 28 26 29 27 30 28 31 29 32 87 33
REMARK SMILES IDX 30 34 86 35 31 36 32 37 33 38 80 39 34 40 85 41 79 42 81 43
REMARK SMILES IDX 35 44 84 45 78 46 77 47 36 49 66 50 47 51 65 52 48 53 51 54
REMARK SMILES IDX 64 55 82 56 49 57 50 58 63 60 83 61 52 62 37 63 38 64 46 65
REMARK SMILES IDX 39 66 45 67 40 68 41 69 42 70 43 71 44 72 67 73 68 74 76 75
REMARK SMILES IDX 69 76 75 77 70 78 71 79 72 80 73 81 74 82 53 83 54 84 62 85
REMARK SMILES IDX 55 86 61 87 56 88 57 89 58 90 59 91 60 92
REMARK H PARENT 81 48 51 59
REMARK Flexibility Score: inf
ROOT
ATOM      1  C   UNL A   1      44.924  32.919  38.044  1.00  0.00     0.275 C 
ENDROOT
BRANCH   1   2
ATOM      2  C   UNL A   1      43.980  34.011  37.401  1.00  0.00     0.275 C 
BRANCH   2   3
ATOM      3  O   UNL A   1      42.573  33.805  37.615  1.00  0.00    -0.459 OA
BRANCH   3   4
ATOM      4  C   UNL A   1      41.556  34.944  37.718  1.00  0.00     0.338 C 
ATOM      5  O   UNL A   1      42.078  36.027  37.559  1.00  0.00    -0.246 OA
BRANCH   4   6
ATOM      6  C   UNL A   1      39.718  34.434  38.187  1.00  0.00     0.087 C 
ATOM      7  C   UNL A   1      39.153  33.122  32.925  1.00  0.00     0.026 A 
ATOM      8  C   UNL A   1      37.451  32.713  32.335  1.00  0.00     0.033 A 
ATOM      9  C   UNL A   1      39.364  33.760  34.626  1.00  0.00     0.135 A 
ATOM     10  C   UNL A   1      35.931  33.141  33.329  1.00  0.00     0.042 A 
ATOM     11  C   UNL A   1      37.799  33.936  35.762  1.00  0.00     0.019 A 
ATOM     12  O   UNL A   1      40.946  33.835  35.915  1.00  0.00    -0.475 OA
ATOM     13  Cl  UNL A   1      34.351  32.872  32.675  1.00  0.00    -0.084 Cl
ATOM     14  C   UNL A   1      36.122  33.703  35.055  1.00  0.00     0.032 A 
ATOM     15  C   UNL A   1      38.252  34.172  37.609  1.00  0.00     0.027 C 
ATOM     16  C   UNL A   1      40.659  33.375  37.809  1.00  0.00     0.316 C 
BRANCH   7  17
ATOM     17  C   UNL A   1      40.175  32.990  31.832  1.00  0.00    -0.015 A 
ATOM     18  C   UNL A   1      43.566  32.883  29.121  1.00  0.00     0.044 C 
ATOM     19  C   UNL A   1      42.350  32.902  29.990  1.00  0.00    -0.051 A 
ATOM     20  C   UNL A   1      41.793  31.728  30.503  1.00  0.00     0.004 A 
ATOM     21  C   UNL A   1      41.717  34.104  30.274  1.00  0.00     0.004 A 
ATOM     22  C   UNL A   1      40.669  31.778  31.347  1.00  0.00     0.009 A 
ATOM     23  C   UNL A   1      40.656  34.135  31.179  1.00  0.00     0.009 A 
ENDBRANCH   7  17
BRANCH  16  24
ATOM     24  C   UNL A   1      41.239  33.660  39.553  1.00  0.00     0.430 C 
ATOM     25  F   UNL A   1      40.202  33.670  40.477  1.00  0.00    -0.167 F 
ATOM     26  F   UNL A   1      42.012  32.611  39.945  1.00  0.00    -0.167 F 
ATOM     27  F   UNL A   1      41.932  34.782  39.836  1.00  0.00    -0.167 F 
ENDBRANCH  16  24
ENDBRANCH   4   6
ENDBRANCH   3   4
ENDBRANCH   2   3
ENDBRANCH   1   2
BRANCH   1  28
ATOM     28  O   UNL A   1      45.051  31.489  37.714  1.00  0.00    -0.458 OA
BRANCH  28  29
ATOM     29  C   UNL A   1      44.064  30.622  37.347  1.00  0.00     0.338 C 
ATOM     30  O   UNL A   1      42.979  30.564  37.896  1.00  0.00    -0.246 OA
BRANCH  29  31
ATOM     31  C   UNL A   1      44.530  29.757  36.251  1.00  0.00     0.060 A 
ATOM     32  C   UNL A   1      44.089  27.993  36.212  1.00  0.00     0.016 A 
ATOM     33  C   UNL A   1      44.361  30.608  34.738  1.00  0.00     0.016 A 
ATOM     34  C   UNL A   1      43.340  27.428  34.417  1.00  0.00     0.010 A 
ATOM     35  C   UNL A   1      43.729  29.967  33.338  1.00  0.00     0.010 A 
ATOM     36  C   UNL A   1      43.195  28.424  33.129  1.00  0.00    -0.014 A 
BRANCH  36  37
ATOM     37  C   UNL A   1      42.465  28.070  31.866  1.00  0.00     0.031 A 
ATOM     38  C   UNL A   1      40.906  28.170  31.654  1.00  0.00     0.074 A 
ATOM     39  C   UNL A   1      43.451  27.881  30.937  1.00  0.00     0.049 A 
ATOM     40  N   UNL A   1      40.374  28.045  30.487  1.00  0.00    -0.248 NA
ATOM     41  C   UNL A   1      39.765  28.448  32.592  1.00  0.00     0.031 C 
ATOM     42  C   UNL A   1      43.586  27.969  29.485  1.00  0.00     0.029 A 
ATOM     43  N   UNL A   1      44.705  27.296  31.286  1.00  0.00    -0.354 N 
ATOM     44  C   UNL A   1      39.088  28.617  30.465  1.00  0.00     0.074 A 
ATOM     45  C   UNL A   1      38.758  28.891  31.817  1.00  0.00     0.031 C 
ATOM     46  C   UNL A   1      44.607  27.164  29.092  1.00  0.00     0.029 A 
ATOM     47  C   UNL A   1      45.029  26.410  30.269  1.00  0.00     0.049 A 
ATOM     48  H   UNL A   1      45.236  27.486  32.093  1.00  0.00     0.167 HD
ATOM     49  C   UNL A   1      38.532  28.875  29.248  1.00  0.00     0.031 A 
ATOM     50  C   UNL A   1      44.783  25.085  30.511  1.00  0.00     0.031 A 
ATOM     51  C   UNL A   1      39.382  28.217  28.278  1.00  0.00     0.049 A 
ATOM     52  C   UNL A   1      43.741  24.569  29.594  1.00  0.00     0.074 A 
ATOM     53  C   UNL A   1      40.482  28.665  27.579  1.00  0.00     0.029 A 
ATOM     54  N   UNL A   1      39.478  26.846  28.363  1.00  0.00    -0.354 N 
ATOM     55  N   UNL A   1      42.701  25.252  29.218  1.00  0.00    -0.248 NA
ATOM     56  C   UNL A   1      43.784  23.214  29.091  1.00  0.00     0.031 C 
ATOM     57  C   UNL A   1      41.259  27.516  27.259  1.00  0.00     0.029 A 
ATOM     58  C   UNL A   1      40.612  26.386  27.739  1.00  0.00     0.049 A 
ATOM     59  H   UNL A   1      38.820  26.270  28.813  1.00  0.00     0.167 HD
ATOM     60  C   UNL A   1      41.947  24.473  28.398  1.00  0.00     0.074 A 
ATOM     61  C   UNL A   1      42.604  23.170  28.457  1.00  0.00     0.031 C 
ATOM     62  C   UNL A   1      40.845  24.955  27.749  1.00  0.00     0.031 A 
BRANCH  49  63
ATOM     63  C   UNL A   1      37.390  29.761  28.772  1.00  0.00    -0.014 A 
ATOM     64  C   UNL A   1      37.532  31.141  29.069  1.00  0.00     0.010 A 
ATOM     65  C   UNL A   1      36.163  29.389  28.186  1.00  0.00     0.010 A 
ATOM     66  C   UNL A   1      36.528  32.089  28.861  1.00  0.00     0.020 A 
ATOM     67  C   UNL A   1      35.137  30.351  27.947  1.00  0.00     0.020 A 
ATOM     68  C   UNL A   1      35.326  31.693  28.300  1.00  0.00     0.054 A 
BRANCH  68  69
ATOM     69  S   UNL A   1      34.069  32.980  28.048  1.00  0.00     0.124 S 
ATOM     70  O   UNL A   1      34.783  33.966  27.238  1.00  0.00    -0.237 OA
ATOM     71  O   UNL A   1      33.009  32.255  27.354  1.00  0.00    -0.237 OA
ATOM     72  O   UNL A   1      33.737  33.417  29.401  1.00  0.00    -0.744 OA
ENDBRANCH  68  69
ENDBRANCH  49  63
BRANCH  50  73
ATOM     73  C   UNL A   1      44.784  24.725  31.964  1.00  0.00    -0.014 A 
ATOM     74  C   UNL A   1      43.901  23.789  32.416  1.00  0.00     0.010 A 
ATOM     75  C   UNL A   1      45.858  24.988  32.814  1.00  0.00     0.010 A 
ATOM     76  C   UNL A   1      44.292  22.926  33.474  1.00  0.00     0.020 A 
ATOM     77  C   UNL A   1      46.258  24.098  33.892  1.00  0.00     0.020 A 
ATOM     78  C   UNL A   1      45.697  22.729  34.210  1.00  0.00     0.054 A 
BRANCH  78  79
ATOM     79  S   UNL A   1      46.418  20.847  35.777  1.00  0.00     0.124 S 
ATOM     80  O   UNL A   1      45.861  20.993  37.159  1.00  0.00    -0.237 OA
ATOM     81  O   UNL A   1      45.920  19.530  35.344  1.00  0.00    -0.237 OA
ATOM     82  O   UNL A   1      47.886  20.779  36.016  1.00  0.00    -0.744 OA
ENDBRANCH  78  79
ENDBRANCH  50  73
BRANCH  62  83
ATOM     83  C   UNL A   1      39.827  24.058  27.110  1.00  0.00    -0.014 A 
ATOM     84  C   UNL A   1      38.604  24.542  26.656  1.00  0.00     0.010 A 
ATOM     85  C   UNL A   1      40.066  22.671  26.947  1.00  0.00     0.010 A 
ATOM     86  C   UNL A   1      37.746  23.745  25.913  1.00  0.00     0.020 A 
ATOM     87  C   UNL A   1      39.183  21.839  26.271  1.00  0.00     0.020 A 
ATOM     88  C   UNL A   1      38.037  22.396  25.733  1.00  0.00     0.054 A 
BRANCH  88  89
ATOM     89  S   UNL A   1      36.808  21.380  24.914  1.00  0.00     0.124 S 
ATOM     90  O   UNL A   1      37.555  20.147  24.672  1.00  0.00    -0.237 OA
ATOM     91  O   UNL A   1      35.765  21.293  25.932  1.00  0.00    -0.237 OA
ATOM     92  O   UNL A   1      36.461  22.143  23.720  1.00  0.00    -0.744 OA
ENDBRANCH  88  89
ENDBRANCH  62  83
ENDBRANCH  36  37
ENDBRANCH  29  31
ENDBRANCH  28  29
ENDBRANCH   1  28
TORSDOF 16
ENDMDL
