MODEL 1
REMARK VINA RESULT:      -9.0      0.000      0.000
REMARK SMILES COc1cccc([C@H]2[NH2+][C@@](CC(C)C)(C(=O)OCCOC(=O)c3ccc(-c4c5nc(c(-c6ccc(S(=O)(=O)[O-])cc6)c6ccc([nH]6)c(-c6ccc(S(=O)(=O)[O-])cc6)c6nc(c(-c7ccc(S(=O)(=O)[O-])cc7)c7ccc4[nH]7)C=C6)C=C5)cc3)[C@H]3C(=O)N(C(C)C)C(=O)[C@H]23)c1O
REMARK SMILES IDX 19 1 18 2 17 3 15 4 16 5 10 6 8 7 9 8 92 9 83 12 90 13 84 14
REMARK SMILES IDX 86 15 91 16 85 17 7 18 3 19 4 20 93 21 5 22 6 23 2 24 1 25
REMARK SMILES IDX 94 26 11 28 12 29 13 30 14 31 87 32 88 33 89 34 20 35 21 36
REMARK SMILES IDX 22 37 23 38 24 39 82 40 25 41 81 42 26 43 27 44 28 45 75 46
REMARK SMILES IDX 29 47 80 48 74 49 76 50 30 51 79 52 73 53 72 54 31 56 61 57
REMARK SMILES IDX 42 58 60 59 43 60 46 61 59 62 77 63 44 64 45 65 58 67 78 68
REMARK SMILES IDX 47 69 32 70 33 71 41 72 34 73 40 74 35 75 36 76 37 77 38 78
REMARK SMILES IDX 39 79 62 80 63 81 71 82 64 83 70 84 65 85 66 86 67 87 68 88
REMARK SMILES IDX 69 89 48 90 49 91 57 92 50 93 56 94 51 95 52 96 53 97 54 98
REMARK SMILES IDX 55 99
REMARK H PARENT 9 10 9 11 94 27 76 55 46 66
REMARK Flexibility Score: inf
ROOT
ATOM      1  C   UNL A   1      42.119  25.897  25.373  1.00  0.00     0.275 C 
ENDROOT
BRANCH   1   2
ATOM      2  C   UNL A   1      43.320  26.840  25.484  1.00  0.00     0.274 C 
BRANCH   2   3
ATOM      3  O   UNL A   1      44.462  26.311  24.786  1.00  0.00    -0.457 OA
BRANCH   3   4
ATOM      4  C   UNL A   1      45.660  26.895  25.016  1.00  0.00     0.369 C 
ATOM      5  O   UNL A   1      45.854  28.089  24.816  1.00  0.00    -0.245 OA
BRANCH   4   6
ATOM      6  C   UNL A   1      46.761  25.884  25.511  1.00  0.00     0.207 C 
ATOM      7  C   UNL A   1      45.837  24.331  27.266  1.00  0.00     0.232 C 
ATOM      8  N   UNL A   1      46.077  24.513  25.795  1.00  0.00    -0.324 N 
ATOM      9  C   UNL A   1      46.080  25.714  27.742  1.00  0.00     0.161 C 
ATOM     10  H   UNL A   1      45.183  24.476  25.303  1.00  0.00     0.347 HD
ATOM     11  H   UNL A   1      46.691  23.767  25.469  1.00  0.00     0.347 HD
ATOM     12  C   UNL A   1      47.247  26.214  26.914  1.00  0.00     0.171 C 
ATOM     13  C   UNL A   1      46.506  26.049  29.119  1.00  0.00     0.240 C 
ATOM     14  C   UNL A   1      47.364  27.543  27.621  1.00  0.00     0.240 C 
ATOM     15  N   UNL A   1      47.104  27.284  28.959  1.00  0.00    -0.279 N 
ATOM     16  O   UNL A   1      46.283  25.430  30.138  1.00  0.00    -0.274 OA
ATOM     17  O   UNL A   1      47.696  28.608  27.136  1.00  0.00    -0.274 OA
BRANCH   7  18
ATOM     18  C   UNL A   1      44.498  23.700  27.637  1.00  0.00     0.056 A 
ATOM     19  C   UNL A   1      42.726  21.986  27.476  1.00  0.00     0.161 A 
ATOM     20  C   UNL A   1      41.883  22.765  28.257  1.00  0.00     0.050 A 
ATOM     21  C   UNL A   1      43.993  22.482  27.125  1.00  0.00     0.166 A 
ATOM     22  C   UNL A   1      42.329  23.989  28.753  1.00  0.00     0.005 A 
ATOM     23  C   UNL A   1      43.624  24.441  28.460  1.00  0.00     0.014 A 
BRANCH  19  24
ATOM     24  O   UNL A   1      42.203  20.814  26.991  1.00  0.00    -0.493 OA
ATOM     25  C   UNL A   1      40.789  20.652  27.141  1.00  0.00     0.278 C 
ENDBRANCH  19  24
BRANCH  21  26
ATOM     26  O   UNL A   1      44.677  21.794  26.158  1.00  0.00    -0.504 OA
ATOM     27  H   UNL A   1      44.209  21.281  25.529  1.00  0.00     0.293 HD
ENDBRANCH  21  26
ENDBRANCH   7  18
BRANCH   6  28
ATOM     28  C   UNL A   1      47.899  25.587  24.474  1.00  0.00     0.085 C 
BRANCH  28  29
ATOM     29  C   UNL A   1      48.931  26.663  24.034  1.00  0.00    -0.011 C 
ATOM     30  C   UNL A   1      50.315  26.515  24.647  1.00  0.00     0.007 C 
ATOM     31  C   UNL A   1      49.063  26.700  22.506  1.00  0.00     0.007 C 
ENDBRANCH  28  29
ENDBRANCH   6  28
BRANCH  15  32
ATOM     32  C   UNL A   1      47.225  28.263  30.026  1.00  0.00     0.087 C 
ATOM     33  C   UNL A   1      45.858  28.511  30.669  1.00  0.00     0.031 C 
ATOM     34  C   UNL A   1      48.260  27.856  31.071  1.00  0.00     0.031 C 
ENDBRANCH  15  32
ENDBRANCH   4   6
ENDBRANCH   3   4
ENDBRANCH   2   3
ENDBRANCH   1   2
BRANCH   1  35
ATOM     35  O   UNL A   1      40.885  26.571  25.686  1.00  0.00    -0.458 OA
BRANCH  35  36
ATOM     36  C   UNL A   1      40.085  25.929  26.569  1.00  0.00     0.338 C 
ATOM     37  O   UNL A   1      39.612  24.811  26.454  1.00  0.00    -0.246 OA
BRANCH  36  38
ATOM     38  C   UNL A   1      39.970  26.727  27.801  1.00  0.00     0.060 A 
ATOM     39  C   UNL A   1      40.637  27.944  27.825  1.00  0.00     0.016 A 
ATOM     40  C   UNL A   1      39.319  26.271  28.946  1.00  0.00     0.016 A 
ATOM     41  C   UNL A   1      40.704  28.692  28.987  1.00  0.00     0.010 A 
ATOM     42  C   UNL A   1      39.357  27.048  30.118  1.00  0.00     0.010 A 
ATOM     43  C   UNL A   1      40.069  28.261  30.149  1.00  0.00    -0.014 A 
BRANCH  43  44
ATOM     44  C   UNL A   1      40.242  29.085  31.372  1.00  0.00     0.031 A 
ATOM     45  C   UNL A   1      39.164  30.043  31.782  1.00  0.00     0.074 A 
ATOM     46  C   UNL A   1      41.295  28.870  32.185  1.00  0.00     0.049 A 
ATOM     47  N   UNL A   1      39.131  30.851  32.809  1.00  0.00    -0.248 NA
ATOM     48  C   UNL A   1      37.970  30.109  30.923  1.00  0.00     0.031 C 
ATOM     49  C   UNL A   1      42.354  27.891  31.935  1.00  0.00     0.029 A 
ATOM     50  N   UNL A   1      41.619  29.402  33.410  1.00  0.00    -0.354 N 
ATOM     51  C   UNL A   1      37.962  31.589  32.670  1.00  0.00     0.074 A 
ATOM     52  C   UNL A   1      37.289  31.097  31.487  1.00  0.00     0.031 C 
ATOM     53  C   UNL A   1      43.152  27.829  33.012  1.00  0.00     0.029 A 
ATOM     54  C   UNL A   1      42.708  28.799  34.003  1.00  0.00     0.049 A 
ATOM     55  H   UNL A   1      41.122  30.142  33.824  1.00  0.00     0.167 HD
ATOM     56  C   UNL A   1      37.525  32.615  33.438  1.00  0.00     0.031 A 
ATOM     57  C   UNL A   1      43.275  28.997  35.211  1.00  0.00     0.031 A 
ATOM     58  C   UNL A   1      38.204  33.081  34.619  1.00  0.00     0.049 A 
ATOM     59  C   UNL A   1      42.746  30.119  36.066  1.00  0.00     0.074 A 
ATOM     60  C   UNL A   1      37.887  34.158  35.428  1.00  0.00     0.029 A 
ATOM     61  N   UNL A   1      39.334  32.490  35.169  1.00  0.00    -0.354 N 
ATOM     62  N   UNL A   1      41.694  30.878  35.871  1.00  0.00    -0.248 NA
ATOM     63  C   UNL A   1      43.510  30.445  37.278  1.00  0.00     0.031 C 
ATOM     64  C   UNL A   1      38.856  34.252  36.431  1.00  0.00     0.029 A 
ATOM     65  C   UNL A   1      39.736  33.190  36.294  1.00  0.00     0.049 A 
ATOM     66  H   UNL A   1      39.783  31.690  34.811  1.00  0.00     0.167 HD
ATOM     67  C   UNL A   1      41.685  31.789  36.922  1.00  0.00     0.074 A 
ATOM     68  C   UNL A   1      42.796  31.442  37.784  1.00  0.00     0.031 C 
ATOM     69  C   UNL A   1      40.854  32.839  37.133  1.00  0.00     0.031 A 
BRANCH  56  70
ATOM     70  C   UNL A   1      36.323  33.379  32.947  1.00  0.00    -0.014 A 
ATOM     71  C   UNL A   1      36.398  34.300  31.888  1.00  0.00     0.010 A 
ATOM     72  C   UNL A   1      35.082  33.153  33.573  1.00  0.00     0.010 A 
ATOM     73  C   UNL A   1      35.259  35.010  31.492  1.00  0.00     0.020 A 
ATOM     74  C   UNL A   1      33.936  33.837  33.160  1.00  0.00     0.020 A 
ATOM     75  C   UNL A   1      34.036  34.776  32.133  1.00  0.00     0.054 A 
BRANCH  75  76
ATOM     76  S   UNL A   1      32.574  35.701  31.592  1.00  0.00     0.124 S 
ATOM     77  O   UNL A   1      33.008  37.085  31.773  1.00  0.00    -0.237 OA
ATOM     78  O   UNL A   1      32.417  35.269  30.206  1.00  0.00    -0.237 OA
ATOM     79  O   UNL A   1      31.523  35.256  32.504  1.00  0.00    -0.744 OA
ENDBRANCH  75  76
ENDBRANCH  56  70
BRANCH  57  80
ATOM     80  C   UNL A   1      44.416  28.152  35.680  1.00  0.00    -0.014 A 
ATOM     81  C   UNL A   1      45.745  28.535  35.416  1.00  0.00     0.010 A 
ATOM     82  C   UNL A   1      44.192  26.952  36.380  1.00  0.00     0.010 A 
ATOM     83  C   UNL A   1      46.818  27.732  35.824  1.00  0.00     0.020 A 
ATOM     84  C   UNL A   1      45.261  26.170  36.830  1.00  0.00     0.020 A 
ATOM     85  C   UNL A   1      46.568  26.555  36.532  1.00  0.00     0.054 A 
BRANCH  85  86
ATOM     86  S   UNL A   1      47.968  25.544  37.093  1.00  0.00     0.124 S 
ATOM     87  O   UNL A   1      48.910  26.558  37.552  1.00  0.00    -0.237 OA
ATOM     88  O   UNL A   1      47.369  24.717  38.137  1.00  0.00    -0.237 OA
ATOM     89  O   UNL A   1      48.366  24.819  35.888  1.00  0.00    -0.744 OA
ENDBRANCH  85  86
ENDBRANCH  57  80
BRANCH  69  90
ATOM     90  C   UNL A   1      41.121  33.699  38.342  1.00  0.00    -0.014 A 
ATOM     91  C   UNL A   1      40.557  33.388  39.592  1.00  0.00     0.010 A 
ATOM     92  C   UNL A   1      41.996  34.796  38.239  1.00  0.00     0.010 A 
ATOM     93  C   UNL A   1      40.835  34.177  40.711  1.00  0.00     0.020 A 
ATOM     94  C   UNL A   1      42.302  35.569  39.363  1.00  0.00     0.020 A 
ATOM     95  C   UNL A   1      41.708  35.263  40.589  1.00  0.00     0.054 A 
BRANCH  95  96
ATOM     96  S   UNL A   1      42.088  36.244  42.065  1.00  0.00     0.124 S 
ATOM     97  O   UNL A   1      42.100  37.604  41.533  1.00  0.00    -0.237 OA
ATOM     98  O   UNL A   1      40.974  35.927  42.956  1.00  0.00    -0.237 OA
ATOM     99  O   UNL A   1      43.389  35.733  42.496  1.00  0.00    -0.744 OA
ENDBRANCH  95  96
ENDBRANCH  69  90
ENDBRANCH  43  44
ENDBRANCH  36  38
ENDBRANCH  35  36
ENDBRANCH   1  35
TORSDOF 20
ENDMDL
MODEL 2
REMARK VINA RESULT:      -8.9      7.074     12.812
REMARK SMILES COc1cccc([C@H]2[NH2+][C@@](CC(C)C)(C(=O)OCCOC(=O)c3ccc(-c4c5nc(c(-c6ccc(S(=O)(=O)[O-])cc6)c6ccc([nH]6)c(-c6ccc(S(=O)(=O)[O-])cc6)c6nc(c(-c7ccc(S(=O)(=O)[O-])cc7)c7ccc4[nH]7)C=C6)C=C5)cc3)[C@H]3C(=O)N(C(C)C)C(=O)[C@H]23)c1O
REMARK SMILES IDX 19 1 18 2 17 3 15 4 16 5 10 6 8 7 9 8 92 9 83 12 90 13 84 14
REMARK SMILES IDX 86 15 91 16 85 17 7 18 3 19 4 20 93 21 5 22 6 23 2 24 1 25
REMARK SMILES IDX 94 26 11 28 12 29 13 30 14 31 87 32 88 33 89 34 20 35 21 36
REMARK SMILES IDX 22 37 23 38 24 39 82 40 25 41 81 42 26 43 27 44 28 45 75 46
REMARK SMILES IDX 29 47 80 48 74 49 76 50 30 51 79 52 73 53 72 54 31 56 61 57
REMARK SMILES IDX 42 58 60 59 43 60 46 61 59 62 77 63 44 64 45 65 58 67 78 68
REMARK SMILES IDX 47 69 32 70 33 71 41 72 34 73 40 74 35 75 36 76 37 77 38 78
REMARK SMILES IDX 39 79 62 80 63 81 71 82 64 83 70 84 65 85 66 86 67 87 68 88
REMARK SMILES IDX 69 89 48 90 49 91 57 92 50 93 56 94 51 95 52 96 53 97 54 98
REMARK SMILES IDX 55 99
REMARK H PARENT 9 10 9 11 94 27 76 55 46 66
REMARK Flexibility Score: inf
ROOT
ATOM      1  C   UNL A   1      48.167  38.451  31.159  1.00  0.00     0.275 C 
ENDROOT
BRANCH   1   2
ATOM      2  C   UNL A   1      47.505  39.006  29.895  1.00  0.00     0.274 C 
BRANCH   2   3
ATOM      3  O   UNL A   1      46.405  38.176  29.479  1.00  0.00    -0.457 OA
BRANCH   3   4
ATOM      4  C   UNL A   1      45.246  38.794  29.152  1.00  0.00     0.369 C 
ATOM      5  O   UNL A   1      44.777  39.702  29.829  1.00  0.00    -0.245 OA
BRANCH   4   6
ATOM      6  C   UNL A   1      44.563  38.196  27.866  1.00  0.00     0.207 C 
ATOM      7  C   UNL A   1      46.288  37.529  26.154  1.00  0.00     0.232 C 
ATOM      8  N   UNL A   1      45.466  37.050  27.317  1.00  0.00    -0.324 N 
ATOM      9  C   UNL A   1      46.084  38.993  26.279  1.00  0.00     0.161 C 
ATOM     10  H   UNL A   1      46.091  36.731  28.059  1.00  0.00     0.347 HD
ATOM     11  H   UNL A   1      44.870  36.285  27.003  1.00  0.00     0.347 HD
ATOM     12  C   UNL A   1      44.634  39.154  26.687  1.00  0.00     0.171 C 
ATOM     13  C   UNL A   1      46.199  39.940  25.146  1.00  0.00     0.240 C 
ATOM     14  C   UNL A   1      44.643  40.663  26.653  1.00  0.00     0.240 C 
ATOM     15  N   UNL A   1      45.440  41.012  25.571  1.00  0.00    -0.279 N 
ATOM     16  O   UNL A   1      46.880  39.827  24.150  1.00  0.00    -0.274 OA
ATOM     17  O   UNL A   1      44.019  41.420  27.373  1.00  0.00    -0.274 OA
BRANCH   7  18
ATOM     18  C   UNL A   1      47.731  37.034  26.126  1.00  0.00     0.056 A 
ATOM     19  C   UNL A   1      49.524  35.441  25.534  1.00  0.00     0.161 A 
ATOM     20  C   UNL A   1      50.417  36.124  26.349  1.00  0.00     0.050 A 
ATOM     21  C   UNL A   1      48.185  35.862  25.477  1.00  0.00     0.166 A 
ATOM     22  C   UNL A   1      50.001  37.265  27.034  1.00  0.00     0.005 A 
ATOM     23  C   UNL A   1      48.681  37.722  26.909  1.00  0.00     0.014 A 
BRANCH  19  24
ATOM     24  O   UNL A   1      49.995  34.306  24.925  1.00  0.00    -0.493 OA
ATOM     25  C   UNL A   1      50.880  33.498  25.708  1.00  0.00     0.278 C 
ENDBRANCH  19  24
BRANCH  21  26
ATOM     26  O   UNL A   1      47.300  35.015  24.866  1.00  0.00    -0.504 OA
ATOM     27  H   UNL A   1      46.405  34.994  25.142  1.00  0.00     0.293 HD
ENDBRANCH  21  26
ENDBRANCH   7  18
BRANCH   6  28
ATOM     28  C   UNL A   1      43.154  37.551  28.106  1.00  0.00     0.085 C 
BRANCH  28  29
ATOM     29  C   UNL A   1      42.976  36.088  28.597  1.00  0.00    -0.011 C 
ATOM     30  C   UNL A   1      43.418  35.832  30.030  1.00  0.00     0.007 C 
ATOM     31  C   UNL A   1      41.521  35.630  28.434  1.00  0.00     0.007 C 
ENDBRANCH  28  29
ENDBRANCH   6  28
BRANCH  15  32
ATOM     32  C   UNL A   1      45.631  42.372  25.094  1.00  0.00     0.087 C 
ATOM     33  C   UNL A   1      47.103  42.772  25.222  1.00  0.00     0.031 C 
ATOM     34  C   UNL A   1      45.131  42.559  23.665  1.00  0.00     0.031 C 
ENDBRANCH  15  32
ENDBRANCH   4   6
ENDBRANCH   3   4
ENDBRANCH   2   3
ENDBRANCH   1   2
BRANCH   1  35
ATOM     35  O   UNL A   1      47.861  37.056  31.349  1.00  0.00    -0.458 OA
BRANCH  35  36
ATOM     36  C   UNL A   1      48.715  36.191  30.756  1.00  0.00     0.338 C 
ATOM     37  O   UNL A   1      49.932  36.274  30.712  1.00  0.00    -0.246 OA
BRANCH  36  38
ATOM     38  C   UNL A   1      47.973  35.014  30.275  1.00  0.00     0.060 A 
ATOM     39  C   UNL A   1      47.625  34.062  31.223  1.00  0.00     0.016 A 
ATOM     40  C   UNL A   1      47.704  34.781  28.927  1.00  0.00     0.016 A 
ATOM     41  C   UNL A   1      47.055  32.860  30.842  1.00  0.00     0.010 A 
ATOM     42  C   UNL A   1      47.094  33.574  28.543  1.00  0.00     0.010 A 
ATOM     43  C   UNL A   1      46.780  32.594  29.502  1.00  0.00    -0.014 A 
BRANCH  43  44
ATOM     44  C   UNL A   1      46.229  31.257  29.167  1.00  0.00     0.031 A 
ATOM     45  C   UNL A   1      44.745  31.048  29.142  1.00  0.00     0.074 A 
ATOM     46  C   UNL A   1      47.054  30.276  28.748  1.00  0.00     0.049 A 
ATOM     47  N   UNL A   1      44.073  29.957  28.880  1.00  0.00    -0.248 NA
ATOM     48  C   UNL A   1      43.904  32.213  29.461  1.00  0.00     0.031 C 
ATOM     49  C   UNL A   1      48.507  30.400  28.638  1.00  0.00     0.029 A 
ATOM     50  N   UNL A   1      46.793  29.012  28.275  1.00  0.00    -0.354 N 
ATOM     51  C   UNL A   1      42.738  30.277  29.094  1.00  0.00     0.074 A 
ATOM     52  C   UNL A   1      42.692  31.677  29.459  1.00  0.00     0.031 C 
ATOM     53  C   UNL A   1      48.995  29.299  28.046  1.00  0.00     0.029 A 
ATOM     54  C   UNL A   1      47.907  28.364  27.789  1.00  0.00     0.049 A 
ATOM     55  H   UNL A   1      45.895  28.609  28.283  1.00  0.00     0.167 HD
ATOM     56  C   UNL A   1      41.663  29.457  29.037  1.00  0.00     0.031 A 
ATOM     57  C   UNL A   1      48.037  27.160  27.194  1.00  0.00     0.031 A 
ATOM     58  C   UNL A   1      41.730  28.068  28.659  1.00  0.00     0.049 A 
ATOM     59  C   UNL A   1      46.818  26.279  27.105  1.00  0.00     0.074 A 
ATOM     60  C   UNL A   1      40.714  27.130  28.638  1.00  0.00     0.029 A 
ATOM     61  N   UNL A   1      42.879  27.421  28.223  1.00  0.00    -0.354 N 
ATOM     62  N   UNL A   1      45.573  26.562  27.407  1.00  0.00    -0.248 NA
ATOM     63  C   UNL A   1      47.028  24.900  26.643  1.00  0.00     0.031 C 
ATOM     64  C   UNL A   1      41.259  25.903  28.247  1.00  0.00     0.029 A 
ATOM     65  C   UNL A   1      42.599  26.092  27.950  1.00  0.00     0.049 A 
ATOM     66  H   UNL A   1      43.762  27.844  28.124  1.00  0.00     0.167 HD
ATOM     67  C   UNL A   1      44.857  25.389  27.197  1.00  0.00     0.074 A 
ATOM     68  C   UNL A   1      45.794  24.415  26.679  1.00  0.00     0.031 C 
ATOM     69  C   UNL A   1      43.549  25.132  27.447  1.00  0.00     0.031 A 
BRANCH  56  70
ATOM     70  C   UNL A   1      40.347  30.011  29.514  1.00  0.00    -0.014 A 
ATOM     71  C   UNL A   1      39.289  30.302  28.636  1.00  0.00     0.010 A 
ATOM     72  C   UNL A   1      40.174  30.237  30.894  1.00  0.00     0.010 A 
ATOM     73  C   UNL A   1      38.098  30.848  29.127  1.00  0.00     0.020 A 
ATOM     74  C   UNL A   1      38.975  30.753  31.391  1.00  0.00     0.020 A 
ATOM     75  C   UNL A   1      37.950  31.073  30.500  1.00  0.00     0.054 A 
BRANCH  75  76
ATOM     76  S   UNL A   1      36.391  31.771  31.110  1.00  0.00     0.124 S 
ATOM     77  O   UNL A   1      36.074  30.875  32.219  1.00  0.00    -0.237 OA
ATOM     78  O   UNL A   1      36.775  33.129  31.488  1.00  0.00    -0.237 OA
ATOM     79  O   UNL A   1      35.494  31.677  29.960  1.00  0.00    -0.744 OA
ENDBRANCH  75  76
ENDBRANCH  56  70
BRANCH  57  80
ATOM     80  C   UNL A   1      49.355  26.694  26.664  1.00  0.00    -0.014 A 
ATOM     81  C   UNL A   1      49.768  27.045  25.365  1.00  0.00     0.010 A 
ATOM     82  C   UNL A   1      50.206  25.886  27.442  1.00  0.00     0.010 A 
ATOM     83  C   UNL A   1      50.987  26.586  24.850  1.00  0.00     0.020 A 
ATOM     84  C   UNL A   1      51.445  25.462  26.949  1.00  0.00     0.020 A 
ATOM     85  C   UNL A   1      51.820  25.799  25.649  1.00  0.00     0.054 A 
BRANCH  85  86
ATOM     86  S   UNL A   1      53.417  25.245  24.986  1.00  0.00     0.124 S 
ATOM     87  O   UNL A   1      53.315  25.633  23.584  1.00  0.00    -0.237 OA
ATOM     88  O   UNL A   1      54.377  26.003  25.785  1.00  0.00    -0.237 OA
ATOM     89  O   UNL A   1      53.408  23.805  25.240  1.00  0.00    -0.744 OA
ENDBRANCH  85  86
ENDBRANCH  57  80
BRANCH  69  90
ATOM     90  C   UNL A   1      43.055  23.735  27.172  1.00  0.00    -0.014 A 
ATOM     91  C   UNL A   1      42.633  23.355  25.884  1.00  0.00     0.010 A 
ATOM     92  C   UNL A   1      43.071  22.773  28.198  1.00  0.00     0.010 A 
ATOM     93  C   UNL A   1      42.205  22.049  25.636  1.00  0.00     0.020 A 
ATOM     94  C   UNL A   1      42.672  21.457  27.946  1.00  0.00     0.020 A 
ATOM     95  C   UNL A   1      42.228  21.107  26.669  1.00  0.00     0.054 A 
BRANCH  95  96
ATOM     96  S   UNL A   1      41.710  19.408  26.309  1.00  0.00     0.124 S 
ATOM     97  O   UNL A   1      42.122  18.700  27.519  1.00  0.00    -0.237 OA
ATOM     98  O   UNL A   1      40.267  19.546  26.122  1.00  0.00    -0.237 OA
ATOM     99  O   UNL A   1      42.459  19.064  25.102  1.00  0.00    -0.744 OA
ENDBRANCH  95  96
ENDBRANCH  69  90
ENDBRANCH  43  44
ENDBRANCH  36  38
ENDBRANCH  35  36
ENDBRANCH   1  35
TORSDOF 20
ENDMDL
MODEL 3
REMARK VINA RESULT:      -8.9      1.885      2.864
REMARK SMILES COc1cccc([C@H]2[NH2+][C@@](CC(C)C)(C(=O)OCCOC(=O)c3ccc(-c4c5nc(c(-c6ccc(S(=O)(=O)[O-])cc6)c6ccc([nH]6)c(-c6ccc(S(=O)(=O)[O-])cc6)c6nc(c(-c7ccc(S(=O)(=O)[O-])cc7)c7ccc4[nH]7)C=C6)C=C5)cc3)[C@H]3C(=O)N(C(C)C)C(=O)[C@H]23)c1O
REMARK SMILES IDX 19 1 18 2 17 3 15 4 16 5 10 6 8 7 9 8 92 9 83 12 90 13 84 14
REMARK SMILES IDX 86 15 91 16 85 17 7 18 3 19 4 20 93 21 5 22 6 23 2 24 1 25
REMARK SMILES IDX 94 26 11 28 12 29 13 30 14 31 87 32 88 33 89 34 20 35 21 36
REMARK SMILES IDX 22 37 23 38 24 39 82 40 25 41 81 42 26 43 27 44 28 45 75 46
REMARK SMILES IDX 29 47 80 48 74 49 76 50 30 51 79 52 73 53 72 54 31 56 61 57
REMARK SMILES IDX 42 58 60 59 43 60 46 61 59 62 77 63 44 64 45 65 58 67 78 68
REMARK SMILES IDX 47 69 32 70 33 71 41 72 34 73 40 74 35 75 36 76 37 77 38 78
REMARK SMILES IDX 39 79 62 80 63 81 71 82 64 83 70 84 65 85 66 86 67 87 68 88
REMARK SMILES IDX 69 89 48 90 49 91 57 92 50 93 56 94 51 95 52 96 53 97 54 98
REMARK SMILES IDX 55 99
REMARK H PARENT 9 10 9 11 94 27 76 55 46 66
REMARK Flexibility Score: inf
ROOT
ATOM      1  C   UNL A   1      43.963  24.593  25.806  1.00  0.00     0.275 C 
ENDROOT
BRANCH   1   2
ATOM      2  C   UNL A   1      44.536  25.929  25.327  1.00  0.00     0.274 C 
BRANCH   2   3
ATOM      3  O   UNL A   1      45.751  26.252  26.028  1.00  0.00    -0.457 OA
BRANCH   3   4
ATOM      4  C   UNL A   1      46.476  27.300  25.571  1.00  0.00     0.369 C 
ATOM      5  O   UNL A   1      46.272  27.805  24.473  1.00  0.00    -0.245 OA
BRANCH   4   6
ATOM      6  C   UNL A   1      47.611  27.752  26.564  1.00  0.00     0.207 C 
ATOM      7  C   UNL A   1      46.888  27.458  28.959  1.00  0.00     0.232 C 
ATOM      8  N   UNL A   1      47.588  26.805  27.802  1.00  0.00    -0.324 N 
ATOM      9  C   UNL A   1      46.249  28.602  28.265  1.00  0.00     0.161 C 
ATOM     10  H   UNL A   1      47.098  25.945  27.556  1.00  0.00     0.347 HD
ATOM     11  H   UNL A   1      48.549  26.600  28.075  1.00  0.00     0.347 HD
ATOM     12  C   UNL A   1      47.275  29.067  27.251  1.00  0.00     0.171 C 
ATOM     13  C   UNL A   1      45.875  29.868  28.935  1.00  0.00     0.240 C 
ATOM     14  C   UNL A   1      46.470  30.246  26.764  1.00  0.00     0.240 C 
ATOM     15  N   UNL A   1      45.843  30.767  27.888  1.00  0.00    -0.279 N 
ATOM     16  O   UNL A   1      45.572  30.031  30.098  1.00  0.00    -0.274 OA
ATOM     17  O   UNL A   1      46.437  30.701  25.635  1.00  0.00    -0.274 OA
BRANCH   7  18
ATOM     18  C   UNL A   1      45.970  26.544  29.767  1.00  0.00     0.056 A 
ATOM     19  C   UNL A   1      45.385  25.136  31.711  1.00  0.00     0.161 A 
ATOM     20  C   UNL A   1      44.253  24.673  31.051  1.00  0.00     0.050 A 
ATOM     21  C   UNL A   1      46.259  26.012  31.046  1.00  0.00     0.166 A 
ATOM     22  C   UNL A   1      43.951  25.145  29.775  1.00  0.00     0.005 A 
ATOM     23  C   UNL A   1      44.789  26.080  29.150  1.00  0.00     0.014 A 
BRANCH  19  24
ATOM     24  O   UNL A   1      45.638  24.595  32.946  1.00  0.00    -0.493 OA
ATOM     25  C   UNL A   1      44.560  24.653  33.885  1.00  0.00     0.278 C 
ENDBRANCH  19  24
BRANCH  21  26
ATOM     26  O   UNL A   1      47.473  26.235  31.637  1.00  0.00    -0.504 OA
ATOM     27  H   UNL A   1      48.051  26.886  31.289  1.00  0.00     0.293 HD
ENDBRANCH  21  26
ENDBRANCH   7  18
BRANCH   6  28
ATOM     28  C   UNL A   1      49.066  27.665  25.986  1.00  0.00     0.085 C 
BRANCH  28  29
ATOM     29  C   UNL A   1      49.513  26.541  25.010  1.00  0.00    -0.011 C 
ATOM     30  C   UNL A   1      49.554  26.942  23.543  1.00  0.00     0.007 C 
ATOM     31  C   UNL A   1      50.883  25.981  25.414  1.00  0.00     0.007 C 
ENDBRANCH  28  29
ENDBRANCH   6  28
BRANCH  15  32
ATOM     32  C   UNL A   1      45.055  31.988  27.900  1.00  0.00     0.087 C 
ATOM     33  C   UNL A   1      43.578  31.659  28.137  1.00  0.00     0.031 C 
ATOM     34  C   UNL A   1      45.566  32.996  28.926  1.00  0.00     0.031 C 
ENDBRANCH  15  32
ENDBRANCH   4   6
ENDBRANCH   3   4
ENDBRANCH   2   3
ENDBRANCH   1   2
BRANCH   1  35
ATOM     35  O   UNL A   1      42.801  24.781  26.636  1.00  0.00    -0.458 OA
BRANCH  35  36
ATOM     36  C   UNL A   1      41.922  25.712  26.197  1.00  0.00     0.338 C 
ATOM     37  O   UNL A   1      41.434  25.794  25.082  1.00  0.00    -0.246 OA
BRANCH  36  38
ATOM     38  C   UNL A   1      41.500  26.563  27.322  1.00  0.00     0.060 A 
ATOM     39  C   UNL A   1      42.116  27.802  27.436  1.00  0.00     0.016 A 
ATOM     40  C   UNL A   1      40.607  26.140  28.305  1.00  0.00     0.016 A 
ATOM     41  C   UNL A   1      41.889  28.607  28.538  1.00  0.00     0.010 A 
ATOM     42  C   UNL A   1      40.350  26.973  29.409  1.00  0.00     0.010 A 
ATOM     43  C   UNL A   1      41.007  28.210  29.540  1.00  0.00    -0.014 A 
BRANCH  43  44
ATOM     44  C   UNL A   1      40.867  29.098  30.723  1.00  0.00     0.031 A 
ATOM     45  C   UNL A   1      39.692  30.024  30.822  1.00  0.00     0.074 A 
ATOM     46  C   UNL A   1      41.712  28.968  31.765  1.00  0.00     0.049 A 
ATOM     47  N   UNL A   1      39.398  30.878  31.768  1.00  0.00    -0.248 NA
ATOM     48  C   UNL A   1      38.727  29.996  29.712  1.00  0.00     0.031 C 
ATOM     49  C   UNL A   1      42.831  28.027  31.817  1.00  0.00     0.029 A 
ATOM     50  N   UNL A   1      41.728  29.570  33.000  1.00  0.00    -0.354 N 
ATOM     51  C   UNL A   1      38.269  31.555  31.325  1.00  0.00     0.074 A 
ATOM     52  C   UNL A   1      37.903  30.978  30.049  1.00  0.00     0.031 C 
ATOM     53  C   UNL A   1      43.362  28.050  33.049  1.00  0.00     0.029 A 
ATOM     54  C   UNL A   1      42.670  29.045  33.858  1.00  0.00     0.049 A 
ATOM     55  H   UNL A   1      41.124  30.306  33.248  1.00  0.00     0.167 HD
ATOM     56  C   UNL A   1      37.633  32.595  31.915  1.00  0.00     0.031 A 
ATOM     57  C   UNL A   1      42.938  29.325  35.150  1.00  0.00     0.031 A 
ATOM     58  C   UNL A   1      38.007  33.146  33.192  1.00  0.00     0.049 A 
ATOM     59  C   UNL A   1      42.191  30.460  35.798  1.00  0.00     0.074 A 
ATOM     60  C   UNL A   1      37.477  34.244  33.846  1.00  0.00     0.029 A 
ATOM     61  N   UNL A   1      38.999  32.632  34.017  1.00  0.00    -0.354 N 
ATOM     62  N   UNL A   1      41.187  31.162  35.327  1.00  0.00    -0.248 NA
ATOM     63  C   UNL A   1      42.643  30.877  37.133  1.00  0.00     0.031 C 
ATOM     64  C   UNL A   1      38.187  34.428  35.037  1.00  0.00     0.029 A 
ATOM     65  C   UNL A   1      39.109  33.402  35.163  1.00  0.00     0.049 A 
ATOM     66  H   UNL A   1      39.544  31.837  33.816  1.00  0.00     0.167 HD
ATOM     67  C   UNL A   1      40.907  32.119  36.296  1.00  0.00     0.074 A 
ATOM     68  C   UNL A   1      41.800  31.864  37.406  1.00  0.00     0.031 C 
ATOM     69  C   UNL A   1      40.015  33.140  36.254  1.00  0.00     0.031 A 
BRANCH  56  70
ATOM     70  C   UNL A   1      36.552  33.281  31.122  1.00  0.00    -0.014 A 
ATOM     71  C   UNL A   1      36.823  33.998  29.944  1.00  0.00     0.010 A 
ATOM     72  C   UNL A   1      35.223  33.191  31.580  1.00  0.00     0.010 A 
ATOM     73  C   UNL A   1      35.787  34.646  29.262  1.00  0.00     0.020 A 
ATOM     74  C   UNL A   1      34.182  33.811  30.885  1.00  0.00     0.020 A 
ATOM     75  C   UNL A   1      34.474  34.551  29.739  1.00  0.00     0.054 A 
BRANCH  75  76
ATOM     76  S   UNL A   1      33.150  35.391  28.829  1.00  0.00     0.124 S 
ATOM     77  O   UNL A   1      32.386  36.009  29.910  1.00  0.00    -0.237 OA
ATOM     78  O   UNL A   1      33.888  36.317  27.973  1.00  0.00    -0.237 OA
ATOM     79  O   UNL A   1      32.467  34.307  28.127  1.00  0.00    -0.744 OA
ENDBRANCH  75  76
ENDBRANCH  56  70
BRANCH  57  80
ATOM     80  C   UNL A   1      43.968  28.555  35.913  1.00  0.00    -0.014 A 
ATOM     81  C   UNL A   1      45.321  28.946  35.883  1.00  0.00     0.010 A 
ATOM     82  C   UNL A   1      43.616  27.418  36.665  1.00  0.00     0.010 A 
ATOM     83  C   UNL A   1      46.296  28.210  36.569  1.00  0.00     0.020 A 
ATOM     84  C   UNL A   1      44.579  26.706  37.388  1.00  0.00     0.020 A 
ATOM     85  C   UNL A   1      45.916  27.096  37.321  1.00  0.00     0.054 A 
BRANCH  85  86
ATOM     86  S   UNL A   1      47.183  26.175  38.240  1.00  0.00     0.124 S 
ATOM     87  O   UNL A   1      48.240  27.169  38.379  1.00  0.00    -0.237 OA
ATOM     88  O   UNL A   1      46.487  25.815  39.473  1.00  0.00    -0.237 OA
ATOM     89  O   UNL A   1      47.491  25.050  37.359  1.00  0.00    -0.744 OA
ENDBRANCH  85  86
ENDBRANCH  57  80
BRANCH  69  90
ATOM     90  C   UNL A   1      39.969  34.067  37.441  1.00  0.00    -0.014 A 
ATOM     91  C   UNL A   1      40.752  35.236  37.479  1.00  0.00     0.010 A 
ATOM     92  C   UNL A   1      39.088  33.798  38.504  1.00  0.00     0.010 A 
ATOM     93  C   UNL A   1      40.679  36.101  38.573  1.00  0.00     0.020 A 
ATOM     94  C   UNL A   1      38.990  34.677  39.587  1.00  0.00     0.020 A 
ATOM     95  C   UNL A   1      39.797  35.817  39.620  1.00  0.00     0.054 A 
BRANCH  95  96
ATOM     96  S   UNL A   1      39.689  36.979  41.007  1.00  0.00     0.124 S 
ATOM     97  O   UNL A   1      41.092  37.319  41.230  1.00  0.00    -0.237 OA
ATOM     98  O   UNL A   1      38.861  38.052  40.462  1.00  0.00    -0.237 OA
ATOM     99  O   UNL A   1      39.062  36.195  42.070  1.00  0.00    -0.744 OA
ENDBRANCH  95  96
ENDBRANCH  69  90
ENDBRANCH  43  44
ENDBRANCH  36  38
ENDBRANCH  35  36
ENDBRANCH   1  35
TORSDOF 20
ENDMDL
