MODEL 1
REMARK VINA RESULT:     -12.6      0.000      0.000
REMARK SMILES C/C(=N\NC(N)=O)c1nnn(-c2ccc(C(=O)OCCOC(=O)c3ccc(-c4c5nc(c(-c6ccc(S(=O)(=O)[O-])cc6)c6ccc([nH]6)c(-c6ccc(S(=O)(=O)[O-])cc6)c6nc(c(-c7ccc(S(=O)(=O)[O-])cc7)c7ccc4[nH]7)C=C6)C=C5)cc3)cc2)c1C
REMARK SMILES IDX 19 1 18 2 16 3 17 4 15 5 12 6 13 7 85 8 14 9 84 10 11 11
REMARK SMILES IDX 8 12 9 13 86 14 10 15 87 16 2 17 1 18 3 19 4 20 5 21 6 23
REMARK SMILES IDX 7 24 20 27 21 28 22 29 23 30 24 31 25 32 83 33 26 34 82 35
REMARK SMILES IDX 27 36 28 37 29 38 76 39 30 40 81 41 75 42 77 43 31 44 80 45
REMARK SMILES IDX 74 46 73 47 32 49 62 50 43 51 61 52 44 53 47 54 60 55 78 56
REMARK SMILES IDX 45 57 46 58 59 60 79 61 48 62 33 63 34 64 42 65 35 66 41 67
REMARK SMILES IDX 36 68 37 69 38 70 39 71 40 72 63 73 64 74 72 75 65 76 71 77
REMARK SMILES IDX 66 78 67 79 68 80 69 81 70 82 49 83 50 84 58 85 51 86 57 87
REMARK SMILES IDX 52 88 53 89 54 90 55 91 56 92
REMARK H PARENT 4 22 6 25 6 26 77 48 47 59
REMARK Flexibility Score: inf
ROOT
ATOM      1  C   UNL A   1      36.192  21.390  24.812  1.00  0.00     0.275 C 
ENDROOT
BRANCH   1   2
ATOM      2  O   UNL A   1      35.587  22.369  25.667  1.00  0.00    -0.458 OA
BRANCH   2   3
ATOM      3  C   UNL A   1      34.232  22.418  25.651  1.00  0.00     0.338 C 
ATOM      4  O   UNL A   1      33.470  21.461  25.677  1.00  0.00    -0.246 OA
BRANCH   3   5
ATOM      5  C   UNL A   1      33.772  23.829  25.639  1.00  0.00     0.060 A 
ATOM      6  C   UNL A   1      32.696  26.367  25.353  1.00  0.00     0.067 A 
ATOM      7  C   UNL A   1      32.036  25.446  26.169  1.00  0.00     0.029 A 
ATOM      8  C   UNL A   1      33.954  26.083  24.813  1.00  0.00     0.029 A 
ATOM      9  C   UNL A   1      32.571  24.161  26.289  1.00  0.00     0.018 A 
ATOM     10  C   UNL A   1      34.497  24.814  24.961  1.00  0.00     0.018 A 
BRANCH   6  11
ATOM     11  N   UNL A   1      32.002  27.498  24.881  1.00  0.00    -0.217 N 
ATOM     12  C   UNL A   1      30.669  28.809  23.767  1.00  0.00     0.132 A 
ATOM     13  N   UNL A   1      31.064  29.451  24.911  1.00  0.00    -0.128 NA
ATOM     14  C   UNL A   1      31.221  27.544  23.736  1.00  0.00     0.071 A 
ATOM     15  N   UNL A   1      31.799  28.606  25.625  1.00  0.00    -0.061 NA
ATOM     16  C   UNL A   1      30.948  26.388  22.847  1.00  0.00     0.069 C 
BRANCH  12  17
ATOM     17  C   UNL A   1      29.661  29.335  22.867  1.00  0.00     0.087 C 
ATOM     18  C   UNL A   1      28.301  28.687  22.943  1.00  0.00     0.071 C 
ATOM     19  N   UNL A   1      30.044  30.315  22.103  1.00  0.00    -0.174 NA
BRANCH  19  20
ATOM     20  N   UNL A   1      29.229  30.857  21.151  1.00  0.00    -0.229 N 
ATOM     21  C   UNL A   1      28.412  31.956  21.303  1.00  0.00     0.332 C 
ATOM     22  H   UNL A   1      29.225  30.420  20.268  1.00  0.00     0.195 HD
ATOM     23  N   UNL A   1      27.693  32.228  20.176  1.00  0.00    -0.350 N 
ATOM     24  O   UNL A   1      28.293  32.668  22.291  1.00  0.00    -0.247 OA
ATOM     25  H   UNL A   1      27.788  31.655  19.382  1.00  0.00     0.161 HD
ATOM     26  H   UNL A   1      27.079  32.997  20.159  1.00  0.00     0.161 HD
ENDBRANCH  19  20
ENDBRANCH  12  17
ENDBRANCH   6  11
ENDBRANCH   3   5
ENDBRANCH   2   3
ENDBRANCH   1   2
BRANCH   1  27
ATOM     27  C   UNL A   1      37.647  21.164  25.194  1.00  0.00     0.275 C 
BRANCH  27  28
ATOM     28  O   UNL A   1      38.175  22.261  25.939  1.00  0.00    -0.458 OA
BRANCH  28  29
ATOM     29  C   UNL A   1      39.439  22.086  26.385  1.00  0.00     0.338 C 
ATOM     30  O   UNL A   1      39.988  21.031  26.659  1.00  0.00    -0.246 OA
BRANCH  29  31
ATOM     31  C   UNL A   1      40.007  23.388  26.738  1.00  0.00     0.060 A 
ATOM     32  C   UNL A   1      41.069  23.415  27.645  1.00  0.00     0.016 A 
ATOM     33  C   UNL A   1      39.305  24.550  26.383  1.00  0.00     0.016 A 
ATOM     34  C   UNL A   1      41.346  24.599  28.298  1.00  0.00     0.010 A 
ATOM     35  C   UNL A   1      39.569  25.722  27.049  1.00  0.00     0.010 A 
ATOM     36  C   UNL A   1      40.549  25.722  28.039  1.00  0.00    -0.014 A 
BRANCH  36  37
ATOM     37  C   UNL A   1      40.868  26.964  28.712  1.00  0.00     0.031 A 
ATOM     38  C   UNL A   1      42.056  27.635  28.135  1.00  0.00     0.074 A 
ATOM     39  C   UNL A   1      40.080  27.523  29.649  1.00  0.00     0.049 A 
ATOM     40  N   UNL A   1      43.210  27.805  28.688  1.00  0.00    -0.248 NA
ATOM     41  C   UNL A   1      42.012  27.995  26.707  1.00  0.00     0.031 C 
ATOM     42  C   UNL A   1      38.741  27.100  30.069  1.00  0.00     0.029 A 
ATOM     43  N   UNL A   1      40.267  28.678  30.340  1.00  0.00    -0.354 N 
ATOM     44  C   UNL A   1      43.967  28.504  27.755  1.00  0.00     0.074 A 
ATOM     45  C   UNL A   1      43.262  28.408  26.503  1.00  0.00     0.031 C 
ATOM     46  C   UNL A   1      38.152  28.110  30.751  1.00  0.00     0.029 A 
ATOM     47  C   UNL A   1      39.113  29.188  30.926  1.00  0.00     0.049 A 
ATOM     48  H   UNL A   1      41.144  29.118  30.419  1.00  0.00     0.167 HD
ATOM     49  C   UNL A   1      44.965  29.343  28.142  1.00  0.00     0.031 A 
ATOM     50  C   UNL A   1      38.951  30.434  31.441  1.00  0.00     0.031 A 
ATOM     51  C   UNL A   1      45.355  29.113  29.508  1.00  0.00     0.049 A 
ATOM     52  C   UNL A   1      40.307  30.978  31.705  1.00  0.00     0.074 A 
ATOM     53  C   UNL A   1      45.849  28.031  30.211  1.00  0.00     0.029 A 
ATOM     54  N   UNL A   1      44.870  29.992  30.448  1.00  0.00    -0.354 N 
ATOM     55  N   UNL A   1      41.111  30.501  32.613  1.00  0.00    -0.248 NA
ATOM     56  C   UNL A   1      40.946  31.765  30.660  1.00  0.00     0.031 C 
ATOM     57  C   UNL A   1      45.228  28.107  31.490  1.00  0.00     0.029 A 
ATOM     58  C   UNL A   1      44.444  29.263  31.525  1.00  0.00     0.049 A 
ATOM     59  H   UNL A   1      44.835  30.972  30.361  1.00  0.00     0.167 HD
ATOM     60  C   UNL A   1      42.370  30.545  32.031  1.00  0.00     0.074 A 
ATOM     61  C   UNL A   1      42.221  31.424  30.873  1.00  0.00     0.031 C 
ATOM     62  C   UNL A   1      43.339  29.647  32.379  1.00  0.00     0.031 A 
BRANCH  49  63
ATOM     63  C   UNL A   1      45.258  30.645  27.437  1.00  0.00    -0.014 A 
ATOM     64  C   UNL A   1      46.576  30.896  27.006  1.00  0.00     0.010 A 
ATOM     65  C   UNL A   1      44.367  31.740  27.444  1.00  0.00     0.010 A 
ATOM     66  C   UNL A   1      46.997  32.191  26.679  1.00  0.00     0.020 A 
ATOM     67  C   UNL A   1      44.765  33.025  27.075  1.00  0.00     0.020 A 
ATOM     68  C   UNL A   1      46.088  33.249  26.730  1.00  0.00     0.054 A 
BRANCH  68  69
ATOM     69  S   UNL A   1      46.665  34.930  26.404  1.00  0.00     0.124 S 
ATOM     70  O   UNL A   1      47.220  34.802  25.060  1.00  0.00    -0.237 OA
ATOM     71  O   UNL A   1      45.432  35.704  26.513  1.00  0.00    -0.237 OA
ATOM     72  O   UNL A   1      47.640  35.168  27.466  1.00  0.00    -0.744 OA
ENDBRANCH  68  69
ENDBRANCH  49  63
BRANCH  50  73
ATOM     73  C   UNL A   1      37.742  31.297  31.413  1.00  0.00    -0.014 A 
ATOM     74  C   UNL A   1      36.698  31.109  32.342  1.00  0.00     0.010 A 
ATOM     75  C   UNL A   1      37.739  32.492  30.666  1.00  0.00     0.010 A 
ATOM     76  C   UNL A   1      35.736  32.110  32.567  1.00  0.00     0.020 A 
ATOM     77  C   UNL A   1      36.778  33.490  30.876  1.00  0.00     0.020 A 
ATOM     78  C   UNL A   1      35.797  33.306  31.847  1.00  0.00     0.054 A 
BRANCH  78  79
ATOM     79  S   UNL A   1      34.676  34.671  32.278  1.00  0.00     0.124 S 
ATOM     80  O   UNL A   1      35.551  35.570  33.024  1.00  0.00    -0.237 OA
ATOM     81  O   UNL A   1      34.243  35.153  30.969  1.00  0.00    -0.237 OA
ATOM     82  O   UNL A   1      33.633  34.022  33.070  1.00  0.00    -0.744 OA
ENDBRANCH  78  79
ENDBRANCH  50  73
BRANCH  62  83
ATOM     83  C   UNL A   1      43.150  28.829  33.634  1.00  0.00    -0.014 A 
ATOM     84  C   UNL A   1      43.252  29.344  34.941  1.00  0.00     0.010 A 
ATOM     85  C   UNL A   1      42.700  27.507  33.467  1.00  0.00     0.010 A 
ATOM     86  C   UNL A   1      42.935  28.543  36.051  1.00  0.00     0.020 A 
ATOM     87  C   UNL A   1      42.366  26.713  34.564  1.00  0.00     0.020 A 
ATOM     88  C   UNL A   1      42.494  27.231  35.853  1.00  0.00     0.054 A 
BRANCH  88  89
ATOM     89  S   UNL A   1      42.045  26.209  37.283  1.00  0.00     0.124 S 
ATOM     90  O   UNL A   1      42.092  24.857  36.736  1.00  0.00    -0.237 OA
ATOM     91  O   UNL A   1      43.088  26.532  38.255  1.00  0.00    -0.237 OA
ATOM     92  O   UNL A   1      40.708  26.683  37.644  1.00  0.00    -0.744 OA
ENDBRANCH  88  89
ENDBRANCH  62  83
ENDBRANCH  36  37
ENDBRANCH  29  31
ENDBRANCH  28  29
ENDBRANCH  27  28
ENDBRANCH   1  27
TORSDOF 17
ENDMDL
MODEL 2
REMARK VINA RESULT:     -12.5      3.199      5.057
REMARK SMILES C/C(=N\NC(N)=O)c1nnn(-c2ccc(C(=O)OCCOC(=O)c3ccc(-c4c5nc(c(-c6ccc(S(=O)(=O)[O-])cc6)c6ccc([nH]6)c(-c6ccc(S(=O)(=O)[O-])cc6)c6nc(c(-c7ccc(S(=O)(=O)[O-])cc7)c7ccc4[nH]7)C=C6)C=C5)cc3)cc2)c1C
REMARK SMILES IDX 19 1 18 2 16 3 17 4 15 5 12 6 13 7 85 8 14 9 84 10 11 11
REMARK SMILES IDX 8 12 9 13 86 14 10 15 87 16 2 17 1 18 3 19 4 20 5 21 6 23
REMARK SMILES IDX 7 24 20 27 21 28 22 29 23 30 24 31 25 32 83 33 26 34 82 35
REMARK SMILES IDX 27 36 28 37 29 38 76 39 30 40 81 41 75 42 77 43 31 44 80 45
REMARK SMILES IDX 74 46 73 47 32 49 62 50 43 51 61 52 44 53 47 54 60 55 78 56
REMARK SMILES IDX 45 57 46 58 59 60 79 61 48 62 33 63 34 64 42 65 35 66 41 67
REMARK SMILES IDX 36 68 37 69 38 70 39 71 40 72 63 73 64 74 72 75 65 76 71 77
REMARK SMILES IDX 66 78 67 79 68 80 69 81 70 82 49 83 50 84 58 85 51 86 57 87
REMARK SMILES IDX 52 88 53 89 54 90 55 91 56 92
REMARK H PARENT 4 22 6 25 6 26 77 48 47 59
REMARK Flexibility Score: inf
ROOT
ATOM      1  C   UNL A   1      42.915  18.447  26.229  1.00  0.00     0.275 C 
ENDROOT
BRANCH   1   2
ATOM      2  O   UNL A   1      41.823  19.204  25.692  1.00  0.00    -0.458 OA
BRANCH   2   3
ATOM      3  C   UNL A   1      41.483  20.325  26.375  1.00  0.00     0.338 C 
ATOM      4  O   UNL A   1      42.212  20.978  27.110  1.00  0.00    -0.246 OA
BRANCH   3   5
ATOM      5  C   UNL A   1      40.077  20.698  26.078  1.00  0.00     0.060 A 
ATOM      6  C   UNL A   1      37.563  21.461  25.195  1.00  0.00     0.067 A 
ATOM      7  C   UNL A   1      37.966  20.136  25.013  1.00  0.00     0.029 A 
ATOM      8  C   UNL A   1      38.335  22.355  25.945  1.00  0.00     0.029 A 
ATOM      9  C   UNL A   1      39.244  19.765  25.439  1.00  0.00     0.018 A 
ATOM     10  C   UNL A   1      39.591  21.972  26.393  1.00  0.00     0.018 A 
BRANCH   6  11
ATOM     11  N   UNL A   1      36.493  21.971  24.436  1.00  0.00    -0.217 N 
ATOM     12  C   UNL A   1      34.523  22.647  23.803  1.00  0.00     0.132 A 
ATOM     13  N   UNL A   1      35.458  23.143  22.935  1.00  0.00    -0.128 NA
ATOM     14  C   UNL A   1      35.155  21.925  24.797  1.00  0.00     0.071 A 
ATOM     15  N   UNL A   1      36.661  22.803  23.386  1.00  0.00    -0.061 NA
ATOM     16  C   UNL A   1      34.637  21.371  26.073  1.00  0.00     0.069 C 
BRANCH  12  17
ATOM     17  C   UNL A   1      33.123  23.024  23.767  1.00  0.00     0.087 C 
ATOM     18  C   UNL A   1      32.239  22.207  22.859  1.00  0.00     0.071 C 
ATOM     19  N   UNL A   1      32.788  24.020  24.534  1.00  0.00    -0.174 NA
BRANCH  19  20
ATOM     20  N   UNL A   1      31.525  24.537  24.546  1.00  0.00    -0.229 N 
ATOM     21  C   UNL A   1      30.859  25.046  25.640  1.00  0.00     0.332 C 
ATOM     22  H   UNL A   1      31.041  24.547  23.688  1.00  0.00     0.195 HD
ATOM     23  N   UNL A   1      29.594  25.453  25.334  1.00  0.00    -0.350 N 
ATOM     24  O   UNL A   1      31.281  25.167  26.782  1.00  0.00    -0.247 OA
ATOM     25  H   UNL A   1      29.254  25.356  24.416  1.00  0.00     0.161 HD
ATOM     26  H   UNL A   1      29.021  25.845  26.032  1.00  0.00     0.161 HD
ENDBRANCH  19  20
ENDBRANCH  12  17
ENDBRANCH   6  11
ENDBRANCH   3   5
ENDBRANCH   2   3
ENDBRANCH   1   2
BRANCH   1  27
ATOM     27  C   UNL A   1      44.107  18.473  25.285  1.00  0.00     0.275 C 
BRANCH  27  28
ATOM     28  O   UNL A   1      44.821  19.707  25.369  1.00  0.00    -0.458 OA
BRANCH  28  29
ATOM     29  C   UNL A   1      44.602  20.558  24.341  1.00  0.00     0.338 C 
ATOM     30  O   UNL A   1      44.573  20.289  23.151  1.00  0.00    -0.246 OA
BRANCH  29  31
ATOM     31  C   UNL A   1      44.645  21.933  24.842  1.00  0.00     0.060 A 
ATOM     32  C   UNL A   1      45.501  22.214  25.910  1.00  0.00     0.016 A 
ATOM     33  C   UNL A   1      43.652  22.833  24.431  1.00  0.00     0.016 A 
ATOM     34  C   UNL A   1      45.273  23.354  26.652  1.00  0.00     0.010 A 
ATOM     35  C   UNL A   1      43.413  23.958  25.183  1.00  0.00     0.010 A 
ATOM     36  C   UNL A   1      44.189  24.178  26.318  1.00  0.00    -0.014 A 
BRANCH  36  37
ATOM     37  C   UNL A   1      43.978  25.386  27.091  1.00  0.00     0.031 A 
ATOM     38  C   UNL A   1      45.026  26.405  26.852  1.00  0.00     0.074 A 
ATOM     39  C   UNL A   1      42.869  25.615  27.818  1.00  0.00     0.049 A 
ATOM     40  N   UNL A   1      45.923  26.820  27.681  1.00  0.00    -0.248 NA
ATOM     41  C   UNL A   1      45.213  26.883  25.471  1.00  0.00     0.031 C 
ATOM     42  C   UNL A   1      41.646  24.809  27.875  1.00  0.00     0.029 A 
ATOM     43  N   UNL A   1      42.555  26.702  28.571  1.00  0.00    -0.354 N 
ATOM     44  C   UNL A   1      46.645  27.787  26.992  1.00  0.00     0.074 A 
ATOM     45  C   UNL A   1      46.306  27.634  25.601  1.00  0.00     0.031 C 
ATOM     46  C   UNL A   1      40.653  25.550  28.420  1.00  0.00     0.029 A 
ATOM     47  C   UNL A   1      41.201  26.821  28.866  1.00  0.00     0.049 A 
ATOM     48  H   UNL A   1      43.228  27.350  28.882  1.00  0.00     0.167 HD
ATOM     49  C   UNL A   1      47.246  28.818  27.644  1.00  0.00     0.031 A 
ATOM     50  C   UNL A   1      40.577  27.920  29.365  1.00  0.00     0.031 A 
ATOM     51  C   UNL A   1      47.358  28.563  29.056  1.00  0.00     0.049 A 
ATOM     52  C   UNL A   1      41.623  28.777  29.978  1.00  0.00     0.074 A 
ATOM     53  C   UNL A   1      47.962  27.587  29.823  1.00  0.00     0.029 A 
ATOM     54  N   UNL A   1      46.439  29.180  29.872  1.00  0.00    -0.354 N 
ATOM     55  N   UNL A   1      42.296  28.442  31.042  1.00  0.00    -0.248 NA
ATOM     56  C   UNL A   1      42.236  29.808  29.153  1.00  0.00     0.031 C 
ATOM     57  C   UNL A   1      47.067  27.364  30.908  1.00  0.00     0.029 A 
ATOM     58  C   UNL A   1      46.002  28.258  30.784  1.00  0.00     0.049 A 
ATOM     59  H   UNL A   1      46.148  30.119  29.811  1.00  0.00     0.167 HD
ATOM     60  C   UNL A   1      43.590  28.881  30.796  1.00  0.00     0.074 A 
ATOM     61  C   UNL A   1      43.470  29.800  29.667  1.00  0.00     0.031 C 
ATOM     62  C   UNL A   1      44.666  28.244  31.346  1.00  0.00     0.031 A 
BRANCH  49  63
ATOM     63  C   UNL A   1      47.311  30.216  27.078  1.00  0.00    -0.014 A 
ATOM     64  C   UNL A   1      48.517  30.935  27.196  1.00  0.00     0.010 A 
ATOM     65  C   UNL A   1      46.164  30.948  26.703  1.00  0.00     0.010 A 
ATOM     66  C   UNL A   1      48.552  32.325  27.028  1.00  0.00     0.020 A 
ATOM     67  C   UNL A   1      46.198  32.325  26.488  1.00  0.00     0.020 A 
ATOM     68  C   UNL A   1      47.386  33.011  26.688  1.00  0.00     0.054 A 
BRANCH  68  69
ATOM     69  S   UNL A   1      47.419  34.814  26.573  1.00  0.00     0.124 S 
ATOM     70  O   UNL A   1      48.311  35.169  27.672  1.00  0.00    -0.237 OA
ATOM     71  O   UNL A   1      47.949  35.026  25.229  1.00  0.00    -0.237 OA
ATOM     72  O   UNL A   1      46.019  35.193  26.752  1.00  0.00    -0.744 OA
ENDBRANCH  68  69
ENDBRANCH  49  63
BRANCH  50  73
ATOM     73  C   UNL A   1      39.213  28.427  29.063  1.00  0.00    -0.014 A 
ATOM     74  C   UNL A   1      38.242  28.538  30.080  1.00  0.00     0.010 A 
ATOM     75  C   UNL A   1      38.951  29.077  27.841  1.00  0.00     0.010 A 
ATOM     76  C   UNL A   1      37.094  29.330  29.904  1.00  0.00     0.020 A 
ATOM     77  C   UNL A   1      37.803  29.859  27.654  1.00  0.00     0.020 A 
ATOM     78  C   UNL A   1      36.894  30.005  28.698  1.00  0.00     0.054 A 
BRANCH  78  79
ATOM     79  S   UNL A   1      35.515  31.181  28.545  1.00  0.00     0.124 S 
ATOM     80  O   UNL A   1      35.231  31.511  29.938  1.00  0.00    -0.237 OA
ATOM     81  O   UNL A   1      36.099  32.256  27.748  1.00  0.00    -0.237 OA
ATOM     82  O   UNL A   1      34.477  30.407  27.867  1.00  0.00    -0.744 OA
ENDBRANCH  78  79
ENDBRANCH  50  73
BRANCH  62  83
ATOM     83  C   UNL A   1      44.433  27.281  32.486  1.00  0.00    -0.014 A 
ATOM     84  C   UNL A   1      44.232  25.896  32.327  1.00  0.00     0.010 A 
ATOM     85  C   UNL A   1      44.576  27.794  33.788  1.00  0.00     0.010 A 
ATOM     86  C   UNL A   1      44.150  25.053  33.448  1.00  0.00     0.020 A 
ATOM     87  C   UNL A   1      44.515  26.959  34.904  1.00  0.00     0.020 A 
ATOM     88  C   UNL A   1      44.293  25.593  34.730  1.00  0.00     0.054 A 
BRANCH  88  89
ATOM     89  S   UNL A   1      44.230  24.499  36.176  1.00  0.00     0.124 S 
ATOM     90  O   UNL A   1      43.061  23.670  35.897  1.00  0.00    -0.237 OA
ATOM     91  O   UNL A   1      45.518  23.811  36.122  1.00  0.00    -0.237 OA
ATOM     92  O   UNL A   1      44.078  25.420  37.304  1.00  0.00    -0.744 OA
ENDBRANCH  88  89
ENDBRANCH  62  83
ENDBRANCH  36  37
ENDBRANCH  29  31
ENDBRANCH  28  29
ENDBRANCH  27  28
ENDBRANCH   1  27
TORSDOF 17
ENDMDL
MODEL 3
REMARK VINA RESULT:     -12.3      2.152      2.690
REMARK SMILES C/C(=N\NC(N)=O)c1nnn(-c2ccc(C(=O)OCCOC(=O)c3ccc(-c4c5nc(c(-c6ccc(S(=O)(=O)[O-])cc6)c6ccc([nH]6)c(-c6ccc(S(=O)(=O)[O-])cc6)c6nc(c(-c7ccc(S(=O)(=O)[O-])cc7)c7ccc4[nH]7)C=C6)C=C5)cc3)cc2)c1C
REMARK SMILES IDX 19 1 18 2 16 3 17 4 15 5 12 6 13 7 85 8 14 9 84 10 11 11
REMARK SMILES IDX 8 12 9 13 86 14 10 15 87 16 2 17 1 18 3 19 4 20 5 21 6 23
REMARK SMILES IDX 7 24 20 27 21 28 22 29 23 30 24 31 25 32 83 33 26 34 82 35
REMARK SMILES IDX 27 36 28 37 29 38 76 39 30 40 81 41 75 42 77 43 31 44 80 45
REMARK SMILES IDX 74 46 73 47 32 49 62 50 43 51 61 52 44 53 47 54 60 55 78 56
REMARK SMILES IDX 45 57 46 58 59 60 79 61 48 62 33 63 34 64 42 65 35 66 41 67
REMARK SMILES IDX 36 68 37 69 38 70 39 71 40 72 63 73 64 74 72 75 65 76 71 77
REMARK SMILES IDX 66 78 67 79 68 80 69 81 70 82 49 83 50 84 58 85 51 86 57 87
REMARK SMILES IDX 52 88 53 89 54 90 55 91 56 92
REMARK H PARENT 4 22 6 25 6 26 77 48 47 59
REMARK Flexibility Score: inf
ROOT
ATOM      1  C   UNL A   1      36.695  20.507  25.252  1.00  0.00     0.275 C 
ENDROOT
BRANCH   1   2
ATOM      2  O   UNL A   1      35.599  20.664  24.341  1.00  0.00    -0.458 OA
BRANCH   2   3
ATOM      3  C   UNL A   1      34.408  20.161  24.750  1.00  0.00     0.338 C 
ATOM      4  O   UNL A   1      34.088  18.980  24.774  1.00  0.00    -0.246 OA
BRANCH   3   5
ATOM      5  C   UNL A   1      33.524  21.257  25.219  1.00  0.00     0.060 A 
ATOM      6  C   UNL A   1      32.133  23.523  26.002  1.00  0.00     0.067 A 
ATOM      7  C   UNL A   1      32.059  23.116  24.668  1.00  0.00     0.029 A 
ATOM      8  C   UNL A   1      32.761  22.727  26.966  1.00  0.00     0.029 A 
ATOM      9  C   UNL A   1      32.783  21.987  24.276  1.00  0.00     0.018 A 
ATOM     10  C   UNL A   1      33.452  21.589  26.576  1.00  0.00     0.018 A 
BRANCH   6  11
ATOM     11  N   UNL A   1      31.778  24.841  26.346  1.00  0.00    -0.217 N 
ATOM     12  C   UNL A   1      31.772  27.005  26.575  1.00  0.00     0.132 A 
ATOM     13  N   UNL A   1      30.511  26.534  26.821  1.00  0.00    -0.128 NA
ATOM     14  C   UNL A   1      32.598  25.953  26.231  1.00  0.00     0.071 A 
ATOM     15  N   UNL A   1      30.506  25.226  26.586  1.00  0.00    -0.061 NA
ATOM     16  C   UNL A   1      33.974  25.940  25.675  1.00  0.00     0.069 C 
BRANCH  12  17
ATOM     17  C   UNL A   1      32.093  28.418  26.491  1.00  0.00     0.087 C 
ATOM     18  C   UNL A   1      31.688  29.115  25.217  1.00  0.00     0.071 C 
ATOM     19  N   UNL A   1      32.684  28.923  27.533  1.00  0.00    -0.174 NA
BRANCH  19  20
ATOM     20  N   UNL A   1      33.116  30.218  27.568  1.00  0.00    -0.229 N 
ATOM     21  C   UNL A   1      34.426  30.642  27.609  1.00  0.00     0.332 C 
ATOM     22  H   UNL A   1      32.423  30.918  27.563  1.00  0.00     0.195 HD
ATOM     23  N   UNL A   1      34.530  32.001  27.673  1.00  0.00    -0.350 N 
ATOM     24  O   UNL A   1      35.437  29.953  27.582  1.00  0.00    -0.247 OA
ATOM     25  H   UNL A   1      33.718  32.556  27.696  1.00  0.00     0.161 HD
ATOM     26  H   UNL A   1      35.418  32.426  27.698  1.00  0.00     0.161 HD
ENDBRANCH  19  20
ENDBRANCH  12  17
ENDBRANCH   6  11
ENDBRANCH   3   5
ENDBRANCH   2   3
ENDBRANCH   1   2
BRANCH   1  27
ATOM     27  C   UNL A   1      37.791  21.519  24.958  1.00  0.00     0.275 C 
BRANCH  27  28
ATOM     28  O   UNL A   1      38.143  22.270  26.120  1.00  0.00    -0.458 OA
BRANCH  28  29
ATOM     29  C   UNL A   1      39.444  22.183  26.477  1.00  0.00     0.338 C 
ATOM     30  O   UNL A   1      40.089  21.168  26.682  1.00  0.00    -0.246 OA
BRANCH  29  31
ATOM     31  C   UNL A   1      39.932  23.517  26.833  1.00  0.00     0.060 A 
ATOM     32  C   UNL A   1      41.125  23.606  27.555  1.00  0.00     0.016 A 
ATOM     33  C   UNL A   1      39.070  24.613  26.688  1.00  0.00     0.016 A 
ATOM     34  C   UNL A   1      41.391  24.772  28.244  1.00  0.00     0.010 A 
ATOM     35  C   UNL A   1      39.326  25.766  27.390  1.00  0.00     0.010 A 
ATOM     36  C   UNL A   1      40.455  25.814  28.205  1.00  0.00    -0.014 A 
BRANCH  36  37
ATOM     37  C   UNL A   1      40.760  27.041  28.911  1.00  0.00     0.031 A 
ATOM     38  C   UNL A   1      41.869  27.798  28.285  1.00  0.00     0.074 A 
ATOM     39  C   UNL A   1      40.014  27.517  29.925  1.00  0.00     0.049 A 
ATOM     40  N   UNL A   1      43.049  28.005  28.763  1.00  0.00    -0.248 NA
ATOM     41  C   UNL A   1      41.704  28.216  26.881  1.00  0.00     0.031 C 
ATOM     42  C   UNL A   1      38.732  27.007  30.418  1.00  0.00     0.029 A 
ATOM     43  N   UNL A   1      40.193  28.650  30.655  1.00  0.00    -0.354 N 
ATOM     44  C   UNL A   1      43.702  28.782  27.814  1.00  0.00     0.074 A 
ATOM     45  C   UNL A   1      42.915  28.702  26.611  1.00  0.00     0.031 C 
ATOM     46  C   UNL A   1      38.143  27.954  31.185  1.00  0.00     0.029 A 
ATOM     47  C   UNL A   1      39.060  29.072  31.342  1.00  0.00     0.049 A 
ATOM     48  H   UNL A   1      41.051  29.132  30.693  1.00  0.00     0.167 HD
ATOM     49  C   UNL A   1      44.683  29.655  28.169  1.00  0.00     0.031 A 
ATOM     50  C   UNL A   1      38.875  30.285  31.925  1.00  0.00     0.031 A 
ATOM     51  C   UNL A   1      45.180  29.387  29.492  1.00  0.00     0.049 A 
ATOM     52  C   UNL A   1      40.217  30.888  32.119  1.00  0.00     0.074 A 
ATOM     53  C   UNL A   1      45.776  28.304  30.107  1.00  0.00     0.029 A 
ATOM     54  N   UNL A   1      44.721  30.199  30.503  1.00  0.00    -0.354 N 
ATOM     55  N   UNL A   1      41.107  30.415  32.946  1.00  0.00    -0.248 NA
ATOM     56  C   UNL A   1      40.740  31.752  31.070  1.00  0.00     0.031 C 
ATOM     57  C   UNL A   1      45.246  28.292  31.429  1.00  0.00     0.029 A 
ATOM     58  C   UNL A   1      44.411  29.403  31.573  1.00  0.00     0.049 A 
ATOM     59  H   UNL A   1      44.632  31.179  30.464  1.00  0.00     0.167 HD
ATOM     60  C   UNL A   1      42.317  30.551  32.280  1.00  0.00     0.074 A 
ATOM     61  C   UNL A   1      42.042  31.469  31.177  1.00  0.00     0.031 C 
ATOM     62  C   UNL A   1      43.352  29.691  32.518  1.00  0.00     0.031 A 
BRANCH  49  63
ATOM     63  C   UNL A   1      44.859  31.000  27.506  1.00  0.00    -0.014 A 
ATOM     64  C   UNL A   1      46.113  31.315  26.945  1.00  0.00     0.010 A 
ATOM     65  C   UNL A   1      43.946  32.063  27.671  1.00  0.00     0.010 A 
ATOM     66  C   UNL A   1      46.459  32.638  26.643  1.00  0.00     0.020 A 
ATOM     67  C   UNL A   1      44.265  33.377  27.330  1.00  0.00     0.020 A 
ATOM     68  C   UNL A   1      45.535  33.661  26.852  1.00  0.00     0.054 A 
BRANCH  68  69
ATOM     69  S   UNL A   1      46.026  35.375  26.555  1.00  0.00     0.124 S 
ATOM     70  O   UNL A   1      47.051  35.574  27.575  1.00  0.00    -0.237 OA
ATOM     71  O   UNL A   1      46.502  35.323  25.176  1.00  0.00    -0.237 OA
ATOM     72  O   UNL A   1      44.788  36.124  26.754  1.00  0.00    -0.744 OA
ENDBRANCH  68  69
ENDBRANCH  49  63
BRANCH  50  73
ATOM     73  C   UNL A   1      37.625  31.084  32.022  1.00  0.00    -0.014 A 
ATOM     74  C   UNL A   1      37.184  31.587  33.262  1.00  0.00     0.010 A 
ATOM     75  C   UNL A   1      37.021  31.601  30.858  1.00  0.00     0.010 A 
ATOM     76  C   UNL A   1      36.231  32.620  33.330  1.00  0.00     0.020 A 
ATOM     77  C   UNL A   1      36.063  32.622  30.918  1.00  0.00     0.020 A 
ATOM     78  C   UNL A   1      35.694  33.147  32.153  1.00  0.00     0.054 A 
BRANCH  78  79
ATOM     79  S   UNL A   1      34.616  34.610  32.234  1.00  0.00     0.124 S 
ATOM     80  O   UNL A   1      33.473  34.112  32.993  1.00  0.00    -0.237 OA
ATOM     81  O   UNL A   1      35.455  35.586  32.923  1.00  0.00    -0.237 OA
ATOM     82  O   UNL A   1      34.344  34.914  30.831  1.00  0.00    -0.744 OA
ENDBRANCH  78  79
ENDBRANCH  50  73
BRANCH  62  83
ATOM     83  C   UNL A   1      43.294  28.811  33.744  1.00  0.00    -0.014 A 
ATOM     84  C   UNL A   1      43.619  29.240  35.045  1.00  0.00     0.010 A 
ATOM     85  C   UNL A   1      42.739  27.529  33.578  1.00  0.00     0.010 A 
ATOM     86  C   UNL A   1      43.416  28.393  36.148  1.00  0.00     0.020 A 
ATOM     87  C   UNL A   1      42.517  26.691  34.671  1.00  0.00     0.020 A 
ATOM     88  C   UNL A   1      42.865  27.122  35.951  1.00  0.00     0.054 A 
BRANCH  88  89
ATOM     89  S   UNL A   1      42.563  26.044  37.378  1.00  0.00     0.124 S 
ATOM     90  O   UNL A   1      43.538  26.526  38.353  1.00  0.00    -0.237 OA
ATOM     91  O   UNL A   1      41.163  26.315  37.701  1.00  0.00    -0.237 OA
ATOM     92  O   UNL A   1      42.820  24.700  36.861  1.00  0.00    -0.744 OA
ENDBRANCH  88  89
ENDBRANCH  62  83
ENDBRANCH  36  37
ENDBRANCH  29  31
ENDBRANCH  28  29
ENDBRANCH  27  28
ENDBRANCH   1  27
TORSDOF 17
ENDMDL
