MODEL 1
REMARK VINA RESULT:      -9.5      0.000      0.000
REMARK SMILES CC[NH2+]C[C@@H](C)C(=O)N1CCO[C@@H](CC(=O)OCCOC(=O)c2ccc(-c3c4nc(c(-c5ccc(S(=O)(=O)[O-])cc5)c5ccc([nH]5)c(-c5ccc(S(=O)(=O)[O-])cc5)c5nc(c(-c6ccc(S(=O)(=O)[O-])cc6)c6ccc3[nH]6)C=C5)C=C4)cc2)C1
REMARK SMILES IDX 17 1 15 2 16 3 14 4 13 5 9 6 10 7 83 8 11 9 12 10 7 11 8 12
REMARK SMILES IDX 5 13 6 14 4 15 3 16 2 19 1 20 18 21 19 22 20 23 21 24 22 25
REMARK SMILES IDX 23 26 24 27 82 28 25 29 81 30 26 31 27 32 28 33 75 34 29 35
REMARK SMILES IDX 80 36 74 37 76 38 30 39 79 40 73 41 72 42 31 44 61 45 42 46
REMARK SMILES IDX 60 47 43 48 46 49 59 50 77 51 44 52 45 53 58 55 78 56 47 57
REMARK SMILES IDX 32 58 33 59 41 60 34 61 40 62 35 63 36 64 37 65 38 66 39 67
REMARK SMILES IDX 62 68 63 69 71 70 64 71 70 72 65 73 66 74 67 75 68 76 69 77
REMARK SMILES IDX 48 78 49 79 57 80 50 81 56 82 51 83 52 84 53 85 54 86 55 87
REMARK H PARENT 3 17 3 18 76 43 46 54
REMARK Flexibility Score: inf
ROOT
ATOM      1  O   UNL A   1      37.778  21.510  24.839  1.00  0.00    -0.462 OA
ENDROOT
BRANCH   1   2
ATOM      2  C   UNL A   1      37.119  22.695  24.828  1.00  0.00     0.308 C 
ATOM      3  O   UNL A   1      36.870  23.363  25.822  1.00  0.00    -0.252 OA
BRANCH   2   4
ATOM      4  C   UNL A   1      36.656  23.072  23.441  1.00  0.00     0.156 C 
BRANCH   4   5
ATOM      5  C   UNL A   1      35.160  22.877  23.213  1.00  0.00     0.148 C 
ATOM      6  N   UNL A   1      33.046  21.921  24.121  1.00  0.00    -0.337 N 
ATOM      7  C   UNL A   1      32.387  23.202  23.849  1.00  0.00     0.148 C 
ATOM      8  C   UNL A   1      34.498  22.023  24.310  1.00  0.00     0.152 C 
ATOM      9  C   UNL A   1      33.153  24.059  22.836  1.00  0.00     0.182 C 
ATOM     10  O   UNL A   1      34.537  24.181  23.193  1.00  0.00    -0.374 OA
BRANCH   6  11
ATOM     11  C   UNL A   1      32.439  20.737  24.502  1.00  0.00     0.231 C 
ATOM     12  O   UNL A   1      31.564  20.728  25.379  1.00  0.00    -0.274 OA
BRANCH  11  13
ATOM     13  C   UNL A   1      32.844  19.397  23.891  1.00  0.00     0.130 C 
ATOM     14  C   UNL A   1      32.153  19.135  22.555  1.00  0.00     0.024 C 
BRANCH  13  15
ATOM     15  C   UNL A   1      32.795  18.249  24.910  1.00  0.00     0.273 C 
BRANCH  15  16
ATOM     16  N   UNL A   1      32.504  16.920  24.353  1.00  0.00    -0.346 N 
ATOM     17  H   UNL A   1      31.896  16.422  25.002  1.00  0.00     0.346 HD
ATOM     18  H   UNL A   1      32.058  17.060  23.446  1.00  0.00     0.346 HD
BRANCH  16  19
ATOM     19  C   UNL A   1      33.706  16.120  24.132  1.00  0.00     0.257 C 
ATOM     20  C   UNL A   1      34.840  16.646  25.001  1.00  0.00     0.071 C 
ENDBRANCH  16  19
ENDBRANCH  15  16
ENDBRANCH  13  15
ENDBRANCH  11  13
ENDBRANCH   6  11
ENDBRANCH   4   5
ENDBRANCH   2   4
ENDBRANCH   1   2
BRANCH   1  21
ATOM     21  C   UNL A   1      38.848  21.356  25.793  1.00  0.00     0.274 C 
BRANCH  21  22
ATOM     22  C   UNL A   1      39.428  19.940  25.751  1.00  0.00     0.275 C 
BRANCH  22  23
ATOM     23  O   UNL A   1      40.484  19.788  26.716  1.00  0.00    -0.458 OA
BRANCH  23  24
ATOM     24  C   UNL A   1      41.740  19.819  26.212  1.00  0.00     0.338 C 
ATOM     25  O   UNL A   1      42.299  18.949  25.569  1.00  0.00    -0.246 OA
BRANCH  24  26
ATOM     26  C   UNL A   1      42.324  21.149  26.447  1.00  0.00     0.060 A 
ATOM     27  C   UNL A   1      42.407  21.617  27.762  1.00  0.00     0.016 A 
ATOM     28  C   UNL A   1      42.731  21.950  25.379  1.00  0.00     0.016 A 
ATOM     29  C   UNL A   1      42.900  22.895  28.014  1.00  0.00     0.010 A 
ATOM     30  C   UNL A   1      43.225  23.232  25.634  1.00  0.00     0.010 A 
ATOM     31  C   UNL A   1      43.306  23.715  26.953  1.00  0.00    -0.014 A 
BRANCH  31  32
ATOM     32  C   UNL A   1      43.775  25.097  27.218  1.00  0.00     0.031 A 
ATOM     33  C   UNL A   1      45.221  25.449  27.007  1.00  0.00     0.074 A 
ATOM     34  C   UNL A   1      42.902  26.035  27.633  1.00  0.00     0.049 A 
ATOM     35  N   UNL A   1      45.839  26.576  27.247  1.00  0.00    -0.248 NA
ATOM     36  C   UNL A   1      46.084  24.394  26.451  1.00  0.00     0.031 C 
ATOM     37  C   UNL A   1      41.466  25.827  27.828  1.00  0.00     0.029 A 
ATOM     38  N   UNL A   1      43.098  27.352  27.964  1.00  0.00    -0.354 N 
ATOM     39  C   UNL A   1      47.163  26.368  26.878  1.00  0.00     0.074 A 
ATOM     40  C   UNL A   1      47.264  24.999  26.421  1.00  0.00     0.031 C 
ATOM     41  C   UNL A   1      40.910  26.978  28.243  1.00  0.00     0.029 A 
ATOM     42  C   UNL A   1      41.954  27.990  28.383  1.00  0.00     0.049 A 
ATOM     43  H   UNL A   1      43.974  27.798  27.907  1.00  0.00     0.167 HD
ATOM     44  C   UNL A   1      48.198  27.241  26.913  1.00  0.00     0.031 A 
ATOM     45  C   UNL A   1      41.774  29.240  28.851  1.00  0.00     0.031 A 
ATOM     46  C   UNL A   1      48.097  28.599  27.378  1.00  0.00     0.049 A 
ATOM     47  C   UNL A   1      42.958  30.164  28.956  1.00  0.00     0.074 A 
ATOM     48  C   UNL A   1      49.093  29.557  27.465  1.00  0.00     0.029 A 
ATOM     49  N   UNL A   1      46.930  29.196  27.831  1.00  0.00    -0.354 N 
ATOM     50  N   UNL A   1      44.205  29.947  28.614  1.00  0.00    -0.248 NA
ATOM     51  C   UNL A   1      42.709  31.503  29.510  1.00  0.00     0.031 C 
ATOM     52  C   UNL A   1      48.537  30.720  28.009  1.00  0.00     0.029 A 
ATOM     53  C   UNL A   1      47.184  30.502  28.213  1.00  0.00     0.049 A 
ATOM     54  H   UNL A   1      46.051  28.755  27.875  1.00  0.00     0.167 HD
ATOM     55  C   UNL A   1      44.884  31.130  28.888  1.00  0.00     0.074 A 
ATOM     56  C   UNL A   1      43.906  32.063  29.409  1.00  0.00     0.031 C 
ATOM     57  C   UNL A   1      46.198  31.419  28.723  1.00  0.00     0.031 A 
BRANCH  44  58
ATOM     58  C   UNL A   1      49.543  26.746  26.453  1.00  0.00    -0.014 A 
ATOM     59  C   UNL A   1      50.420  26.102  27.344  1.00  0.00     0.010 A 
ATOM     60  C   UNL A   1      49.912  26.879  25.103  1.00  0.00     0.010 A 
ATOM     61  C   UNL A   1      51.655  25.626  26.898  1.00  0.00     0.020 A 
ATOM     62  C   UNL A   1      51.138  26.383  24.648  1.00  0.00     0.020 A 
ATOM     63  C   UNL A   1      52.009  25.771  25.552  1.00  0.00     0.054 A 
BRANCH  63  64
ATOM     64  S   UNL A   1      53.605  25.116  24.995  1.00  0.00     0.124 S 
ATOM     65  O   UNL A   1      54.546  25.905  25.787  1.00  0.00    -0.237 OA
ATOM     66  O   UNL A   1      53.516  23.703  25.351  1.00  0.00    -0.237 OA
ATOM     67  O   UNL A   1      53.613  25.395  23.561  1.00  0.00    -0.744 OA
ENDBRANCH  63  64
ENDBRANCH  44  58
BRANCH  45  68
ATOM     68  C   UNL A   1      40.424  29.690  29.289  1.00  0.00    -0.014 A 
ATOM     69  C   UNL A   1      39.376  29.826  28.362  1.00  0.00     0.010 A 
ATOM     70  C   UNL A   1      40.188  30.011  30.639  1.00  0.00     0.010 A 
ATOM     71  C   UNL A   1      38.127  30.305  28.770  1.00  0.00     0.020 A 
ATOM     72  C   UNL A   1      38.933  30.463  31.055  1.00  0.00     0.020 A 
ATOM     73  C   UNL A   1      37.916  30.624  30.113  1.00  0.00     0.054 A 
BRANCH  73  74
ATOM     74  S   UNL A   1      36.283  31.224  30.628  1.00  0.00     0.124 S 
ATOM     75  O   UNL A   1      35.535  31.180  29.375  1.00  0.00    -0.237 OA
ATOM     76  O   UNL A   1      35.886  30.243  31.637  1.00  0.00    -0.237 OA
ATOM     77  O   UNL A   1      36.559  32.561  31.147  1.00  0.00    -0.744 OA
ENDBRANCH  73  74
ENDBRANCH  45  68
BRANCH  57  78
ATOM     78  C   UNL A   1      46.648  32.812  29.071  1.00  0.00    -0.014 A 
ATOM     79  C   UNL A   1      46.552  33.862  28.141  1.00  0.00     0.010 A 
ATOM     80  C   UNL A   1      47.128  33.081  30.366  1.00  0.00     0.010 A 
ATOM     81  C   UNL A   1      46.958  35.153  28.491  1.00  0.00     0.020 A 
ATOM     82  C   UNL A   1      47.512  34.376  30.727  1.00  0.00     0.020 A 
ATOM     83  C   UNL A   1      47.437  35.401  29.782  1.00  0.00     0.054 A 
BRANCH  83  84
ATOM     84  S   UNL A   1      47.919  37.092  30.227  1.00  0.00     0.124 S 
ATOM     85  O   UNL A   1      47.141  37.888  29.283  1.00  0.00    -0.237 OA
ATOM     86  O   UNL A   1      47.501  37.189  31.625  1.00  0.00    -0.237 OA
ATOM     87  O   UNL A   1      49.365  37.108  30.014  1.00  0.00    -0.744 OA
ENDBRANCH  83  84
ENDBRANCH  57  78
ENDBRANCH  31  32
ENDBRANCH  24  26
ENDBRANCH  23  24
ENDBRANCH  22  23
ENDBRANCH  21  22
ENDBRANCH   1  21
TORSDOF 20
ENDMDL
MODEL 2
REMARK VINA RESULT:      -9.5      2.397      8.951
REMARK SMILES CC[NH2+]C[C@@H](C)C(=O)N1CCO[C@@H](CC(=O)OCCOC(=O)c2ccc(-c3c4nc(c(-c5ccc(S(=O)(=O)[O-])cc5)c5ccc([nH]5)c(-c5ccc(S(=O)(=O)[O-])cc5)c5nc(c(-c6ccc(S(=O)(=O)[O-])cc6)c6ccc3[nH]6)C=C5)C=C4)cc2)C1
REMARK SMILES IDX 17 1 15 2 16 3 14 4 13 5 9 6 10 7 83 8 11 9 12 10 7 11 8 12
REMARK SMILES IDX 5 13 6 14 4 15 3 16 2 19 1 20 18 21 19 22 20 23 21 24 22 25
REMARK SMILES IDX 23 26 24 27 82 28 25 29 81 30 26 31 27 32 28 33 75 34 29 35
REMARK SMILES IDX 80 36 74 37 76 38 30 39 79 40 73 41 72 42 31 44 61 45 42 46
REMARK SMILES IDX 60 47 43 48 46 49 59 50 77 51 44 52 45 53 58 55 78 56 47 57
REMARK SMILES IDX 32 58 33 59 41 60 34 61 40 62 35 63 36 64 37 65 38 66 39 67
REMARK SMILES IDX 62 68 63 69 71 70 64 71 70 72 65 73 66 74 67 75 68 76 69 77
REMARK SMILES IDX 48 78 49 79 57 80 50 81 56 82 51 83 52 84 53 85 54 86 55 87
REMARK H PARENT 3 17 3 18 76 43 46 54
REMARK Flexibility Score: inf
ROOT
ATOM      1  O   UNL A   1      33.013  30.418  27.170  1.00  0.00    -0.462 OA
ENDROOT
BRANCH   1   2
ATOM      2  C   UNL A   1      32.704  29.630  26.110  1.00  0.00     0.308 C 
ATOM      3  O   UNL A   1      33.227  29.710  25.006  1.00  0.00    -0.252 OA
BRANCH   2   4
ATOM      4  C   UNL A   1      31.578  28.675  26.423  1.00  0.00     0.156 C 
BRANCH   4   5
ATOM      5  C   UNL A   1      31.701  27.322  25.726  1.00  0.00     0.148 C 
ATOM      6  N   UNL A   1      31.396  24.859  25.941  1.00  0.00    -0.337 N 
ATOM      7  C   UNL A   1      30.688  24.867  24.658  1.00  0.00     0.148 C 
ATOM      8  C   UNL A   1      31.358  26.142  26.653  1.00  0.00     0.152 C 
ATOM      9  C   UNL A   1      30.978  26.121  23.828  1.00  0.00     0.182 C 
ATOM     10  O   UNL A   1      30.793  27.315  24.601  1.00  0.00    -0.374 OA
BRANCH   6  11
ATOM     11  C   UNL A   1      31.811  23.749  26.656  1.00  0.00     0.231 C 
ATOM     12  O   UNL A   1      31.003  23.086  27.321  1.00  0.00    -0.274 OA
BRANCH  11  13
ATOM     13  C   UNL A   1      33.277  23.320  26.688  1.00  0.00     0.130 C 
ATOM     14  C   UNL A   1      34.130  24.090  25.683  1.00  0.00     0.024 C 
BRANCH  13  15
ATOM     15  C   UNL A   1      33.442  21.793  26.680  1.00  0.00     0.273 C 
BRANCH  15  16
ATOM     16  N   UNL A   1      32.622  21.073  25.696  1.00  0.00    -0.346 N 
ATOM     17  H   UNL A   1      31.639  21.207  25.931  1.00  0.00     0.346 HD
ATOM     18  H   UNL A   1      32.847  21.451  24.775  1.00  0.00     0.346 HD
BRANCH  16  19
ATOM     19  C   UNL A   1      32.902  19.640  25.662  1.00  0.00     0.257 C 
ATOM     20  C   UNL A   1      32.618  19.094  24.270  1.00  0.00     0.071 C 
ENDBRANCH  16  19
ENDBRANCH  15  16
ENDBRANCH  13  15
ENDBRANCH  11  13
ENDBRANCH   6  11
ENDBRANCH   4   5
ENDBRANCH   2   4
ENDBRANCH   1   2
BRANCH   1  21
ATOM     21  C   UNL A   1      34.398  30.487  27.563  1.00  0.00     0.274 C 
BRANCH  21  22
ATOM     22  C   UNL A   1      34.679  31.745  28.387  1.00  0.00     0.275 C 
BRANCH  22  23
ATOM     23  O   UNL A   1      36.073  31.839  28.726  1.00  0.00    -0.458 OA
BRANCH  23  24
ATOM     24  C   UNL A   1      36.473  31.063  29.760  1.00  0.00     0.338 C 
ATOM     25  O   UNL A   1      35.832  30.771  30.754  1.00  0.00    -0.246 OA
BRANCH  24  26
ATOM     26  C   UNL A   1      37.795  30.492  29.456  1.00  0.00     0.060 A 
ATOM     27  C   UNL A   1      38.743  30.426  30.482  1.00  0.00     0.016 A 
ATOM     28  C   UNL A   1      38.115  30.081  28.162  1.00  0.00     0.016 A 
ATOM     29  C   UNL A   1      40.022  29.946  30.213  1.00  0.00     0.010 A 
ATOM     30  C   UNL A   1      39.400  29.600  27.895  1.00  0.00     0.010 A 
ATOM     31  C   UNL A   1      40.364  29.536  28.917  1.00  0.00    -0.014 A 
BRANCH  31  32
ATOM     32  C   UNL A   1      41.743  29.081  28.620  1.00  0.00     0.031 A 
ATOM     33  C   UNL A   1      42.881  30.062  28.670  1.00  0.00     0.074 A 
ATOM     34  C   UNL A   1      41.975  27.788  28.322  1.00  0.00     0.049 A 
ATOM     35  N   UNL A   1      44.143  29.878  28.377  1.00  0.00    -0.248 NA
ATOM     36  C   UNL A   1      42.556  31.429  29.108  1.00  0.00     0.031 C 
ATOM     37  C   UNL A   1      40.961  26.733  28.289  1.00  0.00     0.029 A 
ATOM     38  N   UNL A   1      43.140  27.144  27.990  1.00  0.00    -0.354 N 
ATOM     39  C   UNL A   1      44.764  31.103  28.588  1.00  0.00     0.074 A 
ATOM     40  C   UNL A   1      43.735  32.031  29.011  1.00  0.00     0.031 C 
ATOM     41  C   UNL A   1      41.549  25.571  27.958  1.00  0.00     0.029 A 
ATOM     42  C   UNL A   1      42.971  25.807  27.714  1.00  0.00     0.049 A 
ATOM     43  H   UNL A   1      44.014  27.595  27.952  1.00  0.00     0.167 HD
ATOM     44  C   UNL A   1      46.071  31.424  28.448  1.00  0.00     0.031 A 
ATOM     45  C   UNL A   1      43.855  24.885  27.288  1.00  0.00     0.031 A 
ATOM     46  C   UNL A   1      47.090  30.503  28.018  1.00  0.00     0.049 A 
ATOM     47  C   UNL A   1      45.288  25.289  27.062  1.00  0.00     0.074 A 
ATOM     48  C   UNL A   1      48.441  30.738  27.832  1.00  0.00     0.029 A 
ATOM     49  N   UNL A   1      46.872  29.169  27.711  1.00  0.00    -0.354 N 
ATOM     50  N   UNL A   1      45.855  26.455  27.256  1.00  0.00    -0.248 NA
ATOM     51  C   UNL A   1      46.199  24.251  26.560  1.00  0.00     0.031 C 
ATOM     52  C   UNL A   1      49.033  29.556  27.373  1.00  0.00     0.029 A 
ATOM     53  C   UNL A   1      48.059  28.573  27.322  1.00  0.00     0.049 A 
ATOM     54  H   UNL A   1      46.000  28.713  27.761  1.00  0.00     0.167 HD
ATOM     55  C   UNL A   1      47.195  26.284  26.923  1.00  0.00     0.074 A 
ATOM     56  C   UNL A   1      47.355  24.899  26.532  1.00  0.00     0.031 C 
ATOM     57  C   UNL A   1      48.202  27.191  26.941  1.00  0.00     0.031 A 
BRANCH  44  58
ATOM     58  C   UNL A   1      46.476  32.843  28.744  1.00  0.00    -0.014 A 
ATOM     59  C   UNL A   1      46.440  33.830  27.742  1.00  0.00     0.010 A 
ATOM     60  C   UNL A   1      46.847  33.207  30.051  1.00  0.00     0.010 A 
ATOM     61  C   UNL A   1      46.795  35.149  28.036  1.00  0.00     0.020 A 
ATOM     62  C   UNL A   1      47.182  34.530  30.354  1.00  0.00     0.020 A 
ATOM     63  C   UNL A   1      47.166  35.491  29.341  1.00  0.00     0.054 A 
BRANCH  63  64
ATOM     64  S   UNL A   1      47.593  37.217  29.700  1.00  0.00     0.124 S 
ATOM     65  O   UNL A   1      46.313  37.754  30.156  1.00  0.00    -0.237 OA
ATOM     66  O   UNL A   1      48.621  37.086  30.730  1.00  0.00    -0.237 OA
ATOM     67  O   UNL A   1      48.063  37.732  28.418  1.00  0.00    -0.744 OA
ENDBRANCH  63  64
ENDBRANCH  44  58
BRANCH  45  68
ATOM     68  C   UNL A   1      43.412  23.490  27.014  1.00  0.00    -0.014 A 
ATOM     69  C   UNL A   1      43.268  23.028  25.694  1.00  0.00     0.010 A 
ATOM     70  C   UNL A   1      43.106  22.623  28.079  1.00  0.00     0.010 A 
ATOM     71  C   UNL A   1      42.797  21.736  25.444  1.00  0.00     0.020 A 
ATOM     72  C   UNL A   1      42.660  21.321  27.833  1.00  0.00     0.020 A 
ATOM     73  C   UNL A   1      42.492  20.893  26.516  1.00  0.00     0.054 A 
BRANCH  73  74
ATOM     74  S   UNL A   1      41.901  19.212  26.172  1.00  0.00     0.124 S 
ATOM     75  O   UNL A   1      42.684  18.851  24.994  1.00  0.00    -0.237 OA
ATOM     76  O   UNL A   1      42.240  18.497  27.401  1.00  0.00    -0.237 OA
ATOM     77  O   UNL A   1      40.470  19.394  25.942  1.00  0.00    -0.744 OA
ENDBRANCH  73  74
ENDBRANCH  45  68
BRANCH  57  78
ATOM     78  C   UNL A   1      49.575  26.705  26.565  1.00  0.00    -0.014 A 
ATOM     79  C   UNL A   1      50.412  26.083  27.508  1.00  0.00     0.010 A 
ATOM     80  C   UNL A   1      50.013  26.831  25.233  1.00  0.00     0.010 A 
ATOM     81  C   UNL A   1      51.677  25.623  27.132  1.00  0.00     0.020 A 
ATOM     82  C   UNL A   1      51.268  26.349  24.849  1.00  0.00     0.020 A 
ATOM     83  C   UNL A   1      52.097  25.760  25.805  1.00  0.00     0.054 A 
BRANCH  83  84
ATOM     84  S   UNL A   1      53.726  25.116  25.331  1.00  0.00     0.124 S 
ATOM     85  O   UNL A   1      53.962  25.791  24.059  1.00  0.00    -0.237 OA
ATOM     86  O   UNL A   1      54.577  25.546  26.438  1.00  0.00    -0.237 OA
ATOM     87  O   UNL A   1      53.514  23.672  25.242  1.00  0.00    -0.744 OA
ENDBRANCH  83  84
ENDBRANCH  57  78
ENDBRANCH  31  32
ENDBRANCH  24  26
ENDBRANCH  23  24
ENDBRANCH  22  23
ENDBRANCH  21  22
ENDBRANCH   1  21
TORSDOF 20
ENDMDL
MODEL 3
REMARK VINA RESULT:      -9.4      0.922      8.378
REMARK SMILES CC[NH2+]C[C@@H](C)C(=O)N1CCO[C@@H](CC(=O)OCCOC(=O)c2ccc(-c3c4nc(c(-c5ccc(S(=O)(=O)[O-])cc5)c5ccc([nH]5)c(-c5ccc(S(=O)(=O)[O-])cc5)c5nc(c(-c6ccc(S(=O)(=O)[O-])cc6)c6ccc3[nH]6)C=C5)C=C4)cc2)C1
REMARK SMILES IDX 17 1 15 2 16 3 14 4 13 5 9 6 10 7 83 8 11 9 12 10 7 11 8 12
REMARK SMILES IDX 5 13 6 14 4 15 3 16 2 19 1 20 18 21 19 22 20 23 21 24 22 25
REMARK SMILES IDX 23 26 24 27 82 28 25 29 81 30 26 31 27 32 28 33 75 34 29 35
REMARK SMILES IDX 80 36 74 37 76 38 30 39 79 40 73 41 72 42 31 44 61 45 42 46
REMARK SMILES IDX 60 47 43 48 46 49 59 50 77 51 44 52 45 53 58 55 78 56 47 57
REMARK SMILES IDX 32 58 33 59 41 60 34 61 40 62 35 63 36 64 37 65 38 66 39 67
REMARK SMILES IDX 62 68 63 69 71 70 64 71 70 72 65 73 66 74 67 75 68 76 69 77
REMARK SMILES IDX 48 78 49 79 57 80 50 81 56 82 51 83 52 84 53 85 54 86 55 87
REMARK H PARENT 3 17 3 18 76 43 46 54
REMARK Flexibility Score: inf
ROOT
ATOM      1  O   UNL A   1      38.046  21.558  25.220  1.00  0.00    -0.462 OA
ENDROOT
BRANCH   1   2
ATOM      2  C   UNL A   1      37.387  22.738  25.320  1.00  0.00     0.308 C 
ATOM      3  O   UNL A   1      37.358  23.438  26.323  1.00  0.00    -0.252 OA
BRANCH   2   4
ATOM      4  C   UNL A   1      36.620  23.067  24.061  1.00  0.00     0.156 C 
BRANCH   4   5
ATOM      5  C   UNL A   1      35.161  22.620  24.090  1.00  0.00     0.148 C 
ATOM      6  N   UNL A   1      33.554  20.885  24.871  1.00  0.00    -0.337 N 
ATOM      7  C   UNL A   1      32.689  21.958  25.373  1.00  0.00     0.148 C 
ATOM      8  C   UNL A   1      34.970  21.255  24.775  1.00  0.00     0.152 C 
ATOM      9  C   UNL A   1      33.002  23.317  24.740  1.00  0.00     0.182 C 
ATOM     10  O   UNL A   1      34.403  23.618  24.811  1.00  0.00    -0.374 OA
BRANCH   6  11
ATOM     11  C   UNL A   1      33.241  19.541  24.776  1.00  0.00     0.231 C 
ATOM     12  O   UNL A   1      32.940  18.887  25.784  1.00  0.00    -0.274 OA
BRANCH  11  13
ATOM     13  C   UNL A   1      33.290  18.800  23.441  1.00  0.00     0.130 C 
ATOM     14  C   UNL A   1      32.089  19.121  22.554  1.00  0.00     0.024 C 
BRANCH  13  15
ATOM     15  C   UNL A   1      33.625  17.311  23.607  1.00  0.00     0.273 C 
BRANCH  15  16
ATOM     16  N   UNL A   1      32.631  16.516  24.341  1.00  0.00    -0.346 N 
ATOM     17  H   UNL A   1      32.123  17.135  24.973  1.00  0.00     0.346 HD
ATOM     18  H   UNL A   1      32.013  16.087  23.652  1.00  0.00     0.346 HD
BRANCH  16  19
ATOM     19  C   UNL A   1      33.230  15.439  25.124  1.00  0.00     0.257 C 
ATOM     20  C   UNL A   1      34.699  15.742  25.376  1.00  0.00     0.071 C 
ENDBRANCH  16  19
ENDBRANCH  15  16
ENDBRANCH  13  15
ENDBRANCH  11  13
ENDBRANCH   6  11
ENDBRANCH   4   5
ENDBRANCH   2   4
ENDBRANCH   1   2
BRANCH   1  21
ATOM     21  C   UNL A   1      39.165  21.347  26.104  1.00  0.00     0.274 C 
BRANCH  21  22
ATOM     22  C   UNL A   1      39.588  19.877  26.122  1.00  0.00     0.275 C 
BRANCH  22  23
ATOM     23  O   UNL A   1      40.760  19.687  26.935  1.00  0.00    -0.458 OA
BRANCH  23  24
ATOM     24  C   UNL A   1      41.939  19.716  26.271  1.00  0.00     0.338 C 
ATOM     25  O   UNL A   1      42.384  18.864  25.522  1.00  0.00    -0.246 OA
BRANCH  24  26
ATOM     26  C   UNL A   1      42.584  21.021  26.482  1.00  0.00     0.060 A 
ATOM     27  C   UNL A   1      42.682  21.511  27.788  1.00  0.00     0.016 A 
ATOM     28  C   UNL A   1      43.034  21.779  25.401  1.00  0.00     0.016 A 
ATOM     29  C   UNL A   1      43.233  22.769  28.017  1.00  0.00     0.010 A 
ATOM     30  C   UNL A   1      43.587  23.042  25.633  1.00  0.00     0.010 A 
ATOM     31  C   UNL A   1      43.683  23.548  26.942  1.00  0.00    -0.014 A 
BRANCH  31  32
ATOM     32  C   UNL A   1      44.216  24.911  27.182  1.00  0.00     0.031 A 
ATOM     33  C   UNL A   1      43.281  26.018  27.581  1.00  0.00     0.074 A 
ATOM     34  C   UNL A   1      45.535  25.149  27.057  1.00  0.00     0.049 A 
ATOM     35  N   UNL A   1      43.539  27.287  27.769  1.00  0.00    -0.248 NA
ATOM     36  C   UNL A   1      41.874  25.649  27.799  1.00  0.00     0.031 C 
ATOM     37  C   UNL A   1      46.548  24.145  26.721  1.00  0.00     0.029 A 
ATOM     38  N   UNL A   1      46.250  26.311  27.198  1.00  0.00    -0.354 N 
ATOM     39  C   UNL A   1      42.328  27.872  28.121  1.00  0.00     0.074 A 
ATOM     40  C   UNL A   1      41.330  26.823  28.097  1.00  0.00     0.031 C 
ATOM     41  C   UNL A   1      47.754  24.736  26.686  1.00  0.00     0.029 A 
ATOM     42  C   UNL A   1      47.595  26.164  26.953  1.00  0.00     0.049 A 
ATOM     43  H   UNL A   1      45.840  27.169  27.451  1.00  0.00     0.167 HD
ATOM     44  C   UNL A   1      42.072  29.162  28.439  1.00  0.00     0.031 A 
ATOM     45  C   UNL A   1      48.582  27.079  26.921  1.00  0.00     0.031 A 
ATOM     46  C   UNL A   1      43.064  30.205  28.452  1.00  0.00     0.049 A 
ATOM     47  C   UNL A   1      48.255  28.523  27.200  1.00  0.00     0.074 A 
ATOM     48  C   UNL A   1      42.899  31.547  28.748  1.00  0.00     0.029 A 
ATOM     49  N   UNL A   1      44.407  30.024  28.160  1.00  0.00    -0.354 N 
ATOM     50  N   UNL A   1      47.102  29.060  27.520  1.00  0.00    -0.248 NA
ATOM     51  C   UNL A   1      49.365  29.484  27.114  1.00  0.00     0.031 C 
ATOM     52  C   UNL A   1      44.135  32.185  28.595  1.00  0.00     0.029 A 
ATOM     53  C   UNL A   1      45.079  31.230  28.253  1.00  0.00     0.049 A 
ATOM     54  H   UNL A   1      44.822  29.163  27.920  1.00  0.00     0.167 HD
ATOM     55  C   UNL A   1      47.353  30.416  27.697  1.00  0.00     0.074 A 
ATOM     56  C   UNL A   1      48.769  30.615  27.464  1.00  0.00     0.031 C 
ATOM     57  C   UNL A   1      46.490  31.409  28.024  1.00  0.00     0.031 A 
BRANCH  44  58
ATOM     58  C   UNL A   1      40.653  29.528  28.782  1.00  0.00    -0.014 A 
ATOM     59  C   UNL A   1      39.643  29.507  27.803  1.00  0.00     0.010 A 
ATOM     60  C   UNL A   1      40.315  29.845  30.110  1.00  0.00     0.010 A 
ATOM     61  C   UNL A   1      38.326  29.824  28.141  1.00  0.00     0.020 A 
ATOM     62  C   UNL A   1      38.993  30.142  30.456  1.00  0.00     0.020 A 
ATOM     63  C   UNL A   1      38.008  30.143  29.466  1.00  0.00     0.054 A 
BRANCH  63  64
ATOM     64  S   UNL A   1      36.283  30.522  29.881  1.00  0.00     0.124 S 
ATOM     65  O   UNL A   1      36.350  31.954  30.159  1.00  0.00    -0.237 OA
ATOM     66  O   UNL A   1      35.570  30.151  28.662  1.00  0.00    -0.237 OA
ATOM     67  O   UNL A   1      36.012  29.675  31.040  1.00  0.00    -0.744 OA
ENDBRANCH  63  64
ENDBRANCH  44  58
BRANCH  45  68
ATOM     68  C   UNL A   1      49.974  26.673  26.584  1.00  0.00    -0.014 A 
ATOM     69  C   UNL A   1      50.385  26.563  25.244  1.00  0.00     0.010 A 
ATOM     70  C   UNL A   1      50.890  26.367  27.607  1.00  0.00     0.010 A 
ATOM     71  C   UNL A   1      51.676  26.125  24.933  1.00  0.00     0.020 A 
ATOM     72  C   UNL A   1      52.190  25.955  27.301  1.00  0.00     0.020 A 
ATOM     73  C   UNL A   1      52.568  25.819  25.964  1.00  0.00     0.054 A 
BRANCH  73  74
ATOM     74  S   UNL A   1      54.246  25.272  25.543  1.00  0.00     0.124 S 
ATOM     75  O   UNL A   1      54.786  24.914  26.851  1.00  0.00    -0.237 OA
ATOM     76  O   UNL A   1      53.998  24.156  24.633  1.00  0.00    -0.237 OA
ATOM     77  O   UNL A   1      54.842  26.451  24.920  1.00  0.00    -0.744 OA
ENDBRANCH  73  74
ENDBRANCH  45  68
BRANCH  57  78
ATOM     78  C   UNL A   1      47.058  32.792  28.190  1.00  0.00    -0.014 A 
ATOM     79  C   UNL A   1      47.595  33.217  29.418  1.00  0.00     0.010 A 
ATOM     80  C   UNL A   1      47.099  33.661  27.083  1.00  0.00     0.010 A 
ATOM     81  C   UNL A   1      48.135  34.500  29.545  1.00  0.00     0.020 A 
ATOM     82  C   UNL A   1      47.661  34.935  27.201  1.00  0.00     0.020 A 
ATOM     83  C   UNL A   1      48.163  35.351  28.435  1.00  0.00     0.054 A 
BRANCH  83  84
ATOM     84  S   UNL A   1      48.908  36.996  28.612  1.00  0.00     0.124 S 
ATOM     85  O   UNL A   1      47.734  37.863  28.609  1.00  0.00    -0.237 OA
ATOM     86  O   UNL A   1      49.611  36.896  29.889  1.00  0.00    -0.237 OA
ATOM     87  O   UNL A   1      49.773  37.112  27.439  1.00  0.00    -0.744 OA
ENDBRANCH  83  84
ENDBRANCH  57  78
ENDBRANCH  31  32
ENDBRANCH  24  26
ENDBRANCH  23  24
ENDBRANCH  22  23
ENDBRANCH  21  22
ENDBRANCH   1  21
TORSDOF 20
ENDMDL
