MODEL 1
REMARK VINA RESULT:     -11.3      0.000      0.000
REMARK SMILES O=C(OCCOC(=O)[C@@H]1CN(C(=O)CCC(F)(F)F)C[C@H]1c1ccc2c(c1)OCO2)c1ccc(-c2c3nc(c(-c4ccc(S(=O)(=O)[O-])cc4)c4ccc([nH]4)c(-c4ccc(S(=O)(=O)[O-])cc4)c4nc(c(-c5ccc(S(=O)(=O)[O-])cc5)c5ccc2[nH]5)C=C4)C=C3)cc1
REMARK SMILES IDX 5 1 4 2 3 3 2 4 1 5 31 6 32 7 90 8 33 9 89 10 34 11 35 12
REMARK SMILES IDX 36 13 83 14 37 15 88 16 82 17 84 18 38 19 87 20 81 21 80 22
REMARK SMILES IDX 39 24 69 25 50 26 68 27 51 28 54 29 67 30 85 31 52 32 53 33
REMARK SMILES IDX 66 35 86 36 55 37 40 38 41 39 49 40 42 41 48 42 43 43 44 44
REMARK SMILES IDX 45 45 46 46 47 47 70 48 71 49 79 50 72 51 78 52 73 53 74 54
REMARK SMILES IDX 75 55 76 56 77 57 56 58 57 59 65 60 58 61 64 62 59 63 60 64
REMARK SMILES IDX 61 65 62 66 63 67 6 68 7 69 8 70 9 71 10 72 21 73 11 74
REMARK SMILES IDX 20 75 22 76 23 77 27 78 24 79 26 80 25 81 28 82 30 83 29 84
REMARK SMILES IDX 12 85 13 86 14 87 15 88 16 89 17 90 18 91 19 92
REMARK H PARENT 84 23 54 34
REMARK Flexibility Score: inf
ROOT
ATOM      1  C   UNL A   1      33.114  29.254  25.319  1.00  0.00     0.274 C 
ENDROOT
BRANCH   1   2
ATOM      2  C   UNL A   1      33.431  29.094  26.804  1.00  0.00     0.275 C 
BRANCH   2   3
ATOM      3  O   UNL A   1      33.449  30.353  27.506  1.00  0.00    -0.458 OA
BRANCH   3   4
ATOM      4  C   UNL A   1      34.395  30.945  28.270  1.00  0.00     0.338 C 
ATOM      5  O   UNL A   1      34.162  32.087  28.670  1.00  0.00    -0.246 OA
BRANCH   4   6
ATOM      6  C   UNL A   1      35.747  30.371  28.606  1.00  0.00     0.060 A 
ATOM      7  C   UNL A   1      36.111  29.699  29.775  1.00  0.00     0.016 A 
ATOM      8  C   UNL A   1      36.736  30.497  27.606  1.00  0.00     0.016 A 
ATOM      9  C   UNL A   1      37.377  29.107  29.913  1.00  0.00     0.010 A 
ATOM     10  C   UNL A   1      37.998  29.900  27.730  1.00  0.00     0.010 A 
ATOM     11  C   UNL A   1      38.329  29.205  28.895  1.00  0.00    -0.014 A 
BRANCH  11  12
ATOM     12  C   UNL A   1      39.723  28.777  29.163  1.00  0.00     0.031 A 
ATOM     13  C   UNL A   1      40.570  29.682  30.004  1.00  0.00     0.074 A 
ATOM     14  C   UNL A   1      40.216  27.610  28.709  1.00  0.00     0.049 A 
ATOM     15  N   UNL A   1      41.759  29.474  30.495  1.00  0.00    -0.248 NA
ATOM     16  C   UNL A   1      40.005  31.007  30.317  1.00  0.00     0.031 C 
ATOM     17  C   UNL A   1      39.502  26.696  27.828  1.00  0.00     0.029 A 
ATOM     18  N   UNL A   1      41.421  26.982  28.925  1.00  0.00    -0.354 N 
ATOM     19  C   UNL A   1      42.096  30.647  31.156  1.00  0.00     0.074 A 
ATOM     20  C   UNL A   1      41.000  31.571  30.979  1.00  0.00     0.031 C 
ATOM     21  C   UNL A   1      40.265  25.613  27.605  1.00  0.00     0.029 A 
ATOM     22  C   UNL A   1      41.511  25.732  28.347  1.00  0.00     0.049 A 
ATOM     23  H   UNL A   1      42.152  27.389  29.444  1.00  0.00     0.167 HD
ATOM     24  C   UNL A   1      43.222  30.928  31.846  1.00  0.00     0.031 A 
ATOM     25  C   UNL A   1      42.468  24.783  28.440  1.00  0.00     0.031 A 
ATOM     26  C   UNL A   1      44.319  30.012  31.980  1.00  0.00     0.049 A 
ATOM     27  C   UNL A   1      43.682  25.100  29.275  1.00  0.00     0.074 A 
ATOM     28  C   UNL A   1      45.518  30.194  32.641  1.00  0.00     0.029 A 
ATOM     29  N   UNL A   1      44.350  28.740  31.426  1.00  0.00    -0.354 N 
ATOM     30  N   UNL A   1      43.935  26.178  29.981  1.00  0.00    -0.248 NA
ATOM     31  C   UNL A   1      44.737  24.078  29.332  1.00  0.00     0.031 C 
ATOM     32  C   UNL A   1      46.297  29.048  32.445  1.00  0.00     0.029 A 
ATOM     33  C   UNL A   1      45.556  28.130  31.716  1.00  0.00     0.049 A 
ATOM     34  H   UNL A   1      43.622  28.332  30.903  1.00  0.00     0.167 HD
ATOM     35  C   UNL A   1      45.174  25.960  30.567  1.00  0.00     0.074 A 
ATOM     36  C   UNL A   1      45.586  24.622  30.189  1.00  0.00     0.031 C 
ATOM     37  C   UNL A   1      45.926  26.796  31.322  1.00  0.00     0.031 A 
BRANCH  24  38
ATOM     38  C   UNL A   1      43.319  32.301  32.444  1.00  0.00    -0.014 A 
ATOM     39  C   UNL A   1      42.916  32.550  33.768  1.00  0.00     0.010 A 
ATOM     40  C   UNL A   1      43.774  33.369  31.651  1.00  0.00     0.010 A 
ATOM     41  C   UNL A   1      42.912  33.853  34.271  1.00  0.00     0.020 A 
ATOM     42  C   UNL A   1      43.803  34.668  32.161  1.00  0.00     0.020 A 
ATOM     43  C   UNL A   1      43.351  34.904  33.461  1.00  0.00     0.054 A 
BRANCH  43  44
ATOM     44  S   UNL A   1      43.332  36.585  34.139  1.00  0.00     0.124 S 
ATOM     45  O   UNL A   1      44.374  36.509  35.160  1.00  0.00    -0.237 OA
ATOM     46  O   UNL A   1      43.657  37.402  32.972  1.00  0.00    -0.237 OA
ATOM     47  O   UNL A   1      41.971  36.740  34.646  1.00  0.00    -0.744 OA
ENDBRANCH  43  44
ENDBRANCH  24  38
BRANCH  25  48
ATOM     48  C   UNL A   1      42.314  23.425  27.818  1.00  0.00    -0.014 A 
ATOM     49  C   UNL A   1      43.035  23.097  26.650  1.00  0.00     0.010 A 
ATOM     50  C   UNL A   1      41.464  22.447  28.366  1.00  0.00     0.010 A 
ATOM     51  C   UNL A   1      42.923  21.835  26.057  1.00  0.00     0.020 A 
ATOM     52  C   UNL A   1      41.376  21.167  27.799  1.00  0.00     0.020 A 
ATOM     53  C   UNL A   1      42.110  20.868  26.649  1.00  0.00     0.054 A 
BRANCH  53  54
ATOM     54  S   UNL A   1      42.106  19.195  25.946  1.00  0.00     0.124 S 
ATOM     55  O   UNL A   1      42.975  19.350  24.783  1.00  0.00    -0.237 OA
ATOM     56  O   UNL A   1      42.656  18.403  27.044  1.00  0.00    -0.237 OA
ATOM     57  O   UNL A   1      40.698  18.946  25.647  1.00  0.00    -0.744 OA
ENDBRANCH  53  54
ENDBRANCH  25  48
BRANCH  37  58
ATOM     58  C   UNL A   1      47.258  26.278  31.783  1.00  0.00    -0.014 A 
ATOM     59  C   UNL A   1      47.385  25.605  33.012  1.00  0.00     0.010 A 
ATOM     60  C   UNL A   1      48.387  26.434  30.960  1.00  0.00     0.010 A 
ATOM     61  C   UNL A   1      48.630  25.134  33.430  1.00  0.00     0.020 A 
ATOM     62  C   UNL A   1      49.626  25.933  31.359  1.00  0.00     0.020 A 
ATOM     63  C   UNL A   1      49.742  25.301  32.600  1.00  0.00     0.054 A 
BRANCH  63  64
ATOM     64  S   UNL A   1      51.340  24.644  33.146  1.00  0.00     0.124 S 
ATOM     65  O   UNL A   1      52.254  25.214  32.160  1.00  0.00    -0.237 OA
ATOM     66  O   UNL A   1      51.459  25.180  34.500  1.00  0.00    -0.237 OA
ATOM     67  O   UNL A   1      51.162  23.196  33.069  1.00  0.00    -0.744 OA
ENDBRANCH  63  64
ENDBRANCH  37  58
ENDBRANCH  11  12
ENDBRANCH   4   6
ENDBRANCH   3   4
ENDBRANCH   2   3
ENDBRANCH   1   2
BRANCH   1  68
ATOM     68  O   UNL A   1      34.129  28.621  24.533  1.00  0.00    -0.462 OA
BRANCH  68  69
ATOM     69  C   UNL A   1      33.798  28.147  23.303  1.00  0.00     0.311 C 
ATOM     70  O   UNL A   1      34.241  28.566  22.241  1.00  0.00    -0.252 OA
BRANCH  69  71
ATOM     71  C   UNL A   1      32.802  27.026  23.450  1.00  0.00     0.128 C 
ATOM     72  C   UNL A   1      33.535  25.708  23.319  1.00  0.00     0.135 C 
ATOM     73  C   UNL A   1      31.714  26.970  22.357  1.00  0.00     0.055 C 
ATOM     74  N   UNL A   1      32.507  24.758  22.968  1.00  0.00    -0.341 N 
ATOM     75  C   UNL A   1      31.380  25.447  22.338  1.00  0.00     0.128 C 
BRANCH  73  76
ATOM     76  C   UNL A   1      30.538  27.914  22.619  1.00  0.00    -0.038 A 
ATOM     77  C   UNL A   1      29.356  27.453  23.257  1.00  0.00     0.008 A 
ATOM     78  C   UNL A   1      30.577  29.264  22.238  1.00  0.00     0.054 A 
ATOM     79  C   UNL A   1      28.210  28.240  23.395  1.00  0.00     0.051 A 
ATOM     80  C   UNL A   1      29.429  30.024  22.384  1.00  0.00     0.166 A 
ATOM     81  C   UNL A   1      28.273  29.521  22.926  1.00  0.00     0.165 A 
ATOM     82  O   UNL A   1      29.266  31.304  21.957  1.00  0.00    -0.454 OA
ATOM     83  O   UNL A   1      27.251  30.414  22.927  1.00  0.00    -0.454 OA
ATOM     84  C   UNL A   1      27.843  31.467  22.134  1.00  0.00     0.468 C 
ENDBRANCH  73  76
BRANCH  74  85
ATOM     85  C   UNL A   1      32.527  23.391  23.118  1.00  0.00     0.222 C 
ATOM     86  O   UNL A   1      33.224  22.669  22.402  1.00  0.00    -0.275 OA
BRANCH  85  87
ATOM     87  C   UNL A   1      31.608  22.750  24.149  1.00  0.00     0.109 C 
BRANCH  87  88
ATOM     88  C   UNL A   1      31.096  23.681  25.239  1.00  0.00     0.125 C 
BRANCH  88  89
ATOM     89  C   UNL A   1      32.025  23.792  26.422  1.00  0.00     0.389 C 
ATOM     90  F   UNL A   1      31.616  23.010  27.442  1.00  0.00    -0.171 F 
ATOM     91  F   UNL A   1      33.274  23.398  26.085  1.00  0.00    -0.171 F 
ATOM     92  F   UNL A   1      32.112  25.059  26.870  1.00  0.00    -0.171 F 
ENDBRANCH  88  89
ENDBRANCH  87  88
ENDBRANCH  85  87
ENDBRANCH  74  85
ENDBRANCH  69  71
ENDBRANCH  68  69
ENDBRANCH   1  68
TORSDOF 19
ENDMDL
MODEL 2
REMARK VINA RESULT:     -11.1      1.641      8.216
REMARK SMILES O=C(OCCOC(=O)[C@@H]1CN(C(=O)CCC(F)(F)F)C[C@H]1c1ccc2c(c1)OCO2)c1ccc(-c2c3nc(c(-c4ccc(S(=O)(=O)[O-])cc4)c4ccc([nH]4)c(-c4ccc(S(=O)(=O)[O-])cc4)c4nc(c(-c5ccc(S(=O)(=O)[O-])cc5)c5ccc2[nH]5)C=C4)C=C3)cc1
REMARK SMILES IDX 5 1 4 2 3 3 2 4 1 5 31 6 32 7 90 8 33 9 89 10 34 11 35 12
REMARK SMILES IDX 36 13 83 14 37 15 88 16 82 17 84 18 38 19 87 20 81 21 80 22
REMARK SMILES IDX 39 24 69 25 50 26 68 27 51 28 54 29 67 30 85 31 52 32 53 33
REMARK SMILES IDX 66 35 86 36 55 37 40 38 41 39 49 40 42 41 48 42 43 43 44 44
REMARK SMILES IDX 45 45 46 46 47 47 70 48 71 49 79 50 72 51 78 52 73 53 74 54
REMARK SMILES IDX 75 55 76 56 77 57 56 58 57 59 65 60 58 61 64 62 59 63 60 64
REMARK SMILES IDX 61 65 62 66 63 67 6 68 7 69 8 70 9 71 10 72 21 73 11 74
REMARK SMILES IDX 20 75 22 76 23 77 27 78 24 79 26 80 25 81 28 82 30 83 29 84
REMARK SMILES IDX 12 85 13 86 14 87 15 88 16 89 17 90 18 91 19 92
REMARK H PARENT 84 23 54 34
REMARK Flexibility Score: inf
ROOT
ATOM      1  C   UNL A   1      32.739  28.300  25.607  1.00  0.00     0.274 C 
ENDROOT
BRANCH   1   2
ATOM      2  C   UNL A   1      33.523  28.255  26.915  1.00  0.00     0.275 C 
BRANCH   2   3
ATOM      3  O   UNL A   1      33.423  29.482  27.666  1.00  0.00    -0.458 OA
BRANCH   3   4
ATOM      4  C   UNL A   1      34.361  30.360  28.087  1.00  0.00     0.338 C 
ATOM      5  O   UNL A   1      34.044  31.551  28.113  1.00  0.00    -0.246 OA
BRANCH   4   6
ATOM      6  C   UNL A   1      35.786  30.027  28.444  1.00  0.00     0.060 A 
ATOM      7  C   UNL A   1      36.270  29.619  29.689  1.00  0.00     0.016 A 
ATOM      8  C   UNL A   1      36.720  30.103  27.389  1.00  0.00     0.016 A 
ATOM      9  C   UNL A   1      37.606  29.224  29.860  1.00  0.00     0.010 A 
ATOM     10  C   UNL A   1      38.053  29.701  27.547  1.00  0.00     0.010 A 
ATOM     11  C   UNL A   1      38.507  29.265  28.792  1.00  0.00    -0.014 A 
BRANCH  11  12
ATOM     12  C   UNL A   1      39.953  29.069  29.057  1.00  0.00     0.031 A 
ATOM     13  C   UNL A   1      40.556  27.762  28.645  1.00  0.00     0.074 A 
ATOM     14  C   UNL A   1      40.717  30.028  29.613  1.00  0.00     0.049 A 
ATOM     15  N   UNL A   1      41.808  27.400  28.637  1.00  0.00    -0.248 NA
ATOM     16  C   UNL A   1      39.618  26.716  28.200  1.00  0.00     0.031 C 
ATOM     17  C   UNL A   1      40.217  31.301  30.113  1.00  0.00     0.029 A 
ATOM     18  N   UNL A   1      42.072  30.094  29.846  1.00  0.00    -0.354 N 
ATOM     19  C   UNL A   1      41.808  26.081  28.209  1.00  0.00     0.074 A 
ATOM     20  C   UNL A   1      40.433  25.697  27.994  1.00  0.00     0.031 C 
ATOM     21  C   UNL A   1      41.249  32.034  30.561  1.00  0.00     0.029 A 
ATOM     22  C   UNL A   1      42.492  31.306  30.358  1.00  0.00     0.049 A 
ATOM     23  H   UNL A   1      42.685  29.346  29.664  1.00  0.00     0.167 HD
ATOM     24  C   UNL A   1      42.865  25.261  28.014  1.00  0.00     0.031 A 
ATOM     25  C   UNL A   1      43.734  31.781  30.596  1.00  0.00     0.031 A 
ATOM     26  C   UNL A   1      44.224  25.645  28.268  1.00  0.00     0.049 A 
ATOM     27  C   UNL A   1      44.895  30.867  30.303  1.00  0.00     0.074 A 
ATOM     28  C   UNL A   1      45.374  24.894  28.125  1.00  0.00     0.029 A 
ATOM     29  N   UNL A   1      44.611  26.893  28.735  1.00  0.00    -0.354 N 
ATOM     30  N   UNL A   1      44.880  29.656  29.795  1.00  0.00    -0.248 NA
ATOM     31  C   UNL A   1      46.239  31.378  30.607  1.00  0.00     0.031 C 
ATOM     32  C   UNL A   1      46.455  25.672  28.552  1.00  0.00     0.029 A 
ATOM     33  C   UNL A   1      45.983  26.929  28.901  1.00  0.00     0.049 A 
ATOM     34  H   UNL A   1      43.999  27.643  28.921  1.00  0.00     0.167 HD
ATOM     35  C   UNL A   1      46.210  29.265  29.718  1.00  0.00     0.074 A 
ATOM     36  C   UNL A   1      47.004  30.393  30.165  1.00  0.00     0.031 C 
ATOM     37  C   UNL A   1      46.734  28.073  29.346  1.00  0.00     0.031 A 
BRANCH  24  38
ATOM     38  C   UNL A   1      42.556  23.863  27.561  1.00  0.00    -0.014 A 
ATOM     39  C   UNL A   1      42.316  22.833  28.489  1.00  0.00     0.010 A 
ATOM     40  C   UNL A   1      42.559  23.566  26.187  1.00  0.00     0.010 A 
ATOM     41  C   UNL A   1      42.138  21.519  28.052  1.00  0.00     0.020 A 
ATOM     42  C   UNL A   1      42.348  22.258  25.746  1.00  0.00     0.020 A 
ATOM     43  C   UNL A   1      42.161  21.240  26.683  1.00  0.00     0.054 A 
BRANCH  43  44
ATOM     44  S   UNL A   1      41.931  19.524  26.144  1.00  0.00     0.124 S 
ATOM     45  O   UNL A   1      42.791  19.462  24.964  1.00  0.00    -0.237 OA
ATOM     46  O   UNL A   1      42.398  18.763  27.301  1.00  0.00    -0.237 OA
ATOM     47  O   UNL A   1      40.498  19.434  25.878  1.00  0.00    -0.744 OA
ENDBRANCH  43  44
ENDBRANCH  24  38
BRANCH  25  48
ATOM     48  C   UNL A   1      43.979  33.191  31.049  1.00  0.00    -0.014 A 
ATOM     49  C   UNL A   1      44.051  33.486  32.428  1.00  0.00     0.010 A 
ATOM     50  C   UNL A   1      44.146  34.249  30.137  1.00  0.00     0.010 A 
ATOM     51  C   UNL A   1      44.293  34.788  32.880  1.00  0.00     0.020 A 
ATOM     52  C   UNL A   1      44.427  35.549  30.583  1.00  0.00     0.020 A 
ATOM     53  C   UNL A   1      44.503  35.809  31.953  1.00  0.00     0.054 A 
BRANCH  53  54
ATOM     54  S   UNL A   1      44.968  37.452  32.569  1.00  0.00     0.124 S 
ATOM     55  O   UNL A   1      43.880  38.286  32.068  1.00  0.00    -0.237 OA
ATOM     56  O   UNL A   1      44.987  37.239  34.014  1.00  0.00    -0.237 OA
ATOM     57  O   UNL A   1      46.274  37.695  31.961  1.00  0.00    -0.744 OA
ENDBRANCH  53  54
ENDBRANCH  25  48
BRANCH  37  58
ATOM     58  C   UNL A   1      48.229  27.944  29.406  1.00  0.00    -0.014 A 
ATOM     59  C   UNL A   1      49.027  28.261  28.291  1.00  0.00     0.010 A 
ATOM     60  C   UNL A   1      48.844  27.535  30.603  1.00  0.00     0.010 A 
ATOM     61  C   UNL A   1      50.414  28.130  28.360  1.00  0.00     0.020 A 
ATOM     62  C   UNL A   1      50.232  27.438  30.685  1.00  0.00     0.020 A 
ATOM     63  C   UNL A   1      51.008  27.720  29.558  1.00  0.00     0.054 A 
BRANCH  63  64
ATOM     64  S   UNL A   1      52.814  27.598  29.634  1.00  0.00     0.124 S 
ATOM     65  O   UNL A   1      53.212  28.218  28.374  1.00  0.00    -0.237 OA
ATOM     66  O   UNL A   1      53.134  28.359  30.840  1.00  0.00    -0.237 OA
ATOM     67  O   UNL A   1      53.059  26.161  29.728  1.00  0.00    -0.744 OA
ENDBRANCH  63  64
ENDBRANCH  37  58
ENDBRANCH  11  12
ENDBRANCH   4   6
ENDBRANCH   3   4
ENDBRANCH   2   3
ENDBRANCH   1   2
BRANCH   1  68
ATOM     68  O   UNL A   1      33.506  28.971  24.601  1.00  0.00    -0.462 OA
BRANCH  68  69
ATOM     69  C   UNL A   1      33.766  28.318  23.438  1.00  0.00     0.311 C 
ATOM     70  O   UNL A   1      34.615  28.644  22.618  1.00  0.00    -0.252 OA
BRANCH  69  71
ATOM     71  C   UNL A   1      32.847  27.130  23.315  1.00  0.00     0.128 C 
ATOM     72  C   UNL A   1      33.678  25.908  22.982  1.00  0.00     0.135 C 
ATOM     73  C   UNL A   1      31.817  27.216  22.170  1.00  0.00     0.055 C 
ATOM     74  N   UNL A   1      32.737  24.982  22.401  1.00  0.00    -0.341 N 
ATOM     75  C   UNL A   1      31.593  25.707  21.847  1.00  0.00     0.128 C 
BRANCH  73  76
ATOM     76  C   UNL A   1      30.565  28.018  22.536  1.00  0.00    -0.038 A 
ATOM     77  C   UNL A   1      29.435  27.388  23.122  1.00  0.00     0.008 A 
ATOM     78  C   UNL A   1      30.482  29.400  22.304  1.00  0.00     0.054 A 
ATOM     79  C   UNL A   1      28.227  28.051  23.347  1.00  0.00     0.051 A 
ATOM     80  C   UNL A   1      29.272  30.035  22.535  1.00  0.00     0.166 A 
ATOM     81  C   UNL A   1      28.171  29.376  23.020  1.00  0.00     0.165 A 
ATOM     82  O   UNL A   1      28.993  31.335  22.250  1.00  0.00    -0.454 OA
ATOM     83  O   UNL A   1      27.075  30.169  23.121  1.00  0.00    -0.454 OA
ATOM     84  C   UNL A   1      27.563  31.351  22.446  1.00  0.00     0.468 C 
ENDBRANCH  73  76
BRANCH  74  85
ATOM     85  C   UNL A   1      32.848  23.615  22.294  1.00  0.00     0.222 C 
ATOM     86  O   UNL A   1      33.497  23.085  21.390  1.00  0.00    -0.275 OA
BRANCH  85  87
ATOM     87  C   UNL A   1      32.088  22.735  23.276  1.00  0.00     0.109 C 
BRANCH  87  88
ATOM     88  C   UNL A   1      31.974  23.282  24.692  1.00  0.00     0.125 C 
BRANCH  88  89
ATOM     89  C   UNL A   1      31.488  22.265  25.694  1.00  0.00     0.389 C 
ATOM     90  F   UNL A   1      30.176  22.430  25.961  1.00  0.00    -0.171 F 
ATOM     91  F   UNL A   1      31.649  21.010  25.215  1.00  0.00    -0.171 F 
ATOM     92  F   UNL A   1      32.168  22.342  26.853  1.00  0.00    -0.171 F 
ENDBRANCH  88  89
ENDBRANCH  87  88
ENDBRANCH  85  87
ENDBRANCH  74  85
ENDBRANCH  69  71
ENDBRANCH  68  69
ENDBRANCH   1  68
TORSDOF 19
ENDMDL
MODEL 3
REMARK VINA RESULT:     -10.8      2.943      4.663
REMARK SMILES O=C(OCCOC(=O)[C@@H]1CN(C(=O)CCC(F)(F)F)C[C@H]1c1ccc2c(c1)OCO2)c1ccc(-c2c3nc(c(-c4ccc(S(=O)(=O)[O-])cc4)c4ccc([nH]4)c(-c4ccc(S(=O)(=O)[O-])cc4)c4nc(c(-c5ccc(S(=O)(=O)[O-])cc5)c5ccc2[nH]5)C=C4)C=C3)cc1
REMARK SMILES IDX 5 1 4 2 3 3 2 4 1 5 31 6 32 7 90 8 33 9 89 10 34 11 35 12
REMARK SMILES IDX 36 13 83 14 37 15 88 16 82 17 84 18 38 19 87 20 81 21 80 22
REMARK SMILES IDX 39 24 69 25 50 26 68 27 51 28 54 29 67 30 85 31 52 32 53 33
REMARK SMILES IDX 66 35 86 36 55 37 40 38 41 39 49 40 42 41 48 42 43 43 44 44
REMARK SMILES IDX 45 45 46 46 47 47 70 48 71 49 79 50 72 51 78 52 73 53 74 54
REMARK SMILES IDX 75 55 76 56 77 57 56 58 57 59 65 60 58 61 64 62 59 63 60 64
REMARK SMILES IDX 61 65 62 66 63 67 6 68 7 69 8 70 9 71 10 72 21 73 11 74
REMARK SMILES IDX 20 75 22 76 23 77 27 78 24 79 26 80 25 81 28 82 30 83 29 84
REMARK SMILES IDX 12 85 13 86 14 87 15 88 16 89 17 90 18 91 19 92
REMARK H PARENT 84 23 54 34
REMARK Flexibility Score: inf
ROOT
ATOM      1  C   UNL A   1      33.665  30.005  26.006  1.00  0.00     0.274 C 
ENDROOT
BRANCH   1   2
ATOM      2  C   UNL A   1      32.851  30.305  27.261  1.00  0.00     0.275 C 
BRANCH   2   3
ATOM      3  O   UNL A   1      33.350  31.446  27.987  1.00  0.00    -0.458 OA
BRANCH   3   4
ATOM      4  C   UNL A   1      34.580  32.005  28.055  1.00  0.00     0.338 C 
ATOM      5  O   UNL A   1      34.721  33.117  27.544  1.00  0.00    -0.246 OA
BRANCH   4   6
ATOM      6  C   UNL A   1      35.816  31.354  28.620  1.00  0.00     0.060 A 
ATOM      7  C   UNL A   1      35.931  30.055  29.121  1.00  0.00     0.016 A 
ATOM      8  C   UNL A   1      36.989  32.138  28.600  1.00  0.00     0.016 A 
ATOM      9  C   UNL A   1      37.174  29.531  29.510  1.00  0.00     0.010 A 
ATOM     10  C   UNL A   1      38.236  31.620  28.976  1.00  0.00     0.010 A 
ATOM     11  C   UNL A   1      38.333  30.308  29.443  1.00  0.00    -0.014 A 
BRANCH  11  12
ATOM     12  C   UNL A   1      39.577  29.809  30.077  1.00  0.00     0.031 A 
ATOM     13  C   UNL A   1      39.947  30.383  31.409  1.00  0.00     0.074 A 
ATOM     14  C   UNL A   1      40.337  28.853  29.511  1.00  0.00     0.049 A 
ATOM     15  N   UNL A   1      40.896  30.019  32.226  1.00  0.00    -0.248 NA
ATOM     16  C   UNL A   1      39.153  31.534  31.873  1.00  0.00     0.031 C 
ATOM     17  C   UNL A   1      40.106  28.284  28.190  1.00  0.00     0.029 A 
ATOM     18  N   UNL A   1      41.450  28.183  29.965  1.00  0.00    -0.354 N 
ATOM     19  C   UNL A   1      40.827  30.907  33.290  1.00  0.00     0.074 A 
ATOM     20  C   UNL A   1      39.766  31.844  33.002  1.00  0.00     0.031 C 
ATOM     21  C   UNL A   1      41.023  27.330  27.955  1.00  0.00     0.029 A 
ATOM     22  C   UNL A   1      41.893  27.192  29.112  1.00  0.00     0.049 A 
ATOM     23  H   UNL A   1      41.890  28.393  30.820  1.00  0.00     0.167 HD
ATOM     24  C   UNL A   1      41.586  30.940  34.407  1.00  0.00     0.031 A 
ATOM     25  C   UNL A   1      42.859  26.261  29.267  1.00  0.00     0.031 A 
ATOM     26  C   UNL A   1      42.663  30.026  34.661  1.00  0.00     0.049 A 
ATOM     27  C   UNL A   1      43.642  26.280  30.554  1.00  0.00     0.074 A 
ATOM     28  C   UNL A   1      43.512  29.974  35.749  1.00  0.00     0.029 A 
ATOM     29  N   UNL A   1      43.045  29.007  33.800  1.00  0.00    -0.354 N 
ATOM     30  N   UNL A   1      43.492  27.064  31.597  1.00  0.00    -0.248 NA
ATOM     31  C   UNL A   1      44.721  25.291  30.693  1.00  0.00     0.031 C 
ATOM     32  C   UNL A   1      44.442  28.953  35.524  1.00  0.00     0.029 A 
ATOM     33  C   UNL A   1      44.130  28.330  34.324  1.00  0.00     0.049 A 
ATOM     34  H   UNL A   1      42.609  28.797  32.942  1.00  0.00     0.167 HD
ATOM     35  C   UNL A   1      44.453  26.660  32.512  1.00  0.00     0.074 A 
ATOM     36  C   UNL A   1      45.132  25.519  31.930  1.00  0.00     0.031 C 
ATOM     37  C   UNL A   1      44.775  27.197  33.713  1.00  0.00     0.031 A 
BRANCH  24  38
ATOM     38  C   UNL A   1      41.295  32.040  35.386  1.00  0.00    -0.014 A 
ATOM     39  C   UNL A   1      40.303  31.894  36.372  1.00  0.00     0.010 A 
ATOM     40  C   UNL A   1      41.989  33.258  35.283  1.00  0.00     0.010 A 
ATOM     41  C   UNL A   1      39.972  32.966  37.204  1.00  0.00     0.020 A 
ATOM     42  C   UNL A   1      41.684  34.322  36.135  1.00  0.00     0.020 A 
ATOM     43  C   UNL A   1      40.662  34.175  37.075  1.00  0.00     0.054 A 
BRANCH  43  44
ATOM     44  S   UNL A   1      40.209  35.551  38.164  1.00  0.00     0.124 S 
ATOM     45  O   UNL A   1      39.879  36.600  37.202  1.00  0.00    -0.237 OA
ATOM     46  O   UNL A   1      39.077  35.007  38.910  1.00  0.00    -0.237 OA
ATOM     47  O   UNL A   1      41.418  35.783  38.950  1.00  0.00    -0.744 OA
ENDBRANCH  43  44
ENDBRANCH  24  38
BRANCH  25  48
ATOM     48  C   UNL A   1      43.105  25.184  28.251  1.00  0.00    -0.014 A 
ATOM     49  C   UNL A   1      44.019  25.402  27.198  1.00  0.00     0.010 A 
ATOM     50  C   UNL A   1      42.448  23.941  28.308  1.00  0.00     0.010 A 
ATOM     51  C   UNL A   1      44.279  24.411  26.244  1.00  0.00     0.020 A 
ATOM     52  C   UNL A   1      42.733  22.930  27.379  1.00  0.00     0.020 A 
ATOM     53  C   UNL A   1      43.650  23.171  26.354  1.00  0.00     0.054 A 
BRANCH  53  54
ATOM     54  S   UNL A   1      44.124  21.857  25.195  1.00  0.00     0.124 S 
ATOM     55  O   UNL A   1      43.116  20.835  25.461  1.00  0.00    -0.237 OA
ATOM     56  O   UNL A   1      44.011  22.535  23.906  1.00  0.00    -0.237 OA
ATOM     57  O   UNL A   1      45.485  21.513  25.597  1.00  0.00    -0.744 OA
ENDBRANCH  53  54
ENDBRANCH  25  48
BRANCH  37  58
ATOM     58  C   UNL A   1      45.903  26.550  34.463  1.00  0.00    -0.014 A 
ATOM     59  C   UNL A   1      45.661  25.496  35.364  1.00  0.00     0.010 A 
ATOM     60  C   UNL A   1      47.223  26.976  34.237  1.00  0.00     0.010 A 
ATOM     61  C   UNL A   1      46.718  24.908  36.058  1.00  0.00     0.020 A 
ATOM     62  C   UNL A   1      48.286  26.366  34.902  1.00  0.00     0.020 A 
ATOM     63  C   UNL A   1      48.025  25.347  35.822  1.00  0.00     0.054 A 
BRANCH  63  64
ATOM     64  S   UNL A   1      49.385  24.540  36.705  1.00  0.00     0.124 S 
ATOM     65  O   UNL A   1      50.322  25.644  36.891  1.00  0.00    -0.237 OA
ATOM     66  O   UNL A   1      48.734  24.055  37.920  1.00  0.00    -0.237 OA
ATOM     67  O   UNL A   1      49.824  23.496  35.782  1.00  0.00    -0.744 OA
ENDBRANCH  63  64
ENDBRANCH  37  58
ENDBRANCH  11  12
ENDBRANCH   4   6
ENDBRANCH   3   4
ENDBRANCH   2   3
ENDBRANCH   1   2
BRANCH   1  68
ATOM     68  O   UNL A   1      32.788  29.686  24.920  1.00  0.00    -0.462 OA
BRANCH  68  69
ATOM     69  C   UNL A   1      32.982  28.519  24.250  1.00  0.00     0.311 C 
ATOM     70  O   UNL A   1      34.027  27.881  24.228  1.00  0.00    -0.252 OA
BRANCH  69  71
ATOM     71  C   UNL A   1      31.711  28.135  23.538  1.00  0.00     0.128 C 
ATOM     72  C   UNL A   1      30.920  29.392  23.247  1.00  0.00     0.135 C 
ATOM     73  C   UNL A   1      30.743  27.255  24.357  1.00  0.00     0.055 C 
ATOM     74  N   UNL A   1      29.568  28.930  23.051  1.00  0.00    -0.341 N 
ATOM     75  C   UNL A   1      29.370  27.651  23.733  1.00  0.00     0.128 C 
BRANCH  73  76
ATOM     76  C   UNL A   1      31.095  25.765  24.320  1.00  0.00    -0.038 A 
ATOM     77  C   UNL A   1      30.569  24.912  23.313  1.00  0.00     0.008 A 
ATOM     78  C   UNL A   1      31.942  25.184  25.276  1.00  0.00     0.054 A 
ATOM     79  C   UNL A   1      30.751  23.528  23.319  1.00  0.00     0.051 A 
ATOM     80  C   UNL A   1      32.107  23.809  25.261  1.00  0.00     0.166 A 
ATOM     81  C   UNL A   1      31.512  23.003  24.324  1.00  0.00     0.165 A 
ATOM     82  O   UNL A   1      32.794  23.084  26.183  1.00  0.00    -0.454 OA
ATOM     83  O   UNL A   1      31.759  21.683  24.521  1.00  0.00    -0.454 OA
ATOM     84  C   UNL A   1      32.407  21.743  25.812  1.00  0.00     0.468 C 
ENDBRANCH  73  76
BRANCH  74  85
ATOM     85  C   UNL A   1      28.544  29.560  22.383  1.00  0.00     0.222 C 
ATOM     86  O   UNL A   1      28.455  29.531  21.154  1.00  0.00    -0.275 OA
BRANCH  85  87
ATOM     87  C   UNL A   1      27.536  30.376  23.181  1.00  0.00     0.109 C 
BRANCH  87  88
ATOM     88  C   UNL A   1      28.062  31.684  23.757  1.00  0.00     0.125 C 
BRANCH  88  89
ATOM     89  C   UNL A   1      28.492  32.676  22.706  1.00  0.00     0.389 C 
ATOM     90  F   UNL A   1      28.585  33.921  23.216  1.00  0.00    -0.171 F 
ATOM     91  F   UNL A   1      29.707  32.349  22.211  1.00  0.00    -0.171 F 
ATOM     92  F   UNL A   1      27.632  32.709  21.669  1.00  0.00    -0.171 F 
ENDBRANCH  88  89
ENDBRANCH  87  88
ENDBRANCH  85  87
ENDBRANCH  74  85
ENDBRANCH  69  71
ENDBRANCH  68  69
ENDBRANCH   1  68
TORSDOF 19
ENDMDL
