MODEL 1
REMARK VINA RESULT:     -10.8      0.000      0.000
REMARK SMILES O=C(OCCOC(=O)[C@H]1CS[C@]2(c3ccccc3)CCC(=O)N12)c1ccc(-c2c3nc(c(-c4ccc(S(=O)(=O)[O-])cc4)c4ccc([nH]4)c(-c4ccc(S(=O)(=O)[O-])cc4)c4nc(c(-c5ccc(S(=O)(=O)[O-])cc5)c5ccc2[nH]5)C=C4)C=C3)cc1
REMARK SMILES IDX 4 1 3 2 2 3 1 4 24 5 25 6 83 7 26 8 82 9 27 10 28 11 29 12
REMARK SMILES IDX 76 13 30 14 81 15 75 16 77 17 31 18 80 19 74 20 73 21 32 23
REMARK SMILES IDX 62 24 43 25 61 26 44 27 47 28 60 29 78 30 45 31 46 32 59 34
REMARK SMILES IDX 79 35 48 36 33 37 34 38 42 39 35 40 41 41 36 42 37 43 38 44
REMARK SMILES IDX 39 45 40 46 63 47 64 48 72 49 65 50 71 51 66 52 67 53 68 54
REMARK SMILES IDX 69 55 70 56 49 57 50 58 58 59 51 60 57 61 52 62 53 63 54 64
REMARK SMILES IDX 55 65 56 66 5 67 6 68 7 69 8 70 9 71 10 72 23 73 11 74 12 75
REMARK SMILES IDX 21 76 19 77 20 78 22 79 13 80 14 81 18 82 15 83 17 84 16 85
REMARK H PARENT 77 22 47 33
REMARK Flexibility Score: inf
ROOT
ATOM      1  C   UNL A   1      32.973  29.678  25.665  1.00  0.00     0.275 C 
ENDROOT
BRANCH   1   2
ATOM      2  O   UNL A   1      33.466  29.549  27.004  1.00  0.00    -0.458 OA
BRANCH   2   3
ATOM      3  C   UNL A   1      34.229  30.401  27.728  1.00  0.00     0.338 C 
ATOM      4  O   UNL A   1      33.798  31.544  27.891  1.00  0.00    -0.246 OA
BRANCH   3   5
ATOM      5  C   UNL A   1      35.615  30.102  28.237  1.00  0.00     0.060 A 
ATOM      6  C   UNL A   1      35.974  29.696  29.531  1.00  0.00     0.016 A 
ATOM      7  C   UNL A   1      36.628  30.104  27.259  1.00  0.00     0.016 A 
ATOM      8  C   UNL A   1      37.254  29.205  29.822  1.00  0.00     0.010 A 
ATOM      9  C   UNL A   1      37.900  29.597  27.537  1.00  0.00     0.010 A 
ATOM     10  C   UNL A   1      38.218  29.133  28.823  1.00  0.00    -0.014 A 
BRANCH  10  11
ATOM     11  C   UNL A   1      39.619  28.776  29.137  1.00  0.00     0.031 A 
ATOM     12  C   UNL A   1      40.504  29.887  29.586  1.00  0.00     0.074 A 
ATOM     13  C   UNL A   1      40.102  27.528  29.000  1.00  0.00     0.049 A 
ATOM     14  N   UNL A   1      41.791  29.886  29.775  1.00  0.00    -0.248 NA
ATOM     15  C   UNL A   1      39.839  31.172  29.867  1.00  0.00     0.031 C 
ATOM     16  C   UNL A   1      39.301  26.349  28.709  1.00  0.00     0.029 A 
ATOM     17  N   UNL A   1      41.386  27.043  29.036  1.00  0.00    -0.354 N 
ATOM     18  C   UNL A   1      42.089  31.165  30.214  1.00  0.00     0.074 A 
ATOM     19  C   UNL A   1      40.871  31.940  30.164  1.00  0.00     0.031 C 
ATOM     20  C   UNL A   1      40.106  25.305  28.458  1.00  0.00     0.029 A 
ATOM     21  C   UNL A   1      41.486  25.739  28.594  1.00  0.00     0.049 A 
ATOM     22  H   UNL A   1      42.157  27.571  29.346  1.00  0.00     0.167 HD
ATOM     23  C   UNL A   1      43.270  31.633  30.667  1.00  0.00     0.031 A 
ATOM     24  C   UNL A   1      42.571  24.993  28.306  1.00  0.00     0.031 A 
ATOM     25  C   UNL A   1      44.467  30.846  30.673  1.00  0.00     0.049 A 
ATOM     26  C   UNL A   1      43.914  25.575  28.638  1.00  0.00     0.074 A 
ATOM     27  C   UNL A   1      45.730  31.196  31.102  1.00  0.00     0.029 A 
ATOM     28  N   UNL A   1      44.543  29.539  30.201  1.00  0.00    -0.354 N 
ATOM     29  N   UNL A   1      44.186  26.775  29.096  1.00  0.00    -0.248 NA
ATOM     30  C   UNL A   1      45.083  24.702  28.489  1.00  0.00     0.031 C 
ATOM     31  C   UNL A   1      46.584  30.123  30.832  1.00  0.00     0.029 A 
ATOM     32  C   UNL A   1      45.840  29.077  30.300  1.00  0.00     0.049 A 
ATOM     33  H   UNL A   1      43.784  29.021  29.848  1.00  0.00     0.167 HD
ATOM     34  C   UNL A   1      45.545  26.779  29.366  1.00  0.00     0.074 A 
ATOM     35  C   UNL A   1      46.048  25.471  28.982  1.00  0.00     0.031 C 
ATOM     36  C   UNL A   1      46.298  27.761  29.918  1.00  0.00     0.031 A 
BRANCH  23  37
ATOM     37  C   UNL A   1      43.276  33.060  31.131  1.00  0.00    -0.014 A 
ATOM     38  C   UNL A   1      43.668  34.101  30.266  1.00  0.00     0.010 A 
ATOM     39  C   UNL A   1      43.017  33.347  32.480  1.00  0.00     0.010 A 
ATOM     40  C   UNL A   1      43.897  35.385  30.766  1.00  0.00     0.020 A 
ATOM     41  C   UNL A   1      43.210  34.640  32.976  1.00  0.00     0.020 A 
ATOM     42  C   UNL A   1      43.683  35.639  32.123  1.00  0.00     0.054 A 
BRANCH  42  43
ATOM     43  S   UNL A   1      44.057  37.292  32.765  1.00  0.00     0.124 S 
ATOM     44  O   UNL A   1      43.055  37.437  33.819  1.00  0.00    -0.237 OA
ATOM     45  O   UNL A   1      45.436  37.153  33.226  1.00  0.00    -0.237 OA
ATOM     46  O   UNL A   1      43.875  38.163  31.607  1.00  0.00    -0.744 OA
ENDBRANCH  42  43
ENDBRANCH  23  37
BRANCH  24  47
ATOM     47  C   UNL A   1      42.413  23.636  27.707  1.00  0.00    -0.014 A 
ATOM     48  C   UNL A   1      42.652  23.409  26.341  1.00  0.00     0.010 A 
ATOM     49  C   UNL A   1      42.065  22.542  28.523  1.00  0.00     0.010 A 
ATOM     50  C   UNL A   1      42.548  22.120  25.804  1.00  0.00     0.020 A 
ATOM     51  C   UNL A   1      41.972  21.249  27.993  1.00  0.00     0.020 A 
ATOM     52  C   UNL A   1      42.217  21.046  26.635  1.00  0.00     0.054 A 
BRANCH  52  53
ATOM     53  S   UNL A   1      42.169  19.374  25.926  1.00  0.00     0.124 S 
ATOM     54  O   UNL A   1      42.693  18.560  27.017  1.00  0.00    -0.237 OA
ATOM     55  O   UNL A   1      40.747  19.206  25.634  1.00  0.00    -0.237 OA
ATOM     56  O   UNL A   1      43.029  19.475  24.749  1.00  0.00    -0.744 OA
ENDBRANCH  52  53
ENDBRANCH  24  47
BRANCH  36  57
ATOM     57  C   UNL A   1      47.736  27.450  30.214  1.00  0.00    -0.014 A 
ATOM     58  C   UNL A   1      48.760  27.840  29.338  1.00  0.00     0.010 A 
ATOM     59  C   UNL A   1      48.061  26.895  31.466  1.00  0.00     0.010 A 
ATOM     60  C   UNL A   1      50.095  27.694  29.720  1.00  0.00     0.020 A 
ATOM     61  C   UNL A   1      49.392  26.776  31.862  1.00  0.00     0.020 A 
ATOM     62  C   UNL A   1      50.400  27.181  30.986  1.00  0.00     0.054 A 
BRANCH  62  63
ATOM     63  S   UNL A   1      52.135  27.132  31.509  1.00  0.00     0.124 S 
ATOM     64  O   UNL A   1      52.779  27.970  30.502  1.00  0.00    -0.237 OA
ATOM     65  O   UNL A   1      52.076  27.698  32.855  1.00  0.00    -0.237 OA
ATOM     66  O   UNL A   1      52.475  25.712  31.451  1.00  0.00    -0.744 OA
ENDBRANCH  62  63
ENDBRANCH  36  57
ENDBRANCH  10  11
ENDBRANCH   3   5
ENDBRANCH   2   3
ENDBRANCH   1   2
BRANCH   1  67
ATOM     67  C   UNL A   1      33.602  28.682  24.679  1.00  0.00     0.274 C 
BRANCH  67  68
ATOM     68  O   UNL A   1      33.202  27.320  24.942  1.00  0.00    -0.461 OA
BRANCH  68  69
ATOM     69  C   UNL A   1      33.045  26.507  23.857  1.00  0.00     0.329 C 
ATOM     70  O   UNL A   1      33.585  26.720  22.776  1.00  0.00    -0.250 OA
BRANCH  69  71
ATOM     71  C   UNL A   1      32.161  25.277  24.125  1.00  0.00     0.206 C 
ATOM     72  C   UNL A   1      31.889  24.293  22.995  1.00  0.00     0.109 C 
ATOM     73  N   UNL A   1      32.470  24.496  25.327  1.00  0.00    -0.309 N 
ATOM     74  S   UNL A   1      32.285  22.618  23.551  1.00  0.00    -0.126 SA
ATOM     75  C   UNL A   1      33.027  23.157  25.138  1.00  0.00     0.116 C 
ATOM     76  C   UNL A   1      31.425  24.487  26.269  1.00  0.00     0.224 C 
ATOM     77  C   UNL A   1      32.378  22.350  26.276  1.00  0.00     0.055 C 
ATOM     78  C   UNL A   1      31.069  23.052  26.554  1.00  0.00     0.104 C 
ATOM     79  O   UNL A   1      30.754  25.439  26.607  1.00  0.00    -0.275 OA
BRANCH  75  80
ATOM     80  C   UNL A   1      34.564  23.030  25.104  1.00  0.00    -0.012 A 
ATOM     81  C   UNL A   1      35.413  23.742  25.972  1.00  0.00     0.007 A 
ATOM     82  C   UNL A   1      35.213  22.269  24.101  1.00  0.00     0.007 A 
ATOM     83  C   UNL A   1      36.813  23.726  25.821  1.00  0.00     0.000 A 
ATOM     84  C   UNL A   1      36.607  22.226  23.966  1.00  0.00     0.000 A 
ATOM     85  C   UNL A   1      37.408  22.967  24.819  1.00  0.00     0.000 A 
ENDBRANCH  75  80
ENDBRANCH  69  71
ENDBRANCH  68  69
ENDBRANCH  67  68
ENDBRANCH   1  67
TORSDOF 15
ENDMDL
MODEL 2
REMARK VINA RESULT:     -10.8      2.653      9.150
REMARK SMILES O=C(OCCOC(=O)[C@H]1CS[C@]2(c3ccccc3)CCC(=O)N12)c1ccc(-c2c3nc(c(-c4ccc(S(=O)(=O)[O-])cc4)c4ccc([nH]4)c(-c4ccc(S(=O)(=O)[O-])cc4)c4nc(c(-c5ccc(S(=O)(=O)[O-])cc5)c5ccc2[nH]5)C=C4)C=C3)cc1
REMARK SMILES IDX 4 1 3 2 2 3 1 4 24 5 25 6 83 7 26 8 82 9 27 10 28 11 29 12
REMARK SMILES IDX 76 13 30 14 81 15 75 16 77 17 31 18 80 19 74 20 73 21 32 23
REMARK SMILES IDX 62 24 43 25 61 26 44 27 47 28 60 29 78 30 45 31 46 32 59 34
REMARK SMILES IDX 79 35 48 36 33 37 34 38 42 39 35 40 41 41 36 42 37 43 38 44
REMARK SMILES IDX 39 45 40 46 63 47 64 48 72 49 65 50 71 51 66 52 67 53 68 54
REMARK SMILES IDX 69 55 70 56 49 57 50 58 58 59 51 60 57 61 52 62 53 63 54 64
REMARK SMILES IDX 55 65 56 66 5 67 6 68 7 69 8 70 9 71 10 72 23 73 11 74 12 75
REMARK SMILES IDX 21 76 19 77 20 78 22 79 13 80 14 81 18 82 15 83 17 84 16 85
REMARK H PARENT 77 22 47 33
REMARK Flexibility Score: inf
ROOT
ATOM      1  C   UNL A   1      36.726  21.764  24.981  1.00  0.00     0.275 C 
ENDROOT
BRANCH   1   2
ATOM      2  O   UNL A   1      37.433  22.859  25.578  1.00  0.00    -0.458 OA
BRANCH   2   3
ATOM      3  C   UNL A   1      38.667  22.888  26.133  1.00  0.00     0.338 C 
ATOM      4  O   UNL A   1      39.254  21.813  26.261  1.00  0.00    -0.246 OA
BRANCH   3   5
ATOM      5  C   UNL A   1      39.322  24.111  26.721  1.00  0.00     0.060 A 
ATOM      6  C   UNL A   1      40.131  25.043  26.054  1.00  0.00     0.016 A 
ATOM      7  C   UNL A   1      38.960  24.406  28.049  1.00  0.00     0.016 A 
ATOM      8  C   UNL A   1      40.476  26.270  26.637  1.00  0.00     0.010 A 
ATOM      9  C   UNL A   1      39.284  25.636  28.629  1.00  0.00     0.010 A 
ATOM     10  C   UNL A   1      40.037  26.583  27.918  1.00  0.00    -0.014 A 
BRANCH  10  11
ATOM     11  C   UNL A   1      40.522  27.794  28.618  1.00  0.00     0.031 A 
ATOM     12  C   UNL A   1      41.839  27.683  29.305  1.00  0.00     0.074 A 
ATOM     13  C   UNL A   1      39.814  28.936  28.674  1.00  0.00     0.049 A 
ATOM     14  N   UNL A   1      42.420  28.526  30.109  1.00  0.00    -0.248 NA
ATOM     15  C   UNL A   1      42.608  26.454  29.039  1.00  0.00     0.031 C 
ATOM     16  C   UNL A   1      38.594  29.200  27.927  1.00  0.00     0.029 A 
ATOM     17  N   UNL A   1      39.983  30.073  29.426  1.00  0.00    -0.354 N 
ATOM     18  C   UNL A   1      43.630  27.936  30.432  1.00  0.00     0.074 A 
ATOM     19  C   UNL A   1      43.656  26.626  29.824  1.00  0.00     0.031 C 
ATOM     20  C   UNL A   1      38.046  30.352  28.347  1.00  0.00     0.029 A 
ATOM     21  C   UNL A   1      38.894  30.919  29.382  1.00  0.00     0.049 A 
ATOM     22  H   UNL A   1      40.799  30.265  29.943  1.00  0.00     0.167 HD
ATOM     23  C   UNL A   1      44.651  28.468  31.135  1.00  0.00     0.031 A 
ATOM     24  C   UNL A   1      38.605  32.012  30.115  1.00  0.00     0.031 A 
ATOM     25  C   UNL A   1      44.579  29.759  31.752  1.00  0.00     0.049 A 
ATOM     26  C   UNL A   1      39.668  32.518  31.045  1.00  0.00     0.074 A 
ATOM     27  C   UNL A   1      45.539  30.417  32.493  1.00  0.00     0.029 A 
ATOM     28  N   UNL A   1      43.459  30.583  31.709  1.00  0.00    -0.354 N 
ATOM     29  N   UNL A   1      40.834  31.977  31.314  1.00  0.00    -0.248 NA
ATOM     30  C   UNL A   1      39.426  33.801  31.714  1.00  0.00     0.031 C 
ATOM     31  C   UNL A   1      44.977  31.612  32.952  1.00  0.00     0.029 A 
ATOM     32  C   UNL A   1      43.691  31.733  32.437  1.00  0.00     0.049 A 
ATOM     33  H   UNL A   1      42.624  30.377  31.231  1.00  0.00     0.167 HD
ATOM     34  C   UNL A   1      41.499  32.887  32.120  1.00  0.00     0.074 A 
ATOM     35  C   UNL A   1      40.588  33.999  32.327  1.00  0.00     0.031 C 
ATOM     36  C   UNL A   1      42.761  32.825  32.609  1.00  0.00     0.031 A 
BRANCH  23  37
ATOM     37  C   UNL A   1      45.870  27.604  31.277  1.00  0.00    -0.014 A 
ATOM     38  C   UNL A   1      45.997  26.704  32.355  1.00  0.00     0.010 A 
ATOM     39  C   UNL A   1      46.953  27.792  30.405  1.00  0.00     0.010 A 
ATOM     40  C   UNL A   1      47.220  26.082  32.613  1.00  0.00     0.020 A 
ATOM     41  C   UNL A   1      48.168  27.142  30.639  1.00  0.00     0.020 A 
ATOM     42  C   UNL A   1      48.302  26.321  31.762  1.00  0.00     0.054 A 
BRANCH  42  43
ATOM     43  S   UNL A   1      49.900  25.562  32.157  1.00  0.00     0.124 S 
ATOM     44  O   UNL A   1      50.216  24.865  30.912  1.00  0.00    -0.237 OA
ATOM     45  O   UNL A   1      50.739  26.719  32.457  1.00  0.00    -0.237 OA
ATOM     46  O   UNL A   1      49.601  24.699  33.297  1.00  0.00    -0.744 OA
ENDBRANCH  42  43
ENDBRANCH  23  37
BRANCH  24  47
ATOM     47  C   UNL A   1      37.282  32.687  29.970  1.00  0.00    -0.014 A 
ATOM     48  C   UNL A   1      36.246  32.469  30.894  1.00  0.00     0.010 A 
ATOM     49  C   UNL A   1      37.070  33.601  28.919  1.00  0.00     0.010 A 
ATOM     50  C   UNL A   1      35.027  33.148  30.771  1.00  0.00     0.020 A 
ATOM     51  C   UNL A   1      35.858  34.292  28.799  1.00  0.00     0.020 A 
ATOM     52  C   UNL A   1      34.844  34.062  29.729  1.00  0.00     0.054 A 
BRANCH  52  53
ATOM     53  S   UNL A   1      33.283  34.988  29.644  1.00  0.00     0.124 S 
ATOM     54  O   UNL A   1      33.722  36.290  29.153  1.00  0.00    -0.237 OA
ATOM     55  O   UNL A   1      32.502  34.186  28.704  1.00  0.00    -0.237 OA
ATOM     56  O   UNL A   1      32.795  34.968  31.021  1.00  0.00    -0.744 OA
ENDBRANCH  52  53
ENDBRANCH  24  47
BRANCH  36  57
ATOM     57  C   UNL A   1      43.274  34.018  33.360  1.00  0.00    -0.014 A 
ATOM     58  C   UNL A   1      43.893  35.087  32.694  1.00  0.00     0.010 A 
ATOM     59  C   UNL A   1      42.985  34.124  34.733  1.00  0.00     0.010 A 
ATOM     60  C   UNL A   1      44.201  36.256  33.391  1.00  0.00     0.020 A 
ATOM     61  C   UNL A   1      43.264  35.301  35.425  1.00  0.00     0.020 A 
ATOM     62  C   UNL A   1      43.867  36.361  34.747  1.00  0.00     0.054 A 
BRANCH  62  63
ATOM     63  S   UNL A   1      44.151  37.939  35.592  1.00  0.00     0.124 S 
ATOM     64  O   UNL A   1      45.608  38.027  35.590  1.00  0.00    -0.237 OA
ATOM     65  O   UNL A   1      43.461  38.892  34.725  1.00  0.00    -0.237 OA
ATOM     66  O   UNL A   1      43.539  37.745  36.904  1.00  0.00    -0.744 OA
ENDBRANCH  62  63
ENDBRANCH  36  57
ENDBRANCH  10  11
ENDBRANCH   3   5
ENDBRANCH   2   3
ENDBRANCH   1   2
BRANCH   1  67
ATOM     67  C   UNL A   1      35.213  21.794  25.241  1.00  0.00     0.274 C 
BRANCH  67  68
ATOM     68  O   UNL A   1      34.784  23.028  25.855  1.00  0.00    -0.461 OA
BRANCH  68  69
ATOM     69  C   UNL A   1      33.440  23.189  26.031  1.00  0.00     0.329 C 
ATOM     70  O   UNL A   1      32.876  22.997  27.103  1.00  0.00    -0.250 OA
BRANCH  69  71
ATOM     71  C   UNL A   1      32.702  23.674  24.770  1.00  0.00     0.206 C 
ATOM     72  C   UNL A   1      31.181  23.717  24.766  1.00  0.00     0.109 C 
ATOM     73  N   UNL A   1      33.182  24.923  24.169  1.00  0.00    -0.309 N 
ATOM     74  S   UNL A   1      30.629  25.359  24.245  1.00  0.00    -0.126 SA
ATOM     75  C   UNL A   1      32.308  26.092  24.254  1.00  0.00     0.116 C 
ATOM     76  C   UNL A   1      33.688  24.755  22.867  1.00  0.00     0.224 C 
ATOM     77  C   UNL A   1      32.539  26.793  22.904  1.00  0.00     0.055 C 
ATOM     78  C   UNL A   1      32.937  25.688  21.954  1.00  0.00     0.104 C 
ATOM     79  O   UNL A   1      34.411  23.858  22.487  1.00  0.00    -0.275 OA
BRANCH  75  80
ATOM     80  C   UNL A   1      32.499  27.030  25.464  1.00  0.00    -0.012 A 
ATOM     81  C   UNL A   1      31.513  27.222  26.451  1.00  0.00     0.007 A 
ATOM     82  C   UNL A   1      33.649  27.850  25.580  1.00  0.00     0.007 A 
ATOM     83  C   UNL A   1      31.651  28.194  27.459  1.00  0.00     0.000 A 
ATOM     84  C   UNL A   1      33.803  28.798  26.600  1.00  0.00     0.000 A 
ATOM     85  C   UNL A   1      32.796  28.981  27.533  1.00  0.00     0.000 A 
ENDBRANCH  75  80
ENDBRANCH  69  71
ENDBRANCH  68  69
ENDBRANCH  67  68
ENDBRANCH   1  67
TORSDOF 15
ENDMDL
MODEL 3
REMARK VINA RESULT:     -10.7      5.127     10.392
REMARK SMILES O=C(OCCOC(=O)[C@H]1CS[C@]2(c3ccccc3)CCC(=O)N12)c1ccc(-c2c3nc(c(-c4ccc(S(=O)(=O)[O-])cc4)c4ccc([nH]4)c(-c4ccc(S(=O)(=O)[O-])cc4)c4nc(c(-c5ccc(S(=O)(=O)[O-])cc5)c5ccc2[nH]5)C=C4)C=C3)cc1
REMARK SMILES IDX 4 1 3 2 2 3 1 4 24 5 25 6 83 7 26 8 82 9 27 10 28 11 29 12
REMARK SMILES IDX 76 13 30 14 81 15 75 16 77 17 31 18 80 19 74 20 73 21 32 23
REMARK SMILES IDX 62 24 43 25 61 26 44 27 47 28 60 29 78 30 45 31 46 32 59 34
REMARK SMILES IDX 79 35 48 36 33 37 34 38 42 39 35 40 41 41 36 42 37 43 38 44
REMARK SMILES IDX 39 45 40 46 63 47 64 48 72 49 65 50 71 51 66 52 67 53 68 54
REMARK SMILES IDX 69 55 70 56 49 57 50 58 58 59 51 60 57 61 52 62 53 63 54 64
REMARK SMILES IDX 55 65 56 66 5 67 6 68 7 69 8 70 9 71 10 72 23 73 11 74 12 75
REMARK SMILES IDX 21 76 19 77 20 78 22 79 13 80 14 81 18 82 15 83 17 84 16 85
REMARK H PARENT 77 22 47 33
REMARK Flexibility Score: inf
ROOT
ATOM      1  C   UNL A   1      38.234  23.412  26.395  1.00  0.00     0.275 C 
ENDROOT
BRANCH   1   2
ATOM      2  O   UNL A   1      38.542  24.479  27.300  1.00  0.00    -0.458 OA
BRANCH   2   3
ATOM      3  C   UNL A   1      39.499  25.432  27.215  1.00  0.00     0.338 C 
ATOM      4  O   UNL A   1      40.205  25.434  26.205  1.00  0.00    -0.246 OA
BRANCH   3   5
ATOM      5  C   UNL A   1      39.852  26.405  28.310  1.00  0.00     0.060 A 
ATOM      6  C   UNL A   1      40.790  27.446  28.249  1.00  0.00     0.016 A 
ATOM      7  C   UNL A   1      39.046  26.331  29.462  1.00  0.00     0.016 A 
ATOM      8  C   UNL A   1      40.853  28.440  29.236  1.00  0.00     0.010 A 
ATOM      9  C   UNL A   1      39.090  27.329  30.439  1.00  0.00     0.010 A 
ATOM     10  C   UNL A   1      39.990  28.400  30.324  1.00  0.00    -0.014 A 
BRANCH  10  11
ATOM     11  C   UNL A   1      40.145  29.339  31.458  1.00  0.00     0.031 A 
ATOM     12  C   UNL A   1      41.203  29.010  32.454  1.00  0.00     0.074 A 
ATOM     13  C   UNL A   1      39.362  30.420  31.622  1.00  0.00     0.049 A 
ATOM     14  N   UNL A   1      41.449  29.566  33.604  1.00  0.00    -0.248 NA
ATOM     15  C   UNL A   1      42.114  27.908  32.093  1.00  0.00     0.031 C 
ATOM     16  C   UNL A   1      38.401  30.911  30.646  1.00  0.00     0.029 A 
ATOM     17  N   UNL A   1      39.207  31.276  32.685  1.00  0.00    -0.354 N 
ATOM     18  C   UNL A   1      42.552  28.891  34.099  1.00  0.00     0.074 A 
ATOM     19  C   UNL A   1      42.864  27.824  33.176  1.00  0.00     0.031 C 
ATOM     20  C   UNL A   1      37.661  31.889  31.192  1.00  0.00     0.029 A 
ATOM     21  C   UNL A   1      38.115  32.110  32.555  1.00  0.00     0.049 A 
ATOM     22  H   UNL A   1      39.815  31.293  33.460  1.00  0.00     0.167 HD
ATOM     23  C   UNL A   1      43.272  29.175  35.204  1.00  0.00     0.031 A 
ATOM     24  C   UNL A   1      37.533  32.935  33.447  1.00  0.00     0.031 A 
ATOM     25  C   UNL A   1      42.916  30.222  36.115  1.00  0.00     0.049 A 
ATOM     26  C   UNL A   1      38.228  33.125  34.764  1.00  0.00     0.074 A 
ATOM     27  C   UNL A   1      43.556  30.614  37.272  1.00  0.00     0.029 A 
ATOM     28  N   UNL A   1      41.796  31.033  35.970  1.00  0.00    -0.354 N 
ATOM     29  N   UNL A   1      39.302  32.513  35.209  1.00  0.00    -0.248 NA
ATOM     30  C   UNL A   1      37.695  34.150  35.667  1.00  0.00     0.031 C 
ATOM     31  C   UNL A   1      42.787  31.623  37.861  1.00  0.00     0.029 A 
ATOM     32  C   UNL A   1      41.707  31.909  37.035  1.00  0.00     0.049 A 
ATOM     33  H   UNL A   1      41.160  30.991  35.220  1.00  0.00     0.167 HD
ATOM     34  C   UNL A   1      39.621  33.131  36.407  1.00  0.00     0.074 A 
ATOM     35  C   UNL A   1      38.603  34.141  36.638  1.00  0.00     0.031 C 
ATOM     36  C   UNL A   1      40.682  32.910  37.221  1.00  0.00     0.031 A 
BRANCH  23  37
ATOM     37  C   UNL A   1      44.460  28.293  35.458  1.00  0.00    -0.014 A 
ATOM     38  C   UNL A   1      45.707  28.569  34.862  1.00  0.00     0.010 A 
ATOM     39  C   UNL A   1      44.293  27.105  36.186  1.00  0.00     0.010 A 
ATOM     40  C   UNL A   1      46.734  27.625  34.909  1.00  0.00     0.020 A 
ATOM     41  C   UNL A   1      45.332  26.175  36.267  1.00  0.00     0.020 A 
ATOM     42  C   UNL A   1      46.532  26.426  35.597  1.00  0.00     0.054 A 
BRANCH  42  43
ATOM     43  S   UNL A   1      47.852  25.184  35.583  1.00  0.00     0.124 S 
ATOM     44  O   UNL A   1      48.749  25.691  36.620  1.00  0.00    -0.237 OA
ATOM     45  O   UNL A   1      47.138  23.955  35.919  1.00  0.00    -0.237 OA
ATOM     46  O   UNL A   1      48.373  25.247  34.221  1.00  0.00    -0.744 OA
ENDBRANCH  42  43
ENDBRANCH  23  37
BRANCH  24  47
ATOM     47  C   UNL A   1      36.263  33.638  33.105  1.00  0.00    -0.014 A 
ATOM     48  C   UNL A   1      35.012  33.043  33.340  1.00  0.00     0.010 A 
ATOM     49  C   UNL A   1      36.301  34.945  32.580  1.00  0.00     0.010 A 
ATOM     50  C   UNL A   1      33.829  33.736  33.058  1.00  0.00     0.020 A 
ATOM     51  C   UNL A   1      35.121  35.648  32.309  1.00  0.00     0.020 A 
ATOM     52  C   UNL A   1      33.890  35.038  32.552  1.00  0.00     0.054 A 
BRANCH  52  53
ATOM     53  S   UNL A   1      32.339  35.942  32.274  1.00  0.00     0.124 S 
ATOM     54  O   UNL A   1      31.334  34.959  32.665  1.00  0.00    -0.237 OA
ATOM     55  O   UNL A   1      32.488  37.088  33.168  1.00  0.00    -0.237 OA
ATOM     56  O   UNL A   1      32.379  36.265  30.850  1.00  0.00    -0.744 OA
ENDBRANCH  52  53
ENDBRANCH  24  47
BRANCH  36  57
ATOM     57  C   UNL A   1      40.851  33.816  38.405  1.00  0.00    -0.014 A 
ATOM     58  C   UNL A   1      40.356  33.461  39.669  1.00  0.00     0.010 A 
ATOM     59  C   UNL A   1      41.653  34.964  38.265  1.00  0.00     0.010 A 
ATOM     60  C   UNL A   1      40.678  34.237  40.784  1.00  0.00     0.020 A 
ATOM     61  C   UNL A   1      42.000  35.722  39.381  1.00  0.00     0.020 A 
ATOM     62  C   UNL A   1      41.512  35.351  40.635  1.00  0.00     0.054 A 
BRANCH  62  63
ATOM     63  S   UNL A   1      42.026  36.257  42.118  1.00  0.00     0.124 S 
ATOM     64  O   UNL A   1      41.001  37.291  42.213  1.00  0.00    -0.237 OA
ATOM     65  O   UNL A   1      41.978  35.225  43.152  1.00  0.00    -0.237 OA
ATOM     66  O   UNL A   1      43.367  36.734  41.786  1.00  0.00    -0.744 OA
ENDBRANCH  62  63
ENDBRANCH  36  57
ENDBRANCH  10  11
ENDBRANCH   3   5
ENDBRANCH   2   3
ENDBRANCH   1   2
BRANCH   1  67
ATOM     67  C   UNL A   1      37.062  23.723  25.454  1.00  0.00     0.274 C 
BRANCH  67  68
ATOM     68  O   UNL A   1      36.608  22.556  24.734  1.00  0.00    -0.461 OA
BRANCH  68  69
ATOM     69  C   UNL A   1      35.957  22.778  23.555  1.00  0.00     0.329 C 
ATOM     70  O   UNL A   1      36.506  22.702  22.461  1.00  0.00    -0.250 OA
BRANCH  69  71
ATOM     71  C   UNL A   1      34.461  23.095  23.722  1.00  0.00     0.206 C 
ATOM     72  C   UNL A   1      33.559  23.111  22.496  1.00  0.00     0.109 C 
ATOM     73  N   UNL A   1      33.752  22.373  24.784  1.00  0.00    -0.309 N 
ATOM     74  S   UNL A   1      32.125  22.049  22.792  1.00  0.00    -0.126 SA
ATOM     75  C   UNL A   1      32.758  21.380  24.377  1.00  0.00     0.116 C 
ATOM     76  C   UNL A   1      33.250  23.216  25.792  1.00  0.00     0.224 C 
ATOM     77  C   UNL A   1      31.659  21.535  25.443  1.00  0.00     0.055 C 
ATOM     78  C   UNL A   1      31.769  22.968  25.909  1.00  0.00     0.104 C 
ATOM     79  O   UNL A   1      33.831  24.150  26.303  1.00  0.00    -0.275 OA
BRANCH  75  80
ATOM     80  C   UNL A   1      33.241  19.924  24.212  1.00  0.00    -0.012 A 
ATOM     81  C   UNL A   1      34.472  19.461  24.715  1.00  0.00     0.007 A 
ATOM     82  C   UNL A   1      32.512  18.996  23.427  1.00  0.00     0.007 A 
ATOM     83  C   UNL A   1      34.957  18.173  24.421  1.00  0.00     0.000 A 
ATOM     84  C   UNL A   1      32.979  17.703  23.157  1.00  0.00     0.000 A 
ATOM     85  C   UNL A   1      34.210  17.295  23.642  1.00  0.00     0.000 A 
ENDBRANCH  75  80
ENDBRANCH  69  71
ENDBRANCH  68  69
ENDBRANCH  67  68
ENDBRANCH   1  67
TORSDOF 15
ENDMDL
