MODEL 1
REMARK VINA RESULT:     -14.1      0.000      0.000
REMARK SMILES Cc1ccc(-c2nc(C)cc(N3CCCC[C@H]3C(=O)OCCOC(=O)c3ccc(-c4c5nc(c(-c6ccc(S(=O)(=O)[O-])cc6)c6ccc([nH]6)c(-c6ccc(S(=O)(=O)[O-])cc6)c6nc(c(-c7ccc(S(=O)(=O)[O-])cc7)c7ccc4[nH]7)C=C6)C=C5)cc3)n2)cc1
REMARK SMILES IDX 22 1 21 2 20 3 18 4 19 5 17 6 12 7 13 8 14 9 16 10 15 11
REMARK SMILES IDX 11 12 6 13 7 14 86 15 8 16 9 17 10 18 5 19 1 20 2 21 3 22
REMARK SMILES IDX 88 23 4 24 87 25 23 26 24 27 25 28 26 29 27 30 85 31 28 32
REMARK SMILES IDX 84 33 29 34 30 35 31 36 78 37 32 38 83 39 77 40 79 41 33 42
REMARK SMILES IDX 82 43 76 44 75 45 34 47 64 48 45 49 63 50 46 51 49 52 62 53
REMARK SMILES IDX 80 54 47 55 48 56 61 58 81 59 50 60 35 61 36 62 44 63 37 64
REMARK SMILES IDX 43 65 38 66 39 67 40 68 41 69 42 70 65 71 66 72 74 73 67 74
REMARK SMILES IDX 73 75 68 76 69 77 70 78 71 79 72 80 51 81 52 82 60 83 53 84
REMARK SMILES IDX 59 85 54 86 55 87 56 88 57 89 58 90
REMARK H PARENT 79 46 49 57
REMARK Flexibility Score: inf
ROOT
ATOM      1  C   UNL A   1      34.638  31.918  27.781  1.00  0.00     0.275 C 
ENDROOT
BRANCH   1   2
ATOM      2  C   UNL A   1      34.100  30.503  27.509  1.00  0.00     0.274 C 
BRANCH   2   3
ATOM      3  O   UNL A   1      32.745  30.609  27.016  1.00  0.00    -0.461 OA
BRANCH   3   4
ATOM      4  C   UNL A   1      32.115  29.352  26.597  1.00  0.00     0.328 C 
ATOM      5  O   UNL A   1      32.030  28.691  27.669  1.00  0.00    -0.250 OA
BRANCH   4   6
ATOM      6  C   UNL A   1      31.474  28.886  24.535  1.00  0.00     0.193 C 
ATOM      7  N   UNL A   1      30.934  27.330  23.912  1.00  0.00    -0.343 N 
ATOM      8  C   UNL A   1      29.478  27.064  23.937  1.00  0.00     0.119 C 
ATOM      9  C   UNL A   1      28.632  28.080  23.192  1.00  0.00     0.022 C 
ATOM     10  C   UNL A   1      30.521  29.766  23.338  1.00  0.00     0.037 C 
ATOM     11  C   UNL A   1      29.013  29.534  23.355  1.00  0.00     0.005 C 
BRANCH   7  12
ATOM     12  C   UNL A   1      31.637  26.324  23.203  1.00  0.00     0.133 A 
ATOM     13  C   UNL A   1      33.554  24.994  23.140  1.00  0.00     0.161 A 
ATOM     14  N   UNL A   1      33.596  24.881  21.811  1.00  0.00    -0.233 NA
ATOM     15  N   UNL A   1      32.614  25.652  23.861  1.00  0.00    -0.211 NA
ATOM     16  C   UNL A   1      32.590  25.459  21.159  1.00  0.00     0.043 A 
ATOM     17  C   UNL A   1      32.691  25.389  19.665  1.00  0.00     0.067 C 
ATOM     18  C   UNL A   1      31.572  26.140  21.825  1.00  0.00     0.070 A 
BRANCH  13  19
ATOM     19  C   UNL A   1      34.638  24.307  23.839  1.00  0.00     0.019 A 
ATOM     20  C   UNL A   1      38.028  22.462  25.787  1.00  0.00     0.044 C 
ATOM     21  C   UNL A   1      36.858  23.107  25.110  1.00  0.00    -0.051 A 
ATOM     22  C   UNL A   1      36.098  24.069  25.783  1.00  0.00     0.004 A 
ATOM     23  C   UNL A   1      36.504  22.752  23.803  1.00  0.00     0.004 A 
ATOM     24  C   UNL A   1      35.006  24.669  25.150  1.00  0.00     0.012 A 
ATOM     25  C   UNL A   1      35.402  23.340  23.180  1.00  0.00     0.012 A 
ENDBRANCH  13  19
ENDBRANCH   7  12
ENDBRANCH   4   6
ENDBRANCH   3   4
ENDBRANCH   2   3
ENDBRANCH   1   2
BRANCH   1  26
ATOM     26  O   UNL A   1      35.527  31.964  28.922  1.00  0.00    -0.458 OA
BRANCH  26  27
ATOM     27  C   UNL A   1      36.844  31.737  28.672  1.00  0.00     0.338 C 
ATOM     28  O   UNL A   1      37.769  32.491  28.918  1.00  0.00    -0.246 OA
BRANCH  27  29
ATOM     29  C   UNL A   1      37.026  30.274  28.566  1.00  0.00     0.060 A 
ATOM     30  C   UNL A   1      36.972  29.235  30.040  1.00  0.00     0.016 A 
ATOM     31  C   UNL A   1      38.149  29.870  27.240  1.00  0.00     0.016 A 
ATOM     32  C   UNL A   1      38.148  27.848  30.211  1.00  0.00     0.010 A 
ATOM     33  C   UNL A   1      39.341  28.531  27.442  1.00  0.00     0.010 A 
ATOM     34  C   UNL A   1      39.381  27.576  28.943  1.00  0.00    -0.014 A 
BRANCH  34  35
ATOM     35  C   UNL A   1      40.720  27.098  29.235  1.00  0.00     0.031 A 
ATOM     36  C   UNL A   1      41.035  25.708  28.869  1.00  0.00     0.074 A 
ATOM     37  C   UNL A   1      41.665  28.030  29.528  1.00  0.00     0.049 A 
ATOM     38  N   UNL A   1      42.115  25.120  29.221  1.00  0.00    -0.248 NA
ATOM     39  C   UNL A   1      40.149  24.824  28.100  1.00  0.00     0.031 C 
ATOM     40  C   UNL A   1      43.118  27.918  29.452  1.00  0.00     0.029 A 
ATOM     41  N   UNL A   1      41.514  29.302  30.070  1.00  0.00    -0.354 N 
ATOM     42  C   UNL A   1      42.243  23.992  28.446  1.00  0.00     0.074 A 
ATOM     43  C   UNL A   1      40.944  23.772  27.873  1.00  0.00     0.031 C 
ATOM     44  C   UNL A   1      43.672  28.880  30.218  1.00  0.00     0.029 A 
ATOM     45  C   UNL A   1      42.593  29.581  30.894  1.00  0.00     0.049 A 
ATOM     46  H   UNL A   1      40.759  29.909  29.896  1.00  0.00     0.167 HD
ATOM     47  C   UNL A   1      43.494  23.492  28.272  1.00  0.00     0.031 A 
ATOM     48  C   UNL A   1      42.424  29.687  32.246  1.00  0.00     0.031 A 
ATOM     49  C   UNL A   1      44.423  24.146  29.199  1.00  0.00     0.049 A 
ATOM     50  C   UNL A   1      43.018  28.461  32.929  1.00  0.00     0.074 A 
ATOM     51  C   UNL A   1      45.390  25.123  29.045  1.00  0.00     0.029 A 
ATOM     52  N   UNL A   1      44.123  24.106  30.559  1.00  0.00    -0.354 N 
ATOM     53  N   UNL A   1      43.320  27.355  32.294  1.00  0.00    -0.248 NA
ATOM     54  C   UNL A   1      43.406  28.398  34.334  1.00  0.00     0.031 C 
ATOM     55  C   UNL A   1      45.560  25.761  30.314  1.00  0.00     0.029 A 
ATOM     56  C   UNL A   1      44.733  25.143  31.242  1.00  0.00     0.049 A 
ATOM     57  H   UNL A   1      43.549  23.426  30.981  1.00  0.00     0.167 HD
ATOM     58  C   UNL A   1      43.992  26.494  33.117  1.00  0.00     0.074 A 
ATOM     59  C   UNL A   1      44.003  27.192  34.394  1.00  0.00     0.031 C 
ATOM     60  C   UNL A   1      44.509  25.300  32.683  1.00  0.00     0.031 A 
BRANCH  47  61
ATOM     61  C   UNL A   1      43.915  22.589  27.136  1.00  0.00    -0.014 A 
ATOM     62  C   UNL A   1      43.060  21.537  26.753  1.00  0.00     0.010 A 
ATOM     63  C   UNL A   1      45.163  22.647  26.479  1.00  0.00     0.010 A 
ATOM     64  C   UNL A   1      43.426  20.600  25.773  1.00  0.00     0.020 A 
ATOM     65  C   UNL A   1      45.533  21.731  25.480  1.00  0.00     0.020 A 
ATOM     66  C   UNL A   1      44.660  20.706  25.136  1.00  0.00     0.054 A 
BRANCH  66  67
ATOM     67  S   UNL A   1      45.109  19.491  23.868  1.00  0.00     0.124 S 
ATOM     68  O   UNL A   1      44.503  20.057  22.666  1.00  0.00    -0.237 OA
ATOM     69  O   UNL A   1      46.568  19.517  23.914  1.00  0.00    -0.237 OA
ATOM     70  O   UNL A   1      44.497  18.251  24.343  1.00  0.00    -0.744 OA
ENDBRANCH  66  67
ENDBRANCH  47  61
BRANCH  48  71
ATOM     71  C   UNL A   1      41.243  30.530  32.645  1.00  0.00    -0.014 A 
ATOM     72  C   UNL A   1      40.110  29.835  33.147  1.00  0.00     0.010 A 
ATOM     73  C   UNL A   1      41.331  31.897  32.932  1.00  0.00     0.010 A 
ATOM     74  C   UNL A   1      39.196  30.430  34.034  1.00  0.00     0.020 A 
ATOM     75  C   UNL A   1      40.408  32.492  33.823  1.00  0.00     0.020 A 
ATOM     76  C   UNL A   1      39.374  31.755  34.403  1.00  0.00     0.054 A 
BRANCH  76  77
ATOM     77  S   UNL A   1      38.348  32.456  35.744  1.00  0.00     0.124 S 
ATOM     78  O   UNL A   1      38.606  31.538  36.848  1.00  0.00    -0.237 OA
ATOM     79  O   UNL A   1      38.893  33.801  35.903  1.00  0.00    -0.237 OA
ATOM     80  O   UNL A   1      36.993  32.401  35.199  1.00  0.00    -0.744 OA
ENDBRANCH  76  77
ENDBRANCH  48  71
BRANCH  60  81
ATOM     81  C   UNL A   1      44.927  24.154  33.587  1.00  0.00    -0.014 A 
ATOM     82  C   UNL A   1      44.092  23.088  33.944  1.00  0.00     0.010 A 
ATOM     83  C   UNL A   1      46.278  24.062  34.011  1.00  0.00     0.010 A 
ATOM     84  C   UNL A   1      44.548  22.041  34.754  1.00  0.00     0.020 A 
ATOM     85  C   UNL A   1      46.766  22.982  34.748  1.00  0.00     0.020 A 
ATOM     86  C   UNL A   1      45.882  21.996  35.153  1.00  0.00     0.054 A 
BRANCH  86  87
ATOM     87  S   UNL A   1      46.446  20.630  36.187  1.00  0.00     0.124 S 
ATOM     88  O   UNL A   1      45.625  19.528  35.695  1.00  0.00    -0.237 OA
ATOM     89  O   UNL A   1      47.868  20.549  35.861  1.00  0.00    -0.237 OA
ATOM     90  O   UNL A   1      46.149  21.077  37.545  1.00  0.00    -0.744 OA
ENDBRANCH  86  87
ENDBRANCH  60  81
ENDBRANCH  34  35
ENDBRANCH  27  29
ENDBRANCH  26  27
ENDBRANCH   1  26
TORSDOF 16
ENDMDL
MODEL 2
REMARK VINA RESULT:     -13.1      1.896      2.739
REMARK SMILES Cc1ccc(-c2nc(C)cc(N3CCCC[C@H]3C(=O)OCCOC(=O)c3ccc(-c4c5nc(c(-c6ccc(S(=O)(=O)[O-])cc6)c6ccc([nH]6)c(-c6ccc(S(=O)(=O)[O-])cc6)c6nc(c(-c7ccc(S(=O)(=O)[O-])cc7)c7ccc4[nH]7)C=C6)C=C5)cc3)n2)cc1
REMARK SMILES IDX 22 1 21 2 20 3 18 4 19 5 17 6 12 7 13 8 14 9 16 10 15 11
REMARK SMILES IDX 11 12 6 13 7 14 86 15 8 16 9 17 10 18 5 19 1 20 2 21 3 22
REMARK SMILES IDX 88 23 4 24 87 25 23 26 24 27 25 28 26 29 27 30 85 31 28 32
REMARK SMILES IDX 84 33 29 34 30 35 31 36 78 37 32 38 83 39 77 40 79 41 33 42
REMARK SMILES IDX 82 43 76 44 75 45 34 47 64 48 45 49 63 50 46 51 49 52 62 53
REMARK SMILES IDX 80 54 47 55 48 56 61 58 81 59 50 60 35 61 36 62 44 63 37 64
REMARK SMILES IDX 43 65 38 66 39 67 40 68 41 69 42 70 65 71 66 72 74 73 67 74
REMARK SMILES IDX 73 75 68 76 69 77 70 78 71 79 72 80 51 81 52 82 60 83 53 84
REMARK SMILES IDX 59 85 54 86 55 87 56 88 57 89 58 90
REMARK H PARENT 79 46 49 57
REMARK Flexibility Score: inf
ROOT
ATOM      1  C   UNL A   1      34.357  30.534  27.835  1.00  0.00     0.275 C 
ENDROOT
BRANCH   1   2
ATOM      2  C   UNL A   1      33.623  30.287  26.506  1.00  0.00     0.274 C 
BRANCH   2   3
ATOM      3  O   UNL A   1      34.012  28.992  25.996  1.00  0.00    -0.461 OA
BRANCH   3   4
ATOM      4  C   UNL A   1      33.265  28.512  24.828  1.00  0.00     0.328 C 
ATOM      5  O   UNL A   1      33.093  29.555  24.137  1.00  0.00    -0.250 OA
BRANCH   4   6
ATOM      6  C   UNL A   1      32.687  26.409  24.474  1.00  0.00     0.193 C 
ATOM      7  N   UNL A   1      33.195  24.995  25.394  1.00  0.00    -0.343 N 
ATOM      8  C   UNL A   1      32.321  24.570  26.510  1.00  0.00     0.119 C 
ATOM      9  C   UNL A   1      30.887  24.267  26.116  1.00  0.00     0.022 C 
ATOM     10  C   UNL A   1      31.173  25.636  24.001  1.00  0.00     0.037 C 
ATOM     11  C   UNL A   1      30.238  25.210  25.128  1.00  0.00     0.005 C 
BRANCH   7  12
ATOM     12  C   UNL A   1      34.222  24.051  25.145  1.00  0.00     0.133 A 
ATOM     13  C   UNL A   1      34.771  21.786  25.028  1.00  0.00     0.161 A 
ATOM     14  N   UNL A   1      36.052  21.940  25.371  1.00  0.00    -0.233 NA
ATOM     15  N   UNL A   1      33.856  22.774  24.875  1.00  0.00    -0.211 NA
ATOM     16  C   UNL A   1      36.446  23.199  25.549  1.00  0.00     0.043 A 
ATOM     17  C   UNL A   1      37.865  23.350  26.008  1.00  0.00     0.067 C 
ATOM     18  C   UNL A   1      35.574  24.275  25.393  1.00  0.00     0.070 A 
BRANCH  13  19
ATOM     19  C   UNL A   1      34.372  20.401  24.787  1.00  0.00     0.019 A 
ATOM     20  C   UNL A   1      33.210  16.259  24.356  1.00  0.00     0.044 C 
ATOM     21  C   UNL A   1      33.612  17.694  24.513  1.00  0.00    -0.051 A 
ATOM     22  C   UNL A   1      32.637  18.694  24.579  1.00  0.00     0.004 A 
ATOM     23  C   UNL A   1      34.963  18.053  24.585  1.00  0.00     0.004 A 
ATOM     24  C   UNL A   1      33.014  20.032  24.725  1.00  0.00     0.012 A 
ATOM     25  C   UNL A   1      35.337  19.392  24.712  1.00  0.00     0.012 A 
ENDBRANCH  13  19
ENDBRANCH   7  12
ENDBRANCH   4   6
ENDBRANCH   3   4
ENDBRANCH   2   3
ENDBRANCH   1   2
BRANCH   1  26
ATOM     26  O   UNL A   1      35.195  31.714  27.795  1.00  0.00    -0.458 OA
BRANCH  26  27
ATOM     27  C   UNL A   1      36.472  31.563  28.236  1.00  0.00     0.338 C 
ATOM     28  O   UNL A   1      37.134  32.389  28.840  1.00  0.00    -0.246 OA
BRANCH  27  29
ATOM     29  C   UNL A   1      36.730  30.111  28.349  1.00  0.00     0.060 A 
ATOM     30  C   UNL A   1      36.880  29.331  29.968  1.00  0.00     0.016 A 
ATOM     31  C   UNL A   1      37.743  29.541  26.996  1.00  0.00     0.016 A 
ATOM     32  C   UNL A   1      38.147  28.043  30.237  1.00  0.00     0.010 A 
ATOM     33  C   UNL A   1      39.026  28.306  27.286  1.00  0.00     0.010 A 
ATOM     34  C   UNL A   1      39.267  27.617  28.909  1.00  0.00    -0.014 A 
BRANCH  34  35
ATOM     35  C   UNL A   1      40.653  27.252  29.132  1.00  0.00     0.031 A 
ATOM     36  C   UNL A   1      41.039  25.861  28.848  1.00  0.00     0.074 A 
ATOM     37  C   UNL A   1      41.548  28.264  29.282  1.00  0.00     0.049 A 
ATOM     38  N   UNL A   1      42.181  25.374  29.160  1.00  0.00    -0.248 NA
ATOM     39  C   UNL A   1      40.166  24.863  28.217  1.00  0.00     0.031 C 
ATOM     40  C   UNL A   1      42.997  28.241  29.105  1.00  0.00     0.029 A 
ATOM     41  N   UNL A   1      41.346  29.563  29.738  1.00  0.00    -0.354 N 
ATOM     42  C   UNL A   1      42.333  24.199  28.464  1.00  0.00     0.074 A 
ATOM     43  C   UNL A   1      41.015  23.850  28.009  1.00  0.00     0.031 C 
ATOM     44  C   UNL A   1      43.534  29.296  29.753  1.00  0.00     0.029 A 
ATOM     45  C   UNL A   1      42.458  29.976  30.454  1.00  0.00     0.049 A 
ATOM     46  H   UNL A   1      40.540  30.104  29.577  1.00  0.00     0.167 HD
ATOM     47  C   UNL A   1      43.601  23.769  28.233  1.00  0.00     0.031 A 
ATOM     48  C   UNL A   1      42.379  30.178  31.804  1.00  0.00     0.031 A 
ATOM     49  C   UNL A   1      44.544  24.554  29.035  1.00  0.00     0.049 A 
ATOM     50  C   UNL A   1      43.105  29.051  32.529  1.00  0.00     0.074 A 
ATOM     51  C   UNL A   1      45.427  25.577  28.735  1.00  0.00     0.029 A 
ATOM     52  N   UNL A   1      44.345  24.603  30.413  1.00  0.00    -0.354 N 
ATOM     53  N   UNL A   1      43.439  27.921  31.957  1.00  0.00    -0.248 NA
ATOM     54  C   UNL A   1      43.595  29.126  33.901  1.00  0.00     0.031 C 
ATOM     55  C   UNL A   1      45.640  26.324  29.937  1.00  0.00     0.029 A 
ATOM     56  C   UNL A   1      44.927  25.729  30.968  1.00  0.00     0.049 A 
ATOM     57  H   UNL A   1      43.853  23.923  30.927  1.00  0.00     0.167 HD
ATOM     58  C   UNL A   1      44.227  27.174  32.788  1.00  0.00     0.074 A 
ATOM     59  C   UNL A   1      44.279  27.970  34.006  1.00  0.00     0.031 C 
ATOM     60  C   UNL A   1      44.795  25.985  32.407  1.00  0.00     0.031 A 
BRANCH  47  61
ATOM     61  C   UNL A   1      44.003  22.808  27.139  1.00  0.00    -0.014 A 
ATOM     62  C   UNL A   1      43.106  21.787  26.769  1.00  0.00     0.010 A 
ATOM     63  C   UNL A   1      45.268  22.782  26.512  1.00  0.00     0.010 A 
ATOM     64  C   UNL A   1      43.448  20.800  25.831  1.00  0.00     0.020 A 
ATOM     65  C   UNL A   1      45.615  21.815  25.554  1.00  0.00     0.020 A 
ATOM     66  C   UNL A   1      44.701  20.823  25.222  1.00  0.00     0.054 A 
BRANCH  66  67
ATOM     67  S   UNL A   1      45.119  19.545  24.007  1.00  0.00     0.124 S 
ATOM     68  O   UNL A   1      44.550  20.087  22.776  1.00  0.00    -0.237 OA
ATOM     69  O   UNL A   1      46.577  19.517  24.072  1.00  0.00    -0.237 OA
ATOM     70  O   UNL A   1      44.454  18.348  24.520  1.00  0.00    -0.744 OA
ENDBRANCH  66  67
ENDBRANCH  47  61
BRANCH  48  71
ATOM     71  C   UNL A   1      41.173  30.972  32.227  1.00  0.00    -0.014 A 
ATOM     72  C   UNL A   1      39.954  30.252  32.354  1.00  0.00     0.010 A 
ATOM     73  C   UNL A   1      41.250  32.212  32.871  1.00  0.00     0.010 A 
ATOM     74  C   UNL A   1      38.925  30.664  33.219  1.00  0.00     0.020 A 
ATOM     75  C   UNL A   1      40.211  32.623  33.738  1.00  0.00     0.020 A 
ATOM     76  C   UNL A   1      39.076  31.836  33.943  1.00  0.00     0.054 A 
BRANCH  76  77
ATOM     77  S   UNL A   1      37.866  32.243  35.251  1.00  0.00     0.124 S 
ATOM     78  O   UNL A   1      38.423  33.462  35.826  1.00  0.00    -0.237 OA
ATOM     79  O   UNL A   1      36.623  32.409  34.505  1.00  0.00    -0.237 OA
ATOM     80  O   UNL A   1      37.907  31.073  36.126  1.00  0.00    -0.744 OA
ENDBRANCH  76  77
ENDBRANCH  48  71
BRANCH  60  81
ATOM     81  C   UNL A   1      45.356  24.944  33.359  1.00  0.00    -0.014 A 
ATOM     82  C   UNL A   1      46.682  24.921  33.809  1.00  0.00     0.010 A 
ATOM     83  C   UNL A   1      44.478  23.996  33.945  1.00  0.00     0.010 A 
ATOM     84  C   UNL A   1      47.130  23.953  34.717  1.00  0.00     0.020 A 
ATOM     85  C   UNL A   1      44.893  23.080  34.913  1.00  0.00     0.020 A 
ATOM     86  C   UNL A   1      46.232  23.038  35.261  1.00  0.00     0.054 A 
BRANCH  86  87
ATOM     87  S   UNL A   1      46.834  21.808  36.436  1.00  0.00     0.124 S 
ATOM     88  O   UNL A   1      47.909  21.175  35.677  1.00  0.00    -0.237 OA
ATOM     89  O   UNL A   1      47.261  22.630  37.566  1.00  0.00    -0.237 OA
ATOM     90  O   UNL A   1      45.666  20.969  36.689  1.00  0.00    -0.744 OA
ENDBRANCH  86  87
ENDBRANCH  60  81
ENDBRANCH  34  35
ENDBRANCH  27  29
ENDBRANCH  26  27
ENDBRANCH   1  26
TORSDOF 16
ENDMDL
MODEL 3
REMARK VINA RESULT:     -12.7      1.995      2.552
REMARK SMILES Cc1ccc(-c2nc(C)cc(N3CCCC[C@H]3C(=O)OCCOC(=O)c3ccc(-c4c5nc(c(-c6ccc(S(=O)(=O)[O-])cc6)c6ccc([nH]6)c(-c6ccc(S(=O)(=O)[O-])cc6)c6nc(c(-c7ccc(S(=O)(=O)[O-])cc7)c7ccc4[nH]7)C=C6)C=C5)cc3)n2)cc1
REMARK SMILES IDX 22 1 21 2 20 3 18 4 19 5 17 6 12 7 13 8 14 9 16 10 15 11
REMARK SMILES IDX 11 12 6 13 7 14 86 15 8 16 9 17 10 18 5 19 1 20 2 21 3 22
REMARK SMILES IDX 88 23 4 24 87 25 23 26 24 27 25 28 26 29 27 30 85 31 28 32
REMARK SMILES IDX 84 33 29 34 30 35 31 36 78 37 32 38 83 39 77 40 79 41 33 42
REMARK SMILES IDX 82 43 76 44 75 45 34 47 64 48 45 49 63 50 46 51 49 52 62 53
REMARK SMILES IDX 80 54 47 55 48 56 61 58 81 59 50 60 35 61 36 62 44 63 37 64
REMARK SMILES IDX 43 65 38 66 39 67 40 68 41 69 42 70 65 71 66 72 74 73 67 74
REMARK SMILES IDX 73 75 68 76 69 77 70 78 71 79 72 80 51 81 52 82 60 83 53 84
REMARK SMILES IDX 59 85 54 86 55 87 56 88 57 89 58 90
REMARK H PARENT 79 46 49 57
REMARK Flexibility Score: inf
ROOT
ATOM      1  C   UNL A   1      34.421  32.003  28.054  1.00  0.00     0.275 C 
ENDROOT
BRANCH   1   2
ATOM      2  C   UNL A   1      33.461  30.971  27.436  1.00  0.00     0.274 C 
BRANCH   2   3
ATOM      3  O   UNL A   1      34.233  29.842  26.969  1.00  0.00    -0.461 OA
BRANCH   3   4
ATOM      4  C   UNL A   1      33.477  28.612  26.709  1.00  0.00     0.328 C 
ATOM      5  O   UNL A   1      32.900  28.380  27.808  1.00  0.00    -0.250 OA
BRANCH   4   6
ATOM      6  C   UNL A   1      33.421  27.548  24.774  1.00  0.00     0.193 C 
ATOM      7  N   UNL A   1      32.434  26.150  24.353  1.00  0.00    -0.343 N 
ATOM      8  C   UNL A   1      31.122  26.419  23.725  1.00  0.00     0.119 C 
ATOM      9  C   UNL A   1      31.182  27.233  22.446  1.00  0.00     0.022 C 
ATOM     10  C   UNL A   1      33.479  28.090  23.095  1.00  0.00     0.037 C 
ATOM     11  C   UNL A   1      32.143  28.400  22.426  1.00  0.00     0.005 C 
BRANCH   7  12
ATOM     12  C   UNL A   1      32.749  24.768  24.340  1.00  0.00     0.133 A 
ATOM     13  C   UNL A   1      34.450  23.178  24.489  1.00  0.00     0.161 A 
ATOM     14  N   UNL A   1      33.846  22.263  23.727  1.00  0.00    -0.233 NA
ATOM     15  N   UNL A   1      33.951  24.388  24.838  1.00  0.00    -0.211 NA
ATOM     16  C   UNL A   1      32.625  22.588  23.307  1.00  0.00     0.043 A 
ATOM     17  C   UNL A   1      31.991  21.584  22.393  1.00  0.00     0.067 C 
ATOM     18  C   UNL A   1      32.030  23.804  23.638  1.00  0.00     0.070 A 
BRANCH  13  19
ATOM     19  C   UNL A   1      35.767  22.779  24.982  1.00  0.00     0.019 A 
ATOM     20  C   UNL A   1      39.767  21.667  26.184  1.00  0.00     0.044 C 
ATOM     21  C   UNL A   1      38.384  22.055  25.761  1.00  0.00    -0.051 A 
ATOM     22  C   UNL A   1      37.894  23.334  26.046  1.00  0.00     0.004 A 
ATOM     23  C   UNL A   1      37.562  21.145  25.086  1.00  0.00     0.004 A 
ATOM     24  C   UNL A   1      36.603  23.694  25.652  1.00  0.00     0.012 A 
ATOM     25  C   UNL A   1      36.266  21.502  24.709  1.00  0.00     0.012 A 
ENDBRANCH  13  19
ENDBRANCH   7  12
ENDBRANCH   4   6
ENDBRANCH   3   4
ENDBRANCH   2   3
ENDBRANCH   1   2
BRANCH   1  26
ATOM     26  O   UNL A   1      35.809  31.709  27.769  1.00  0.00    -0.458 OA
BRANCH  26  27
ATOM     27  C   UNL A   1      36.627  31.553  28.843  1.00  0.00     0.338 C 
ATOM     28  O   UNL A   1      36.693  32.284  29.817  1.00  0.00    -0.246 OA
BRANCH  27  29
ATOM     29  C   UNL A   1      37.010  30.126  28.902  1.00  0.00     0.060 A 
ATOM     30  C   UNL A   1      37.577  29.393  30.449  1.00  0.00     0.016 A 
ATOM     31  C   UNL A   1      37.733  29.602  27.357  1.00  0.00     0.016 A 
ATOM     32  C   UNL A   1      38.964  28.204  30.430  1.00  0.00     0.010 A 
ATOM     33  C   UNL A   1      39.137  28.469  27.356  1.00  0.00     0.010 A 
ATOM     34  C   UNL A   1      39.786  27.832  28.885  1.00  0.00    -0.014 A 
BRANCH  34  35
ATOM     35  C   UNL A   1      41.210  27.571  28.792  1.00  0.00     0.031 A 
ATOM     36  C   UNL A   1      41.633  26.167  28.671  1.00  0.00     0.074 A 
ATOM     37  C   UNL A   1      42.020  28.626  28.512  1.00  0.00     0.049 A 
ATOM     38  N   UNL A   1      42.855  25.795  28.748  1.00  0.00    -0.248 NA
ATOM     39  C   UNL A   1      40.720  25.032  28.487  1.00  0.00     0.031 C 
ATOM     40  C   UNL A   1      43.372  28.624  27.961  1.00  0.00     0.029 A 
ATOM     41  N   UNL A   1      41.826  29.981  28.763  1.00  0.00    -0.354 N 
ATOM     42  C   UNL A   1      42.928  24.513  28.261  1.00  0.00     0.074 A 
ATOM     43  C   UNL A   1      41.575  24.031  28.246  1.00  0.00     0.031 C 
ATOM     44  C   UNL A   1      43.960  29.806  28.240  1.00  0.00     0.029 A 
ATOM     45  C   UNL A   1      43.043  30.569  29.069  1.00  0.00     0.049 A 
ATOM     46  H   UNL A   1      40.961  30.448  28.729  1.00  0.00     0.167 HD
ATOM     47  C   UNL A   1      44.129  24.094  27.781  1.00  0.00     0.031 A 
ATOM     48  C   UNL A   1      43.292  31.031  30.332  1.00  0.00     0.031 A 
ATOM     49  C   UNL A   1      45.172  25.058  28.146  1.00  0.00     0.049 A 
ATOM     50  C   UNL A   1      44.277  30.098  31.027  1.00  0.00     0.074 A 
ATOM     51  C   UNL A   1      45.854  26.034  27.442  1.00  0.00     0.029 A 
ATOM     52  N   UNL A   1      45.327  25.370  29.495  1.00  0.00    -0.354 N 
ATOM     53  N   UNL A   1      44.553  28.890  30.601  1.00  0.00    -0.248 NA
ATOM     54  C   UNL A   1      45.092  30.461  32.182  1.00  0.00     0.031 C 
ATOM     55  C   UNL A   1      46.300  27.011  28.388  1.00  0.00     0.029 A 
ATOM     56  C   UNL A   1      45.929  26.605  29.662  1.00  0.00     0.049 A 
ATOM     57  H   UNL A   1      45.044  24.786  30.236  1.00  0.00     0.167 HD
ATOM     58  C   UNL A   1      45.590  28.353  31.311  1.00  0.00     0.074 A 
ATOM     59  C   UNL A   1      45.879  29.375  32.306  1.00  0.00     0.031 C 
ATOM     60  C   UNL A   1      46.146  27.135  31.013  1.00  0.00     0.031 A 
BRANCH  47  61
ATOM     61  C   UNL A   1      44.322  22.952  26.811  1.00  0.00    -0.014 A 
ATOM     62  C   UNL A   1      43.277  22.024  26.637  1.00  0.00     0.010 A 
ATOM     63  C   UNL A   1      45.524  22.670  26.126  1.00  0.00     0.010 A 
ATOM     64  C   UNL A   1      43.419  20.886  25.828  1.00  0.00     0.020 A 
ATOM     65  C   UNL A   1      45.673  21.548  25.295  1.00  0.00     0.020 A 
ATOM     66  C   UNL A   1      44.616  20.656  25.155  1.00  0.00     0.054 A 
BRANCH  66  67
ATOM     67  S   UNL A   1      44.776  19.185  24.110  1.00  0.00     0.124 S 
ATOM     68  O   UNL A   1      43.789  18.280  24.691  1.00  0.00    -0.237 OA
ATOM     69  O   UNL A   1      44.454  19.706  22.784  1.00  0.00    -0.237 OA
ATOM     70  O   UNL A   1      46.169  18.778  24.292  1.00  0.00    -0.744 OA
ENDBRANCH  66  67
ENDBRANCH  47  61
BRANCH  48  71
ATOM     71  C   UNL A   1      42.169  31.846  30.912  1.00  0.00    -0.014 A 
ATOM     72  C   UNL A   1      41.392  31.222  31.925  1.00  0.00     0.010 A 
ATOM     73  C   UNL A   1      42.100  33.241  30.824  1.00  0.00     0.010 A 
ATOM     74  C   UNL A   1      40.715  31.959  32.913  1.00  0.00     0.020 A 
ATOM     75  C   UNL A   1      41.415  33.977  31.818  1.00  0.00     0.020 A 
ATOM     76  C   UNL A   1      40.763  33.344  32.878  1.00  0.00     0.054 A 
BRANCH  76  77
ATOM     77  S   UNL A   1      40.106  34.298  34.292  1.00  0.00     0.124 S 
ATOM     78  O   UNL A   1      38.859  34.832  33.757  1.00  0.00    -0.237 OA
ATOM     79  O   UNL A   1      39.962  33.283  35.331  1.00  0.00    -0.237 OA
ATOM     80  O   UNL A   1      41.147  35.293  34.543  1.00  0.00    -0.744 OA
ENDBRANCH  76  77
ENDBRANCH  48  71
BRANCH  60  81
ATOM     81  C   UNL A   1      47.021  26.325  31.952  1.00  0.00    -0.014 A 
ATOM     82  C   UNL A   1      46.551  25.665  33.095  1.00  0.00     0.010 A 
ATOM     83  C   UNL A   1      48.380  26.098  31.611  1.00  0.00     0.010 A 
ATOM     84  C   UNL A   1      47.404  24.903  33.903  1.00  0.00     0.020 A 
ATOM     85  C   UNL A   1      49.219  25.273  32.361  1.00  0.00     0.020 A 
ATOM     86  C   UNL A   1      48.733  24.714  33.531  1.00  0.00     0.054 A 
BRANCH  86  87
ATOM     87  S   UNL A   1      49.808  23.719  34.585  1.00  0.00     0.124 S 
ATOM     88  O   UNL A   1      48.867  23.231  35.589  1.00  0.00    -0.237 OA
ATOM     89  O   UNL A   1      50.317  22.710  33.658  1.00  0.00    -0.237 OA
ATOM     90  O   UNL A   1      50.803  24.673  35.067  1.00  0.00    -0.744 OA
ENDBRANCH  86  87
ENDBRANCH  60  81
ENDBRANCH  34  35
ENDBRANCH  27  29
ENDBRANCH  26  27
ENDBRANCH   1  26
TORSDOF 16
ENDMDL
