MODEL 1
REMARK VINA RESULT:     -10.1      0.000      0.000
REMARK SMILES CC(=O)N[C@@H](CSCc1ccnc2ccccc12)C(=O)OCCOC(=O)c1ccc(-c2c3nc(c(-c4ccc(S(=O)(=O)[O-])cc4)c4ccc([nH]4)c(-c4ccc(S(=O)(=O)[O-])cc4)c4nc(c(-c5ccc(S(=O)(=O)[O-])cc5)c5ccc2[nH]5)C=C4)C=C3)cc1
REMARK SMILES IDX 22 1 21 2 19 3 20 4 5 5 4 6 1 7 2 8 3 9 6 11 7 12 8 13 9 14
REMARK SMILES IDX 10 15 18 16 11 17 13 18 17 19 12 20 14 21 16 22 15 23 23 24
REMARK SMILES IDX 24 25 25 26 26 27 27 28 28 29 86 30 29 31 85 32 30 33 31 34
REMARK SMILES IDX 32 35 79 36 33 37 84 38 78 39 80 40 34 41 83 42 77 43 76 44
REMARK SMILES IDX 35 46 65 47 46 48 64 49 47 50 50 51 63 52 81 53 48 54 49 55
REMARK SMILES IDX 62 57 82 58 51 59 36 60 37 61 45 62 38 63 44 64 39 65 40 66
REMARK SMILES IDX 41 67 42 68 43 69 66 70 67 71 75 72 68 73 74 74 69 75 70 76
REMARK SMILES IDX 71 77 72 78 73 79 52 80 53 81 61 82 54 83 60 84 55 85 56 86
REMARK SMILES IDX 57 87 58 88 59 89
REMARK H PARENT 4 10 80 45 50 56
REMARK Flexibility Score: inf
ROOT
ATOM      1  C   UNL A   1      36.583  20.751  25.377  1.00  0.00     0.274 C 
ENDROOT
BRANCH   1   2
ATOM      2  O   UNL A   1      35.390  21.545  25.513  1.00  0.00    -0.461 OA
BRANCH   2   3
ATOM      3  C   UNL A   1      34.250  21.046  24.952  1.00  0.00     0.329 C 
ATOM      4  O   UNL A   1      34.061  19.870  24.668  1.00  0.00    -0.250 OA
BRANCH   3   5
ATOM      5  C   UNL A   1      33.234  22.161  24.662  1.00  0.00     0.202 C 
BRANCH   5   6
ATOM      6  N   UNL A   1      33.101  22.418  23.224  1.00  0.00    -0.342 N 
ATOM      7  C   UNL A   1      34.165  24.657  23.174  1.00  0.00     0.114 C 
ATOM      8  C   UNL A   1      33.564  23.464  22.483  1.00  0.00     0.217 C 
ATOM      9  O   UNL A   1      33.503  23.395  21.257  1.00  0.00    -0.275 OA
ATOM     10  H   UNL A   1      32.603  21.735  22.719  1.00  0.00     0.164 HD
ENDBRANCH   5   6
BRANCH   5  11
ATOM     11  C   UNL A   1      31.906  21.854  25.364  1.00  0.00     0.106 C 
BRANCH  11  12
ATOM     12  S   UNL A   1      31.440  22.953  26.766  1.00  0.00    -0.154 SA
BRANCH  12  13
ATOM     13  C   UNL A   1      32.463  24.429  26.432  1.00  0.00     0.105 C 
BRANCH  13  14
ATOM     14  C   UNL A   1      31.761  25.545  25.691  1.00  0.00    -0.027 A 
ATOM     15  C   UNL A   1      30.628  25.243  24.919  1.00  0.00     0.025 A 
ATOM     16  C   UNL A   1      32.223  26.890  25.715  1.00  0.00     0.004 A 
ATOM     17  C   UNL A   1      29.957  26.268  24.286  1.00  0.00     0.112 A 
ATOM     18  C   UNL A   1      31.444  27.860  25.037  1.00  0.00     0.070 A 
ATOM     19  C   UNL A   1      33.398  27.327  26.373  1.00  0.00     0.010 A 
ATOM     20  N   UNL A   1      30.336  27.557  24.344  1.00  0.00    -0.256 NA
ATOM     21  C   UNL A   1      31.830  29.193  25.082  1.00  0.00     0.029 A 
ATOM     22  C   UNL A   1      33.764  28.673  26.403  1.00  0.00     0.001 A 
ATOM     23  C   UNL A   1      32.973  29.611  25.763  1.00  0.00     0.002 A 
ENDBRANCH  13  14
ENDBRANCH  12  13
ENDBRANCH  11  12
ENDBRANCH   5  11
ENDBRANCH   3   5
ENDBRANCH   2   3
ENDBRANCH   1   2
BRANCH   1  24
ATOM     24  C   UNL A   1      37.726  21.615  24.844  1.00  0.00     0.275 C 
BRANCH  24  25
ATOM     25  O   UNL A   1      37.917  22.772  25.681  1.00  0.00    -0.458 OA
BRANCH  25  26
ATOM     26  C   UNL A   1      39.154  22.870  26.224  1.00  0.00     0.338 C 
ATOM     27  O   UNL A   1      40.070  22.076  26.117  1.00  0.00    -0.246 OA
BRANCH  26  28
ATOM     28  C   UNL A   1      39.307  24.183  26.867  1.00  0.00     0.060 A 
ATOM     29  C   UNL A   1      40.009  25.166  26.171  1.00  0.00     0.016 A 
ATOM     30  C   UNL A   1      38.890  24.408  28.177  1.00  0.00     0.016 A 
ATOM     31  C   UNL A   1      40.346  26.363  26.794  1.00  0.00     0.010 A 
ATOM     32  C   UNL A   1      39.199  25.629  28.793  1.00  0.00     0.010 A 
ATOM     33  C   UNL A   1      39.956  26.603  28.117  1.00  0.00    -0.014 A 
BRANCH  33  34
ATOM     34  C   UNL A   1      40.414  27.845  28.793  1.00  0.00     0.031 A 
ATOM     35  C   UNL A   1      41.841  27.971  29.257  1.00  0.00     0.074 A 
ATOM     36  C   UNL A   1      39.572  28.887  28.931  1.00  0.00     0.049 A 
ATOM     37  N   UNL A   1      42.417  28.954  29.901  1.00  0.00    -0.248 NA
ATOM     38  C   UNL A   1      42.738  26.842  28.959  1.00  0.00     0.031 C 
ATOM     39  C   UNL A   1      38.178  28.916  28.480  1.00  0.00     0.029 A 
ATOM     40  N   UNL A   1      39.772  30.133  29.470  1.00  0.00    -0.354 N 
ATOM     41  C   UNL A   1      43.727  28.549  30.122  1.00  0.00     0.074 A 
ATOM     42  C   UNL A   1      43.862  27.227  29.546  1.00  0.00     0.031 C 
ATOM     43  C   UNL A   1      37.661  30.130  28.731  1.00  0.00     0.029 A 
ATOM     44  C   UNL A   1      38.666  30.947  29.406  1.00  0.00     0.049 A 
ATOM     45  H   UNL A   1      40.628  30.418  29.867  1.00  0.00     0.167 HD
ATOM     46  C   UNL A   1      44.729  29.214  30.747  1.00  0.00     0.031 A 
ATOM     47  C   UNL A   1      38.473  32.202  29.854  1.00  0.00     0.031 A 
ATOM     48  C   UNL A   1      44.606  30.538  31.298  1.00  0.00     0.049 A 
ATOM     49  C   UNL A   1      39.597  32.916  30.549  1.00  0.00     0.074 A 
ATOM     50  C   UNL A   1      45.560  31.290  31.962  1.00  0.00     0.029 A 
ATOM     51  N   UNL A   1      43.459  31.316  31.235  1.00  0.00    -0.354 N 
ATOM     52  N   UNL A   1      40.814  32.495  30.794  1.00  0.00    -0.248 NA
ATOM     53  C   UNL A   1      39.318  34.277  31.031  1.00  0.00     0.031 C 
ATOM     54  C   UNL A   1      44.983  32.513  32.324  1.00  0.00     0.029 A 
ATOM     55  C   UNL A   1      43.681  32.537  31.851  1.00  0.00     0.049 A 
ATOM     56  H   UNL A   1      42.613  31.041  30.816  1.00  0.00     0.167 HD
ATOM     57  C   UNL A   1      41.449  33.540  31.454  1.00  0.00     0.074 A 
ATOM     58  C   UNL A   1      40.489  34.623  31.546  1.00  0.00     0.031 C 
ATOM     59  C   UNL A   1      42.712  33.598  31.945  1.00  0.00     0.031 A 
BRANCH  46  60
ATOM     60  C   UNL A   1      46.040  28.492  30.907  1.00  0.00    -0.014 A 
ATOM     61  C   UNL A   1      46.282  27.648  32.005  1.00  0.00     0.010 A 
ATOM     62  C   UNL A   1      47.039  28.650  29.928  1.00  0.00     0.010 A 
ATOM     63  C   UNL A   1      47.517  27.005  32.141  1.00  0.00     0.020 A 
ATOM     64  C   UNL A   1      48.265  27.992  30.050  1.00  0.00     0.020 A 
ATOM     65  C   UNL A   1      48.504  27.189  31.167  1.00  0.00     0.054 A 
BRANCH  65  66
ATOM     66  S   UNL A   1      50.095  26.339  31.357  1.00  0.00     0.124 S 
ATOM     67  O   UNL A   1      51.003  27.239  30.651  1.00  0.00    -0.237 OA
ATOM     68  O   UNL A   1      50.265  26.287  32.807  1.00  0.00    -0.237 OA
ATOM     69  O   UNL A   1      49.875  25.045  30.714  1.00  0.00    -0.744 OA
ENDBRANCH  65  66
ENDBRANCH  46  60
BRANCH  47  70
ATOM     70  C   UNL A   1      37.151  32.857  29.670  1.00  0.00    -0.014 A 
ATOM     71  C   UNL A   1      36.264  32.998  30.750  1.00  0.00     0.010 A 
ATOM     72  C   UNL A   1      36.783  33.364  28.409  1.00  0.00     0.010 A 
ATOM     73  C   UNL A   1      35.029  33.627  30.573  1.00  0.00     0.020 A 
ATOM     74  C   UNL A   1      35.560  34.016  28.234  1.00  0.00     0.020 A 
ATOM     75  C   UNL A   1      34.685  34.135  29.317  1.00  0.00     0.054 A 
BRANCH  75  76
ATOM     76  S   UNL A   1      33.112  35.017  29.119  1.00  0.00     0.124 S 
ATOM     77  O   UNL A   1      33.559  36.341  28.699  1.00  0.00    -0.237 OA
ATOM     78  O   UNL A   1      32.427  34.227  28.099  1.00  0.00    -0.237 OA
ATOM     79  O   UNL A   1      32.516  34.947  30.452  1.00  0.00    -0.744 OA
ENDBRANCH  75  76
ENDBRANCH  47  70
BRANCH  59  80
ATOM     80  C   UNL A   1      43.125  34.883  32.607  1.00  0.00    -0.014 A 
ATOM     81  C   UNL A   1      42.968  35.066  33.993  1.00  0.00     0.010 A 
ATOM     82  C   UNL A   1      43.675  35.920  31.834  1.00  0.00     0.010 A 
ATOM     83  C   UNL A   1      43.310  36.284  34.586  1.00  0.00     0.020 A 
ATOM     84  C   UNL A   1      44.037  37.132  32.427  1.00  0.00     0.020 A 
ATOM     85  C   UNL A   1      43.832  37.314  33.797  1.00  0.00     0.054 A 
BRANCH  85  86
ATOM     86  S   UNL A   1      44.269  38.889  34.583  1.00  0.00     0.124 S 
ATOM     87  O   UNL A   1      45.652  39.069  34.149  1.00  0.00    -0.237 OA
ATOM     88  O   UNL A   1      43.303  39.821  34.007  1.00  0.00    -0.237 OA
ATOM     89  O   UNL A   1      44.092  38.622  36.009  1.00  0.00    -0.744 OA
ENDBRANCH  85  86
ENDBRANCH  59  80
ENDBRANCH  33  34
ENDBRANCH  26  28
ENDBRANCH  25  26
ENDBRANCH  24  25
ENDBRANCH   1  24
TORSDOF 19
ENDMDL
MODEL 2
REMARK VINA RESULT:     -10.1      2.754      9.294
REMARK SMILES CC(=O)N[C@@H](CSCc1ccnc2ccccc12)C(=O)OCCOC(=O)c1ccc(-c2c3nc(c(-c4ccc(S(=O)(=O)[O-])cc4)c4ccc([nH]4)c(-c4ccc(S(=O)(=O)[O-])cc4)c4nc(c(-c5ccc(S(=O)(=O)[O-])cc5)c5ccc2[nH]5)C=C4)C=C3)cc1
REMARK SMILES IDX 22 1 21 2 19 3 20 4 5 5 4 6 1 7 2 8 3 9 6 11 7 12 8 13 9 14
REMARK SMILES IDX 10 15 18 16 11 17 13 18 17 19 12 20 14 21 16 22 15 23 23 24
REMARK SMILES IDX 24 25 25 26 26 27 27 28 28 29 86 30 29 31 85 32 30 33 31 34
REMARK SMILES IDX 32 35 79 36 33 37 84 38 78 39 80 40 34 41 83 42 77 43 76 44
REMARK SMILES IDX 35 46 65 47 46 48 64 49 47 50 50 51 63 52 81 53 48 54 49 55
REMARK SMILES IDX 62 57 82 58 51 59 36 60 37 61 45 62 38 63 44 64 39 65 40 66
REMARK SMILES IDX 41 67 42 68 43 69 66 70 67 71 75 72 68 73 74 74 69 75 70 76
REMARK SMILES IDX 71 77 72 78 73 79 52 80 53 81 61 82 54 83 60 84 55 85 56 86
REMARK SMILES IDX 57 87 58 88 59 89
REMARK H PARENT 4 10 80 45 50 56
REMARK Flexibility Score: inf
ROOT
ATOM      1  C   UNL A   1      32.287  28.038  25.758  1.00  0.00     0.274 C 
ENDROOT
BRANCH   1   2
ATOM      2  O   UNL A   1      30.927  27.632  25.524  1.00  0.00    -0.461 OA
BRANCH   2   3
ATOM      3  C   UNL A   1      30.715  26.310  25.256  1.00  0.00     0.329 C 
ATOM      4  O   UNL A   1      30.950  25.389  26.027  1.00  0.00    -0.250 OA
BRANCH   3   5
ATOM      5  C   UNL A   1      30.189  26.105  23.827  1.00  0.00     0.202 C 
BRANCH   5   6
ATOM      6  N   UNL A   1      30.374  27.302  23.000  1.00  0.00    -0.342 N 
ATOM      7  C   UNL A   1      28.045  28.149  23.098  1.00  0.00     0.114 C 
ATOM      8  C   UNL A   1      29.489  28.296  22.704  1.00  0.00     0.217 C 
ATOM      9  O   UNL A   1      29.902  29.308  22.141  1.00  0.00    -0.275 OA
ATOM     10  H   UNL A   1      31.266  27.403  22.600  1.00  0.00     0.164 HD
ENDBRANCH   5   6
BRANCH   5  11
ATOM     11  C   UNL A   1      30.797  24.833  23.224  1.00  0.00     0.106 C 
BRANCH  11  12
ATOM     12  S   UNL A   1      32.565  24.922  22.718  1.00  0.00    -0.154 SA
BRANCH  12  13
ATOM     13  C   UNL A   1      32.893  23.196  22.221  1.00  0.00     0.105 C 
BRANCH  13  14
ATOM     14  C   UNL A   1      33.257  22.259  23.351  1.00  0.00    -0.027 A 
ATOM     15  C   UNL A   1      32.256  21.459  23.923  1.00  0.00     0.025 A 
ATOM     16  C   UNL A   1      34.574  22.179  23.885  1.00  0.00     0.004 A 
ATOM     17  C   UNL A   1      32.599  20.566  24.917  1.00  0.00     0.112 A 
ATOM     18  C   UNL A   1      34.810  21.216  24.897  1.00  0.00     0.070 A 
ATOM     19  C   UNL A   1      35.662  22.986  23.472  1.00  0.00     0.010 A 
ATOM     20  N   UNL A   1      33.847  20.425  25.396  1.00  0.00    -0.256 NA
ATOM     21  C   UNL A   1      36.092  21.067  25.407  1.00  0.00     0.029 A 
ATOM     22  C   UNL A   1      36.941  22.816  24.002  1.00  0.00     0.001 A 
ATOM     23  C   UNL A   1      37.160  21.848  24.966  1.00  0.00     0.002 A 
ENDBRANCH  13  14
ENDBRANCH  12  13
ENDBRANCH  11  12
ENDBRANCH   5  11
ENDBRANCH   3   5
ENDBRANCH   2   3
ENDBRANCH   1   2
BRANCH   1  24
ATOM     24  C   UNL A   1      32.398  28.731  27.116  1.00  0.00     0.275 C 
BRANCH  24  25
ATOM     25  O   UNL A   1      33.770  28.766  27.555  1.00  0.00    -0.458 OA
BRANCH  25  26
ATOM     26  C   UNL A   1      34.259  30.012  27.761  1.00  0.00     0.338 C 
ATOM     27  O   UNL A   1      33.641  31.060  27.730  1.00  0.00    -0.246 OA
BRANCH  26  28
ATOM     28  C   UNL A   1      35.662  29.926  28.190  1.00  0.00     0.060 A 
ATOM     29  C   UNL A   1      36.647  30.141  27.227  1.00  0.00     0.016 A 
ATOM     30  C   UNL A   1      36.009  29.515  29.475  1.00  0.00     0.016 A 
ATOM     31  C   UNL A   1      37.984  29.895  27.523  1.00  0.00     0.010 A 
ATOM     32  C   UNL A   1      37.360  29.302  29.784  1.00  0.00     0.010 A 
ATOM     33  C   UNL A   1      38.354  29.461  28.801  1.00  0.00    -0.014 A 
BRANCH  33  34
ATOM     34  C   UNL A   1      39.774  29.109  29.063  1.00  0.00     0.031 A 
ATOM     35  C   UNL A   1      40.676  30.084  29.774  1.00  0.00     0.074 A 
ATOM     36  C   UNL A   1      40.241  27.891  28.727  1.00  0.00     0.049 A 
ATOM     37  N   UNL A   1      41.949  29.977  30.056  1.00  0.00    -0.248 NA
ATOM     38  C   UNL A   1      40.064  31.345  30.225  1.00  0.00     0.031 C 
ATOM     39  C   UNL A   1      39.460  26.833  28.080  1.00  0.00     0.029 A 
ATOM     40  N   UNL A   1      41.480  27.327  28.904  1.00  0.00    -0.354 N 
ATOM     41  C   UNL A   1      42.302  31.168  30.679  1.00  0.00     0.074 A 
ATOM     42  C   UNL A   1      41.109  31.986  30.731  1.00  0.00     0.031 C 
ATOM     43  C   UNL A   1      40.228  25.740  27.946  1.00  0.00     0.029 A 
ATOM     44  C   UNL A   1      41.568  26.033  28.448  1.00  0.00     0.049 A 
ATOM     45  H   UNL A   1      42.235  27.805  29.319  1.00  0.00     0.167 HD
ATOM     46  C   UNL A   1      43.509  31.549  31.163  1.00  0.00     0.031 A 
ATOM     47  C   UNL A   1      42.611  25.182  28.420  1.00  0.00     0.031 A 
ATOM     48  C   UNL A   1      44.691  30.728  31.137  1.00  0.00     0.049 A 
ATOM     49  C   UNL A   1      43.940  25.630  28.958  1.00  0.00     0.074 A 
ATOM     50  C   UNL A   1      45.964  31.031  31.591  1.00  0.00     0.029 A 
ATOM     51  N   UNL A   1      44.744  29.434  30.641  1.00  0.00    -0.354 N 
ATOM     52  N   UNL A   1      44.266  26.780  29.495  1.00  0.00    -0.248 NA
ATOM     53  C   UNL A   1      45.045  24.662  28.881  1.00  0.00     0.031 C 
ATOM     54  C   UNL A   1      46.793  29.929  31.346  1.00  0.00     0.029 A 
ATOM     55  C   UNL A   1      46.026  28.927  30.775  1.00  0.00     0.049 A 
ATOM     56  H   UNL A   1      43.983  28.948  30.251  1.00  0.00     0.167 HD
ATOM     57  C   UNL A   1      45.612  26.673  29.827  1.00  0.00     0.074 A 
ATOM     58  C   UNL A   1      46.032  25.337  29.453  1.00  0.00     0.031 C 
ATOM     59  C   UNL A   1      46.429  27.600  30.386  1.00  0.00     0.031 A 
BRANCH  46  60
ATOM     60  C   UNL A   1      43.618  32.940  31.726  1.00  0.00    -0.014 A 
ATOM     61  C   UNL A   1      43.684  33.167  33.112  1.00  0.00     0.010 A 
ATOM     62  C   UNL A   1      43.672  34.038  30.847  1.00  0.00     0.010 A 
ATOM     63  C   UNL A   1      43.763  34.471  33.610  1.00  0.00     0.020 A 
ATOM     64  C   UNL A   1      43.774  35.341  31.341  1.00  0.00     0.020 A 
ATOM     65  C   UNL A   1      43.799  35.551  32.722  1.00  0.00     0.054 A 
BRANCH  65  66
ATOM     66  S   UNL A   1      43.911  37.234  33.388  1.00  0.00     0.124 S 
ATOM     67  O   UNL A   1      45.130  37.159  34.190  1.00  0.00    -0.237 OA
ATOM     68  O   UNL A   1      44.002  38.056  32.184  1.00  0.00    -0.237 OA
ATOM     69  O   UNL A   1      42.673  37.387  34.150  1.00  0.00    -0.744 OA
ENDBRANCH  65  66
ENDBRANCH  46  60
BRANCH  47  70
ATOM     70  C   UNL A   1      42.440  23.822  27.844  1.00  0.00    -0.014 A 
ATOM     71  C   UNL A   1      42.519  23.616  26.457  1.00  0.00     0.010 A 
ATOM     72  C   UNL A   1      42.217  22.720  28.691  1.00  0.00     0.010 A 
ATOM     73  C   UNL A   1      42.371  22.332  25.924  1.00  0.00     0.020 A 
ATOM     74  C   UNL A   1      42.093  21.433  28.164  1.00  0.00     0.020 A 
ATOM     75  C   UNL A   1      42.161  21.248  26.781  1.00  0.00     0.054 A 
BRANCH  75  76
ATOM     76  S   UNL A   1      42.048  19.577  26.082  1.00  0.00     0.124 S 
ATOM     77  O   UNL A   1      42.974  19.657  24.957  1.00  0.00    -0.237 OA
ATOM     78  O   UNL A   1      42.476  18.734  27.196  1.00  0.00    -0.237 OA
ATOM     79  O   UNL A   1      40.635  19.454  25.728  1.00  0.00    -0.744 OA
ENDBRANCH  75  76
ENDBRANCH  47  70
BRANCH  59  80
ATOM     80  C   UNL A   1      47.852  27.185  30.640  1.00  0.00    -0.014 A 
ATOM     81  C   UNL A   1      48.228  26.603  31.864  1.00  0.00     0.010 A 
ATOM     82  C   UNL A   1      48.824  27.380  29.643  1.00  0.00     0.010 A 
ATOM     83  C   UNL A   1      49.563  26.269  32.105  1.00  0.00     0.020 A 
ATOM     84  C   UNL A   1      50.156  27.028  29.873  1.00  0.00     0.020 A 
ATOM     85  C   UNL A   1      50.522  26.494  31.112  1.00  0.00     0.054 A 
BRANCH  85  86
ATOM     86  S   UNL A   1      52.250  26.056  31.441  1.00  0.00     0.124 S 
ATOM     87  O   UNL A   1      52.123  24.699  31.963  1.00  0.00    -0.237 OA
ATOM     88  O   UNL A   1      52.872  26.167  30.123  1.00  0.00    -0.237 OA
ATOM     89  O   UNL A   1      52.680  27.061  32.411  1.00  0.00    -0.744 OA
ENDBRANCH  85  86
ENDBRANCH  59  80
ENDBRANCH  33  34
ENDBRANCH  26  28
ENDBRANCH  25  26
ENDBRANCH  24  25
ENDBRANCH   1  24
TORSDOF 19
ENDMDL
MODEL 3
REMARK VINA RESULT:      -9.9      2.549      8.513
REMARK SMILES CC(=O)N[C@@H](CSCc1ccnc2ccccc12)C(=O)OCCOC(=O)c1ccc(-c2c3nc(c(-c4ccc(S(=O)(=O)[O-])cc4)c4ccc([nH]4)c(-c4ccc(S(=O)(=O)[O-])cc4)c4nc(c(-c5ccc(S(=O)(=O)[O-])cc5)c5ccc2[nH]5)C=C4)C=C3)cc1
REMARK SMILES IDX 22 1 21 2 19 3 20 4 5 5 4 6 1 7 2 8 3 9 6 11 7 12 8 13 9 14
REMARK SMILES IDX 10 15 18 16 11 17 13 18 17 19 12 20 14 21 16 22 15 23 23 24
REMARK SMILES IDX 24 25 25 26 26 27 27 28 28 29 86 30 29 31 85 32 30 33 31 34
REMARK SMILES IDX 32 35 79 36 33 37 84 38 78 39 80 40 34 41 83 42 77 43 76 44
REMARK SMILES IDX 35 46 65 47 46 48 64 49 47 50 50 51 63 52 81 53 48 54 49 55
REMARK SMILES IDX 62 57 82 58 51 59 36 60 37 61 45 62 38 63 44 64 39 65 40 66
REMARK SMILES IDX 41 67 42 68 43 69 66 70 67 71 75 72 68 73 74 74 69 75 70 76
REMARK SMILES IDX 71 77 72 78 73 79 52 80 53 81 61 82 54 83 60 84 55 85 56 86
REMARK SMILES IDX 57 87 58 88 59 89
REMARK H PARENT 4 10 80 45 50 56
REMARK Flexibility Score: inf
ROOT
ATOM      1  C   UNL A   1      36.266  20.760  25.261  1.00  0.00     0.274 C 
ENDROOT
BRANCH   1   2
ATOM      2  O   UNL A   1      35.296  21.809  25.430  1.00  0.00    -0.461 OA
BRANCH   2   3
ATOM      3  C   UNL A   1      34.274  21.568  26.303  1.00  0.00     0.329 C 
ATOM      4  O   UNL A   1      34.373  21.576  27.523  1.00  0.00    -0.250 OA
BRANCH   3   5
ATOM      5  C   UNL A   1      32.972  21.227  25.562  1.00  0.00     0.202 C 
BRANCH   5   6
ATOM      6  N   UNL A   1      32.527  19.858  25.842  1.00  0.00    -0.342 N 
ATOM      7  C   UNL A   1      32.729  18.953  23.542  1.00  0.00     0.114 C 
ATOM      8  C   UNL A   1      32.474  18.777  25.014  1.00  0.00     0.217 C 
ATOM      9  O   UNL A   1      32.242  17.670  25.497  1.00  0.00    -0.275 OA
ATOM     10  H   UNL A   1      32.221  19.695  26.763  1.00  0.00     0.164 HD
ENDBRANCH   5   6
BRANCH   5  11
ATOM     11  C   UNL A   1      31.910  22.296  25.848  1.00  0.00     0.106 C 
BRANCH  11  12
ATOM     12  S   UNL A   1      32.431  24.051  25.648  1.00  0.00    -0.154 SA
BRANCH  12  13
ATOM     13  C   UNL A   1      30.820  24.902  25.535  1.00  0.00     0.105 C 
BRANCH  13  14
ATOM     14  C   UNL A   1      30.849  26.247  24.843  1.00  0.00    -0.027 A 
ATOM     15  C   UNL A   1      30.494  26.323  23.487  1.00  0.00     0.025 A 
ATOM     16  C   UNL A   1      31.258  27.439  25.503  1.00  0.00     0.004 A 
ATOM     17  C   UNL A   1      30.470  27.556  22.870  1.00  0.00     0.112 A 
ATOM     18  C   UNL A   1      31.180  28.649  24.770  1.00  0.00     0.070 A 
ATOM     19  C   UNL A   1      31.728  27.502  26.837  1.00  0.00     0.010 A 
ATOM     20  N   UNL A   1      30.790  28.706  23.487  1.00  0.00    -0.256 NA
ATOM     21  C   UNL A   1      31.517  29.844  25.393  1.00  0.00     0.029 A 
ATOM     22  C   UNL A   1      32.061  28.715  27.440  1.00  0.00     0.001 A 
ATOM     23  C   UNL A   1      31.947  29.891  26.720  1.00  0.00     0.002 A 
ENDBRANCH  13  14
ENDBRANCH  12  13
ENDBRANCH  11  12
ENDBRANCH   5  11
ENDBRANCH   3   5
ENDBRANCH   2   3
ENDBRANCH   1   2
BRANCH   1  24
ATOM     24  C   UNL A   1      37.602  21.353  24.813  1.00  0.00     0.275 C 
BRANCH  24  25
ATOM     25  O   UNL A   1      38.035  22.372  25.734  1.00  0.00    -0.458 OA
BRANCH  25  26
ATOM     26  C   UNL A   1      39.244  22.138  26.299  1.00  0.00     0.338 C 
ATOM     27  O   UNL A   1      39.893  21.110  26.248  1.00  0.00    -0.246 OA
BRANCH  26  28
ATOM     28  C   UNL A   1      39.764  23.382  26.885  1.00  0.00     0.060 A 
ATOM     29  C   UNL A   1      39.501  24.573  26.210  1.00  0.00     0.016 A 
ATOM     30  C   UNL A   1      40.601  23.371  27.998  1.00  0.00     0.016 A 
ATOM     31  C   UNL A   1      40.115  25.756  26.609  1.00  0.00     0.010 A 
ATOM     32  C   UNL A   1      41.192  24.569  28.421  1.00  0.00     0.010 A 
ATOM     33  C   UNL A   1      40.978  25.765  27.711  1.00  0.00    -0.014 A 
BRANCH  33  34
ATOM     34  C   UNL A   1      41.699  27.018  28.056  1.00  0.00     0.031 A 
ATOM     35  C   UNL A   1      40.952  28.179  28.660  1.00  0.00     0.074 A 
ATOM     36  C   UNL A   1      43.034  27.095  27.894  1.00  0.00     0.049 A 
ATOM     37  N   UNL A   1      41.396  29.365  28.989  1.00  0.00    -0.248 NA
ATOM     38  C   UNL A   1      39.519  27.978  28.927  1.00  0.00     0.031 C 
ATOM     39  C   UNL A   1      43.886  26.025  27.368  1.00  0.00     0.029 A 
ATOM     40  N   UNL A   1      43.913  28.110  28.178  1.00  0.00    -0.354 N 
ATOM     41  C   UNL A   1      40.293  30.066  29.461  1.00  0.00     0.074 A 
ATOM     42  C   UNL A   1      39.157  29.173  29.373  1.00  0.00     0.031 C 
ATOM     43  C   UNL A   1      45.167  26.429  27.398  1.00  0.00     0.029 A 
ATOM     44  C   UNL A   1      45.222  27.801  27.895  1.00  0.00     0.049 A 
ATOM     45  H   UNL A   1      43.631  28.978  28.548  1.00  0.00     0.167 HD
ATOM     46  C   UNL A   1      40.229  31.338  29.925  1.00  0.00     0.031 A 
ATOM     47  C   UNL A   1      46.342  28.542  28.007  1.00  0.00     0.031 A 
ATOM     48  C   UNL A   1      41.361  32.220  30.039  1.00  0.00     0.049 A 
ATOM     49  C   UNL A   1      46.244  29.951  28.519  1.00  0.00     0.074 A 
ATOM     50  C   UNL A   1      41.394  33.530  30.485  1.00  0.00     0.029 A 
ATOM     51  N   UNL A   1      42.665  31.876  29.716  1.00  0.00    -0.354 N 
ATOM     52  N   UNL A   1      45.183  30.612  28.912  1.00  0.00    -0.248 NA
ATOM     53  C   UNL A   1      47.499  30.713  28.599  1.00  0.00     0.031 C 
ATOM     54  C   UNL A   1      42.715  33.988  30.409  1.00  0.00     0.029 A 
ATOM     55  C   UNL A   1      43.510  32.949  29.951  1.00  0.00     0.049 A 
ATOM     56  H   UNL A   1      42.949  31.000  29.371  1.00  0.00     0.167 HD
ATOM     57  C   UNL A   1      45.642  31.868  29.292  1.00  0.00     0.074 A 
ATOM     58  C   UNL A   1      47.079  31.864  29.106  1.00  0.00     0.031 C 
ATOM     59  C   UNL A   1      44.936  32.932  29.748  1.00  0.00     0.031 A 
BRANCH  46  60
ATOM     60  C   UNL A   1      38.872  31.864  30.306  1.00  0.00    -0.014 A 
ATOM     61  C   UNL A   1      38.032  32.478  29.360  1.00  0.00     0.010 A 
ATOM     62  C   UNL A   1      38.424  31.724  31.633  1.00  0.00     0.010 A 
ATOM     63  C   UNL A   1      36.784  32.978  29.743  1.00  0.00     0.020 A 
ATOM     64  C   UNL A   1      37.168  32.203  32.015  1.00  0.00     0.020 A 
ATOM     65  C   UNL A   1      36.363  32.845  31.071  1.00  0.00     0.054 A 
BRANCH  65  66
ATOM     66  S   UNL A   1      34.736  33.492  31.546  1.00  0.00     0.124 S 
ATOM     67  O   UNL A   1      34.070  33.610  30.251  1.00  0.00    -0.237 OA
ATOM     68  O   UNL A   1      34.216  32.449  32.427  1.00  0.00    -0.237 OA
ATOM     69  O   UNL A   1      35.047  34.759  32.204  1.00  0.00    -0.744 OA
ENDBRANCH  65  66
ENDBRANCH  46  60
BRANCH  47  70
ATOM     70  C   UNL A   1      47.653  27.964  27.608  1.00  0.00    -0.014 A 
ATOM     71  C   UNL A   1      48.137  28.123  26.299  1.00  0.00     0.010 A 
ATOM     72  C   UNL A   1      48.434  27.268  28.549  1.00  0.00     0.010 A 
ATOM     73  C   UNL A   1      49.376  27.589  25.935  1.00  0.00     0.020 A 
ATOM     74  C   UNL A   1      49.683  26.755  28.196  1.00  0.00     0.020 A 
ATOM     75  C   UNL A   1      50.144  26.910  26.886  1.00  0.00     0.054 A 
BRANCH  75  76
ATOM     76  S   UNL A   1      51.784  26.290  26.421  1.00  0.00     0.124 S 
ATOM     77  O   UNL A   1      51.660  24.864  26.708  1.00  0.00    -0.237 OA
ATOM     78  O   UNL A   1      51.872  26.646  25.007  1.00  0.00    -0.237 OA
ATOM     79  O   UNL A   1      52.687  27.033  27.297  1.00  0.00    -0.744 OA
ENDBRANCH  75  76
ENDBRANCH  47  70
BRANCH  59  80
ATOM     80  C   UNL A   1      45.718  34.169  30.094  1.00  0.00    -0.014 A 
ATOM     81  C   UNL A   1      45.956  35.167  29.133  1.00  0.00     0.010 A 
ATOM     82  C   UNL A   1      46.222  34.333  31.396  1.00  0.00     0.010 A 
ATOM     83  C   UNL A   1      46.728  36.286  29.454  1.00  0.00     0.020 A 
ATOM     84  C   UNL A   1      46.977  35.461  31.727  1.00  0.00     0.020 A 
ATOM     85  C   UNL A   1      47.244  36.421  30.747  1.00  0.00     0.054 A 
BRANCH  85  86
ATOM     86  S   UNL A   1      48.244  37.880  31.149  1.00  0.00     0.124 S 
ATOM     87  O   UNL A   1      47.698  38.273  32.444  1.00  0.00    -0.237 OA
ATOM     88  O   UNL A   1      49.603  37.346  31.175  1.00  0.00    -0.237 OA
ATOM     89  O   UNL A   1      47.964  38.800  30.048  1.00  0.00    -0.744 OA
ENDBRANCH  85  86
ENDBRANCH  59  80
ENDBRANCH  33  34
ENDBRANCH  26  28
ENDBRANCH  25  26
ENDBRANCH  24  25
ENDBRANCH   1  24
TORSDOF 19
ENDMDL
