MODEL 1
REMARK VINA RESULT:      -9.8      0.000      0.000
REMARK SMILES COc1ccc(Br)c([C@H]2[NH2+][C@H](C(=O)OCCOC(=O)c3ccc(-c4c5nc(c(-c6ccc(S(=O)(=O)[O-])cc6)c6ccc([nH]6)c(-c6ccc(S(=O)(=O)[O-])cc6)c6nc(c(-c7ccc(S(=O)(=O)[O-])cc7)c7ccc4[nH]7)C=C6)C=C5)cc3)CS2)c1O
REMARK SMILES IDX 16 1 15 2 14 3 12 4 13 5 11 6 9 7 10 8 81 9 80 12 8 13 3 14
REMARK SMILES IDX 4 15 82 16 5 17 6 18 7 19 2 20 1 21 83 22 17 24 18 25 19 26
REMARK SMILES IDX 20 27 21 28 79 29 22 30 78 31 23 32 24 33 25 34 72 35 26 36
REMARK SMILES IDX 77 37 71 38 73 39 27 40 76 41 70 42 69 43 28 45 58 46 39 47
REMARK SMILES IDX 57 48 40 49 43 50 56 51 74 52 41 53 42 54 55 56 75 57 44 58
REMARK SMILES IDX 29 59 30 60 38 61 31 62 37 63 32 64 33 65 34 66 35 67 36 68
REMARK SMILES IDX 59 69 60 70 68 71 61 72 67 73 62 74 63 75 64 76 65 77 66 78
REMARK SMILES IDX 45 79 46 80 54 81 47 82 53 83 48 84 49 85 50 86 51 87 52 88
REMARK H PARENT 10 10 10 11 83 23 73 44 43 55
REMARK Flexibility Score: inf
ROOT
ATOM      1  C   UNL A   1      41.745  22.763  27.575  1.00  0.00     0.275 C 
ENDROOT
BRANCH   1   2
ATOM      2  C   UNL A   1      42.202  21.700  26.578  1.00  0.00     0.274 C 
BRANCH   2   3
ATOM      3  O   UNL A   1      42.478  22.276  25.287  1.00  0.00    -0.458 OA
BRANCH   3   4
ATOM      4  C   UNL A   1      43.719  22.056  24.779  1.00  0.00     0.365 C 
ATOM      5  O   UNL A   1      44.259  20.954  24.733  1.00  0.00    -0.245 OA
BRANCH   4   6
ATOM      6  C   UNL A   1      44.451  23.324  24.322  1.00  0.00     0.304 C 
ATOM      7  C   UNL A   1      44.859  24.663  26.269  1.00  0.00     0.279 C 
ATOM      8  N   UNL A   1      44.082  24.578  25.023  1.00  0.00    -0.319 N 
ATOM      9  S   UNL A   1      46.394  23.701  26.064  1.00  0.00    -0.087 SA
ATOM     10  H   UNL A   1      44.295  25.380  24.430  1.00  0.00     0.348 HD
ATOM     11  H   UNL A   1      43.084  24.581  25.233  1.00  0.00     0.348 HD
ATOM     12  C   UNL A   1      45.956  23.134  24.404  1.00  0.00     0.153 C 
BRANCH   7  13
ATOM     13  C   UNL A   1      44.998  26.106  26.737  1.00  0.00     0.080 A 
ATOM     14  C   UNL A   1      45.471  28.491  26.351  1.00  0.00     0.161 A 
ATOM     15  C   UNL A   1      45.212  28.799  27.677  1.00  0.00     0.051 A 
ATOM     16  C   UNL A   1      45.359  27.170  25.885  1.00  0.00     0.169 A 
ATOM     17  C   UNL A   1      44.805  27.784  28.536  1.00  0.00     0.020 A 
ATOM     18  C   UNL A   1      44.699  26.458  28.076  1.00  0.00     0.032 A 
ATOM     19  Br  UNL A   1      44.124  25.192  29.382  1.00  0.00    -0.050 Br
BRANCH  14  20
ATOM     20  O   UNL A   1      45.926  29.487  25.524  1.00  0.00    -0.493 OA
ATOM     21  C   UNL A   1      46.300  30.650  26.267  1.00  0.00     0.278 C 
ENDBRANCH  14  20
BRANCH  16  22
ATOM     22  O   UNL A   1      45.613  26.950  24.556  1.00  0.00    -0.504 OA
ATOM     23  H   UNL A   1      44.904  26.787  23.965  1.00  0.00     0.293 HD
ENDBRANCH  16  22
ENDBRANCH   7  13
ENDBRANCH   4   6
ENDBRANCH   3   4
ENDBRANCH   2   3
ENDBRANCH   1   2
BRANCH   1  24
ATOM     24  O   UNL A   1      41.667  24.055  26.951  1.00  0.00    -0.458 OA
BRANCH  24  25
ATOM     25  C   UNL A   1      40.413  24.552  26.834  1.00  0.00     0.338 C 
ATOM     26  O   UNL A   1      39.510  24.135  26.132  1.00  0.00    -0.246 OA
BRANCH  25  27
ATOM     27  C   UNL A   1      40.247  25.672  27.770  1.00  0.00     0.060 A 
ATOM     28  C   UNL A   1      41.136  26.746  27.684  1.00  0.00     0.016 A 
ATOM     29  C   UNL A   1      39.286  25.617  28.782  1.00  0.00     0.016 A 
ATOM     30  C   UNL A   1      41.072  27.774  28.622  1.00  0.00     0.010 A 
ATOM     31  C   UNL A   1      39.225  26.648  29.723  1.00  0.00     0.010 A 
ATOM     32  C   UNL A   1      40.127  27.724  29.658  1.00  0.00    -0.014 A 
BRANCH  32  33
ATOM     33  C   UNL A   1      40.129  28.767  30.713  1.00  0.00     0.031 A 
ATOM     34  C   UNL A   1      41.086  28.661  31.867  1.00  0.00     0.074 A 
ATOM     35  C   UNL A   1      39.285  29.813  30.628  1.00  0.00     0.049 A 
ATOM     36  N   UNL A   1      41.199  29.430  32.919  1.00  0.00    -0.248 NA
ATOM     37  C   UNL A   1      42.040  27.541  31.832  1.00  0.00     0.031 C 
ATOM     38  C   UNL A   1      38.338  30.048  29.537  1.00  0.00     0.029 A 
ATOM     39  N   UNL A   1      39.087  30.871  31.478  1.00  0.00    -0.354 N 
ATOM     40  C   UNL A   1      42.225  28.881  33.680  1.00  0.00     0.074 A 
ATOM     41  C   UNL A   1      42.690  27.704  32.976  1.00  0.00     0.031 C 
ATOM     42  C   UNL A   1      37.660  31.181  29.784  1.00  0.00     0.029 A 
ATOM     43  C   UNL A   1      38.094  31.727  31.068  1.00  0.00     0.049 A 
ATOM     44  H   UNL A   1      39.608  31.004  32.303  1.00  0.00     0.167 HD
ATOM     45  C   UNL A   1      42.734  29.319  34.857  1.00  0.00     0.031 A 
ATOM     46  C   UNL A   1      37.573  32.814  31.669  1.00  0.00     0.031 A 
ATOM     47  C   UNL A   1      42.264  30.484  35.558  1.00  0.00     0.049 A 
ATOM     48  C   UNL A   1      38.116  33.249  33.004  1.00  0.00     0.074 A 
ATOM     49  C   UNL A   1      42.714  31.007  36.759  1.00  0.00     0.029 A 
ATOM     50  N   UNL A   1      41.238  31.309  35.123  1.00  0.00    -0.354 N 
ATOM     51  N   UNL A   1      39.082  32.715  33.713  1.00  0.00    -0.248 NA
ATOM     52  C   UNL A   1      37.499  34.432  33.618  1.00  0.00     0.031 C 
ATOM     53  C   UNL A   1      41.932  32.126  37.069  1.00  0.00     0.029 A 
ATOM     54  C   UNL A   1      41.029  32.327  36.038  1.00  0.00     0.049 A 
ATOM     55  H   UNL A   1      40.733  31.189  34.286  1.00  0.00     0.167 HD
ATOM     56  C   UNL A   1      39.199  33.506  34.850  1.00  0.00     0.074 A 
ATOM     57  C   UNL A   1      38.216  34.565  34.726  1.00  0.00     0.031 C 
ATOM     58  C   UNL A   1      40.043  33.369  35.902  1.00  0.00     0.031 A 
BRANCH  45  59
ATOM     59  C   UNL A   1      43.838  28.506  35.477  1.00  0.00    -0.014 A 
ATOM     60  C   UNL A   1      45.188  28.769  35.183  1.00  0.00     0.010 A 
ATOM     61  C   UNL A   1      43.522  27.483  36.389  1.00  0.00     0.010 A 
ATOM     62  C   UNL A   1      46.201  27.997  35.760  1.00  0.00     0.020 A 
ATOM     63  C   UNL A   1      44.533  26.723  36.984  1.00  0.00     0.020 A 
ATOM     64  C   UNL A   1      45.866  26.973  36.652  1.00  0.00     0.054 A 
BRANCH  64  65
ATOM     65  S   UNL A   1      47.198  25.991  37.396  1.00  0.00     0.124 S 
ATOM     66  O   UNL A   1      47.558  26.803  38.555  1.00  0.00    -0.237 OA
ATOM     67  O   UNL A   1      46.534  24.725  37.699  1.00  0.00    -0.237 OA
ATOM     68  O   UNL A   1      48.208  25.923  36.344  1.00  0.00    -0.744 OA
ENDBRANCH  64  65
ENDBRANCH  45  59
BRANCH  46  69
ATOM     69  C   UNL A   1      36.453  33.550  31.024  1.00  0.00    -0.014 A 
ATOM     70  C   UNL A   1      36.518  33.909  29.667  1.00  0.00     0.010 A 
ATOM     71  C   UNL A   1      35.304  33.880  31.767  1.00  0.00     0.010 A 
ATOM     72  C   UNL A   1      35.456  34.594  29.066  1.00  0.00     0.020 A 
ATOM     73  C   UNL A   1      34.232  34.541  31.163  1.00  0.00     0.020 A 
ATOM     74  C   UNL A   1      34.319  34.903  29.817  1.00  0.00     0.054 A 
BRANCH  74  75
ATOM     75  S   UNL A   1      32.926  35.734  29.004  1.00  0.00     0.124 S 
ATOM     76  O   UNL A   1      32.081  36.089  30.139  1.00  0.00    -0.237 OA
ATOM     77  O   UNL A   1      33.575  36.852  28.325  1.00  0.00    -0.237 OA
ATOM     78  O   UNL A   1      32.386  34.705  28.117  1.00  0.00    -0.744 OA
ENDBRANCH  74  75
ENDBRANCH  46  69
BRANCH  58  79
ATOM     79  C   UNL A   1      39.959  34.402  36.992  1.00  0.00    -0.014 A 
ATOM     80  C   UNL A   1      40.668  35.613  36.902  1.00  0.00     0.010 A 
ATOM     81  C   UNL A   1      39.119  34.178  38.099  1.00  0.00     0.010 A 
ATOM     82  C   UNL A   1      40.560  36.571  37.914  1.00  0.00     0.020 A 
ATOM     83  C   UNL A   1      38.991  35.142  39.101  1.00  0.00     0.020 A 
ATOM     84  C   UNL A   1      39.724  36.328  39.009  1.00  0.00     0.054 A 
BRANCH  84  85
ATOM     85  S   UNL A   1      39.564  37.603  40.290  1.00  0.00     0.124 S 
ATOM     86  O   UNL A   1      40.948  38.041  40.456  1.00  0.00    -0.237 OA
ATOM     87  O   UNL A   1      38.668  38.575  39.670  1.00  0.00    -0.237 OA
ATOM     88  O   UNL A   1      38.999  36.881  41.428  1.00  0.00    -0.744 OA
ENDBRANCH  84  85
ENDBRANCH  58  79
ENDBRANCH  32  33
ENDBRANCH  25  27
ENDBRANCH  24  25
ENDBRANCH   1  24
TORSDOF 17
ENDMDL
MODEL 2
REMARK VINA RESULT:      -9.6      5.571     11.940
REMARK SMILES COc1ccc(Br)c([C@H]2[NH2+][C@H](C(=O)OCCOC(=O)c3ccc(-c4c5nc(c(-c6ccc(S(=O)(=O)[O-])cc6)c6ccc([nH]6)c(-c6ccc(S(=O)(=O)[O-])cc6)c6nc(c(-c7ccc(S(=O)(=O)[O-])cc7)c7ccc4[nH]7)C=C6)C=C5)cc3)CS2)c1O
REMARK SMILES IDX 16 1 15 2 14 3 12 4 13 5 11 6 9 7 10 8 81 9 80 12 8 13 3 14
REMARK SMILES IDX 4 15 82 16 5 17 6 18 7 19 2 20 1 21 83 22 17 24 18 25 19 26
REMARK SMILES IDX 20 27 21 28 79 29 22 30 78 31 23 32 24 33 25 34 72 35 26 36
REMARK SMILES IDX 77 37 71 38 73 39 27 40 76 41 70 42 69 43 28 45 58 46 39 47
REMARK SMILES IDX 57 48 40 49 43 50 56 51 74 52 41 53 42 54 55 56 75 57 44 58
REMARK SMILES IDX 29 59 30 60 38 61 31 62 37 63 32 64 33 65 34 66 35 67 36 68
REMARK SMILES IDX 59 69 60 70 68 71 61 72 67 73 62 74 63 75 64 76 65 77 66 78
REMARK SMILES IDX 45 79 46 80 54 81 47 82 53 83 48 84 49 85 50 86 51 87 52 88
REMARK H PARENT 10 10 10 11 83 23 73 44 43 55
REMARK Flexibility Score: inf
ROOT
ATOM      1  C   UNL A   1      32.422  29.010  26.690  1.00  0.00     0.275 C 
ENDROOT
BRANCH   1   2
ATOM      2  C   UNL A   1      31.700  27.670  26.817  1.00  0.00     0.274 C 
BRANCH   2   3
ATOM      3  O   UNL A   1      31.157  27.245  25.552  1.00  0.00    -0.458 OA
BRANCH   3   4
ATOM      4  C   UNL A   1      31.909  26.372  24.832  1.00  0.00     0.365 C 
ATOM      5  O   UNL A   1      32.938  26.679  24.235  1.00  0.00    -0.245 OA
BRANCH   4   6
ATOM      6  C   UNL A   1      31.332  24.954  24.750  1.00  0.00     0.304 C 
ATOM      7  C   UNL A   1      33.043  23.435  25.468  1.00  0.00     0.279 C 
ATOM      8  N   UNL A   1      32.270  23.893  24.304  1.00  0.00    -0.319 N 
ATOM      9  S   UNL A   1      32.067  23.745  26.975  1.00  0.00    -0.087 SA
ATOM     10  H   UNL A   1      31.744  23.112  23.911  1.00  0.00     0.348 HD
ATOM     11  H   UNL A   1      32.898  24.259  23.589  1.00  0.00     0.348 HD
ATOM     12  C   UNL A   1      30.716  24.545  26.077  1.00  0.00     0.153 C 
BRANCH   7  13
ATOM     13  C   UNL A   1      33.571  22.021  25.258  1.00  0.00     0.080 A 
ATOM     14  C   UNL A   1      33.269  19.589  25.029  1.00  0.00     0.161 A 
ATOM     15  C   UNL A   1      34.628  19.397  24.830  1.00  0.00     0.051 A 
ATOM     16  C   UNL A   1      32.747  20.877  25.231  1.00  0.00     0.169 A 
ATOM     17  C   UNL A   1      35.465  20.507  24.801  1.00  0.00     0.020 A 
ATOM     18  C   UNL A   1      34.948  21.799  25.011  1.00  0.00     0.032 A 
ATOM     19  Br  UNL A   1      36.233  23.207  24.934  1.00  0.00    -0.050 Br
BRANCH  14  20
ATOM     20  O   UNL A   1      32.458  18.485  25.113  1.00  0.00    -0.493 OA
ATOM     21  C   UNL A   1      32.519  17.702  23.918  1.00  0.00     0.278 C 
ENDBRANCH  14  20
BRANCH  16  22
ATOM     22  O   UNL A   1      31.391  20.986  25.400  1.00  0.00    -0.504 OA
ATOM     23  H   UNL A   1      30.941  20.392  25.968  1.00  0.00     0.293 HD
ENDBRANCH  16  22
ENDBRANCH   7  13
ENDBRANCH   4   6
ENDBRANCH   3   4
ENDBRANCH   2   3
ENDBRANCH   1   2
BRANCH   1  24
ATOM     24  O   UNL A   1      33.735  28.945  27.272  1.00  0.00    -0.458 OA
BRANCH  24  25
ATOM     25  C   UNL A   1      34.260  30.144  27.618  1.00  0.00     0.338 C 
ATOM     26  O   UNL A   1      33.698  31.224  27.642  1.00  0.00    -0.246 OA
BRANCH  25  27
ATOM     27  C   UNL A   1      35.648  29.954  28.059  1.00  0.00     0.060 A 
ATOM     28  C   UNL A   1      36.668  30.073  27.112  1.00  0.00     0.016 A 
ATOM     29  C   UNL A   1      35.931  29.569  29.371  1.00  0.00     0.016 A 
ATOM     30  C   UNL A   1      37.984  29.798  27.474  1.00  0.00     0.010 A 
ATOM     31  C   UNL A   1      37.252  29.291  29.732  1.00  0.00     0.010 A 
ATOM     32  C   UNL A   1      38.284  29.388  28.782  1.00  0.00    -0.014 A 
BRANCH  32  33
ATOM     33  C   UNL A   1      39.670  28.997  29.137  1.00  0.00     0.031 A 
ATOM     34  C   UNL A   1      40.569  29.981  29.832  1.00  0.00     0.074 A 
ATOM     35  C   UNL A   1      40.115  27.759  28.852  1.00  0.00     0.049 A 
ATOM     36  N   UNL A   1      41.827  29.856  30.168  1.00  0.00    -0.248 NA
ATOM     37  C   UNL A   1      39.973  31.277  30.196  1.00  0.00     0.031 C 
ATOM     38  C   UNL A   1      39.325  26.703  28.216  1.00  0.00     0.029 A 
ATOM     39  N   UNL A   1      41.343  27.183  29.057  1.00  0.00    -0.354 N 
ATOM     40  C   UNL A   1      42.180  31.059  30.769  1.00  0.00     0.074 A 
ATOM     41  C   UNL A   1      41.007  31.907  30.736  1.00  0.00     0.031 C 
ATOM     42  C   UNL A   1      40.090  25.606  28.085  1.00  0.00     0.029 A 
ATOM     43  C   UNL A   1      41.432  25.895  28.585  1.00  0.00     0.049 A 
ATOM     44  H   UNL A   1      42.090  27.648  29.499  1.00  0.00     0.167 HD
ATOM     45  C   UNL A   1      43.372  31.423  31.300  1.00  0.00     0.031 A 
ATOM     46  C   UNL A   1      42.480  25.051  28.539  1.00  0.00     0.031 A 
ATOM     47  C   UNL A   1      44.538  30.580  31.324  1.00  0.00     0.049 A 
ATOM     48  C   UNL A   1      43.810  25.498  29.084  1.00  0.00     0.074 A 
ATOM     49  C   UNL A   1      45.793  30.860  31.838  1.00  0.00     0.029 A 
ATOM     50  N   UNL A   1      44.595  29.293  30.812  1.00  0.00    -0.354 N 
ATOM     51  N   UNL A   1      44.128  26.641  29.642  1.00  0.00    -0.248 NA
ATOM     52  C   UNL A   1      44.921  24.541  28.992  1.00  0.00     0.031 C 
ATOM     53  C   UNL A   1      46.620  29.755  31.600  1.00  0.00     0.029 A 
ATOM     54  C   UNL A   1      45.865  28.771  30.982  1.00  0.00     0.049 A 
ATOM     55  H   UNL A   1      43.841  28.819  30.391  1.00  0.00     0.167 HD
ATOM     56  C   UNL A   1      45.472  26.535  29.983  1.00  0.00     0.074 A 
ATOM     57  C   UNL A   1      45.902  25.211  29.582  1.00  0.00     0.031 C 
ATOM     58  C   UNL A   1      46.278  27.452  30.573  1.00  0.00     0.031 A 
BRANCH  45  59
ATOM     59  C   UNL A   1      43.479  32.812  31.868  1.00  0.00    -0.014 A 
ATOM     60  C   UNL A   1      43.163  33.074  33.213  1.00  0.00     0.010 A 
ATOM     61  C   UNL A   1      43.932  33.865  31.053  1.00  0.00     0.010 A 
ATOM     62  C   UNL A   1      43.258  34.373  33.722  1.00  0.00     0.020 A 
ATOM     63  C   UNL A   1      44.049  35.161  31.564  1.00  0.00     0.020 A 
ATOM     64  C   UNL A   1      43.694  35.410  32.891  1.00  0.00     0.054 A 
BRANCH  64  65
ATOM     65  S   UNL A   1      43.820  37.085  33.576  1.00  0.00     0.124 S 
ATOM     66  O   UNL A   1      43.792  37.906  32.368  1.00  0.00    -0.237 OA
ATOM     67  O   UNL A   1      42.633  37.177  34.423  1.00  0.00    -0.237 OA
ATOM     68  O   UNL A   1      45.092  37.073  34.292  1.00  0.00    -0.744 OA
ENDBRANCH  64  65
ENDBRANCH  45  59
BRANCH  46  69
ATOM     69  C   UNL A   1      42.319  23.706  27.926  1.00  0.00    -0.014 A 
ATOM     70  C   UNL A   1      42.480  23.524  26.542  1.00  0.00     0.010 A 
ATOM     71  C   UNL A   1      42.020  22.593  28.734  1.00  0.00     0.010 A 
ATOM     72  C   UNL A   1      42.336  22.254  25.974  1.00  0.00     0.020 A 
ATOM     73  C   UNL A   1      41.899  21.319  28.173  1.00  0.00     0.020 A 
ATOM     74  C   UNL A   1      42.048  21.159  26.794  1.00  0.00     0.054 A 
BRANCH  74  75
ATOM     75  S   UNL A   1      41.928  19.509  26.049  1.00  0.00     0.124 S 
ATOM     76  O   UNL A   1      42.779  19.646  24.871  1.00  0.00    -0.237 OA
ATOM     77  O   UNL A   1      42.444  18.644  27.106  1.00  0.00    -0.237 OA
ATOM     78  O   UNL A   1      40.499  19.361  25.777  1.00  0.00    -0.744 OA
ENDBRANCH  74  75
ENDBRANCH  46  69
BRANCH  58  79
ATOM     79  C   UNL A   1      47.701  27.046  30.845  1.00  0.00    -0.014 A 
ATOM     80  C   UNL A   1      48.714  27.270  29.897  1.00  0.00     0.010 A 
ATOM     81  C   UNL A   1      48.035  26.478  32.088  1.00  0.00     0.010 A 
ATOM     82  C   UNL A   1      50.034  26.906  30.176  1.00  0.00     0.020 A 
ATOM     83  C   UNL A   1      49.357  26.134  32.380  1.00  0.00     0.020 A 
ATOM     84  C   UNL A   1      50.347  26.338  31.415  1.00  0.00     0.054 A 
BRANCH  84  85
ATOM     85  S   UNL A   1      52.074  25.913  31.774  1.00  0.00     0.124 S 
ATOM     86  O   UNL A   1      51.989  24.475  32.015  1.00  0.00    -0.237 OA
ATOM     87  O   UNL A   1      52.765  26.305  30.549  1.00  0.00    -0.237 OA
ATOM     88  O   UNL A   1      52.393  26.724  32.948  1.00  0.00    -0.744 OA
ENDBRANCH  84  85
ENDBRANCH  58  79
ENDBRANCH  32  33
ENDBRANCH  25  27
ENDBRANCH  24  25
ENDBRANCH   1  24
TORSDOF 17
ENDMDL
MODEL 3
REMARK VINA RESULT:      -9.5      6.155     12.431
REMARK SMILES COc1ccc(Br)c([C@H]2[NH2+][C@H](C(=O)OCCOC(=O)c3ccc(-c4c5nc(c(-c6ccc(S(=O)(=O)[O-])cc6)c6ccc([nH]6)c(-c6ccc(S(=O)(=O)[O-])cc6)c6nc(c(-c7ccc(S(=O)(=O)[O-])cc7)c7ccc4[nH]7)C=C6)C=C5)cc3)CS2)c1O
REMARK SMILES IDX 16 1 15 2 14 3 12 4 13 5 11 6 9 7 10 8 81 9 80 12 8 13 3 14
REMARK SMILES IDX 4 15 82 16 5 17 6 18 7 19 2 20 1 21 83 22 17 24 18 25 19 26
REMARK SMILES IDX 20 27 21 28 79 29 22 30 78 31 23 32 24 33 25 34 72 35 26 36
REMARK SMILES IDX 77 37 71 38 73 39 27 40 76 41 70 42 69 43 28 45 58 46 39 47
REMARK SMILES IDX 57 48 40 49 43 50 56 51 74 52 41 53 42 54 55 56 75 57 44 58
REMARK SMILES IDX 29 59 30 60 38 61 31 62 37 63 32 64 33 65 34 66 35 67 36 68
REMARK SMILES IDX 59 69 60 70 68 71 61 72 67 73 62 74 63 75 64 76 65 77 66 78
REMARK SMILES IDX 45 79 46 80 54 81 47 82 53 83 48 84 49 85 50 86 51 87 52 88
REMARK H PARENT 10 10 10 11 83 23 73 44 43 55
REMARK Flexibility Score: inf
ROOT
ATOM      1  C   UNL A   1      33.441  28.944  26.057  1.00  0.00     0.275 C 
ENDROOT
BRANCH   1   2
ATOM      2  C   UNL A   1      34.074  27.893  25.146  1.00  0.00     0.274 C 
BRANCH   2   3
ATOM      3  O   UNL A   1      33.675  26.562  25.524  1.00  0.00    -0.458 OA
BRANCH   3   4
ATOM      4  C   UNL A   1      33.368  25.711  24.510  1.00  0.00     0.365 C 
ATOM      5  O   UNL A   1      34.203  25.152  23.804  1.00  0.00    -0.245 OA
BRANCH   4   6
ATOM      6  C   UNL A   1      31.865  25.549  24.250  1.00  0.00     0.304 C 
ATOM      7  C   UNL A   1      31.129  27.485  23.042  1.00  0.00     0.279 C 
ATOM      8  N   UNL A   1      31.052  26.788  24.334  1.00  0.00    -0.319 N 
ATOM      9  S   UNL A   1      31.487  26.262  21.740  1.00  0.00    -0.087 SA
ATOM     10  H   UNL A   1      30.081  26.549  24.539  1.00  0.00     0.348 HD
ATOM     11  H   UNL A   1      31.406  27.389  25.078  1.00  0.00     0.348 HD
ATOM     12  C   UNL A   1      31.620  24.886  22.906  1.00  0.00     0.153 C 
BRANCH   7  13
ATOM     13  C   UNL A   1      29.924  28.394  22.832  1.00  0.00     0.080 A 
ATOM     14  C   UNL A   1      28.862  30.458  22.012  1.00  0.00     0.161 A 
ATOM     15  C   UNL A   1      27.614  30.037  22.447  1.00  0.00     0.051 A 
ATOM     16  C   UNL A   1      29.996  29.649  22.193  1.00  0.00     0.169 A 
ATOM     17  C   UNL A   1      27.497  28.784  23.038  1.00  0.00     0.020 A 
ATOM     18  C   UNL A   1      28.631  27.973  23.228  1.00  0.00     0.032 A 
ATOM     19  Br  UNL A   1      28.291  26.285  24.049  1.00  0.00    -0.050 Br
BRANCH  14  20
ATOM     20  O   UNL A   1      28.980  31.718  21.482  1.00  0.00    -0.493 OA
ATOM     21  C   UNL A   1      27.980  31.960  20.489  1.00  0.00     0.278 C 
ENDBRANCH  14  20
BRANCH  16  22
ATOM     22  O   UNL A   1      31.189  30.126  21.718  1.00  0.00    -0.504 OA
ATOM     23  H   UNL A   1      31.199  30.824  21.093  1.00  0.00     0.293 HD
ENDBRANCH  16  22
ENDBRANCH   7  13
ENDBRANCH   4   6
ENDBRANCH   3   4
ENDBRANCH   2   3
ENDBRANCH   1   2
BRANCH   1  24
ATOM     24  O   UNL A   1      34.021  28.905  27.371  1.00  0.00    -0.458 OA
BRANCH  24  25
ATOM     25  C   UNL A   1      34.517  30.087  27.806  1.00  0.00     0.338 C 
ATOM     26  O   UNL A   1      33.924  31.143  27.928  1.00  0.00    -0.246 OA
BRANCH  25  27
ATOM     27  C   UNL A   1      35.917  29.904  28.210  1.00  0.00     0.060 A 
ATOM     28  C   UNL A   1      36.914  30.075  27.247  1.00  0.00     0.016 A 
ATOM     29  C   UNL A   1      36.236  29.476  29.501  1.00  0.00     0.016 A 
ATOM     30  C   UNL A   1      38.242  29.809  27.570  1.00  0.00     0.010 A 
ATOM     31  C   UNL A   1      37.569  29.208  29.823  1.00  0.00     0.010 A 
ATOM     32  C   UNL A   1      38.578  29.357  28.855  1.00  0.00    -0.014 A 
BRANCH  32  33
ATOM     33  C   UNL A   1      39.977  28.977  29.165  1.00  0.00     0.031 A 
ATOM     34  C   UNL A   1      40.890  29.968  29.830  1.00  0.00     0.074 A 
ATOM     35  C   UNL A   1      40.422  27.742  28.866  1.00  0.00     0.049 A 
ATOM     36  N   UNL A   1      42.160  29.853  30.126  1.00  0.00    -0.248 NA
ATOM     37  C   UNL A   1      40.297  31.259  30.213  1.00  0.00     0.031 C 
ATOM     38  C   UNL A   1      39.621  26.679  28.256  1.00  0.00     0.029 A 
ATOM     39  N   UNL A   1      41.661  27.176  29.031  1.00  0.00    -0.354 N 
ATOM     40  C   UNL A   1      42.523  31.059  30.714  1.00  0.00     0.074 A 
ATOM     41  C   UNL A   1      41.343  31.898  30.719  1.00  0.00     0.031 C 
ATOM     42  C   UNL A   1      40.389  25.589  28.100  1.00  0.00     0.029 A 
ATOM     43  C   UNL A   1      41.744  25.888  28.557  1.00  0.00     0.049 A 
ATOM     44  H   UNL A   1      42.417  27.646  29.449  1.00  0.00     0.167 HD
ATOM     45  C   UNL A   1      43.728  31.432  31.207  1.00  0.00     0.031 A 
ATOM     46  C   UNL A   1      42.797  25.052  28.478  1.00  0.00     0.031 A 
ATOM     47  C   UNL A   1      44.901  30.598  31.193  1.00  0.00     0.049 A 
ATOM     48  C   UNL A   1      44.140  25.509  28.979  1.00  0.00     0.074 A 
ATOM     49  C   UNL A   1      46.170  30.888  31.666  1.00  0.00     0.029 A 
ATOM     50  N   UNL A   1      44.951  29.311  30.680  1.00  0.00    -0.354 N 
ATOM     51  N   UNL A   1      44.468  26.655  29.527  1.00  0.00    -0.248 NA
ATOM     52  C   UNL A   1      45.254  24.561  28.852  1.00  0.00     0.031 C 
ATOM     53  C   UNL A   1      46.997  29.789  31.402  1.00  0.00     0.029 A 
ATOM     54  C   UNL A   1      46.230  28.799  30.809  1.00  0.00     0.049 A 
ATOM     55  H   UNL A   1      44.187  28.831  30.283  1.00  0.00     0.167 HD
ATOM     56  C   UNL A   1      45.822  26.560  29.824  1.00  0.00     0.074 A 
ATOM     57  C   UNL A   1      46.249  25.238  29.410  1.00  0.00     0.031 C 
ATOM     58  C   UNL A   1      46.640  27.483  30.388  1.00  0.00     0.031 A 
BRANCH  45  59
ATOM     59  C   UNL A   1      43.844  32.822  31.771  1.00  0.00    -0.014 A 
ATOM     60  C   UNL A   1      43.586  33.079  33.129  1.00  0.00     0.010 A 
ATOM     61  C   UNL A   1      44.244  33.881  30.936  1.00  0.00     0.010 A 
ATOM     62  C   UNL A   1      43.688  34.379  33.634  1.00  0.00     0.020 A 
ATOM     63  C   UNL A   1      44.367  35.178  31.443  1.00  0.00     0.020 A 
ATOM     64  C   UNL A   1      44.071  35.422  32.785  1.00  0.00     0.054 A 
BRANCH  64  65
ATOM     65  S   UNL A   1      44.206  37.099  33.465  1.00  0.00     0.124 S 
ATOM     66  O   UNL A   1      43.585  37.900  32.413  1.00  0.00    -0.237 OA
ATOM     67  O   UNL A   1      43.447  37.004  34.710  1.00  0.00    -0.237 OA
ATOM     68  O   UNL A   1      45.643  37.292  33.630  1.00  0.00    -0.744 OA
ENDBRANCH  64  65
ENDBRANCH  45  59
BRANCH  46  69
ATOM     69  C   UNL A   1      42.627  23.705  27.870  1.00  0.00    -0.014 A 
ATOM     70  C   UNL A   1      42.888  23.495  26.506  1.00  0.00     0.010 A 
ATOM     71  C   UNL A   1      42.217  22.619  28.666  1.00  0.00     0.010 A 
ATOM     72  C   UNL A   1      42.733  22.223  25.944  1.00  0.00     0.020 A 
ATOM     73  C   UNL A   1      42.086  21.343  28.113  1.00  0.00     0.020 A 
ATOM     74  C   UNL A   1      42.335  21.155  26.752  1.00  0.00     0.054 A 
BRANCH  74  75
ATOM     75  S   UNL A   1      42.202  19.500  26.020  1.00  0.00     0.124 S 
ATOM     76  O   UNL A   1      40.776  19.415  25.721  1.00  0.00    -0.237 OA
ATOM     77  O   UNL A   1      43.087  19.592  24.862  1.00  0.00    -0.237 OA
ATOM     78  O   UNL A   1      42.674  18.617  27.085  1.00  0.00    -0.744 OA
ENDBRANCH  74  75
ENDBRANCH  46  69
BRANCH  58  79
ATOM     79  C   UNL A   1      48.074  27.088  30.614  1.00  0.00    -0.014 A 
ATOM     80  C   UNL A   1      49.100  27.569  29.782  1.00  0.00     0.010 A 
ATOM     81  C   UNL A   1      48.403  26.263  31.704  1.00  0.00     0.010 A 
ATOM     82  C   UNL A   1      50.429  27.210  30.021  1.00  0.00     0.020 A 
ATOM     83  C   UNL A   1      49.732  25.919  31.960  1.00  0.00     0.020 A 
ATOM     84  C   UNL A   1      50.736  26.384  31.108  1.00  0.00     0.054 A 
BRANCH  84  85
ATOM     85  S   UNL A   1      52.473  25.964  31.426  1.00  0.00     0.124 S 
ATOM     86  O   UNL A   1      52.357  24.649  32.051  1.00  0.00    -0.237 OA
ATOM     87  O   UNL A   1      53.058  25.973  30.087  1.00  0.00    -0.237 OA
ATOM     88  O   UNL A   1      52.932  27.035  32.307  1.00  0.00    -0.744 OA
ENDBRANCH  84  85
ENDBRANCH  58  79
ENDBRANCH  32  33
ENDBRANCH  25  27
ENDBRANCH  24  25
ENDBRANCH   1  24
TORSDOF 17
ENDMDL
