MODEL 1
REMARK VINA RESULT:     -14.4      0.000      0.000
REMARK SMILES Cc1ccc(NC(=O)c2ccccc2NC(=O)[C@H]2CCCC[C@H]2C(=O)OCCOC(=O)c2ccc(-c3c4nc(c(-c5ccc(S(=O)(=O)[O-])cc5)c5ccc([nH]5)c(-c5ccc(S(=O)(=O)[O-])cc5)c5nc(c(-c6ccc(S(=O)(=O)[O-])cc6)c6ccc3[nH]6)C=C5)C=C4)cc2)cc1
REMARK SMILES IDX 27 1 26 2 24 3 25 4 23 5 18 6 19 7 20 8 22 9 21 10 16 11
REMARK SMILES IDX 15 12 17 14 14 15 9 16 10 17 11 18 13 19 12 20 7 21 6 22
REMARK SMILES IDX 8 24 5 25 1 26 2 27 3 28 93 29 4 30 92 31 28 32 29 33 30 34
REMARK SMILES IDX 31 35 32 36 33 37 91 38 34 39 90 40 35 41 36 42 37 43 84 44
REMARK SMILES IDX 38 45 89 46 83 47 85 48 39 49 88 50 82 51 81 52 40 54 70 55
REMARK SMILES IDX 51 56 69 57 52 58 55 59 68 60 86 61 53 62 54 63 67 65 87 66
REMARK SMILES IDX 56 67 41 68 42 69 50 70 43 71 49 72 44 73 45 74 46 75 47 76
REMARK SMILES IDX 48 77 71 78 72 79 80 80 73 81 79 82 74 83 75 84 76 85 77 86
REMARK SMILES IDX 78 87 57 88 58 89 66 90 59 91 65 92 60 93 61 94 62 95 63 96
REMARK SMILES IDX 64 97
REMARK H PARENT 15 13 6 23 85 53 55 64
REMARK Flexibility Score: inf
ROOT
ATOM      1  C   UNL A   1      39.239  21.867  26.564  1.00  0.00     0.274 C 
ENDROOT
BRANCH   1   2
ATOM      2  O   UNL A   1      38.465  22.018  25.361  1.00  0.00    -0.462 OA
BRANCH   2   3
ATOM      3  C   UNL A   1      37.283  22.879  25.448  1.00  0.00     0.309 C 
ATOM      4  O   UNL A   1      37.766  24.046  25.411  1.00  0.00    -0.252 OA
BRANCH   3   5
ATOM      5  C   UNL A   1      35.214  22.145  25.633  1.00  0.00     0.111 C 
ATOM      6  C   UNL A   1      33.653  22.986  25.689  1.00  0.00     0.093 C 
ATOM      7  C   UNL A   1      32.375  22.187  26.039  1.00  0.00     0.014 C 
ATOM      8  C   UNL A   1      32.140  20.968  25.180  1.00  0.00     0.001 C 
ATOM      9  C   UNL A   1      34.580  20.509  25.117  1.00  0.00     0.016 C 
ATOM     10  C   UNL A   1      33.213  19.986  25.529  1.00  0.00     0.001 C 
BRANCH   6  11
ATOM     11  C   UNL A   1      33.257  23.778  24.464  1.00  0.00     0.228 C 
ATOM     12  N   UNL A   1      33.067  25.124  24.544  1.00  0.00    -0.325 N 
ATOM     13  H   UNL A   1      33.045  25.533  23.649  1.00  0.00     0.169 HD
ATOM     14  O   UNL A   1      33.256  23.259  23.343  1.00  0.00    -0.274 OA
BRANCH  12  15
ATOM     15  C   UNL A   1      32.892  26.097  25.551  1.00  0.00     0.054 A 
ATOM     16  C   UNL A   1      31.612  26.263  26.137  1.00  0.00     0.063 A 
ATOM     17  C   UNL A   1      31.381  27.383  26.965  1.00  0.00     0.016 A 
ATOM     18  C   UNL A   1      32.401  28.279  27.275  1.00  0.00     0.001 A 
ATOM     19  C   UNL A   1      33.930  26.934  25.982  1.00  0.00     0.027 A 
ATOM     20  C   UNL A   1      33.683  28.033  26.810  1.00  0.00     0.002 A 
BRANCH  16  21
ATOM     21  C   UNL A   1      30.387  25.449  25.837  1.00  0.00     0.257 C 
ATOM     22  N   UNL A   1      29.431  25.750  24.885  1.00  0.00    -0.322 N 
ATOM     23  H   UNL A   1      28.618  25.203  24.970  1.00  0.00     0.170 HD
ATOM     24  O   UNL A   1      30.163  24.463  26.547  1.00  0.00    -0.269 OA
BRANCH  22  25
ATOM     25  C   UNL A   1      29.369  26.668  23.823  1.00  0.00     0.041 A 
ATOM     26  C   UNL A   1      29.313  30.481  21.871  1.00  0.00     0.044 C 
ATOM     27  C   UNL A   1      29.275  29.071  22.386  1.00  0.00    -0.051 A 
ATOM     28  C   UNL A   1      30.441  28.293  22.395  1.00  0.00     0.005 A 
ATOM     29  C   UNL A   1      28.119  28.570  22.993  1.00  0.00     0.005 A 
ATOM     30  C   UNL A   1      30.484  27.081  23.094  1.00  0.00     0.026 A 
ATOM     31  C   UNL A   1      28.157  27.360  23.689  1.00  0.00     0.026 A 
ENDBRANCH  22  25
ENDBRANCH  16  21
ENDBRANCH  12  15
ENDBRANCH   6  11
ENDBRANCH   3   5
ENDBRANCH   2   3
ENDBRANCH   1   2
BRANCH   1  32
ATOM     32  C   UNL A   1      40.724  21.808  26.189  1.00  0.00     0.275 C 
BRANCH  32  33
ATOM     33  O   UNL A   1      41.452  23.059  26.345  1.00  0.00    -0.458 OA
BRANCH  33  34
ATOM     34  C   UNL A   1      41.279  23.948  27.365  1.00  0.00     0.338 C 
ATOM     35  O   UNL A   1      41.711  23.776  28.494  1.00  0.00    -0.246 OA
BRANCH  34  36
ATOM     36  C   UNL A   1      40.424  25.124  27.049  1.00  0.00     0.060 A 
ATOM     37  C   UNL A   1      41.140  26.416  26.039  1.00  0.00     0.016 A 
ATOM     38  C   UNL A   1      39.260  25.535  28.336  1.00  0.00     0.016 A 
ATOM     39  C   UNL A   1      40.816  28.159  26.468  1.00  0.00     0.010 A 
ATOM     40  C   UNL A   1      38.863  27.240  28.726  1.00  0.00     0.010 A 
ATOM     41  C   UNL A   1      39.764  28.549  27.897  1.00  0.00    -0.014 A 
BRANCH  41  42
ATOM     42  C   UNL A   1      39.926  29.712  28.752  1.00  0.00     0.031 A 
ATOM     43  C   UNL A   1      38.851  30.721  28.802  1.00  0.00     0.074 A 
ATOM     44  C   UNL A   1      40.977  29.695  29.603  1.00  0.00     0.049 A 
ATOM     45  N   UNL A   1      39.071  31.979  28.965  1.00  0.00    -0.248 NA
ATOM     46  C   UNL A   1      37.433  30.431  28.562  1.00  0.00     0.031 C 
ATOM     47  C   UNL A   1      41.243  30.580  30.725  1.00  0.00     0.029 A 
ATOM     48  N   UNL A   1      42.133  28.919  29.546  1.00  0.00    -0.354 N 
ATOM     49  C   UNL A   1      37.843  32.568  29.186  1.00  0.00     0.074 A 
ATOM     50  C   UNL A   1      36.877  31.634  28.689  1.00  0.00     0.031 C 
ATOM     51  C   UNL A   1      42.565  30.528  30.998  1.00  0.00     0.029 A 
ATOM     52  C   UNL A   1      43.198  29.678  29.995  1.00  0.00     0.049 A 
ATOM     53  H   UNL A   1      42.183  27.986  29.239  1.00  0.00     0.167 HD
ATOM     54  C   UNL A   1      37.760  33.667  29.986  1.00  0.00     0.031 A 
ATOM     55  C   UNL A   1      44.212  30.019  29.143  1.00  0.00     0.031 A 
ATOM     56  C   UNL A   1      39.101  34.066  30.420  1.00  0.00     0.049 A 
ATOM     57  C   UNL A   1      44.153  31.512  28.881  1.00  0.00     0.074 A 
ATOM     58  C   UNL A   1      39.802  33.849  31.594  1.00  0.00     0.029 A 
ATOM     59  N   UNL A   1      40.045  34.407  29.457  1.00  0.00    -0.354 N 
ATOM     60  N   UNL A   1      43.093  32.246  29.096  1.00  0.00    -0.248 NA
ATOM     61  C   UNL A   1      45.285  32.302  28.412  1.00  0.00     0.031 C 
ATOM     62  C   UNL A   1      41.191  33.950  31.295  1.00  0.00     0.029 A 
ATOM     63  C   UNL A   1      41.330  34.263  29.952  1.00  0.00     0.049 A 
ATOM     64  H   UNL A   1      39.829  34.710  28.544  1.00  0.00     0.167 HD
ATOM     65  C   UNL A   1      43.382  33.563  28.881  1.00  0.00     0.074 A 
ATOM     66  C   UNL A   1      44.767  33.545  28.436  1.00  0.00     0.031 C 
ATOM     67  C   UNL A   1      42.477  34.564  29.098  1.00  0.00     0.031 A 
BRANCH  54  68
ATOM     68  C   UNL A   1      36.473  34.146  30.633  1.00  0.00    -0.014 A 
ATOM     69  C   UNL A   1      35.351  34.421  29.825  1.00  0.00     0.010 A 
ATOM     70  C   UNL A   1      36.301  34.383  32.013  1.00  0.00     0.010 A 
ATOM     71  C   UNL A   1      34.159  34.947  30.351  1.00  0.00     0.020 A 
ATOM     72  C   UNL A   1      35.129  34.936  32.552  1.00  0.00     0.020 A 
ATOM     73  C   UNL A   1      34.059  35.212  31.715  1.00  0.00     0.054 A 
BRANCH  73  74
ATOM     74  S   UNL A   1      32.514  35.882  32.385  1.00  0.00     0.124 S 
ATOM     75  O   UNL A   1      32.990  36.819  33.399  1.00  0.00    -0.237 OA
ATOM     76  O   UNL A   1      31.899  36.484  31.206  1.00  0.00    -0.237 OA
ATOM     77  O   UNL A   1      31.825  34.705  32.910  1.00  0.00    -0.744 OA
ENDBRANCH  73  74
ENDBRANCH  54  68
BRANCH  55  78
ATOM     78  C   UNL A   1      44.675  28.942  28.195  1.00  0.00    -0.014 A 
ATOM     79  C   UNL A   1      45.174  27.747  28.768  1.00  0.00     0.010 A 
ATOM     80  C   UNL A   1      44.388  28.919  26.819  1.00  0.00     0.010 A 
ATOM     81  C   UNL A   1      45.255  26.547  28.041  1.00  0.00     0.020 A 
ATOM     82  C   UNL A   1      44.470  27.711  26.078  1.00  0.00     0.020 A 
ATOM     83  C   UNL A   1      44.868  26.525  26.706  1.00  0.00     0.054 A 
BRANCH  83  84
ATOM     84  S   UNL A   1      44.721  24.902  25.874  1.00  0.00     0.124 S 
ATOM     85  O   UNL A   1      44.536  23.987  26.994  1.00  0.00    -0.237 OA
ATOM     86  O   UNL A   1      43.557  25.088  25.014  1.00  0.00    -0.237 OA
ATOM     87  O   UNL A   1      45.991  24.767  25.160  1.00  0.00    -0.744 OA
ENDBRANCH  83  84
ENDBRANCH  55  78
BRANCH  67  88
ATOM     88  C   UNL A   1      42.614  35.976  28.582  1.00  0.00    -0.014 A 
ATOM     89  C   UNL A   1      41.999  36.441  27.412  1.00  0.00     0.010 A 
ATOM     90  C   UNL A   1      43.272  36.941  29.386  1.00  0.00     0.010 A 
ATOM     91  C   UNL A   1      42.108  37.779  27.018  1.00  0.00     0.020 A 
ATOM     92  C   UNL A   1      43.325  38.290  29.041  1.00  0.00     0.020 A 
ATOM     93  C   UNL A   1      42.774  38.694  27.833  1.00  0.00     0.054 A 
BRANCH  93  94
ATOM     94  S   UNL A   1      42.882  40.422  27.323  1.00  0.00     0.124 S 
ATOM     95  O   UNL A   1      43.772  40.334  26.169  1.00  0.00    -0.237 OA
ATOM     96  O   UNL A   1      41.493  40.759  27.020  1.00  0.00    -0.237 OA
ATOM     97  O   UNL A   1      43.438  41.094  28.495  1.00  0.00    -0.744 OA
ENDBRANCH  93  94
ENDBRANCH  67  88
ENDBRANCH  41  42
ENDBRANCH  34  36
ENDBRANCH  33  34
ENDBRANCH  32  33
ENDBRANCH   1  32
TORSDOF 18
ENDMDL
MODEL 2
REMARK VINA RESULT:     -13.9      1.412      2.369
REMARK SMILES Cc1ccc(NC(=O)c2ccccc2NC(=O)[C@H]2CCCC[C@H]2C(=O)OCCOC(=O)c2ccc(-c3c4nc(c(-c5ccc(S(=O)(=O)[O-])cc5)c5ccc([nH]5)c(-c5ccc(S(=O)(=O)[O-])cc5)c5nc(c(-c6ccc(S(=O)(=O)[O-])cc6)c6ccc3[nH]6)C=C5)C=C4)cc2)cc1
REMARK SMILES IDX 27 1 26 2 24 3 25 4 23 5 18 6 19 7 20 8 22 9 21 10 16 11
REMARK SMILES IDX 15 12 17 14 14 15 9 16 10 17 11 18 13 19 12 20 7 21 6 22
REMARK SMILES IDX 8 24 5 25 1 26 2 27 3 28 93 29 4 30 92 31 28 32 29 33 30 34
REMARK SMILES IDX 31 35 32 36 33 37 91 38 34 39 90 40 35 41 36 42 37 43 84 44
REMARK SMILES IDX 38 45 89 46 83 47 85 48 39 49 88 50 82 51 81 52 40 54 70 55
REMARK SMILES IDX 51 56 69 57 52 58 55 59 68 60 86 61 53 62 54 63 67 65 87 66
REMARK SMILES IDX 56 67 41 68 42 69 50 70 43 71 49 72 44 73 45 74 46 75 47 76
REMARK SMILES IDX 48 77 71 78 72 79 80 80 73 81 79 82 74 83 75 84 76 85 77 86
REMARK SMILES IDX 78 87 57 88 58 89 66 90 59 91 65 92 60 93 61 94 62 95 63 96
REMARK SMILES IDX 64 97
REMARK H PARENT 15 13 6 23 85 53 55 64
REMARK Flexibility Score: inf
ROOT
ATOM      1  C   UNL A   1      39.725  21.701  26.787  1.00  0.00     0.274 C 
ENDROOT
BRANCH   1   2
ATOM      2  O   UNL A   1      38.933  21.858  25.596  1.00  0.00    -0.462 OA
BRANCH   2   3
ATOM      3  C   UNL A   1      37.629  22.506  25.759  1.00  0.00     0.309 C 
ATOM      4  O   UNL A   1      37.926  23.666  26.159  1.00  0.00    -0.252 OA
BRANCH   3   5
ATOM      5  C   UNL A   1      35.692  21.526  25.381  1.00  0.00     0.111 C 
ATOM      6  C   UNL A   1      34.078  22.175  25.033  1.00  0.00     0.093 C 
ATOM      7  C   UNL A   1      32.864  21.216  25.023  1.00  0.00     0.014 C 
ATOM      8  C   UNL A   1      33.015  20.018  24.117  1.00  0.00     0.001 C 
ATOM      9  C   UNL A   1      35.425  19.852  24.696  1.00  0.00     0.016 C 
ATOM     10  C   UNL A   1      34.074  19.154  24.726  1.00  0.00     0.001 C 
BRANCH   6  11
ATOM     11  C   UNL A   1      33.920  22.968  23.757  1.00  0.00     0.228 C 
ATOM     12  N   UNL A   1      33.021  23.990  23.687  1.00  0.00    -0.325 N 
ATOM     13  H   UNL A   1      33.187  24.554  22.897  1.00  0.00     0.169 HD
ATOM     14  O   UNL A   1      34.702  22.820  22.813  1.00  0.00    -0.274 OA
BRANCH  12  15
ATOM     15  C   UNL A   1      31.919  24.466  24.428  1.00  0.00     0.054 A 
ATOM     16  C   UNL A   1      31.571  25.837  24.343  1.00  0.00     0.063 A 
ATOM     17  C   UNL A   1      30.627  26.358  25.255  1.00  0.00     0.016 A 
ATOM     18  C   UNL A   1      29.982  25.539  26.179  1.00  0.00     0.001 A 
ATOM     19  C   UNL A   1      31.164  23.642  25.273  1.00  0.00     0.027 A 
ATOM     20  C   UNL A   1      30.227  24.175  26.163  1.00  0.00     0.002 A 
BRANCH  16  21
ATOM     21  C   UNL A   1      32.231  26.869  23.476  1.00  0.00     0.257 C 
ATOM     22  N   UNL A   1      32.521  28.168  23.847  1.00  0.00    -0.322 N 
ATOM     23  H   UNL A   1      32.778  28.738  23.087  1.00  0.00     0.170 HD
ATOM     24  O   UNL A   1      32.473  26.567  22.303  1.00  0.00    -0.269 OA
BRANCH  22  25
ATOM     25  C   UNL A   1      32.527  28.853  25.075  1.00  0.00     0.041 A 
ATOM     26  C   UNL A   1      33.609  31.841  27.949  1.00  0.00     0.044 C 
ATOM     27  C   UNL A   1      33.149  30.698  27.089  1.00  0.00    -0.051 A 
ATOM     28  C   UNL A   1      31.930  30.781  26.400  1.00  0.00     0.005 A 
ATOM     29  C   UNL A   1      33.991  29.608  26.851  1.00  0.00     0.005 A 
ATOM     30  C   UNL A   1      31.608  29.847  25.408  1.00  0.00     0.026 A 
ATOM     31  C   UNL A   1      33.671  28.672  25.865  1.00  0.00     0.026 A 
ENDBRANCH  22  25
ENDBRANCH  16  21
ENDBRANCH  12  15
ENDBRANCH   6  11
ENDBRANCH   3   5
ENDBRANCH   2   3
ENDBRANCH   1   2
BRANCH   1  32
ATOM     32  C   UNL A   1      41.206  21.809  26.409  1.00  0.00     0.275 C 
BRANCH  32  33
ATOM     33  O   UNL A   1      41.720  23.167  26.297  1.00  0.00    -0.458 OA
BRANCH  33  34
ATOM     34  C   UNL A   1      41.679  24.107  27.285  1.00  0.00     0.338 C 
ATOM     35  O   UNL A   1      42.353  24.053  28.301  1.00  0.00    -0.246 OA
BRANCH  34  36
ATOM     36  C   UNL A   1      40.666  25.182  27.102  1.00  0.00     0.060 A 
ATOM     37  C   UNL A   1      41.095  26.545  26.025  1.00  0.00     0.016 A 
ATOM     38  C   UNL A   1      39.646  25.463  28.537  1.00  0.00     0.016 A 
ATOM     39  C   UNL A   1      40.643  28.241  26.518  1.00  0.00     0.010 A 
ATOM     40  C   UNL A   1      39.120  27.114  29.000  1.00  0.00     0.010 A 
ATOM     41  C   UNL A   1      39.755  28.514  28.079  1.00  0.00    -0.014 A 
BRANCH  41  42
ATOM     42  C   UNL A   1      39.901  29.688  28.921  1.00  0.00     0.031 A 
ATOM     43  C   UNL A   1      38.827  30.699  28.935  1.00  0.00     0.074 A 
ATOM     44  C   UNL A   1      40.933  29.681  29.794  1.00  0.00     0.049 A 
ATOM     45  N   UNL A   1      39.046  31.960  29.084  1.00  0.00    -0.248 NA
ATOM     46  C   UNL A   1      37.414  30.409  28.668  1.00  0.00     0.031 C 
ATOM     47  C   UNL A   1      41.177  30.580  30.910  1.00  0.00     0.029 A 
ATOM     48  N   UNL A   1      42.089  28.901  29.773  1.00  0.00    -0.354 N 
ATOM     49  C   UNL A   1      37.815  32.554  29.271  1.00  0.00     0.074 A 
ATOM     50  C   UNL A   1      36.857  31.615  28.767  1.00  0.00     0.031 C 
ATOM     51  C   UNL A   1      42.492  30.530  31.212  1.00  0.00     0.029 A 
ATOM     52  C   UNL A   1      43.146  29.664  30.234  1.00  0.00     0.049 A 
ATOM     53  H   UNL A   1      42.143  27.964  29.479  1.00  0.00     0.167 HD
ATOM     54  C   UNL A   1      37.717  33.663  30.055  1.00  0.00     0.031 A 
ATOM     55  C   UNL A   1      44.177  29.992  29.399  1.00  0.00     0.031 A 
ATOM     56  C   UNL A   1      39.050  34.065  30.512  1.00  0.00     0.049 A 
ATOM     57  C   UNL A   1      44.128  31.482  29.116  1.00  0.00     0.074 A 
ATOM     58  C   UNL A   1      39.725  33.863  31.704  1.00  0.00     0.029 A 
ATOM     59  N   UNL A   1      40.015  34.392  29.565  1.00  0.00    -0.354 N 
ATOM     60  N   UNL A   1      43.065  32.220  29.299  1.00  0.00    -0.248 NA
ATOM     61  C   UNL A   1      45.271  32.263  28.661  1.00  0.00     0.031 C 
ATOM     62  C   UNL A   1      41.120  33.958  31.433  1.00  0.00     0.029 A 
ATOM     63  C   UNL A   1      41.288  34.252  30.089  1.00  0.00     0.049 A 
ATOM     64  H   UNL A   1      39.819  34.683  28.644  1.00  0.00     0.167 HD
ATOM     65  C   UNL A   1      43.361  33.534  29.072  1.00  0.00     0.074 A 
ATOM     66  C   UNL A   1      44.755  33.507  28.657  1.00  0.00     0.031 C 
ATOM     67  C   UNL A   1      42.454  34.540  29.256  1.00  0.00     0.031 A 
BRANCH  54  68
ATOM     68  C   UNL A   1      36.417  34.154  30.667  1.00  0.00    -0.014 A 
ATOM     69  C   UNL A   1      35.338  34.490  29.826  1.00  0.00     0.010 A 
ATOM     70  C   UNL A   1      36.195  34.342  32.047  1.00  0.00     0.010 A 
ATOM     71  C   UNL A   1      34.140  35.030  30.324  1.00  0.00     0.020 A 
ATOM     72  C   UNL A   1      35.017  34.907  32.560  1.00  0.00     0.020 A 
ATOM     73  C   UNL A   1      33.990  35.245  31.692  1.00  0.00     0.054 A 
BRANCH  73  74
ATOM     74  S   UNL A   1      32.437  35.932  32.324  1.00  0.00     0.124 S 
ATOM     75  O   UNL A   1      31.771  34.754  32.872  1.00  0.00    -0.237 OA
ATOM     76  O   UNL A   1      32.904  36.908  33.305  1.00  0.00    -0.237 OA
ATOM     77  O   UNL A   1      31.801  36.502  31.137  1.00  0.00    -0.744 OA
ENDBRANCH  73  74
ENDBRANCH  54  68
BRANCH  55  78
ATOM     78  C   UNL A   1      44.658  28.902  28.476  1.00  0.00    -0.014 A 
ATOM     79  C   UNL A   1      44.081  28.849  27.183  1.00  0.00     0.010 A 
ATOM     80  C   UNL A   1      45.814  28.131  28.692  1.00  0.00     0.010 A 
ATOM     81  C   UNL A   1      44.699  28.172  26.117  1.00  0.00     0.020 A 
ATOM     82  C   UNL A   1      46.441  27.444  27.620  1.00  0.00     0.020 A 
ATOM     83  C   UNL A   1      45.897  27.500  26.331  1.00  0.00     0.054 A 
BRANCH  83  84
ATOM     84  S   UNL A   1      46.809  26.873  24.875  1.00  0.00     0.124 S 
ATOM     85  O   UNL A   1      46.172  25.583  24.633  1.00  0.00    -0.237 OA
ATOM     86  O   UNL A   1      46.553  27.900  23.870  1.00  0.00    -0.237 OA
ATOM     87  O   UNL A   1      48.194  26.807  25.341  1.00  0.00    -0.744 OA
ENDBRANCH  83  84
ENDBRANCH  55  78
BRANCH  67  88
ATOM     88  C   UNL A   1      42.605  35.945  28.725  1.00  0.00    -0.014 A 
ATOM     89  C   UNL A   1      43.361  36.940  29.358  1.00  0.00     0.010 A 
ATOM     90  C   UNL A   1      42.084  36.254  27.443  1.00  0.00     0.010 A 
ATOM     91  C   UNL A   1      43.517  38.207  28.785  1.00  0.00     0.020 A 
ATOM     92  C   UNL A   1      42.295  37.488  26.829  1.00  0.00     0.020 A 
ATOM     93  C   UNL A   1      42.980  38.473  27.526  1.00  0.00     0.054 A 
BRANCH  93  94
ATOM     94  S   UNL A   1      43.213  40.104  26.789  1.00  0.00     0.124 S 
ATOM     95  O   UNL A   1      41.922  40.326  26.146  1.00  0.00    -0.237 OA
ATOM     96  O   UNL A   1      43.490  40.948  27.949  1.00  0.00    -0.237 OA
ATOM     97  O   UNL A   1      44.343  39.914  25.882  1.00  0.00    -0.744 OA
ENDBRANCH  93  94
ENDBRANCH  67  88
ENDBRANCH  41  42
ENDBRANCH  34  36
ENDBRANCH  33  34
ENDBRANCH  32  33
ENDBRANCH   1  32
TORSDOF 18
ENDMDL
MODEL 3
REMARK VINA RESULT:     -13.0      3.946     10.955
REMARK SMILES Cc1ccc(NC(=O)c2ccccc2NC(=O)[C@H]2CCCC[C@H]2C(=O)OCCOC(=O)c2ccc(-c3c4nc(c(-c5ccc(S(=O)(=O)[O-])cc5)c5ccc([nH]5)c(-c5ccc(S(=O)(=O)[O-])cc5)c5nc(c(-c6ccc(S(=O)(=O)[O-])cc6)c6ccc3[nH]6)C=C5)C=C4)cc2)cc1
REMARK SMILES IDX 27 1 26 2 24 3 25 4 23 5 18 6 19 7 20 8 22 9 21 10 16 11
REMARK SMILES IDX 15 12 17 14 14 15 9 16 10 17 11 18 13 19 12 20 7 21 6 22
REMARK SMILES IDX 8 24 5 25 1 26 2 27 3 28 93 29 4 30 92 31 28 32 29 33 30 34
REMARK SMILES IDX 31 35 32 36 33 37 91 38 34 39 90 40 35 41 36 42 37 43 84 44
REMARK SMILES IDX 38 45 89 46 83 47 85 48 39 49 88 50 82 51 81 52 40 54 70 55
REMARK SMILES IDX 51 56 69 57 52 58 55 59 68 60 86 61 53 62 54 63 67 65 87 66
REMARK SMILES IDX 56 67 41 68 42 69 50 70 43 71 49 72 44 73 45 74 46 75 47 76
REMARK SMILES IDX 48 77 71 78 72 79 80 80 73 81 79 82 74 83 75 84 76 85 77 86
REMARK SMILES IDX 78 87 57 88 58 89 66 90 59 91 65 92 60 93 61 94 62 95 63 96
REMARK SMILES IDX 64 97
REMARK H PARENT 15 13 6 23 85 53 55 64
REMARK Flexibility Score: inf
ROOT
ATOM      1  C   UNL A   1      35.331  30.648  27.972  1.00  0.00     0.274 C 
ENDROOT
BRANCH   1   2
ATOM      2  O   UNL A   1      34.948  29.287  27.707  1.00  0.00    -0.462 OA
BRANCH   2   3
ATOM      3  C   UNL A   1      33.725  29.093  26.926  1.00  0.00     0.309 C 
ATOM      4  O   UNL A   1      32.876  29.810  27.526  1.00  0.00    -0.252 OA
BRANCH   3   5
ATOM      5  C   UNL A   1      33.566  27.788  25.157  1.00  0.00     0.111 C 
ATOM      6  C   UNL A   1      33.895  26.061  24.919  1.00  0.00     0.093 C 
ATOM      7  C   UNL A   1      33.885  25.480  23.485  1.00  0.00     0.014 C 
ATOM      8  C   UNL A   1      32.624  25.756  22.703  1.00  0.00     0.001 C 
ATOM      9  C   UNL A   1      32.455  28.015  23.723  1.00  0.00     0.016 C 
ATOM     10  C   UNL A   1      32.604  27.227  22.430  1.00  0.00     0.001 C 
BRANCH   6  11
ATOM     11  C   UNL A   1      33.049  25.087  25.707  1.00  0.00     0.228 C 
ATOM     12  N   UNL A   1      33.527  23.849  26.014  1.00  0.00    -0.325 N 
ATOM     13  H   UNL A   1      32.981  23.421  26.711  1.00  0.00     0.169 HD
ATOM     14  O   UNL A   1      31.985  25.441  26.225  1.00  0.00    -0.274 OA
BRANCH  12  15
ATOM     15  C   UNL A   1      34.586  23.008  25.612  1.00  0.00     0.054 A 
ATOM     16  C   UNL A   1      34.306  21.891  24.785  1.00  0.00     0.063 A 
ATOM     17  C   UNL A   1      35.315  20.926  24.579  1.00  0.00     0.016 A 
ATOM     18  C   UNL A   1      36.593  21.088  25.106  1.00  0.00     0.001 A 
ATOM     19  C   UNL A   1      35.911  23.214  26.019  1.00  0.00     0.027 A 
ATOM     20  C   UNL A   1      36.899  22.249  25.797  1.00  0.00     0.002 A 
BRANCH  16  21
ATOM     21  C   UNL A   1      32.966  21.520  24.220  1.00  0.00     0.257 C 
ATOM     22  N   UNL A   1      32.517  20.234  23.987  1.00  0.00    -0.322 N 
ATOM     23  H   UNL A   1      31.697  20.204  23.443  1.00  0.00     0.170 HD
ATOM     24  O   UNL A   1      32.220  22.436  23.856  1.00  0.00    -0.269 OA
BRANCH  22  25
ATOM     25  C   UNL A   1      32.978  18.959  24.357  1.00  0.00     0.041 A 
ATOM     26  C   UNL A   1      32.766  14.809  25.401  1.00  0.00     0.044 C 
ATOM     27  C   UNL A   1      33.023  16.257  25.097  1.00  0.00    -0.051 A 
ATOM     28  C   UNL A   1      33.413  16.648  23.808  1.00  0.00     0.005 A 
ATOM     29  C   UNL A   1      32.739  17.241  26.049  1.00  0.00     0.005 A 
ATOM     30  C   UNL A   1      33.412  17.999  23.443  1.00  0.00     0.026 A 
ATOM     31  C   UNL A   1      32.740  18.590  25.689  1.00  0.00     0.026 A 
ENDBRANCH  22  25
ENDBRANCH  16  21
ENDBRANCH  12  15
ENDBRANCH   6  11
ENDBRANCH   3   5
ENDBRANCH   2   3
ENDBRANCH   1   2
BRANCH   1  32
ATOM     32  C   UNL A   1      36.216  30.674  29.223  1.00  0.00     0.275 C 
BRANCH  32  33
ATOM     33  O   UNL A   1      36.579  29.367  29.753  1.00  0.00    -0.458 OA
BRANCH  33  34
ATOM     34  C   UNL A   1      37.851  28.882  29.847  1.00  0.00     0.338 C 
ATOM     35  O   UNL A   1      38.175  27.970  30.590  1.00  0.00    -0.246 OA
BRANCH  34  36
ATOM     36  C   UNL A   1      38.872  29.611  29.048  1.00  0.00     0.060 A 
ATOM     37  C   UNL A   1      38.937  29.276  27.291  1.00  0.00     0.016 A 
ATOM     38  C   UNL A   1      40.370  29.969  29.946  1.00  0.00     0.016 A 
ATOM     39  C   UNL A   1      40.562  29.113  26.479  1.00  0.00     0.010 A 
ATOM     40  C   UNL A   1      41.976  29.893  29.151  1.00  0.00     0.010 A 
ATOM     41  C   UNL A   1      42.077  29.309  27.460  1.00  0.00    -0.014 A 
BRANCH  41  42
ATOM     42  C   UNL A   1      43.323  28.606  27.210  1.00  0.00     0.031 A 
ATOM     43  C   UNL A   1      43.357  27.137  27.343  1.00  0.00     0.074 A 
ATOM     44  C   UNL A   1      44.331  29.332  26.677  1.00  0.00     0.049 A 
ATOM     45  N   UNL A   1      44.389  26.488  27.759  1.00  0.00    -0.248 NA
ATOM     46  C   UNL A   1      42.199  26.261  27.130  1.00  0.00     0.031 C 
ATOM     47  C   UNL A   1      45.578  28.856  26.099  1.00  0.00     0.029 A 
ATOM     48  N   UNL A   1      44.497  30.716  26.662  1.00  0.00    -0.354 N 
ATOM     49  C   UNL A   1      44.131  25.152  27.536  1.00  0.00     0.074 A 
ATOM     50  C   UNL A   1      42.709  25.057  27.386  1.00  0.00     0.031 C 
ATOM     51  C   UNL A   1      46.467  29.872  26.123  1.00  0.00     0.029 A 
ATOM     52  C   UNL A   1      45.842  31.002  26.804  1.00  0.00     0.049 A 
ATOM     53  H   UNL A   1      43.776  31.379  26.566  1.00  0.00     0.167 HD
ATOM     54  C   UNL A   1      45.161  24.307  27.255  1.00  0.00     0.031 A 
ATOM     55  C   UNL A   1      46.297  31.649  27.919  1.00  0.00     0.031 A 
ATOM     56  C   UNL A   1      46.431  25.035  27.324  1.00  0.00     0.049 A 
ATOM     57  C   UNL A   1      47.124  30.684  28.746  1.00  0.00     0.074 A 
ATOM     58  C   UNL A   1      47.240  25.587  26.346  1.00  0.00     0.029 A 
ATOM     59  N   UNL A   1      46.794  25.640  28.522  1.00  0.00    -0.354 N 
ATOM     60  N   UNL A   1      47.060  29.383  28.624  1.00  0.00    -0.248 NA
ATOM     61  C   UNL A   1      48.118  31.097  29.730  1.00  0.00     0.031 C 
ATOM     62  C   UNL A   1      48.014  26.616  26.954  1.00  0.00     0.029 A 
ATOM     63  C   UNL A   1      47.700  26.663  28.303  1.00  0.00     0.049 A 
ATOM     64  H   UNL A   1      46.451  25.378  29.408  1.00  0.00     0.167 HD
ATOM     65  C   UNL A   1      48.003  28.790  29.414  1.00  0.00     0.074 A 
ATOM     66  C   UNL A   1      48.630  29.908  30.102  1.00  0.00     0.031 C 
ATOM     67  C   UNL A   1      48.210  27.439  29.433  1.00  0.00     0.031 A 
BRANCH  54  68
ATOM     68  C   UNL A   1      44.986  22.950  26.597  1.00  0.00    -0.014 A 
ATOM     69  C   UNL A   1      46.031  22.419  25.814  1.00  0.00     0.010 A 
ATOM     70  C   UNL A   1      43.820  22.160  26.671  1.00  0.00     0.010 A 
ATOM     71  C   UNL A   1      45.900  21.209  25.111  1.00  0.00     0.020 A 
ATOM     72  C   UNL A   1      43.660  20.965  25.952  1.00  0.00     0.020 A 
ATOM     73  C   UNL A   1      44.707  20.493  25.176  1.00  0.00     0.054 A 
BRANCH  73  74
ATOM     74  S   UNL A   1      44.552  18.930  24.272  1.00  0.00     0.124 S 
ATOM     75  O   UNL A   1      44.379  19.379  22.893  1.00  0.00    -0.237 OA
ATOM     76  O   UNL A   1      45.821  18.271  24.569  1.00  0.00    -0.237 OA
ATOM     77  O   UNL A   1      43.373  18.301  24.867  1.00  0.00    -0.744 OA
ENDBRANCH  73  74
ENDBRANCH  54  68
BRANCH  55  78
ATOM     78  C   UNL A   1      45.445  32.786  28.423  1.00  0.00    -0.014 A 
ATOM     79  C   UNL A   1      45.561  34.028  27.750  1.00  0.00     0.010 A 
ATOM     80  C   UNL A   1      44.359  32.635  29.302  1.00  0.00     0.010 A 
ATOM     81  C   UNL A   1      44.571  35.021  27.841  1.00  0.00     0.020 A 
ATOM     82  C   UNL A   1      43.357  33.636  29.400  1.00  0.00     0.020 A 
ATOM     83  C   UNL A   1      43.453  34.807  28.639  1.00  0.00     0.054 A 
BRANCH  83  84
ATOM     84  S   UNL A   1      42.063  35.989  28.516  1.00  0.00     0.124 S 
ATOM     85  O   UNL A   1      42.572  37.154  29.232  1.00  0.00    -0.237 OA
ATOM     86  O   UNL A   1      41.910  36.155  27.074  1.00  0.00    -0.237 OA
ATOM     87  O   UNL A   1      40.958  35.289  29.170  1.00  0.00    -0.744 OA
ENDBRANCH  83  84
ENDBRANCH  55  78
BRANCH  67  88
ATOM     88  C   UNL A   1      48.987  26.700  30.494  1.00  0.00    -0.014 A 
ATOM     89  C   UNL A   1      48.733  26.814  31.867  1.00  0.00     0.010 A 
ATOM     90  C   UNL A   1      49.932  25.721  30.097  1.00  0.00     0.010 A 
ATOM     91  C   UNL A   1      49.444  26.054  32.802  1.00  0.00     0.020 A 
ATOM     92  C   UNL A   1      50.594  24.907  31.014  1.00  0.00     0.020 A 
ATOM     93  C   UNL A   1      50.373  25.109  32.369  1.00  0.00     0.054 A 
BRANCH  93  94
ATOM     94  S   UNL A   1      51.263  24.118  33.588  1.00  0.00     0.124 S 
ATOM     95  O   UNL A   1      52.145  25.112  34.190  1.00  0.00    -0.237 OA
ATOM     96  O   UNL A   1      50.192  23.624  34.450  1.00  0.00    -0.237 OA
ATOM     97  O   UNL A   1      51.927  23.095  32.782  1.00  0.00    -0.744 OA
ENDBRANCH  93  94
ENDBRANCH  67  88
ENDBRANCH  41  42
ENDBRANCH  34  36
ENDBRANCH  33  34
ENDBRANCH  32  33
ENDBRANCH   1  32
TORSDOF 18
ENDMDL
