MODEL 1
REMARK VINA RESULT:      -9.8      0.000      0.000
REMARK SMILES CCCc1cc2c(cc1Cl)C=C(C(=O)OCCOC(=O)c1ccc(-c3c4nc(c(-c5ccc(S(=O)(=O)[O-])cc5)c5ccc([nH]5)c(-c5ccc(S(=O)(=O)[O-])cc5)c5nc(c(-c6ccc(S(=O)(=O)[O-])cc6)c6ccc3[nH]6)C=C5)C=C4)cc1)[C@@H](C(F)(F)F)O2
REMARK SMILES IDX 17 1 16 2 15 3 13 4 14 5 12 6 4 7 5 8 9 9 6 10 8 11 10 12
REMARK SMILES IDX 7 13 86 14 11 15 81 16 3 17 2 18 1 19 82 20 83 21 84 22
REMARK SMILES IDX 85 23 18 24 19 25 20 26 21 27 22 28 80 29 23 30 79 31 24 32
REMARK SMILES IDX 25 33 26 34 73 35 27 36 78 37 72 38 74 39 28 40 77 41 71 42
REMARK SMILES IDX 70 43 29 45 59 46 40 47 58 48 41 49 44 50 57 51 75 52 42 53
REMARK SMILES IDX 43 54 56 56 76 57 45 58 30 59 31 60 39 61 32 62 38 63 33 64
REMARK SMILES IDX 34 65 35 66 36 67 37 68 60 69 61 70 69 71 62 72 68 73 63 74
REMARK SMILES IDX 64 75 65 76 66 77 67 78 46 79 47 80 55 81 48 82 54 83 49 84
REMARK SMILES IDX 50 85 51 86 52 87 53 88
REMARK H PARENT 74 44 44 55
REMARK Flexibility Score: inf
ROOT
ATOM      1  C   UNL A   1      33.664  33.462  28.234  1.00  0.00     0.275 C 
ENDROOT
BRANCH   1   2
ATOM      2  C   UNL A   1      34.214  34.675  28.987  1.00  0.00     0.275 C 
BRANCH   2   3
ATOM      3  O   UNL A   1      34.045  34.537  30.416  1.00  0.00    -0.459 OA
BRANCH   3   4
ATOM      4  C   UNL A   1      34.739  33.526  30.987  1.00  0.00     0.338 C 
ATOM      5  O   UNL A   1      34.452  32.339  30.958  1.00  0.00    -0.246 OA
BRANCH   4   6
ATOM      6  C   UNL A   1      35.959  34.032  31.641  1.00  0.00     0.087 C 
ATOM      7  C   UNL A   1      40.779  34.601  32.974  1.00  0.00    -0.026 A 
ATOM      8  C   UNL A   1      39.543  34.847  33.616  1.00  0.00     0.052 A 
ATOM      9  C   UNL A   1      40.768  34.200  31.629  1.00  0.00     0.045 A 
ATOM     10  C   UNL A   1      38.333  34.648  32.951  1.00  0.00     0.128 A 
ATOM     11  C   UNL A   1      39.560  33.977  30.975  1.00  0.00     0.032 A 
ATOM     12  Cl  UNL A   1      42.214  33.943  30.719  1.00  0.00    -0.084 Cl
ATOM     13  C   UNL A   1      38.350  34.180  31.645  1.00  0.00     0.019 A 
ATOM     14  O   UNL A   1      37.183  34.908  33.643  1.00  0.00    -0.475 OA
ATOM     15  C   UNL A   1      37.111  33.831  30.995  1.00  0.00     0.027 C 
ATOM     16  C   UNL A   1      35.890  34.624  33.018  1.00  0.00     0.316 C 
BRANCH   7  17
ATOM     17  C   UNL A   1      42.055  34.719  33.774  1.00  0.00     0.037 C 
BRANCH  17  18
ATOM     18  C   UNL A   1      41.894  35.544  35.058  1.00  0.00     0.001 C 
ATOM     19  C   UNL A   1      42.630  36.877  35.048  1.00  0.00     0.004 C 
ENDBRANCH  17  18
ENDBRANCH   7  17
BRANCH  16  20
ATOM     20  C   UNL A   1      35.082  33.743  33.986  1.00  0.00     0.430 C 
ATOM     21  F   UNL A   1      33.765  33.750  33.665  1.00  0.00    -0.167 F 
ATOM     22  F   UNL A   1      35.478  32.449  33.940  1.00  0.00    -0.167 F 
ATOM     23  F   UNL A   1      35.190  34.158  35.267  1.00  0.00    -0.167 F 
ENDBRANCH  16  20
ENDBRANCH   4   6
ENDBRANCH   3   4
ENDBRANCH   2   3
ENDBRANCH   1   2
BRANCH   1  24
ATOM     24  O   UNL A   1      34.725  32.750  27.573  1.00  0.00    -0.458 OA
BRANCH  24  25
ATOM     25  C   UNL A   1      34.655  31.403  27.661  1.00  0.00     0.338 C 
ATOM     26  O   UNL A   1      33.731  30.685  27.319  1.00  0.00    -0.246 OA
BRANCH  25  27
ATOM     27  C   UNL A   1      35.936  30.872  28.146  1.00  0.00     0.060 A 
ATOM     28  C   UNL A   1      37.094  31.639  28.137  1.00  0.00     0.016 A 
ATOM     29  C   UNL A   1      35.926  29.638  28.782  1.00  0.00     0.016 A 
ATOM     30  C   UNL A   1      38.241  31.143  28.772  1.00  0.00     0.010 A 
ATOM     31  C   UNL A   1      37.002  29.241  29.568  1.00  0.00     0.010 A 
ATOM     32  C   UNL A   1      38.199  29.960  29.539  1.00  0.00    -0.014 A 
BRANCH  32  33
ATOM     33  C   UNL A   1      39.393  29.456  30.283  1.00  0.00     0.031 A 
ATOM     34  C   UNL A   1      39.666  29.898  31.708  1.00  0.00     0.074 A 
ATOM     35  C   UNL A   1      40.261  28.617  29.676  1.00  0.00     0.049 A 
ATOM     36  N   UNL A   1      40.647  29.552  32.503  1.00  0.00    -0.248 NA
ATOM     37  C   UNL A   1      38.750  30.886  32.308  1.00  0.00     0.031 C 
ATOM     38  C   UNL A   1      40.176  28.181  28.280  1.00  0.00     0.029 A 
ATOM     39  N   UNL A   1      41.368  27.957  30.156  1.00  0.00    -0.354 N 
ATOM     40  C   UNL A   1      40.476  30.293  33.668  1.00  0.00     0.074 A 
ATOM     41  C   UNL A   1      39.353  31.172  33.451  1.00  0.00     0.031 C 
ATOM     42  C   UNL A   1      41.122  27.259  28.045  1.00  0.00     0.029 A 
ATOM     43  C   UNL A   1      41.922  27.076  29.253  1.00  0.00     0.049 A 
ATOM     44  H   UNL A   1      41.731  28.101  31.059  1.00  0.00     0.167 HD
ATOM     45  C   UNL A   1      41.152  30.214  34.839  1.00  0.00     0.031 A 
ATOM     46  C   UNL A   1      42.940  26.200  29.381  1.00  0.00     0.031 A 
ATOM     47  C   UNL A   1      42.220  29.283  35.080  1.00  0.00     0.049 A 
ATOM     48  C   UNL A   1      43.647  26.089  30.704  1.00  0.00     0.074 A 
ATOM     49  C   UNL A   1      42.912  29.065  36.259  1.00  0.00     0.029 A 
ATOM     50  N   UNL A   1      42.735  28.404  34.142  1.00  0.00    -0.354 N 
ATOM     51  N   UNL A   1      43.413  26.745  31.814  1.00  0.00    -0.248 NA
ATOM     52  C   UNL A   1      44.743  25.114  30.800  1.00  0.00     0.031 C 
ATOM     53  C   UNL A   1      43.882  28.093  36.018  1.00  0.00     0.029 A 
ATOM     54  C   UNL A   1      43.749  27.653  34.709  1.00  0.00     0.049 A 
ATOM     55  H   UNL A   1      42.426  28.325  33.210  1.00  0.00     0.167 HD
ATOM     56  C   UNL A   1      44.322  26.253  32.745  1.00  0.00     0.074 A 
ATOM     57  C   UNL A   1      45.095  25.229  32.075  1.00  0.00     0.031 C 
ATOM     58  C   UNL A   1      44.503  26.626  34.035  1.00  0.00     0.031 A 
BRANCH  45  59
ATOM     59  C   UNL A   1      40.722  31.102  35.982  1.00  0.00    -0.014 A 
ATOM     60  C   UNL A   1      39.354  31.287  36.257  1.00  0.00     0.010 A 
ATOM     61  C   UNL A   1      41.668  31.855  36.703  1.00  0.00     0.010 A 
ATOM     62  C   UNL A   1      38.939  32.228  37.205  1.00  0.00     0.020 A 
ATOM     63  C   UNL A   1      41.259  32.771  37.676  1.00  0.00     0.020 A 
ATOM     64  C   UNL A   1      39.896  32.972  37.900  1.00  0.00     0.054 A 
BRANCH  64  65
ATOM     65  S   UNL A   1      39.342  34.217  39.098  1.00  0.00     0.124 S 
ATOM     66  O   UNL A   1      39.088  35.373  38.243  1.00  0.00    -0.237 OA
ATOM     67  O   UNL A   1      38.160  33.593  39.686  1.00  0.00    -0.237 OA
ATOM     68  O   UNL A   1      40.481  34.350  40.005  1.00  0.00    -0.744 OA
ENDBRANCH  64  65
ENDBRANCH  45  59
BRANCH  46  69
ATOM     69  C   UNL A   1      43.281  25.308  28.235  1.00  0.00    -0.014 A 
ATOM     70  C   UNL A   1      42.744  24.011  28.146  1.00  0.00     0.010 A 
ATOM     71  C   UNL A   1      44.228  25.718  27.278  1.00  0.00     0.010 A 
ATOM     72  C   UNL A   1      43.191  23.120  27.165  1.00  0.00     0.020 A 
ATOM     73  C   UNL A   1      44.653  24.841  26.274  1.00  0.00     0.020 A 
ATOM     74  C   UNL A   1      44.157  23.537  26.245  1.00  0.00     0.054 A 
BRANCH  74  75
ATOM     75  S   UNL A   1      44.772  22.344  25.024  1.00  0.00     0.124 S 
ATOM     76  O   UNL A   1      43.733  21.318  25.060  1.00  0.00    -0.237 OA
ATOM     77  O   UNL A   1      44.830  23.139  23.800  1.00  0.00    -0.237 OA
ATOM     78  O   UNL A   1      46.068  21.939  25.562  1.00  0.00    -0.744 OA
ENDBRANCH  74  75
ENDBRANCH  46  69
BRANCH  58  79
ATOM     79  C   UNL A   1      45.573  25.939  34.840  1.00  0.00    -0.014 A 
ATOM     80  C   UNL A   1      46.905  26.385  34.752  1.00  0.00     0.010 A 
ATOM     81  C   UNL A   1      45.291  24.752  35.538  1.00  0.00     0.010 A 
ATOM     82  C   UNL A   1      47.943  25.631  35.302  1.00  0.00     0.020 A 
ATOM     83  C   UNL A   1      46.324  24.009  36.116  1.00  0.00     0.020 A 
ATOM     84  C   UNL A   1      47.646  24.438  35.967  1.00  0.00     0.054 A 
BRANCH  84  85
ATOM     85  S   UNL A   1      49.012  23.437  36.616  1.00  0.00     0.124 S 
ATOM     86  O   UNL A   1      48.687  22.107  36.108  1.00  0.00    -0.237 OA
ATOM     87  O   UNL A   1      50.185  24.070  36.019  1.00  0.00    -0.237 OA
ATOM     88  O   UNL A   1      48.898  23.596  38.064  1.00  0.00    -0.744 OA
ENDBRANCH  84  85
ENDBRANCH  58  79
ENDBRANCH  32  33
ENDBRANCH  25  27
ENDBRANCH  24  25
ENDBRANCH   1  24
TORSDOF 17
ENDMDL
MODEL 2
REMARK VINA RESULT:      -9.7      4.071      6.757
REMARK SMILES CCCc1cc2c(cc1Cl)C=C(C(=O)OCCOC(=O)c1ccc(-c3c4nc(c(-c5ccc(S(=O)(=O)[O-])cc5)c5ccc([nH]5)c(-c5ccc(S(=O)(=O)[O-])cc5)c5nc(c(-c6ccc(S(=O)(=O)[O-])cc6)c6ccc3[nH]6)C=C5)C=C4)cc1)[C@@H](C(F)(F)F)O2
REMARK SMILES IDX 17 1 16 2 15 3 13 4 14 5 12 6 4 7 5 8 9 9 6 10 8 11 10 12
REMARK SMILES IDX 7 13 86 14 11 15 81 16 3 17 2 18 1 19 82 20 83 21 84 22
REMARK SMILES IDX 85 23 18 24 19 25 20 26 21 27 22 28 80 29 23 30 79 31 24 32
REMARK SMILES IDX 25 33 26 34 73 35 27 36 78 37 72 38 74 39 28 40 77 41 71 42
REMARK SMILES IDX 70 43 29 45 59 46 40 47 58 48 41 49 44 50 57 51 75 52 42 53
REMARK SMILES IDX 43 54 56 56 76 57 45 58 30 59 31 60 39 61 32 62 38 63 33 64
REMARK SMILES IDX 34 65 35 66 36 67 37 68 60 69 61 70 69 71 62 72 68 73 63 74
REMARK SMILES IDX 64 75 65 76 66 77 67 78 46 79 47 80 55 81 48 82 54 83 49 84
REMARK SMILES IDX 50 85 51 86 52 87 53 88
REMARK H PARENT 74 44 44 55
REMARK Flexibility Score: inf
ROOT
ATOM      1  C   UNL A   1      32.197  30.638  26.906  1.00  0.00     0.275 C 
ENDROOT
BRANCH   1   2
ATOM      2  C   UNL A   1      31.709  30.025  25.593  1.00  0.00     0.275 C 
BRANCH   2   3
ATOM      3  O   UNL A   1      31.487  28.602  25.719  1.00  0.00    -0.459 OA
BRANCH   3   4
ATOM      4  C   UNL A   1      31.125  27.968  24.579  1.00  0.00     0.338 C 
ATOM      5  O   UNL A   1      30.186  28.256  23.854  1.00  0.00    -0.246 OA
BRANCH   4   6
ATOM      6  C   UNL A   1      32.058  26.870  24.273  1.00  0.00     0.087 C 
ATOM      7  C   UNL A   1      35.321  23.078  24.829  1.00  0.00    -0.026 A 
ATOM      8  C   UNL A   1      35.097  24.045  23.823  1.00  0.00     0.052 A 
ATOM      9  C   UNL A   1      34.428  23.015  25.910  1.00  0.00     0.045 A 
ATOM     10  C   UNL A   1      34.044  24.955  23.918  1.00  0.00     0.128 A 
ATOM     11  C   UNL A   1      33.393  23.939  26.018  1.00  0.00     0.032 A 
ATOM     12  Cl  UNL A   1      34.556  21.829  27.159  1.00  0.00    -0.084 Cl
ATOM     13  C   UNL A   1      33.220  24.917  25.034  1.00  0.00     0.019 A 
ATOM     14  O   UNL A   1      33.896  25.859  22.903  1.00  0.00    -0.475 OA
ATOM     15  C   UNL A   1      32.220  25.941  25.218  1.00  0.00     0.027 C 
ATOM     16  C   UNL A   1      32.864  26.892  23.007  1.00  0.00     0.316 C 
BRANCH   7  17
ATOM     17  C   UNL A   1      36.543  22.194  24.736  1.00  0.00     0.037 C 
BRANCH  17  18
ATOM     18  C   UNL A   1      37.767  22.769  25.463  1.00  0.00     0.001 C 
ATOM     19  C   UNL A   1      38.802  21.730  25.873  1.00  0.00     0.004 C 
ENDBRANCH  17  18
ENDBRANCH   7  17
BRANCH  16  20
ATOM     20  C   UNL A   1      33.536  28.255  22.773  1.00  0.00     0.430 C 
ATOM     21  F   UNL A   1      32.623  29.195  22.424  1.00  0.00    -0.167 F 
ATOM     22  F   UNL A   1      34.147  28.715  23.891  1.00  0.00    -0.167 F 
ATOM     23  F   UNL A   1      34.464  28.207  21.792  1.00  0.00    -0.167 F 
ENDBRANCH  16  20
ENDBRANCH   4   6
ENDBRANCH   3   4
ENDBRANCH   2   3
ENDBRANCH   1   2
BRANCH   1  24
ATOM     24  O   UNL A   1      33.629  30.538  27.014  1.00  0.00    -0.458 OA
BRANCH  24  25
ATOM     25  C   UNL A   1      34.221  31.520  27.729  1.00  0.00     0.338 C 
ATOM     26  O   UNL A   1      33.728  32.574  28.090  1.00  0.00    -0.246 OA
BRANCH  25  27
ATOM     27  C   UNL A   1      35.569  31.094  28.131  1.00  0.00     0.060 A 
ATOM     28  C   UNL A   1      36.626  31.993  28.208  1.00  0.00     0.016 A 
ATOM     29  C   UNL A   1      35.723  29.799  28.607  1.00  0.00     0.016 A 
ATOM     30  C   UNL A   1      37.839  31.567  28.765  1.00  0.00     0.010 A 
ATOM     31  C   UNL A   1      36.858  29.443  29.326  1.00  0.00     0.010 A 
ATOM     32  C   UNL A   1      37.960  30.301  29.377  1.00  0.00    -0.014 A 
BRANCH  32  33
ATOM     33  C   UNL A   1      39.224  29.859  30.040  1.00  0.00     0.031 A 
ATOM     34  C   UNL A   1      39.670  30.473  31.352  1.00  0.00     0.074 A 
ATOM     35  C   UNL A   1      39.999  28.920  29.454  1.00  0.00     0.049 A 
ATOM     36  N   UNL A   1      40.732  30.202  32.069  1.00  0.00    -0.248 NA
ATOM     37  C   UNL A   1      38.848  31.561  31.917  1.00  0.00     0.031 C 
ATOM     38  C   UNL A   1      39.743  28.309  28.147  1.00  0.00     0.029 A 
ATOM     39  N   UNL A   1      41.143  28.292  29.888  1.00  0.00    -0.354 N 
ATOM     40  C   UNL A   1      40.712  31.093  33.137  1.00  0.00     0.074 A 
ATOM     41  C   UNL A   1      39.587  31.973  32.935  1.00  0.00     0.031 C 
ATOM     42  C   UNL A   1      40.638  27.333  27.931  1.00  0.00     0.029 A 
ATOM     43  C   UNL A   1      41.571  27.283  29.053  1.00  0.00     0.049 A 
ATOM     44  H   UNL A   1      41.612  28.540  30.716  1.00  0.00     0.167 HD
ATOM     45  C   UNL A   1      41.520  31.145  34.223  1.00  0.00     0.031 A 
ATOM     46  C   UNL A   1      42.581  26.398  29.179  1.00  0.00     0.031 A 
ATOM     47  C   UNL A   1      42.592  30.219  34.462  1.00  0.00     0.049 A 
ATOM     48  C   UNL A   1      43.437  26.436  30.415  1.00  0.00     0.074 A 
ATOM     49  C   UNL A   1      43.414  30.133  35.572  1.00  0.00     0.029 A 
ATOM     50  N   UNL A   1      42.977  29.208  33.596  1.00  0.00    -0.354 N 
ATOM     51  N   UNL A   1      43.348  27.239  31.448  1.00  0.00    -0.248 NA
ATOM     52  C   UNL A   1      44.519  25.447  30.514  1.00  0.00     0.031 C 
ATOM     53  C   UNL A   1      44.331  29.106  35.353  1.00  0.00     0.029 A 
ATOM     54  C   UNL A   1      44.037  28.505  34.139  1.00  0.00     0.049 A 
ATOM     55  H   UNL A   1      42.560  29.019  32.724  1.00  0.00     0.167 HD
ATOM     56  C   UNL A   1      44.351  26.842  32.326  1.00  0.00     0.074 A 
ATOM     57  C   UNL A   1      45.021  25.714  31.714  1.00  0.00     0.031 C 
ATOM     58  C   UNL A   1      44.688  27.374  33.525  1.00  0.00     0.031 A 
BRANCH  45  59
ATOM     59  C   UNL A   1      41.243  32.188  35.279  1.00  0.00    -0.014 A 
ATOM     60  C   UNL A   1      40.334  31.917  36.319  1.00  0.00     0.010 A 
ATOM     61  C   UNL A   1      41.785  33.482  35.171  1.00  0.00     0.010 A 
ATOM     62  C   UNL A   1      39.947  32.925  37.208  1.00  0.00     0.020 A 
ATOM     63  C   UNL A   1      41.429  34.484  36.078  1.00  0.00     0.020 A 
ATOM     64  C   UNL A   1      40.491  34.206  37.074  1.00  0.00     0.054 A 
BRANCH  64  65
ATOM     65  S   UNL A   1      39.950  35.514  38.209  1.00  0.00     0.124 S 
ATOM     66  O   UNL A   1      41.038  35.546  39.181  1.00  0.00    -0.237 OA
ATOM     67  O   UNL A   1      39.850  36.678  37.332  1.00  0.00    -0.237 OA
ATOM     68  O   UNL A   1      38.672  35.018  38.717  1.00  0.00    -0.744 OA
ENDBRANCH  64  65
ENDBRANCH  45  59
BRANCH  46  69
ATOM     69  C   UNL A   1      42.770  25.354  28.131  1.00  0.00    -0.014 A 
ATOM     70  C   UNL A   1      42.121  24.109  28.228  1.00  0.00     0.010 A 
ATOM     71  C   UNL A   1      43.682  25.564  27.080  1.00  0.00     0.010 A 
ATOM     72  C   UNL A   1      42.425  23.075  27.337  1.00  0.00     0.020 A 
ATOM     73  C   UNL A   1      43.964  24.543  26.165  1.00  0.00     0.020 A 
ATOM     74  C   UNL A   1      43.359  23.295  26.321  1.00  0.00     0.054 A 
BRANCH  74  75
ATOM     75  S   UNL A   1      43.790  21.919  25.218  1.00  0.00     0.124 S 
ATOM     76  O   UNL A   1      43.706  22.553  23.904  1.00  0.00    -0.237 OA
ATOM     77  O   UNL A   1      45.135  21.563  25.660  1.00  0.00    -0.237 OA
ATOM     78  O   UNL A   1      42.760  20.921  25.496  1.00  0.00    -0.744 OA
ENDBRANCH  74  75
ENDBRANCH  46  69
BRANCH  58  79
ATOM     79  C   UNL A   1      45.834  26.762  34.287  1.00  0.00    -0.014 A 
ATOM     80  C   UNL A   1      47.153  27.159  33.999  1.00  0.00     0.010 A 
ATOM     81  C   UNL A   1      45.617  25.677  35.154  1.00  0.00     0.010 A 
ATOM     82  C   UNL A   1      48.237  26.451  34.521  1.00  0.00     0.020 A 
ATOM     83  C   UNL A   1      46.700  24.984  35.703  1.00  0.00     0.020 A 
ATOM     84  C   UNL A   1      48.002  25.357  35.357  1.00  0.00     0.054 A 
BRANCH  84  85
ATOM     85  S   UNL A   1      49.419  24.406  35.972  1.00  0.00     0.124 S 
ATOM     86  O   UNL A   1      48.794  23.521  36.950  1.00  0.00    -0.237 OA
ATOM     87  O   UNL A   1      49.917  23.757  34.762  1.00  0.00    -0.237 OA
ATOM     88  O   UNL A   1      50.303  25.428  36.529  1.00  0.00    -0.744 OA
ENDBRANCH  84  85
ENDBRANCH  58  79
ENDBRANCH  32  33
ENDBRANCH  25  27
ENDBRANCH  24  25
ENDBRANCH   1  24
TORSDOF 17
ENDMDL
MODEL 3
REMARK VINA RESULT:      -9.6      5.716     12.584
REMARK SMILES CCCc1cc2c(cc1Cl)C=C(C(=O)OCCOC(=O)c1ccc(-c3c4nc(c(-c5ccc(S(=O)(=O)[O-])cc5)c5ccc([nH]5)c(-c5ccc(S(=O)(=O)[O-])cc5)c5nc(c(-c6ccc(S(=O)(=O)[O-])cc6)c6ccc3[nH]6)C=C5)C=C4)cc1)[C@@H](C(F)(F)F)O2
REMARK SMILES IDX 17 1 16 2 15 3 13 4 14 5 12 6 4 7 5 8 9 9 6 10 8 11 10 12
REMARK SMILES IDX 7 13 86 14 11 15 81 16 3 17 2 18 1 19 82 20 83 21 84 22
REMARK SMILES IDX 85 23 18 24 19 25 20 26 21 27 22 28 80 29 23 30 79 31 24 32
REMARK SMILES IDX 25 33 26 34 73 35 27 36 78 37 72 38 74 39 28 40 77 41 71 42
REMARK SMILES IDX 70 43 29 45 59 46 40 47 58 48 41 49 44 50 57 51 75 52 42 53
REMARK SMILES IDX 43 54 56 56 76 57 45 58 30 59 31 60 39 61 32 62 38 63 33 64
REMARK SMILES IDX 34 65 35 66 36 67 37 68 60 69 61 70 69 71 62 72 68 73 63 74
REMARK SMILES IDX 64 75 65 76 66 77 67 78 46 79 47 80 55 81 48 82 54 83 49 84
REMARK SMILES IDX 50 85 51 86 52 87 53 88
REMARK H PARENT 74 44 44 55
REMARK Flexibility Score: inf
ROOT
ATOM      1  C   UNL A   1      40.320  20.835  26.684  1.00  0.00     0.275 C 
ENDROOT
BRANCH   1   2
ATOM      2  C   UNL A   1      41.583  20.749  27.542  1.00  0.00     0.275 C 
BRANCH   2   3
ATOM      3  O   UNL A   1      42.505  19.756  27.037  1.00  0.00    -0.459 OA
BRANCH   3   4
ATOM      4  C   UNL A   1      43.008  20.006  25.806  1.00  0.00     0.338 C 
ATOM      5  O   UNL A   1      42.727  19.420  24.773  1.00  0.00    -0.246 OA
BRANCH   4   6
ATOM      6  C   UNL A   1      43.944  21.144  25.845  1.00  0.00     0.087 C 
ATOM      7  C   UNL A   1      45.935  25.715  25.161  1.00  0.00    -0.026 A 
ATOM      8  C   UNL A   1      46.476  24.419  25.322  1.00  0.00     0.052 A 
ATOM      9  C   UNL A   1      44.549  25.887  25.306  1.00  0.00     0.045 A 
ATOM     10  C   UNL A   1      45.653  23.320  25.567  1.00  0.00     0.128 A 
ATOM     11  C   UNL A   1      43.727  24.786  25.525  1.00  0.00     0.032 A 
ATOM     12  Cl  UNL A   1      43.784  27.432  25.207  1.00  0.00    -0.084 Cl
ATOM     13  C   UNL A   1      44.280  23.506  25.632  1.00  0.00     0.019 A 
ATOM     14  O   UNL A   1      46.254  22.100  25.709  1.00  0.00    -0.475 OA
ATOM     15  C   UNL A   1      43.408  22.362  25.739  1.00  0.00     0.027 C 
ATOM     16  C   UNL A   1      45.425  20.906  25.873  1.00  0.00     0.316 C 
BRANCH   7  17
ATOM     17  C   UNL A   1      46.856  26.851  24.781  1.00  0.00     0.037 C 
BRANCH  17  18
ATOM     18  C   UNL A   1      47.803  27.271  25.914  1.00  0.00     0.001 C 
ATOM     19  C   UNL A   1      49.217  26.716  25.792  1.00  0.00     0.004 C 
ENDBRANCH  17  18
ENDBRANCH   7  17
BRANCH  16  20
ATOM     20  C   UNL A   1      45.866  19.877  24.819  1.00  0.00     0.430 C 
ATOM     21  F   UNL A   1      45.202  20.062  23.650  1.00  0.00    -0.167 F 
ATOM     22  F   UNL A   1      47.184  19.986  24.527  1.00  0.00    -0.167 F 
ATOM     23  F   UNL A   1      45.639  18.606  25.216  1.00  0.00    -0.167 F 
ENDBRANCH  16  20
ENDBRANCH   4   6
ENDBRANCH   3   4
ENDBRANCH   2   3
ENDBRANCH   1   2
BRANCH   1  24
ATOM     24  O   UNL A   1      40.253  22.100  26.002  1.00  0.00    -0.458 OA
BRANCH  24  25
ATOM     25  C   UNL A   1      39.068  22.743  26.101  1.00  0.00     0.338 C 
ATOM     26  O   UNL A   1      37.964  22.308  25.826  1.00  0.00    -0.246 OA
BRANCH  25  27
ATOM     27  C   UNL A   1      39.272  24.064  26.711  1.00  0.00     0.060 A 
ATOM     28  C   UNL A   1      38.937  24.316  28.036  1.00  0.00     0.016 A 
ATOM     29  C   UNL A   1      39.977  25.012  25.982  1.00  0.00     0.016 A 
ATOM     30  C   UNL A   1      39.316  25.536  28.612  1.00  0.00     0.010 A 
ATOM     31  C   UNL A   1      40.512  26.130  26.611  1.00  0.00     0.010 A 
ATOM     32  C   UNL A   1      40.152  26.441  27.924  1.00  0.00    -0.014 A 
BRANCH  32  33
ATOM     33  C   UNL A   1      40.626  27.713  28.550  1.00  0.00     0.031 A 
ATOM     34  C   UNL A   1      42.086  27.907  28.907  1.00  0.00     0.074 A 
ATOM     35  C   UNL A   1      39.742  28.697  28.830  1.00  0.00     0.049 A 
ATOM     36  N   UNL A   1      42.670  28.948  29.446  1.00  0.00    -0.248 NA
ATOM     37  C   UNL A   1      43.007  26.778  28.673  1.00  0.00     0.031 C 
ATOM     38  C   UNL A   1      38.293  28.612  28.627  1.00  0.00     0.029 A 
ATOM     39  N   UNL A   1      39.929  29.968  29.317  1.00  0.00    -0.354 N 
ATOM     40  C   UNL A   1      44.001  28.587  29.632  1.00  0.00     0.074 A 
ATOM     41  C   UNL A   1      44.126  27.207  29.235  1.00  0.00     0.031 C 
ATOM     42  C   UNL A   1      37.739  29.805  28.892  1.00  0.00     0.029 A 
ATOM     43  C   UNL A   1      38.779  30.727  29.341  1.00  0.00     0.049 A 
ATOM     44  H   UNL A   1      40.802  30.306  29.622  1.00  0.00     0.167 HD
ATOM     45  C   UNL A   1      45.043  29.348  30.043  1.00  0.00     0.031 A 
ATOM     46  C   UNL A   1      38.578  32.021  29.662  1.00  0.00     0.031 A 
ATOM     47  C   UNL A   1      44.933  30.744  30.364  1.00  0.00     0.049 A 
ATOM     48  C   UNL A   1      39.755  32.866  30.066  1.00  0.00     0.074 A 
ATOM     49  C   UNL A   1      45.944  31.624  30.706  1.00  0.00     0.029 A 
ATOM     50  N   UNL A   1      43.752  31.469  30.360  1.00  0.00    -0.354 N 
ATOM     51  N   UNL A   1      41.017  32.521  30.159  1.00  0.00    -0.248 NA
ATOM     52  C   UNL A   1      39.491  34.273  30.397  1.00  0.00     0.031 C 
ATOM     53  C   UNL A   1      45.368  32.867  30.964  1.00  0.00     0.029 A 
ATOM     54  C   UNL A   1      44.007  32.782  30.712  1.00  0.00     0.049 A 
ATOM     55  H   UNL A   1      42.864  31.105  30.140  1.00  0.00     0.167 HD
ATOM     56  C   UNL A   1      41.698  33.670  30.543  1.00  0.00     0.074 A 
ATOM     57  C   UNL A   1      40.714  34.727  30.645  1.00  0.00     0.031 C 
ATOM     58  C   UNL A   1      43.020  33.829  30.797  1.00  0.00     0.031 A 
BRANCH  45  59
ATOM     59  C   UNL A   1      46.415  28.719  30.104  1.00  0.00    -0.014 A 
ATOM     60  C   UNL A   1      47.416  29.117  29.198  1.00  0.00     0.010 A 
ATOM     61  C   UNL A   1      46.675  27.644  30.975  1.00  0.00     0.010 A 
ATOM     62  C   UNL A   1      48.635  28.433  29.138  1.00  0.00     0.020 A 
ATOM     63  C   UNL A   1      47.905  26.980  30.943  1.00  0.00     0.020 A 
ATOM     64  C   UNL A   1      48.866  27.362  30.005  1.00  0.00     0.054 A 
BRANCH  64  65
ATOM     65  S   UNL A   1      50.435  26.459  29.888  1.00  0.00     0.124 S 
ATOM     66  O   UNL A   1      49.989  25.109  29.555  1.00  0.00    -0.237 OA
ATOM     67  O   UNL A   1      51.138  27.173  28.825  1.00  0.00    -0.237 OA
ATOM     68  O   UNL A   1      51.019  26.613  31.220  1.00  0.00    -0.744 OA
ENDBRANCH  64  65
ENDBRANCH  45  59
BRANCH  46  69
ATOM     69  C   UNL A   1      37.211  32.602  29.526  1.00  0.00    -0.014 A 
ATOM     70  C   UNL A   1      36.744  33.065  28.283  1.00  0.00     0.010 A 
ATOM     71  C   UNL A   1      36.405  32.786  30.666  1.00  0.00     0.010 A 
ATOM     72  C   UNL A   1      35.532  33.756  28.188  1.00  0.00     0.020 A 
ATOM     73  C   UNL A   1      35.175  33.448  30.570  1.00  0.00     0.020 A 
ATOM     74  C   UNL A   1      34.764  33.958  29.338  1.00  0.00     0.054 A 
BRANCH  74  75
ATOM     75  S   UNL A   1      33.228  34.917  29.205  1.00  0.00     0.124 S 
ATOM     76  O   UNL A   1      32.742  34.893  30.583  1.00  0.00    -0.237 OA
ATOM     77  O   UNL A   1      33.701  36.213  28.727  1.00  0.00    -0.237 OA
ATOM     78  O   UNL A   1      32.430  34.156  28.248  1.00  0.00    -0.744 OA
ENDBRANCH  74  75
ENDBRANCH  46  69
BRANCH  58  79
ATOM     79  C   UNL A   1      43.515  35.189  31.212  1.00  0.00    -0.014 A 
ATOM     80  C   UNL A   1      43.474  35.560  32.569  1.00  0.00     0.010 A 
ATOM     81  C   UNL A   1      43.850  36.153  30.246  1.00  0.00     0.010 A 
ATOM     82  C   UNL A   1      43.708  36.883  32.950  1.00  0.00     0.020 A 
ATOM     83  C   UNL A   1      44.114  37.472  30.626  1.00  0.00     0.020 A 
ATOM     84  C   UNL A   1      44.011  37.834  31.972  1.00  0.00     0.054 A 
BRANCH  84  85
ATOM     85  S   UNL A   1      44.245  39.561  32.475  1.00  0.00     0.124 S 
ATOM     86  O   UNL A   1      45.252  39.440  33.526  1.00  0.00    -0.237 OA
ATOM     87  O   UNL A   1      44.697  40.196  31.240  1.00  0.00    -0.237 OA
ATOM     88  O   UNL A   1      42.917  39.970  32.927  1.00  0.00    -0.744 OA
ENDBRANCH  84  85
ENDBRANCH  58  79
ENDBRANCH  32  33
ENDBRANCH  25  27
ENDBRANCH  24  25
ENDBRANCH   1  24
TORSDOF 17
ENDMDL
