MODEL 1
REMARK VINA RESULT:     -10.9      0.000      0.000
REMARK SMILES Cc1c(Br)c(C)c2c(c1Br)O[C@H](C(F)(F)F)C(C(=O)OCCOC(=O)c1ccc(-c3c4nc(c(-c5ccc(S(=O)(=O)[O-])cc5)c5ccc([nH]5)c(-c5ccc(S(=O)(=O)[O-])cc5)c5nc(c(-c6ccc(S(=O)(=O)[O-])cc6)c6ccc3[nH]6)C=C5)C=C4)cc1)=C2
REMARK SMILES IDX 22 1 21 2 20 3 18 4 19 5 17 6 1 7 2 8 3 9 9 10 4 11 5 12
REMARK SMILES IDX 8 13 10 14 6 15 7 16 11 17 86 18 12 19 13 20 14 21 15 22
REMARK SMILES IDX 16 23 23 24 24 25 25 26 26 27 27 28 85 29 28 30 84 31 29 32
REMARK SMILES IDX 30 33 31 34 78 35 32 36 83 37 77 38 79 39 33 40 82 41 76 42
REMARK SMILES IDX 75 43 34 45 64 46 45 47 63 48 46 49 49 50 62 51 80 52 47 53
REMARK SMILES IDX 48 54 61 56 81 57 50 58 35 59 36 60 44 61 37 62 43 63 38 64
REMARK SMILES IDX 39 65 40 66 41 67 42 68 65 69 66 70 74 71 67 72 73 73 68 74
REMARK SMILES IDX 69 75 70 76 71 77 72 78 51 79 52 80 60 81 53 82 59 83 54 84
REMARK SMILES IDX 55 85 56 86 57 87 58 88
REMARK H PARENT 79 44 49 55
REMARK Flexibility Score: inf
ROOT
ATOM      1  C   UNL A   1      33.296  29.313  25.328  1.00  0.00     0.275 C 
ENDROOT
BRANCH   1   2
ATOM      2  C   UNL A   1      32.229  28.260  25.032  1.00  0.00     0.275 C 
BRANCH   2   3
ATOM      3  O   UNL A   1      32.786  26.927  25.048  1.00  0.00    -0.459 OA
BRANCH   3   4
ATOM      4  C   UNL A   1      32.182  26.051  25.883  1.00  0.00     0.338 C 
ATOM      5  O   UNL A   1      31.257  26.291  26.643  1.00  0.00    -0.246 OA
BRANCH   4   6
ATOM      6  C   UNL A   1      32.787  24.712  25.755  1.00  0.00     0.087 C 
ATOM      7  C   UNL A   1      36.559  19.458  24.792  1.00  0.00     0.047 C 
ATOM      8  C   UNL A   1      35.966  20.805  25.133  1.00  0.00    -0.019 A 
ATOM      9  C   UNL A   1      36.759  21.900  25.556  1.00  0.00     0.025 A 
ATOM     10  C   UNL A   1      34.567  20.988  25.043  1.00  0.00     0.064 A 
ATOM     11  Br  UNL A   1      38.654  21.671  25.753  1.00  0.00    -0.050 Br
ATOM     12  C   UNL A   1      36.175  23.161  25.841  1.00  0.00    -0.026 A 
ATOM     13  C   UNL A   1      33.970  22.228  25.325  1.00  0.00     0.142 A 
ATOM     14  Br  UNL A   1      33.429  19.536  24.514  1.00  0.00    -0.046 Br
ATOM     15  C   UNL A   1      37.002  24.343  26.307  1.00  0.00     0.046 C 
ATOM     16  C   UNL A   1      34.767  23.313  25.707  1.00  0.00     0.022 A 
ATOM     17  O   UNL A   1      32.602  22.300  25.239  1.00  0.00    -0.474 OA
ATOM     18  C   UNL A   1      34.106  24.594  25.942  1.00  0.00     0.027 C 
ATOM     19  C   UNL A   1      31.929  23.581  25.297  1.00  0.00     0.316 C 
BRANCH  19  20
ATOM     20  C   UNL A   1      31.289  23.877  23.931  1.00  0.00     0.430 C 
ATOM     21  F   UNL A   1      32.135  24.570  23.130  1.00  0.00    -0.167 F 
ATOM     22  F   UNL A   1      30.982  22.736  23.266  1.00  0.00    -0.167 F 
ATOM     23  F   UNL A   1      30.152  24.600  24.043  1.00  0.00    -0.167 F 
ENDBRANCH  19  20
ENDBRANCH   4   6
ENDBRANCH   3   4
ENDBRANCH   2   3
ENDBRANCH   1   2
BRANCH   1  24
ATOM     24  O   UNL A   1      34.015  28.976  26.527  1.00  0.00    -0.458 OA
BRANCH  24  25
ATOM     25  C   UNL A   1      34.226  30.001  27.385  1.00  0.00     0.338 C 
ATOM     26  O   UNL A   1      33.423  30.844  27.746  1.00  0.00    -0.246 OA
BRANCH  25  27
ATOM     27  C   UNL A   1      35.592  29.921  27.923  1.00  0.00     0.060 A 
ATOM     28  C   UNL A   1      36.653  30.154  27.058  1.00  0.00     0.016 A 
ATOM     29  C   UNL A   1      35.837  29.460  29.214  1.00  0.00     0.016 A 
ATOM     30  C   UNL A   1      37.942  29.791  27.423  1.00  0.00     0.010 A 
ATOM     31  C   UNL A   1      37.160  29.238  29.629  1.00  0.00     0.010 A 
ATOM     32  C   UNL A   1      38.230  29.355  28.724  1.00  0.00    -0.014 A 
BRANCH  32  33
ATOM     33  C   UNL A   1      39.639  29.016  29.096  1.00  0.00     0.031 A 
ATOM     34  C   UNL A   1      40.468  29.959  29.940  1.00  0.00     0.074 A 
ATOM     35  C   UNL A   1      40.168  27.826  28.731  1.00  0.00     0.049 A 
ATOM     36  N   UNL A   1      41.734  29.876  30.265  1.00  0.00    -0.248 NA
ATOM     37  C   UNL A   1      39.795  31.154  30.478  1.00  0.00     0.031 C 
ATOM     38  C   UNL A   1      39.475  26.790  27.957  1.00  0.00     0.029 A 
ATOM     39  N   UNL A   1      41.394  27.262  28.992  1.00  0.00    -0.354 N 
ATOM     40  C   UNL A   1      42.021  31.027  30.991  1.00  0.00     0.074 A 
ATOM     41  C   UNL A   1      40.802  31.801  31.051  1.00  0.00     0.031 C 
ATOM     42  C   UNL A   1      40.238  25.691  27.898  1.00  0.00     0.029 A 
ATOM     43  C   UNL A   1      41.528  25.979  28.511  1.00  0.00     0.049 A 
ATOM     44  H   UNL A   1      42.110  27.732  29.479  1.00  0.00     0.167 HD
ATOM     45  C   UNL A   1      43.193  31.405  31.559  1.00  0.00     0.031 A 
ATOM     46  C   UNL A   1      42.576  25.131  28.517  1.00  0.00     0.031 A 
ATOM     47  C   UNL A   1      44.394  30.611  31.535  1.00  0.00     0.049 A 
ATOM     48  C   UNL A   1      43.877  25.593  29.104  1.00  0.00     0.074 A 
ATOM     49  C   UNL A   1      45.634  30.913  32.072  1.00  0.00     0.029 A 
ATOM     50  N   UNL A   1      44.502  29.350  30.968  1.00  0.00    -0.354 N 
ATOM     51  N   UNL A   1      44.147  26.722  29.714  1.00  0.00    -0.248 NA
ATOM     52  C   UNL A   1      45.023  24.682  28.981  1.00  0.00     0.031 C 
ATOM     53  C   UNL A   1      46.503  29.855  31.788  1.00  0.00     0.029 A 
ATOM     54  C   UNL A   1      45.789  28.867  31.130  1.00  0.00     0.049 A 
ATOM     55  H   UNL A   1      43.771  28.869  30.517  1.00  0.00     0.167 HD
ATOM     56  C   UNL A   1      45.492  26.654  30.055  1.00  0.00     0.074 A 
ATOM     57  C   UNL A   1      45.975  25.365  29.602  1.00  0.00     0.031 C 
ATOM     58  C   UNL A   1      46.256  27.581  30.679  1.00  0.00     0.031 A 
BRANCH  45  59
ATOM     59  C   UNL A   1      43.254  32.754  32.231  1.00  0.00    -0.014 A 
ATOM     60  C   UNL A   1      43.577  33.919  31.514  1.00  0.00     0.010 A 
ATOM     61  C   UNL A   1      42.915  32.865  33.593  1.00  0.00     0.010 A 
ATOM     62  C   UNL A   1      43.590  35.164  32.152  1.00  0.00     0.020 A 
ATOM     63  C   UNL A   1      42.898  34.111  34.230  1.00  0.00     0.020 A 
ATOM     64  C   UNL A   1      43.250  35.251  33.506  1.00  0.00     0.054 A 
BRANCH  64  65
ATOM     65  S   UNL A   1      43.244  36.884  34.298  1.00  0.00     0.124 S 
ATOM     66  O   UNL A   1      43.373  37.776  33.149  1.00  0.00    -0.237 OA
ATOM     67  O   UNL A   1      41.948  36.909  34.969  1.00  0.00    -0.237 OA
ATOM     68  O   UNL A   1      44.403  36.845  35.186  1.00  0.00    -0.744 OA
ENDBRANCH  64  65
ENDBRANCH  45  59
BRANCH  46  69
ATOM     69  C   UNL A   1      42.440  23.777  27.907  1.00  0.00    -0.014 A 
ATOM     70  C   UNL A   1      42.699  23.580  26.540  1.00  0.00     0.010 A 
ATOM     71  C   UNL A   1      42.091  22.669  28.702  1.00  0.00     0.010 A 
ATOM     72  C   UNL A   1      42.615  22.301  25.981  1.00  0.00     0.020 A 
ATOM     73  C   UNL A   1      42.040  21.384  28.154  1.00  0.00     0.020 A 
ATOM     74  C   UNL A   1      42.295  21.209  26.794  1.00  0.00     0.054 A 
BRANCH  74  75
ATOM     75  S   UNL A   1      42.265  19.549  26.062  1.00  0.00     0.124 S 
ATOM     76  O   UNL A   1      43.189  19.695  24.942  1.00  0.00    -0.237 OA
ATOM     77  O   UNL A   1      42.730  18.711  27.163  1.00  0.00    -0.237 OA
ATOM     78  O   UNL A   1      40.862  19.362  25.695  1.00  0.00    -0.744 OA
ENDBRANCH  74  75
ENDBRANCH  46  69
BRANCH  58  79
ATOM     79  C   UNL A   1      47.695  27.233  30.946  1.00  0.00    -0.014 A 
ATOM     80  C   UNL A   1      48.063  26.507  32.092  1.00  0.00     0.010 A 
ATOM     81  C   UNL A   1      48.675  27.560  29.992  1.00  0.00     0.010 A 
ATOM     82  C   UNL A   1      49.393  26.122  32.283  1.00  0.00     0.020 A 
ATOM     83  C   UNL A   1      50.000  27.155  30.167  1.00  0.00     0.020 A 
ATOM     84  C   UNL A   1      50.351  26.442  31.316  1.00  0.00     0.054 A 
BRANCH  84  85
ATOM     85  S   UNL A   1      52.054  25.863  31.554  1.00  0.00     0.124 S 
ATOM     86  O   UNL A   1      51.847  24.493  32.017  1.00  0.00    -0.237 OA
ATOM     87  O   UNL A   1      52.624  25.995  30.216  1.00  0.00    -0.237 OA
ATOM     88  O   UNL A   1      52.598  26.782  32.551  1.00  0.00    -0.744 OA
ENDBRANCH  84  85
ENDBRANCH  58  79
ENDBRANCH  32  33
ENDBRANCH  25  27
ENDBRANCH  24  25
ENDBRANCH   1  24
TORSDOF 15
ENDMDL
MODEL 2
REMARK VINA RESULT:     -10.7      2.674      8.446
REMARK SMILES Cc1c(Br)c(C)c2c(c1Br)O[C@H](C(F)(F)F)C(C(=O)OCCOC(=O)c1ccc(-c3c4nc(c(-c5ccc(S(=O)(=O)[O-])cc5)c5ccc([nH]5)c(-c5ccc(S(=O)(=O)[O-])cc5)c5nc(c(-c6ccc(S(=O)(=O)[O-])cc6)c6ccc3[nH]6)C=C5)C=C4)cc1)=C2
REMARK SMILES IDX 22 1 21 2 20 3 18 4 19 5 17 6 1 7 2 8 3 9 9 10 4 11 5 12
REMARK SMILES IDX 8 13 10 14 6 15 7 16 11 17 86 18 12 19 13 20 14 21 15 22
REMARK SMILES IDX 16 23 23 24 24 25 25 26 26 27 27 28 85 29 28 30 84 31 29 32
REMARK SMILES IDX 30 33 31 34 78 35 32 36 83 37 77 38 79 39 33 40 82 41 76 42
REMARK SMILES IDX 75 43 34 45 64 46 45 47 63 48 46 49 49 50 62 51 80 52 47 53
REMARK SMILES IDX 48 54 61 56 81 57 50 58 35 59 36 60 44 61 37 62 43 63 38 64
REMARK SMILES IDX 39 65 40 66 41 67 42 68 65 69 66 70 74 71 67 72 73 73 68 74
REMARK SMILES IDX 69 75 70 76 71 77 72 78 51 79 52 80 60 81 53 82 59 83 54 84
REMARK SMILES IDX 55 85 56 86 57 87 58 88
REMARK H PARENT 79 44 49 55
REMARK Flexibility Score: inf
ROOT
ATOM      1  C   UNL A   1      32.162  29.833  26.821  1.00  0.00     0.275 C 
ENDROOT
BRANCH   1   2
ATOM      2  C   UNL A   1      31.813  28.641  25.931  1.00  0.00     0.275 C 
BRANCH   2   3
ATOM      3  O   UNL A   1      32.656  27.504  26.219  1.00  0.00    -0.459 OA
BRANCH   3   4
ATOM      4  C   UNL A   1      33.430  27.077  25.195  1.00  0.00     0.338 C 
ATOM      5  O   UNL A   1      33.983  27.776  24.361  1.00  0.00    -0.246 OA
BRANCH   4   6
ATOM      6  C   UNL A   1      33.544  25.606  25.211  1.00  0.00     0.087 C 
ATOM      7  C   UNL A   1      35.252  19.312  24.730  1.00  0.00     0.047 C 
ATOM      8  C   UNL A   1      35.176  20.809  24.922  1.00  0.00    -0.019 A 
ATOM      9  C   UNL A   1      36.325  21.609  25.137  1.00  0.00     0.025 A 
ATOM     10  C   UNL A   1      33.914  21.445  24.900  1.00  0.00     0.064 A 
ATOM     11  Br  UNL A   1      38.049  20.772  25.239  1.00  0.00    -0.050 Br
ATOM     12  C   UNL A   1      36.222  23.015  25.285  1.00  0.00    -0.026 A 
ATOM     13  C   UNL A   1      33.791  22.837  25.049  1.00  0.00     0.142 A 
ATOM     14  Br  UNL A   1      32.312  20.419  24.651  1.00  0.00    -0.046 Br
ATOM     15  C   UNL A   1      37.437  23.889  25.530  1.00  0.00     0.046 C 
ATOM     16  C   UNL A   1      34.937  23.621  25.225  1.00  0.00     0.022 A 
ATOM     17  O   UNL A   1      32.522  23.360  25.044  1.00  0.00    -0.474 OA
ATOM     18  C   UNL A   1      34.763  25.068  25.326  1.00  0.00     0.027 C 
ATOM     19  C   UNL A   1      32.317  24.791  24.970  1.00  0.00     0.316 C 
BRANCH  19  20
ATOM     20  C   UNL A   1      31.667  25.140  23.622  1.00  0.00     0.430 C 
ATOM     21  F   UNL A   1      32.597  25.268  22.644  1.00  0.00    -0.167 F 
ATOM     22  F   UNL A   1      30.815  24.168  23.213  1.00  0.00    -0.167 F 
ATOM     23  F   UNL A   1      30.968  26.296  23.672  1.00  0.00    -0.167 F 
ENDBRANCH  19  20
ENDBRANCH   4   6
ENDBRANCH   3   4
ENDBRANCH   2   3
ENDBRANCH   1   2
BRANCH   1  24
ATOM     24  O   UNL A   1      33.501  30.284  26.553  1.00  0.00    -0.458 OA
BRANCH  24  25
ATOM     25  C   UNL A   1      33.964  31.251  27.378  1.00  0.00     0.338 C 
ATOM     26  O   UNL A   1      33.381  32.261  27.737  1.00  0.00    -0.246 OA
BRANCH  25  27
ATOM     27  C   UNL A   1      35.292  30.877  27.883  1.00  0.00     0.060 A 
ATOM     28  C   UNL A   1      35.469  29.589  28.371  1.00  0.00     0.016 A 
ATOM     29  C   UNL A   1      36.305  31.822  28.032  1.00  0.00     0.016 A 
ATOM     30  C   UNL A   1      36.587  29.281  29.134  1.00  0.00     0.010 A 
ATOM     31  C   UNL A   1      37.499  31.459  28.675  1.00  0.00     0.010 A 
ATOM     32  C   UNL A   1      37.640  30.196  29.278  1.00  0.00    -0.014 A 
BRANCH  32  33
ATOM     33  C   UNL A   1      38.850  29.814  30.070  1.00  0.00     0.031 A 
ATOM     34  C   UNL A   1      39.813  28.764  29.560  1.00  0.00     0.074 A 
ATOM     35  C   UNL A   1      39.130  30.452  31.230  1.00  0.00     0.049 A 
ATOM     36  N   UNL A   1      40.849  28.236  30.163  1.00  0.00    -0.248 NA
ATOM     37  C   UNL A   1      39.578  28.231  28.208  1.00  0.00     0.031 C 
ATOM     38  C   UNL A   1      38.321  31.521  31.827  1.00  0.00     0.029 A 
ATOM     39  N   UNL A   1      40.188  30.330  32.097  1.00  0.00    -0.354 N 
ATOM     40  C   UNL A   1      41.351  27.274  29.292  1.00  0.00     0.074 A 
ATOM     41  C   UNL A   1      40.501  27.282  28.122  1.00  0.00     0.031 C 
ATOM     42  C   UNL A   1      38.960  32.022  32.892  1.00  0.00     0.029 A 
ATOM     43  C   UNL A   1      40.157  31.229  33.139  1.00  0.00     0.049 A 
ATOM     44  H   UNL A   1      40.903  29.662  31.984  1.00  0.00     0.167 HD
ATOM     45  C   UNL A   1      42.424  26.460  29.449  1.00  0.00     0.031 A 
ATOM     46  C   UNL A   1      40.969  31.386  34.204  1.00  0.00     0.031 A 
ATOM     47  C   UNL A   1      43.295  26.486  30.596  1.00  0.00     0.049 A 
ATOM     48  C   UNL A   1      42.118  30.439  34.384  1.00  0.00     0.074 A 
ATOM     49  C   UNL A   1      44.400  25.693  30.852  1.00  0.00     0.029 A 
ATOM     50  N   UNL A   1      43.177  27.364  31.663  1.00  0.00    -0.354 N 
ATOM     51  N   UNL A   1      42.524  29.481  33.585  1.00  0.00    -0.248 NA
ATOM     52  C   UNL A   1      42.902  30.570  35.619  1.00  0.00     0.031 C 
ATOM     53  C   UNL A   1      44.922  26.059  32.096  1.00  0.00     0.029 A 
ATOM     54  C   UNL A   1      44.180  27.122  32.586  1.00  0.00     0.049 A 
ATOM     55  H   UNL A   1      42.483  28.056  31.752  1.00  0.00     0.167 HD
ATOM     56  C   UNL A   1      43.618  28.902  34.217  1.00  0.00     0.074 A 
ATOM     57  C   UNL A   1      43.822  29.629  35.454  1.00  0.00     0.031 C 
ATOM     58  C   UNL A   1      44.376  27.856  33.810  1.00  0.00     0.031 A 
BRANCH  45  59
ATOM     59  C   UNL A   1      42.707  25.442  28.373  1.00  0.00    -0.014 A 
ATOM     60  C   UNL A   1      43.646  25.689  27.356  1.00  0.00     0.010 A 
ATOM     61  C   UNL A   1      42.071  24.187  28.422  1.00  0.00     0.010 A 
ATOM     62  C   UNL A   1      43.919  24.713  26.391  1.00  0.00     0.020 A 
ATOM     63  C   UNL A   1      42.361  23.197  27.476  1.00  0.00     0.020 A 
ATOM     64  C   UNL A   1      43.274  23.473  26.459  1.00  0.00     0.054 A 
BRANCH  64  65
ATOM     65  S   UNL A   1      43.674  22.217  25.212  1.00  0.00     0.124 S 
ATOM     66  O   UNL A   1      43.455  22.948  23.966  1.00  0.00    -0.237 OA
ATOM     67  O   UNL A   1      45.066  21.897  25.514  1.00  0.00    -0.237 OA
ATOM     68  O   UNL A   1      42.718  21.145  25.477  1.00  0.00    -0.744 OA
ENDBRANCH  64  65
ENDBRANCH  45  59
BRANCH  46  69
ATOM     69  C   UNL A   1      40.689  32.459  35.201  1.00  0.00    -0.014 A 
ATOM     70  C   UNL A   1      39.865  32.207  36.311  1.00  0.00     0.010 A 
ATOM     71  C   UNL A   1      41.281  33.729  35.065  1.00  0.00     0.010 A 
ATOM     72  C   UNL A   1      39.641  33.203  37.267  1.00  0.00     0.020 A 
ATOM     73  C   UNL A   1      41.088  34.715  36.037  1.00  0.00     0.020 A 
ATOM     74  C   UNL A   1      40.262  34.448  37.129  1.00  0.00     0.054 A 
BRANCH  74  75
ATOM     75  S   UNL A   1      40.017  35.698  38.421  1.00  0.00     0.124 S 
ATOM     76  O   UNL A   1      38.917  35.127  39.191  1.00  0.00    -0.237 OA
ATOM     77  O   UNL A   1      41.315  35.719  39.089  1.00  0.00    -0.237 OA
ATOM     78  O   UNL A   1      39.692  36.909  37.669  1.00  0.00    -0.744 OA
ENDBRANCH  74  75
ENDBRANCH  46  69
BRANCH  58  79
ATOM     79  C   UNL A   1      45.525  27.445  34.689  1.00  0.00    -0.014 A 
ATOM     80  C   UNL A   1      45.371  26.444  35.662  1.00  0.00     0.010 A 
ATOM     81  C   UNL A   1      46.797  28.007  34.473  1.00  0.00     0.010 A 
ATOM     82  C   UNL A   1      46.469  26.018  36.414  1.00  0.00     0.020 A 
ATOM     83  C   UNL A   1      47.902  27.566  35.205  1.00  0.00     0.020 A 
ATOM     84  C   UNL A   1      47.729  26.576  36.175  1.00  0.00     0.054 A 
BRANCH  84  85
ATOM     85  S   UNL A   1      49.149  25.949  37.112  1.00  0.00     0.124 S 
ATOM     86  O   UNL A   1      48.503  25.322  38.262  1.00  0.00    -0.237 OA
ATOM     87  O   UNL A   1      49.775  25.030  36.164  1.00  0.00    -0.237 OA
ATOM     88  O   UNL A   1      49.925  27.150  37.413  1.00  0.00    -0.744 OA
ENDBRANCH  84  85
ENDBRANCH  58  79
ENDBRANCH  32  33
ENDBRANCH  25  27
ENDBRANCH  24  25
ENDBRANCH   1  24
TORSDOF 15
ENDMDL
MODEL 3
REMARK VINA RESULT:     -10.6      3.274      4.211
REMARK SMILES Cc1c(Br)c(C)c2c(c1Br)O[C@H](C(F)(F)F)C(C(=O)OCCOC(=O)c1ccc(-c3c4nc(c(-c5ccc(S(=O)(=O)[O-])cc5)c5ccc([nH]5)c(-c5ccc(S(=O)(=O)[O-])cc5)c5nc(c(-c6ccc(S(=O)(=O)[O-])cc6)c6ccc3[nH]6)C=C5)C=C4)cc1)=C2
REMARK SMILES IDX 22 1 21 2 20 3 18 4 19 5 17 6 1 7 2 8 3 9 9 10 4 11 5 12
REMARK SMILES IDX 8 13 10 14 6 15 7 16 11 17 86 18 12 19 13 20 14 21 15 22
REMARK SMILES IDX 16 23 23 24 24 25 25 26 26 27 27 28 85 29 28 30 84 31 29 32
REMARK SMILES IDX 30 33 31 34 78 35 32 36 83 37 77 38 79 39 33 40 82 41 76 42
REMARK SMILES IDX 75 43 34 45 64 46 45 47 63 48 46 49 49 50 62 51 80 52 47 53
REMARK SMILES IDX 48 54 61 56 81 57 50 58 35 59 36 60 44 61 37 62 43 63 38 64
REMARK SMILES IDX 39 65 40 66 41 67 42 68 65 69 66 70 74 71 67 72 73 73 68 74
REMARK SMILES IDX 69 75 70 76 71 77 72 78 51 79 52 80 60 81 53 82 59 83 54 84
REMARK SMILES IDX 55 85 56 86 57 87 58 88
REMARK H PARENT 79 44 49 55
REMARK Flexibility Score: inf
ROOT
ATOM      1  C   UNL A   1      34.308  30.924  28.301  1.00  0.00     0.275 C 
ENDROOT
BRANCH   1   2
ATOM      2  C   UNL A   1      33.715  30.283  27.047  1.00  0.00     0.275 C 
BRANCH   2   3
ATOM      3  O   UNL A   1      33.926  28.854  27.035  1.00  0.00    -0.459 OA
BRANCH   3   4
ATOM      4  C   UNL A   1      33.894  28.269  25.816  1.00  0.00     0.338 C 
ATOM      5  O   UNL A   1      34.172  28.795  24.749  1.00  0.00    -0.246 OA
BRANCH   4   6
ATOM      6  C   UNL A   1      33.481  26.858  25.930  1.00  0.00     0.087 C 
ATOM      7  C   UNL A   1      32.608  20.390  25.519  1.00  0.00     0.047 C 
ATOM      8  C   UNL A   1      33.130  21.806  25.588  1.00  0.00    -0.019 A 
ATOM      9  C   UNL A   1      34.492  22.127  25.364  1.00  0.00     0.025 A 
ATOM     10  C   UNL A   1      32.238  22.857  25.900  1.00  0.00     0.064 A 
ATOM     11  Br  UNL A   1      35.744  20.719  25.003  1.00  0.00    -0.050 Br
ATOM     12  C   UNL A   1      34.945  23.470  25.407  1.00  0.00    -0.026 A 
ATOM     13  C   UNL A   1      32.669  24.193  25.952  1.00  0.00     0.142 A 
ATOM     14  Br  UNL A   1      30.388  22.491  26.253  1.00  0.00    -0.046 Br
ATOM     15  C   UNL A   1      36.399  23.835  25.183  1.00  0.00     0.046 C 
ATOM     16  C   UNL A   1      34.009  24.502  25.693  1.00  0.00     0.022 A 
ATOM     17  O   UNL A   1      31.736  25.142  26.292  1.00  0.00    -0.474 OA
ATOM     18  C   UNL A   1      34.399  25.911  25.710  1.00  0.00     0.027 C 
ATOM     19  C   UNL A   1      32.038  26.551  26.155  1.00  0.00     0.316 C 
BRANCH  19  20
ATOM     20  C   UNL A   1      31.157  27.151  25.048  1.00  0.00     0.430 C 
ATOM     21  F   UNL A   1      31.703  26.958  23.823  1.00  0.00    -0.167 F 
ATOM     22  F   UNL A   1      29.932  26.570  25.016  1.00  0.00    -0.167 F 
ATOM     23  F   UNL A   1      30.970  28.481  25.205  1.00  0.00    -0.167 F 
ENDBRANCH  19  20
ENDBRANCH   4   6
ENDBRANCH   3   4
ENDBRANCH   2   3
ENDBRANCH   1   2
BRANCH   1  24
ATOM     24  O   UNL A   1      35.731  31.075  28.163  1.00  0.00    -0.458 OA
BRANCH  24  25
ATOM     25  C   UNL A   1      36.447  30.892  29.296  1.00  0.00     0.338 C 
ATOM     26  O   UNL A   1      36.119  31.179  30.435  1.00  0.00    -0.246 OA
BRANCH  25  27
ATOM     27  C   UNL A   1      37.700  30.189  28.981  1.00  0.00     0.060 A 
ATOM     28  C   UNL A   1      38.656  30.074  29.981  1.00  0.00     0.016 A 
ATOM     29  C   UNL A   1      38.003  29.797  27.680  1.00  0.00     0.016 A 
ATOM     30  C   UNL A   1      39.956  29.708  29.661  1.00  0.00     0.010 A 
ATOM     31  C   UNL A   1      39.278  29.284  27.394  1.00  0.00     0.010 A 
ATOM     32  C   UNL A   1      40.290  29.276  28.370  1.00  0.00    -0.014 A 
BRANCH  32  33
ATOM     33  C   UNL A   1      41.692  28.845  28.072  1.00  0.00     0.031 A 
ATOM     34  C   UNL A   1      42.846  29.815  28.199  1.00  0.00     0.074 A 
ATOM     35  C   UNL A   1      41.949  27.559  27.743  1.00  0.00     0.049 A 
ATOM     36  N   UNL A   1      44.104  29.643  27.878  1.00  0.00    -0.248 NA
ATOM     37  C   UNL A   1      42.551  31.151  28.744  1.00  0.00     0.031 C 
ATOM     38  C   UNL A   1      40.945  26.495  27.627  1.00  0.00     0.029 A 
ATOM     39  N   UNL A   1      43.132  26.910  27.483  1.00  0.00    -0.354 N 
ATOM     40  C   UNL A   1      44.734  30.858  28.126  1.00  0.00     0.074 A 
ATOM     41  C   UNL A   1      43.719  31.765  28.614  1.00  0.00     0.031 C 
ATOM     42  C   UNL A   1      41.559  25.322  27.427  1.00  0.00     0.029 A 
ATOM     43  C   UNL A   1      42.987  25.559  27.266  1.00  0.00     0.049 A 
ATOM     44  H   UNL A   1      44.003  27.370  27.456  1.00  0.00     0.167 HD
ATOM     45  C   UNL A   1      46.039  31.189  27.966  1.00  0.00     0.031 A 
ATOM     46  C   UNL A   1      43.885  24.610  26.933  1.00  0.00     0.031 A 
ATOM     47  C   UNL A   1      47.056  30.271  27.522  1.00  0.00     0.049 A 
ATOM     48  C   UNL A   1      45.314  25.011  26.709  1.00  0.00     0.074 A 
ATOM     49  C   UNL A   1      48.403  30.514  27.317  1.00  0.00     0.029 A 
ATOM     50  N   UNL A   1      46.846  28.929  27.240  1.00  0.00    -0.354 N 
ATOM     51  N   UNL A   1      45.870  26.188  26.870  1.00  0.00    -0.248 NA
ATOM     52  C   UNL A   1      46.230  23.968  26.230  1.00  0.00     0.031 C 
ATOM     53  C   UNL A   1      48.998  29.332  26.866  1.00  0.00     0.029 A 
ATOM     54  C   UNL A   1      48.034  28.337  26.849  1.00  0.00     0.049 A 
ATOM     55  H   UNL A   1      45.979  28.466  27.307  1.00  0.00     0.167 HD
ATOM     56  C   UNL A   1      47.205  26.024  26.522  1.00  0.00     0.074 A 
ATOM     57  C   UNL A   1      47.377  24.631  26.161  1.00  0.00     0.031 C 
ATOM     58  C   UNL A   1      48.193  26.949  26.497  1.00  0.00     0.031 A 
BRANCH  45  59
ATOM     59  C   UNL A   1      46.450  32.615  28.238  1.00  0.00    -0.014 A 
ATOM     60  C   UNL A   1      47.051  32.987  29.453  1.00  0.00     0.010 A 
ATOM     61  C   UNL A   1      46.292  33.585  27.230  1.00  0.00     0.010 A 
ATOM     62  C   UNL A   1      47.457  34.309  29.667  1.00  0.00     0.020 A 
ATOM     63  C   UNL A   1      46.722  34.902  27.428  1.00  0.00     0.020 A 
ATOM     64  C   UNL A   1      47.291  35.257  28.652  1.00  0.00     0.054 A 
BRANCH  64  65
ATOM     65  S   UNL A   1      47.857  36.956  28.947  1.00  0.00     0.124 S 
ATOM     66  O   UNL A   1      49.038  36.739  29.779  1.00  0.00    -0.237 OA
ATOM     67  O   UNL A   1      48.122  37.444  27.597  1.00  0.00    -0.237 OA
ATOM     68  O   UNL A   1      46.729  37.587  29.626  1.00  0.00    -0.744 OA
ENDBRANCH  64  65
ENDBRANCH  45  59
BRANCH  46  69
ATOM     69  C   UNL A   1      43.442  23.198  26.750  1.00  0.00    -0.014 A 
ATOM     70  C   UNL A   1      43.337  22.642  25.463  1.00  0.00     0.010 A 
ATOM     71  C   UNL A   1      43.161  22.389  27.868  1.00  0.00     0.010 A 
ATOM     72  C   UNL A   1      42.964  21.304  25.299  1.00  0.00     0.020 A 
ATOM     73  C   UNL A   1      42.822  21.042  27.708  1.00  0.00     0.020 A 
ATOM     74  C   UNL A   1      42.718  20.510  26.423  1.00  0.00     0.054 A 
BRANCH  74  75
ATOM     75  S   UNL A   1      42.309  18.758  26.187  1.00  0.00     0.124 S 
ATOM     76  O   UNL A   1      42.550  18.209  27.517  1.00  0.00    -0.237 OA
ATOM     77  O   UNL A   1      40.911  18.815  25.769  1.00  0.00    -0.237 OA
ATOM     78  O   UNL A   1      43.244  18.324  25.151  1.00  0.00    -0.744 OA
ENDBRANCH  74  75
ENDBRANCH  46  69
BRANCH  58  79
ATOM     79  C   UNL A   1      49.568  26.488  26.097  1.00  0.00    -0.014 A 
ATOM     80  C   UNL A   1      50.047  26.689  24.791  1.00  0.00     0.010 A 
ATOM     81  C   UNL A   1      50.421  25.929  27.066  1.00  0.00     0.010 A 
ATOM     82  C   UNL A   1      51.356  26.329  24.459  1.00  0.00     0.020 A 
ATOM     83  C   UNL A   1      51.737  25.591  26.744  1.00  0.00     0.020 A 
ATOM     84  C   UNL A   1      52.195  25.789  25.439  1.00  0.00     0.054 A 
BRANCH  84  85
ATOM     85  S   UNL A   1      53.911  25.402  24.998  1.00  0.00     0.124 S 
ATOM     86  O   UNL A   1      54.655  26.046  26.076  1.00  0.00    -0.237 OA
ATOM     87  O   UNL A   1      53.921  23.941  25.012  1.00  0.00    -0.237 OA
ATOM     88  O   UNL A   1      54.076  26.009  23.679  1.00  0.00    -0.744 OA
ENDBRANCH  84  85
ENDBRANCH  58  79
ENDBRANCH  32  33
ENDBRANCH  25  27
ENDBRANCH  24  25
ENDBRANCH   1  24
TORSDOF 15
ENDMDL
