MODEL 1
REMARK VINA RESULT:     -10.7      0.000      0.000
REMARK SMILES CCC[C@]1(C(=O)OCCOC(=O)c2ccc(-c3c4nc(c(-c5ccc(S(=O)(=O)[O-])cc5)c5ccc([nH]5)c(-c5ccc(S(=O)(=O)[O-])cc5)c5nc(c(-c6ccc(S(=O)(=O)[O-])cc6)c6ccc3[nH]6)C=C5)C=C4)cc2)CCCN(C(=O)c2ccc(NS(=O)(=O)CC)cc2)C1
REMARK SMILES IDX 8 1 7 2 5 3 6 4 4 5 73 6 91 7 74 8 76 9 75 10 3 11 2 12 1 13
REMARK SMILES IDX 77 14 78 15 79 16 80 17 90 18 81 19 89 20 82 21 83 22 84 24
REMARK SMILES IDX 85 25 86 26 87 27 88 28 9 29 10 30 11 31 12 32 13 33 14 34
REMARK SMILES IDX 72 35 15 36 71 37 16 38 17 39 18 40 65 41 19 42 70 43 64 44
REMARK SMILES IDX 66 45 20 46 69 47 63 48 62 49 21 51 51 52 32 53 50 54 33 55
REMARK SMILES IDX 36 56 49 57 67 58 34 59 35 60 48 62 68 63 37 64 22 65 23 66
REMARK SMILES IDX 31 67 24 68 30 69 25 70 26 71 27 72 28 73 29 74 52 75 53 76
REMARK SMILES IDX 61 77 54 78 60 79 55 80 56 81 57 82 58 83 59 84 38 85 39 86
REMARK SMILES IDX 47 87 40 88 46 89 41 90 42 91 43 92 44 93 45 94
REMARK H PARENT 83 23 66 50 36 61
REMARK Flexibility Score: inf
ROOT
ATOM      1  C   UNL A   1      33.135  29.808  26.015  1.00  0.00     0.274 C 
ENDROOT
BRANCH   1   2
ATOM      2  O   UNL A   1      31.911  29.094  25.739  1.00  0.00    -0.462 OA
BRANCH   2   3
ATOM      3  C   UNL A   1      31.880  28.447  24.547  1.00  0.00     0.314 C 
ATOM      4  O   UNL A   1      32.095  29.000  23.472  1.00  0.00    -0.252 OA
BRANCH   3   5
ATOM      5  C   UNL A   1      31.537  26.943  24.641  1.00  0.00     0.086 C 
ATOM      6  C   UNL A   1      30.038  26.630  24.487  1.00  0.00     0.022 C 
ATOM      7  C   UNL A   1      32.295  26.382  23.428  1.00  0.00     0.138 C 
ATOM      8  C   UNL A   1      29.747  25.160  24.162  1.00  0.00     0.023 C 
ATOM      9  N   UNL A   1      32.032  24.979  23.170  1.00  0.00    -0.338 N 
ATOM     10  C   UNL A   1      30.632  24.583  23.061  1.00  0.00     0.120 C 
BRANCH   5  11
ATOM     11  C   UNL A   1      32.117  26.524  26.026  1.00  0.00     0.020 C 
BRANCH  11  12
ATOM     12  C   UNL A   1      31.929  25.160  26.692  1.00  0.00    -0.002 C 
ATOM     13  C   UNL A   1      33.100  24.212  26.573  1.00  0.00     0.004 C 
ENDBRANCH  11  12
ENDBRANCH   5  11
BRANCH   9  14
ATOM     14  C   UNL A   1      33.108  24.222  22.721  1.00  0.00     0.253 C 
ATOM     15  O   UNL A   1      34.083  24.691  22.137  1.00  0.00    -0.269 OA
BRANCH  14  16
ATOM     16  C   UNL A   1      33.194  22.807  23.098  1.00  0.00     0.040 A 
ATOM     17  C   UNL A   1      32.319  21.944  22.443  1.00  0.00     0.016 A 
ATOM     18  C   UNL A   1      33.960  22.358  24.169  1.00  0.00     0.016 A 
ATOM     19  C   UNL A   1      32.223  20.615  22.832  1.00  0.00     0.027 A 
ATOM     20  C   UNL A   1      33.821  21.028  24.589  1.00  0.00     0.027 A 
ATOM     21  C   UNL A   1      32.946  20.150  23.928  1.00  0.00     0.049 A 
BRANCH  21  22
ATOM     22  N   UNL A   1      32.617  18.919  24.569  1.00  0.00    -0.284 N 
ATOM     23  H   UNL A   1      31.848  18.903  25.183  1.00  0.00     0.180 HD
BRANCH  22  24
ATOM     24  S   UNL A   1      33.470  17.501  24.335  1.00  0.00     0.232 S 
ATOM     25  O   UNL A   1      32.995  16.879  23.120  1.00  0.00    -0.207 OA
ATOM     26  O   UNL A   1      34.860  17.900  24.457  1.00  0.00    -0.207 OA
BRANCH  24  27
ATOM     27  C   UNL A   1      33.096  16.433  25.731  1.00  0.00     0.156 C 
ATOM     28  C   UNL A   1      32.705  15.014  25.372  1.00  0.00     0.023 C 
ENDBRANCH  24  27
ENDBRANCH  22  24
ENDBRANCH  21  22
ENDBRANCH  14  16
ENDBRANCH   9  14
ENDBRANCH   3   5
ENDBRANCH   2   3
ENDBRANCH   1   2
BRANCH   1  29
ATOM     29  C   UNL A   1      33.084  30.519  27.364  1.00  0.00     0.275 C 
BRANCH  29  30
ATOM     30  O   UNL A   1      34.187  31.432  27.514  1.00  0.00    -0.458 OA
BRANCH  30  31
ATOM     31  C   UNL A   1      34.815  31.371  28.710  1.00  0.00     0.338 C 
ATOM     32  O   UNL A   1      34.478  31.931  29.742  1.00  0.00    -0.246 OA
BRANCH  31  33
ATOM     33  C   UNL A   1      35.994  30.487  28.662  1.00  0.00     0.060 A 
ATOM     34  C   UNL A   1      36.448  29.888  29.832  1.00  0.00     0.016 A 
ATOM     35  C   UNL A   1      36.799  30.486  27.524  1.00  0.00     0.016 A 
ATOM     36  C   UNL A   1      37.785  29.500  29.927  1.00  0.00     0.010 A 
ATOM     37  C   UNL A   1      38.085  29.937  27.582  1.00  0.00     0.010 A 
ATOM     38  C   UNL A   1      38.634  29.518  28.808  1.00  0.00    -0.014 A 
BRANCH  38  39
ATOM     39  C   UNL A   1      40.091  29.180  28.931  1.00  0.00     0.031 A 
ATOM     40  C   UNL A   1      41.073  30.194  29.487  1.00  0.00     0.074 A 
ATOM     41  C   UNL A   1      40.557  27.962  28.581  1.00  0.00     0.049 A 
ATOM     42  N   UNL A   1      42.384  30.165  29.483  1.00  0.00    -0.248 NA
ATOM     43  C   UNL A   1      40.513  31.406  30.106  1.00  0.00     0.031 C 
ATOM     44  C   UNL A   1      39.749  26.851  28.068  1.00  0.00     0.029 A 
ATOM     45  N   UNL A   1      41.829  27.442  28.627  1.00  0.00    -0.354 N 
ATOM     46  C   UNL A   1      42.799  31.386  30.010  1.00  0.00     0.074 A 
ATOM     47  C   UNL A   1      41.601  32.130  30.332  1.00  0.00     0.031 C 
ATOM     48  C   UNL A   1      40.525  25.768  27.925  1.00  0.00     0.029 A 
ATOM     49  C   UNL A   1      41.905  26.130  28.223  1.00  0.00     0.049 A 
ATOM     50  H   UNL A   1      42.612  27.962  28.922  1.00  0.00     0.167 HD
ATOM     51  C   UNL A   1      44.058  31.851  30.205  1.00  0.00     0.031 A 
ATOM     52  C   UNL A   1      42.963  25.310  28.062  1.00  0.00     0.031 A 
ATOM     53  C   UNL A   1      45.254  31.083  29.968  1.00  0.00     0.049 A 
ATOM     54  C   UNL A   1      44.347  25.833  28.309  1.00  0.00     0.074 A 
ATOM     55  C   UNL A   1      46.574  31.467  30.141  1.00  0.00     0.029 A 
ATOM     56  N   UNL A   1      45.277  29.764  29.544  1.00  0.00    -0.354 N 
ATOM     57  N   UNL A   1      44.717  27.027  28.705  1.00  0.00    -0.248 NA
ATOM     58  C   UNL A   1      45.458  24.902  28.066  1.00  0.00     0.031 C 
ATOM     59  C   UNL A   1      47.395  30.386  29.799  1.00  0.00     0.029 A 
ATOM     60  C   UNL A   1      46.585  29.318  29.454  1.00  0.00     0.049 A 
ATOM     61  H   UNL A   1      44.479  29.225  29.337  1.00  0.00     0.167 HD
ATOM     62  C   UNL A   1      46.105  26.990  28.758  1.00  0.00     0.074 A 
ATOM     63  C   UNL A   1      46.506  25.648  28.385  1.00  0.00     0.031 C 
ATOM     64  C   UNL A   1      46.972  27.983  29.077  1.00  0.00     0.031 A 
BRANCH  51  65
ATOM     65  C   UNL A   1      44.214  33.280  30.661  1.00  0.00    -0.014 A 
ATOM     66  C   UNL A   1      44.319  34.344  29.749  1.00  0.00     0.010 A 
ATOM     67  C   UNL A   1      44.217  33.562  32.042  1.00  0.00     0.010 A 
ATOM     68  C   UNL A   1      44.472  35.657  30.208  1.00  0.00     0.020 A 
ATOM     69  C   UNL A   1      44.343  34.875  32.504  1.00  0.00     0.020 A 
ATOM     70  C   UNL A   1      44.491  35.913  31.584  1.00  0.00     0.054 A 
BRANCH  70  71
ATOM     71  S   UNL A   1      44.681  37.624  32.157  1.00  0.00     0.124 S 
ATOM     72  O   UNL A   1      46.134  37.758  32.229  1.00  0.00    -0.237 OA
ATOM     73  O   UNL A   1      44.032  38.395  31.100  1.00  0.00    -0.237 OA
ATOM     74  O   UNL A   1      43.990  37.637  33.445  1.00  0.00    -0.744 OA
ENDBRANCH  70  71
ENDBRANCH  51  65
BRANCH  52  75
ATOM     75  C   UNL A   1      42.748  23.913  27.594  1.00  0.00    -0.014 A 
ATOM     76  C   UNL A   1      42.565  22.870  28.519  1.00  0.00     0.010 A 
ATOM     77  C   UNL A   1      42.696  23.626  26.217  1.00  0.00     0.010 A 
ATOM     78  C   UNL A   1      42.339  21.564  28.075  1.00  0.00     0.020 A 
ATOM     79  C   UNL A   1      42.440  22.328  25.771  1.00  0.00     0.020 A 
ATOM     80  C   UNL A   1      42.273  21.302  26.703  1.00  0.00     0.054 A 
BRANCH  80  81
ATOM     81  S   UNL A   1      41.901  19.617  26.144  1.00  0.00     0.124 S 
ATOM     82  O   UNL A   1      42.770  19.486  24.979  1.00  0.00    -0.237 OA
ATOM     83  O   UNL A   1      42.269  18.806  27.301  1.00  0.00    -0.237 OA
ATOM     84  O   UNL A   1      40.469  19.664  25.857  1.00  0.00    -0.744 OA
ENDBRANCH  80  81
ENDBRANCH  52  75
BRANCH  64  85
ATOM     85  C   UNL A   1      48.435  27.640  29.062  1.00  0.00    -0.014 A 
ATOM     86  C   UNL A   1      49.082  27.170  30.219  1.00  0.00     0.010 A 
ATOM     87  C   UNL A   1      49.171  27.787  27.873  1.00  0.00     0.010 A 
ATOM     88  C   UNL A   1      50.453  26.899  30.198  1.00  0.00     0.020 A 
ATOM     89  C   UNL A   1      50.536  27.496  27.843  1.00  0.00     0.020 A 
ATOM     90  C   UNL A   1      51.174  27.074  29.013  1.00  0.00     0.054 A 
BRANCH  90  91
ATOM     91  S   UNL A   1      52.952  26.714  29.004  1.00  0.00     0.124 S 
ATOM     92  O   UNL A   1      53.094  25.922  27.786  1.00  0.00    -0.237 OA
ATOM     93  O   UNL A   1      53.553  28.044  28.963  1.00  0.00    -0.237 OA
ATOM     94  O   UNL A   1      53.160  25.983  30.252  1.00  0.00    -0.744 OA
ENDBRANCH  90  91
ENDBRANCH  64  85
ENDBRANCH  38  39
ENDBRANCH  31  33
ENDBRANCH  30  31
ENDBRANCH  29  30
ENDBRANCH   1  29
TORSDOF 21
ENDMDL
MODEL 2
REMARK VINA RESULT:     -10.5      2.434      8.612
REMARK SMILES CCC[C@]1(C(=O)OCCOC(=O)c2ccc(-c3c4nc(c(-c5ccc(S(=O)(=O)[O-])cc5)c5ccc([nH]5)c(-c5ccc(S(=O)(=O)[O-])cc5)c5nc(c(-c6ccc(S(=O)(=O)[O-])cc6)c6ccc3[nH]6)C=C5)C=C4)cc2)CCCN(C(=O)c2ccc(NS(=O)(=O)CC)cc2)C1
REMARK SMILES IDX 8 1 7 2 5 3 6 4 4 5 73 6 91 7 74 8 76 9 75 10 3 11 2 12 1 13
REMARK SMILES IDX 77 14 78 15 79 16 80 17 90 18 81 19 89 20 82 21 83 22 84 24
REMARK SMILES IDX 85 25 86 26 87 27 88 28 9 29 10 30 11 31 12 32 13 33 14 34
REMARK SMILES IDX 72 35 15 36 71 37 16 38 17 39 18 40 65 41 19 42 70 43 64 44
REMARK SMILES IDX 66 45 20 46 69 47 63 48 62 49 21 51 51 52 32 53 50 54 33 55
REMARK SMILES IDX 36 56 49 57 67 58 34 59 35 60 48 62 68 63 37 64 22 65 23 66
REMARK SMILES IDX 31 67 24 68 30 69 25 70 26 71 27 72 28 73 29 74 52 75 53 76
REMARK SMILES IDX 61 77 54 78 60 79 55 80 56 81 57 82 58 83 59 84 38 85 39 86
REMARK SMILES IDX 47 87 40 88 46 89 41 90 42 91 43 92 44 93 45 94
REMARK H PARENT 83 23 66 50 36 61
REMARK Flexibility Score: inf
ROOT
ATOM      1  C   UNL A   1      34.450  29.984  26.844  1.00  0.00     0.274 C 
ENDROOT
BRANCH   1   2
ATOM      2  O   UNL A   1      33.223  29.238  26.995  1.00  0.00    -0.462 OA
BRANCH   2   3
ATOM      3  C   UNL A   1      32.369  29.320  25.944  1.00  0.00     0.314 C 
ATOM      4  O   UNL A   1      31.679  30.308  25.709  1.00  0.00    -0.252 OA
BRANCH   3   5
ATOM      5  C   UNL A   1      32.317  28.054  25.060  1.00  0.00     0.086 C 
ATOM      6  C   UNL A   1      33.488  27.931  24.069  1.00  0.00     0.022 C 
ATOM      7  C   UNL A   1      32.432  26.942  26.114  1.00  0.00     0.138 C 
ATOM      8  C   UNL A   1      33.671  26.517  23.505  1.00  0.00     0.023 C 
ATOM      9  N   UNL A   1      32.561  25.611  25.551  1.00  0.00    -0.338 N 
ATOM     10  C   UNL A   1      33.616  25.417  24.562  1.00  0.00     0.120 C 
BRANCH   5  11
ATOM     11  C   UNL A   1      30.926  28.153  24.363  1.00  0.00     0.020 C 
BRANCH  11  12
ATOM     12  C   UNL A   1      30.690  28.523  22.898  1.00  0.00    -0.002 C 
ATOM     13  C   UNL A   1      29.768  29.698  22.665  1.00  0.00     0.004 C 
ENDBRANCH  11  12
ENDBRANCH   5  11
BRANCH   9  14
ATOM     14  C   UNL A   1      31.916  24.587  26.235  1.00  0.00     0.253 C 
ATOM     15  O   UNL A   1      30.844  24.719  26.821  1.00  0.00    -0.269 OA
BRANCH  14  16
ATOM     16  C   UNL A   1      32.434  23.219  26.128  1.00  0.00     0.040 A 
ATOM     17  C   UNL A   1      31.723  22.357  25.295  1.00  0.00     0.016 A 
ATOM     18  C   UNL A   1      33.457  22.735  26.938  1.00  0.00     0.016 A 
ATOM     19  C   UNL A   1      32.047  21.008  25.241  1.00  0.00     0.027 A 
ATOM     20  C   UNL A   1      33.746  21.364  26.914  1.00  0.00     0.027 A 
ATOM     21  C   UNL A   1      33.038  20.491  26.072  1.00  0.00     0.049 A 
BRANCH  21  22
ATOM     22  N   UNL A   1      33.156  19.088  26.303  1.00  0.00    -0.284 N 
ATOM     23  H   UNL A   1      32.995  18.750  27.213  1.00  0.00     0.180 HD
BRANCH  22  24
ATOM     24  S   UNL A   1      33.557  17.988  25.112  1.00  0.00     0.232 S 
ATOM     25  O   UNL A   1      34.703  18.494  24.391  1.00  0.00    -0.207 OA
ATOM     26  O   UNL A   1      33.636  16.720  25.813  1.00  0.00    -0.207 OA
BRANCH  24  27
ATOM     27  C   UNL A   1      32.151  17.894  23.997  1.00  0.00     0.156 C 
ATOM     28  C   UNL A   1      32.413  18.379  22.585  1.00  0.00     0.023 C 
ENDBRANCH  24  27
ENDBRANCH  22  24
ENDBRANCH  21  22
ENDBRANCH  14  16
ENDBRANCH   9  14
ENDBRANCH   3   5
ENDBRANCH   2   3
ENDBRANCH   1   2
BRANCH   1  29
ATOM     29  C   UNL A   1      35.059  30.351  28.195  1.00  0.00     0.275 C 
BRANCH  29  30
ATOM     30  O   UNL A   1      36.498  30.307  28.146  1.00  0.00    -0.458 OA
BRANCH  30  31
ATOM     31  C   UNL A   1      37.073  29.531  29.093  1.00  0.00     0.338 C 
ATOM     32  O   UNL A   1      36.630  29.283  30.204  1.00  0.00    -0.246 OA
BRANCH  31  33
ATOM     33  C   UNL A   1      38.343  28.948  28.621  1.00  0.00     0.060 A 
ATOM     34  C   UNL A   1      39.210  28.365  29.539  1.00  0.00     0.016 A 
ATOM     35  C   UNL A   1      38.787  29.234  27.331  1.00  0.00     0.016 A 
ATOM     36  C   UNL A   1      40.571  28.286  29.240  1.00  0.00     0.010 A 
ATOM     37  C   UNL A   1      40.122  28.991  26.986  1.00  0.00     0.010 A 
ATOM     38  C   UNL A   1      41.058  28.599  27.960  1.00  0.00    -0.014 A 
BRANCH  38  39
ATOM     39  C   UNL A   1      42.529  28.593  27.665  1.00  0.00     0.031 A 
ATOM     40  C   UNL A   1      43.182  27.387  27.016  1.00  0.00     0.074 A 
ATOM     41  C   UNL A   1      43.299  29.668  27.939  1.00  0.00     0.049 A 
ATOM     42  N   UNL A   1      44.456  27.113  26.870  1.00  0.00    -0.248 NA
ATOM     43  C   UNL A   1      42.290  26.343  26.485  1.00  0.00     0.031 C 
ATOM     44  C   UNL A   1      42.833  30.929  28.523  1.00  0.00     0.029 A 
ATOM     45  N   UNL A   1      44.643  29.882  27.740  1.00  0.00    -0.354 N 
ATOM     46  C   UNL A   1      44.515  25.835  26.318  1.00  0.00     0.074 A 
ATOM     47  C   UNL A   1      43.150  25.391  26.148  1.00  0.00     0.031 C 
ATOM     48  C   UNL A   1      43.849  31.804  28.559  1.00  0.00     0.029 A 
ATOM     49  C   UNL A   1      45.065  31.137  28.111  1.00  0.00     0.049 A 
ATOM     50  H   UNL A   1      45.247  29.199  27.366  1.00  0.00     0.167 HD
ATOM     51  C   UNL A   1      45.604  25.095  25.988  1.00  0.00     0.031 A 
ATOM     52  C   UNL A   1      46.293  31.690  28.136  1.00  0.00     0.031 A 
ATOM     53  C   UNL A   1      46.963  25.565  26.074  1.00  0.00     0.049 A 
ATOM     54  C   UNL A   1      47.483  30.865  27.741  1.00  0.00     0.074 A 
ATOM     55  C   UNL A   1      48.130  24.890  25.757  1.00  0.00     0.029 A 
ATOM     56  N   UNL A   1      47.336  26.839  26.471  1.00  0.00    -0.354 N 
ATOM     57  N   UNL A   1      47.521  29.623  27.324  1.00  0.00    -0.248 NA
ATOM     58  C   UNL A   1      48.798  31.513  27.840  1.00  0.00     0.031 C 
ATOM     59  C   UNL A   1      49.211  25.750  25.985  1.00  0.00     0.029 A 
ATOM     60  C   UNL A   1      48.713  26.972  26.403  1.00  0.00     0.049 A 
ATOM     61  H   UNL A   1      46.713  27.545  26.759  1.00  0.00     0.167 HD
ATOM     62  C   UNL A   1      48.865  29.340  27.112  1.00  0.00     0.074 A 
ATOM     63  C   UNL A   1      49.603  30.550  27.415  1.00  0.00     0.031 C 
ATOM     64  C   UNL A   1      49.437  28.178  26.712  1.00  0.00     0.031 A 
BRANCH  51  65
ATOM     65  C   UNL A   1      45.373  23.674  25.540  1.00  0.00    -0.014 A 
ATOM     66  C   UNL A   1      45.253  22.616  26.457  1.00  0.00     0.010 A 
ATOM     67  C   UNL A   1      45.237  23.402  24.164  1.00  0.00     0.010 A 
ATOM     68  C   UNL A   1      45.050  21.307  26.006  1.00  0.00     0.020 A 
ATOM     69  C   UNL A   1      45.007  22.101  23.711  1.00  0.00     0.020 A 
ATOM     70  C   UNL A   1      44.936  21.057  24.634  1.00  0.00     0.054 A 
BRANCH  70  71
ATOM     71  S   UNL A   1      44.662  19.354  24.070  1.00  0.00     0.124 S 
ATOM     72  O   UNL A   1      44.556  19.529  22.624  1.00  0.00    -0.237 OA
ATOM     73  O   UNL A   1      45.863  18.663  24.532  1.00  0.00    -0.237 OA
ATOM     74  O   UNL A   1      43.426  18.961  24.743  1.00  0.00    -0.744 OA
ENDBRANCH  70  71
ENDBRANCH  51  65
BRANCH  52  75
ATOM     75  C   UNL A   1      46.460  33.094  28.603  1.00  0.00    -0.014 A 
ATOM     76  C   UNL A   1      46.378  34.163  27.694  1.00  0.00     0.010 A 
ATOM     77  C   UNL A   1      46.675  33.367  29.967  1.00  0.00     0.010 A 
ATOM     78  C   UNL A   1      46.510  35.481  28.141  1.00  0.00     0.020 A 
ATOM     79  C   UNL A   1      46.777  34.684  30.421  1.00  0.00     0.020 A 
ATOM     80  C   UNL A   1      46.705  35.734  29.503  1.00  0.00     0.054 A 
BRANCH  80  81
ATOM     81  S   UNL A   1      46.796  37.452  30.077  1.00  0.00     0.124 S 
ATOM     82  O   UNL A   1      48.234  37.702  30.054  1.00  0.00    -0.237 OA
ATOM     83  O   UNL A   1      46.013  38.168  29.073  1.00  0.00    -0.237 OA
ATOM     84  O   UNL A   1      46.189  37.397  31.405  1.00  0.00    -0.744 OA
ENDBRANCH  80  81
ENDBRANCH  52  75
BRANCH  64  85
ATOM     85  C   UNL A   1      50.932  28.175  26.554  1.00  0.00    -0.014 A 
ATOM     86  C   UNL A   1      51.776  27.874  27.638  1.00  0.00     0.010 A 
ATOM     87  C   UNL A   1      51.499  28.473  25.303  1.00  0.00     0.010 A 
ATOM     88  C   UNL A   1      53.164  27.920  27.484  1.00  0.00     0.020 A 
ATOM     89  C   UNL A   1      52.885  28.498  25.140  1.00  0.00     0.020 A 
ATOM     90  C   UNL A   1      53.711  28.242  26.238  1.00  0.00     0.054 A 
BRANCH  90  91
ATOM     91  S   UNL A   1      55.515  28.293  26.057  1.00  0.00     0.124 S 
ATOM     92  O   UNL A   1      55.942  28.688  27.396  1.00  0.00    -0.237 OA
ATOM     93  O   UNL A   1      55.842  26.923  25.671  1.00  0.00    -0.237 OA
ATOM     94  O   UNL A   1      55.727  29.293  25.013  1.00  0.00    -0.744 OA
ENDBRANCH  90  91
ENDBRANCH  64  85
ENDBRANCH  38  39
ENDBRANCH  31  33
ENDBRANCH  30  31
ENDBRANCH  29  30
ENDBRANCH   1  29
TORSDOF 21
ENDMDL
MODEL 3
REMARK VINA RESULT:     -10.3      3.143      3.950
REMARK SMILES CCC[C@]1(C(=O)OCCOC(=O)c2ccc(-c3c4nc(c(-c5ccc(S(=O)(=O)[O-])cc5)c5ccc([nH]5)c(-c5ccc(S(=O)(=O)[O-])cc5)c5nc(c(-c6ccc(S(=O)(=O)[O-])cc6)c6ccc3[nH]6)C=C5)C=C4)cc2)CCCN(C(=O)c2ccc(NS(=O)(=O)CC)cc2)C1
REMARK SMILES IDX 8 1 7 2 5 3 6 4 4 5 73 6 91 7 74 8 76 9 75 10 3 11 2 12 1 13
REMARK SMILES IDX 77 14 78 15 79 16 80 17 90 18 81 19 89 20 82 21 83 22 84 24
REMARK SMILES IDX 85 25 86 26 87 27 88 28 9 29 10 30 11 31 12 32 13 33 14 34
REMARK SMILES IDX 72 35 15 36 71 37 16 38 17 39 18 40 65 41 19 42 70 43 64 44
REMARK SMILES IDX 66 45 20 46 69 47 63 48 62 49 21 51 51 52 32 53 50 54 33 55
REMARK SMILES IDX 36 56 49 57 67 58 34 59 35 60 48 62 68 63 37 64 22 65 23 66
REMARK SMILES IDX 31 67 24 68 30 69 25 70 26 71 27 72 28 73 29 74 52 75 53 76
REMARK SMILES IDX 61 77 54 78 60 79 55 80 56 81 57 82 58 83 59 84 38 85 39 86
REMARK SMILES IDX 47 87 40 88 46 89 41 90 42 91 43 92 44 93 45 94
REMARK H PARENT 83 23 66 50 36 61
REMARK Flexibility Score: inf
ROOT
ATOM      1  C   UNL A   1      33.115  29.867  26.107  1.00  0.00     0.274 C 
ENDROOT
BRANCH   1   2
ATOM      2  O   UNL A   1      31.976  28.981  26.117  1.00  0.00    -0.462 OA
BRANCH   2   3
ATOM      3  C   UNL A   1      31.481  28.667  24.894  1.00  0.00     0.314 C 
ATOM      4  O   UNL A   1      30.785  29.431  24.230  1.00  0.00    -0.252 OA
BRANCH   3   5
ATOM      5  C   UNL A   1      31.851  27.252  24.395  1.00  0.00     0.086 C 
ATOM      6  C   UNL A   1      33.193  27.180  23.646  1.00  0.00     0.022 C 
ATOM      7  C   UNL A   1      31.974  26.485  25.721  1.00  0.00     0.138 C 
ATOM      8  C   UNL A   1      33.755  25.759  23.525  1.00  0.00     0.023 C 
ATOM      9  N   UNL A   1      32.468  25.130  25.571  1.00  0.00    -0.338 N 
ATOM     10  C   UNL A   1      33.712  24.964  24.828  1.00  0.00     0.120 C 
BRANCH   5  11
ATOM     11  C   UNL A   1      30.629  26.846  23.516  1.00  0.00     0.020 C 
BRANCH  11  12
ATOM     12  C   UNL A   1      29.362  26.155  24.020  1.00  0.00    -0.002 C 
ATOM     13  C   UNL A   1      28.077  26.925  23.811  1.00  0.00     0.004 C 
ENDBRANCH  11  12
ENDBRANCH   5  11
BRANCH   9  14
ATOM     14  C   UNL A   1      31.914  24.175  26.417  1.00  0.00     0.253 C 
ATOM     15  O   UNL A   1      31.052  24.417  27.258  1.00  0.00    -0.269 OA
BRANCH  14  16
ATOM     16  C   UNL A   1      32.235  22.759  26.203  1.00  0.00     0.040 A 
ATOM     17  C   UNL A   1      33.249  22.233  27.002  1.00  0.00     0.016 A 
ATOM     18  C   UNL A   1      31.707  22.017  25.152  1.00  0.00     0.016 A 
ATOM     19  C   UNL A   1      33.723  20.948  26.776  1.00  0.00     0.027 A 
ATOM     20  C   UNL A   1      32.225  20.740  24.899  1.00  0.00     0.027 A 
ATOM     21  C   UNL A   1      33.242  20.201  25.705  1.00  0.00     0.049 A 
BRANCH  21  22
ATOM     22  N   UNL A   1      33.936  19.047  25.231  1.00  0.00    -0.284 N 
ATOM     23  H   UNL A   1      34.877  19.146  24.964  1.00  0.00     0.180 HD
BRANCH  22  24
ATOM     24  S   UNL A   1      33.233  17.537  25.102  1.00  0.00     0.232 S 
ATOM     25  O   UNL A   1      34.116  16.570  25.713  1.00  0.00    -0.207 OA
ATOM     26  O   UNL A   1      31.889  17.728  25.617  1.00  0.00    -0.207 OA
BRANCH  24  27
ATOM     27  C   UNL A   1      33.086  17.180  23.347  1.00  0.00     0.156 C 
ATOM     28  C   UNL A   1      34.361  16.709  22.676  1.00  0.00     0.023 C 
ENDBRANCH  24  27
ENDBRANCH  22  24
ENDBRANCH  21  22
ENDBRANCH  14  16
ENDBRANCH   9  14
ENDBRANCH   3   5
ENDBRANCH   2   3
ENDBRANCH   1   2
BRANCH   1  29
ATOM     29  C   UNL A   1      33.065  30.869  27.258  1.00  0.00     0.275 C 
BRANCH  29  30
ATOM     30  O   UNL A   1      34.313  31.574  27.390  1.00  0.00    -0.458 OA
BRANCH  30  31
ATOM     31  C   UNL A   1      34.811  31.614  28.646  1.00  0.00     0.338 C 
ATOM     32  O   UNL A   1      34.369  32.252  29.588  1.00  0.00    -0.246 OA
BRANCH  31  33
ATOM     33  C   UNL A   1      35.987  30.736  28.793  1.00  0.00     0.060 A 
ATOM     34  C   UNL A   1      35.965  29.716  29.737  1.00  0.00     0.016 A 
ATOM     35  C   UNL A   1      37.193  31.107  28.199  1.00  0.00     0.016 A 
ATOM     36  C   UNL A   1      37.169  29.233  30.251  1.00  0.00     0.010 A 
ATOM     37  C   UNL A   1      38.384  30.492  28.603  1.00  0.00     0.010 A 
ATOM     38  C   UNL A   1      38.405  29.611  29.699  1.00  0.00    -0.014 A 
BRANCH  38  39
ATOM     39  C   UNL A   1      39.699  29.157  30.306  1.00  0.00     0.031 A 
ATOM     40  C   UNL A   1      40.205  29.775  31.597  1.00  0.00     0.074 A 
ATOM     41  C   UNL A   1      40.428  28.172  29.740  1.00  0.00     0.049 A 
ATOM     42  N   UNL A   1      41.383  29.664  32.162  1.00  0.00    -0.248 NA
ATOM     43  C   UNL A   1      39.278  30.648  32.334  1.00  0.00     0.031 C 
ATOM     44  C   UNL A   1      40.073  27.437  28.522  1.00  0.00     0.029 A 
ATOM     45  N   UNL A   1      41.616  27.598  30.129  1.00  0.00    -0.354 N 
ATOM     46  C   UNL A   1      41.365  30.519  33.262  1.00  0.00     0.074 A 
ATOM     47  C   UNL A   1      40.057  31.136  33.289  1.00  0.00     0.031 C 
ATOM     48  C   UNL A   1      40.973  26.465  28.312  1.00  0.00     0.029 A 
ATOM     49  C   UNL A   1      42.032  26.576  29.308  1.00  0.00     0.049 A 
ATOM     50  H   UNL A   1      42.120  27.892  30.922  1.00  0.00     0.167 HD
ATOM     51  C   UNL A   1      42.347  30.774  34.163  1.00  0.00     0.031 A 
ATOM     52  C   UNL A   1      43.155  25.831  29.316  1.00  0.00     0.031 A 
ATOM     53  C   UNL A   1      43.619  30.100  34.193  1.00  0.00     0.049 A 
ATOM     54  C   UNL A   1      44.217  26.109  30.339  1.00  0.00     0.074 A 
ATOM     55  C   UNL A   1      44.674  30.287  35.071  1.00  0.00     0.029 A 
ATOM     56  N   UNL A   1      43.997  29.083  33.330  1.00  0.00    -0.354 N 
ATOM     57  N   UNL A   1      44.220  26.998  31.302  1.00  0.00    -0.248 NA
ATOM     58  C   UNL A   1      45.439  25.296  30.259  1.00  0.00     0.031 C 
ATOM     59  C   UNL A   1      45.699  29.398  34.723  1.00  0.00     0.029 A 
ATOM     60  C   UNL A   1      45.264  28.631  33.656  1.00  0.00     0.049 A 
ATOM     61  H   UNL A   1      43.444  28.736  32.593  1.00  0.00     0.167 HD
ATOM     62  C   UNL A   1      45.443  26.850  31.945  1.00  0.00     0.074 A 
ATOM     63  C   UNL A   1      46.140  25.766  31.280  1.00  0.00     0.031 C 
ATOM     64  C   UNL A   1      45.949  27.557  32.985  1.00  0.00     0.031 A 
BRANCH  51  65
ATOM     65  C   UNL A   1      42.100  31.865  35.176  1.00  0.00    -0.014 A 
ATOM     66  C   UNL A   1      41.665  31.582  36.481  1.00  0.00     0.010 A 
ATOM     67  C   UNL A   1      42.348  33.204  34.814  1.00  0.00     0.010 A 
ATOM     68  C   UNL A   1      41.436  32.620  37.392  1.00  0.00     0.020 A 
ATOM     69  C   UNL A   1      42.147  34.241  35.728  1.00  0.00     0.020 A 
ATOM     70  C   UNL A   1      41.671  33.945  37.006  1.00  0.00     0.054 A 
BRANCH  70  71
ATOM     71  S   UNL A   1      41.378  35.275  38.205  1.00  0.00     0.124 S 
ATOM     72  O   UNL A   1      40.588  36.219  37.419  1.00  0.00    -0.237 OA
ATOM     73  O   UNL A   1      40.657  34.592  39.277  1.00  0.00    -0.237 OA
ATOM     74  O   UNL A   1      42.723  35.727  38.556  1.00  0.00    -0.744 OA
ENDBRANCH  70  71
ENDBRANCH  51  65
BRANCH  52  75
ATOM     75  C   UNL A   1      43.349  24.779  28.281  1.00  0.00    -0.014 A 
ATOM     76  C   UNL A   1      44.020  25.074  27.081  1.00  0.00     0.010 A 
ATOM     77  C   UNL A   1      42.888  23.469  28.505  1.00  0.00     0.010 A 
ATOM     78  C   UNL A   1      44.222  24.078  26.121  1.00  0.00     0.020 A 
ATOM     79  C   UNL A   1      43.116  22.464  27.562  1.00  0.00     0.020 A 
ATOM     80  C   UNL A   1      43.773  22.777  26.370  1.00  0.00     0.054 A 
BRANCH  80  81
ATOM     81  S   UNL A   1      44.113  21.478  25.151  1.00  0.00     0.124 S 
ATOM     82  O   UNL A   1      43.064  20.506  25.445  1.00  0.00    -0.237 OA
ATOM     83  O   UNL A   1      43.980  22.187  23.881  1.00  0.00    -0.237 OA
ATOM     84  O   UNL A   1      45.472  21.054  25.479  1.00  0.00    -0.744 OA
ENDBRANCH  80  81
ENDBRANCH  52  75
BRANCH  64  85
ATOM     85  C   UNL A   1      47.310  27.156  33.483  1.00  0.00    -0.014 A 
ATOM     86  C   UNL A   1      47.458  26.174  34.479  1.00  0.00     0.010 A 
ATOM     87  C   UNL A   1      48.455  27.767  32.942  1.00  0.00     0.010 A 
ATOM     88  C   UNL A   1      48.728  25.846  34.961  1.00  0.00     0.020 A 
ATOM     89  C   UNL A   1      49.727  27.426  33.407  1.00  0.00     0.020 A 
ATOM     90  C   UNL A   1      49.855  26.482  34.429  1.00  0.00     0.054 A 
BRANCH  90  91
ATOM     91  S   UNL A   1      51.495  26.040  35.065  1.00  0.00     0.124 S 
ATOM     92  O   UNL A   1      51.162  25.116  36.144  1.00  0.00    -0.237 OA
ATOM     93  O   UNL A   1      52.144  25.440  33.902  1.00  0.00    -0.237 OA
ATOM     94  O   UNL A   1      52.056  27.321  35.490  1.00  0.00    -0.744 OA
ENDBRANCH  90  91
ENDBRANCH  64  85
ENDBRANCH  38  39
ENDBRANCH  31  33
ENDBRANCH  30  31
ENDBRANCH  29  30
ENDBRANCH   1  29
TORSDOF 21
ENDMDL
