MODEL 1
REMARK VINA RESULT:     -10.5      0.000      0.000
REMARK SMILES C[C@@H](C(=O)OCCOC(=O)c1ccc(-c2c3nc(c(-c4ccc(S(=O)(=O)[O-])cc4)c4ccc([nH]4)c(-c4ccc(S(=O)(=O)[O-])cc4)c4nc(c(-c5ccc(S(=O)(=O)[O-])cc5)c5ccc2[nH]5)C=C4)C=C3)cc1)c1ccc(-c2ccccc2)c(F)c1
REMARK SMILES IDX 7 1 6 2 5 3 3 4 4 5 2 6 1 7 71 8 72 9 83 10 73 11 81 12
REMARK SMILES IDX 74 13 82 14 75 15 76 16 80 17 77 18 79 19 78 20 8 21 9 22
REMARK SMILES IDX 10 23 11 24 12 25 70 26 13 27 69 28 14 29 15 30 16 31 63 32
REMARK SMILES IDX 17 33 68 34 62 35 64 36 18 37 67 38 61 39 60 40 19 42 49 43
REMARK SMILES IDX 30 44 48 45 31 46 34 47 47 48 65 49 32 50 33 51 46 53 66 54
REMARK SMILES IDX 35 55 20 56 21 57 29 58 22 59 28 60 23 61 24 62 25 63 26 64
REMARK SMILES IDX 27 65 50 66 51 67 59 68 52 69 58 70 53 71 54 72 55 73 56 74
REMARK SMILES IDX 57 75 36 76 37 77 45 78 38 79 44 80 39 81 40 82 41 83 42 84
REMARK SMILES IDX 43 85
REMARK H PARENT 64 41 34 52
REMARK Flexibility Score: inf
ROOT
ATOM      1  C   UNL A   1      37.458  21.575  24.717  1.00  0.00     0.275 C 
ENDROOT
BRANCH   1   2
ATOM      2  C   UNL A   1      35.935  21.550  24.624  1.00  0.00     0.274 C 
BRANCH   2   3
ATOM      3  O   UNL A   1      35.417  22.896  24.609  1.00  0.00    -0.462 OA
BRANCH   3   4
ATOM      4  C   UNL A   1      34.620  23.238  23.557  1.00  0.00     0.313 C 
ATOM      5  O   UNL A   1      34.986  23.221  22.387  1.00  0.00    -0.252 OA
BRANCH   4   6
ATOM      6  C   UNL A   1      33.230  23.715  24.000  1.00  0.00     0.126 C 
ATOM      7  C   UNL A   1      32.162  23.591  22.909  1.00  0.00     0.025 C 
BRANCH   6   8
ATOM      8  C   UNL A   1      33.288  25.107  24.621  1.00  0.00    -0.031 A 
ATOM      9  C   UNL A   1      32.886  25.293  25.951  1.00  0.00     0.005 A 
ATOM     10  C   UNL A   1      33.786  26.220  23.935  1.00  0.00     0.044 A 
ATOM     11  C   UNL A   1      33.003  26.544  26.577  1.00  0.00     0.012 A 
ATOM     12  C   UNL A   1      33.905  27.463  24.570  1.00  0.00     0.131 A 
ATOM     13  C   UNL A   1      33.544  27.662  25.914  1.00  0.00     0.017 A 
ATOM     14  F   UNL A   1      34.457  28.454  23.854  1.00  0.00    -0.206 F 
BRANCH  13  15
ATOM     15  C   UNL A   1      33.787  28.942  26.630  1.00  0.00    -0.015 A 
ATOM     16  C   UNL A   1      35.043  29.230  27.205  1.00  0.00     0.009 A 
ATOM     17  C   UNL A   1      32.806  29.946  26.727  1.00  0.00     0.009 A 
ATOM     18  C   UNL A   1      35.304  30.453  27.834  1.00  0.00     0.001 A 
ATOM     19  C   UNL A   1      33.070  31.177  27.339  1.00  0.00     0.001 A 
ATOM     20  C   UNL A   1      34.321  31.431  27.891  1.00  0.00     0.000 A 
ENDBRANCH  13  15
ENDBRANCH   6   8
ENDBRANCH   4   6
ENDBRANCH   3   4
ENDBRANCH   2   3
ENDBRANCH   1   2
BRANCH   1  21
ATOM     21  O   UNL A   1      37.839  22.111  25.994  1.00  0.00    -0.458 OA
BRANCH  21  22
ATOM     22  C   UNL A   1      39.156  22.060  26.294  1.00  0.00     0.338 C 
ATOM     23  O   UNL A   1      39.926  21.134  26.083  1.00  0.00    -0.246 OA
BRANCH  22  24
ATOM     24  C   UNL A   1      39.563  23.324  26.931  1.00  0.00     0.060 A 
ATOM     25  C   UNL A   1      38.947  24.520  26.567  1.00  0.00     0.016 A 
ATOM     26  C   UNL A   1      40.645  23.334  27.813  1.00  0.00     0.016 A 
ATOM     27  C   UNL A   1      39.478  25.731  27.009  1.00  0.00     0.010 A 
ATOM     28  C   UNL A   1      41.118  24.551  28.320  1.00  0.00     0.010 A 
ATOM     29  C   UNL A   1      40.574  25.771  27.885  1.00  0.00    -0.014 A 
BRANCH  29  30
ATOM     30  C   UNL A   1      41.188  27.075  28.280  1.00  0.00     0.031 A 
ATOM     31  C   UNL A   1      42.663  27.325  28.069  1.00  0.00     0.074 A 
ATOM     32  C   UNL A   1      40.432  28.067  28.799  1.00  0.00     0.049 A 
ATOM     33  N   UNL A   1      43.413  28.301  28.522  1.00  0.00    -0.248 NA
ATOM     34  C   UNL A   1      43.401  26.334  27.269  1.00  0.00     0.031 C 
ATOM     35  C   UNL A   1      38.985  28.012  29.017  1.00  0.00     0.029 A 
ATOM     36  N   UNL A   1      40.777  29.333  29.205  1.00  0.00    -0.354 N 
ATOM     37  C   UNL A   1      44.713  28.001  28.127  1.00  0.00     0.074 A 
ATOM     38  C   UNL A   1      44.653  26.754  27.394  1.00  0.00     0.031 C 
ATOM     39  C   UNL A   1      38.557  29.214  29.427  1.00  0.00     0.029 A 
ATOM     40  C   UNL A   1      39.705  30.097  29.602  1.00  0.00     0.049 A 
ATOM     41  H   UNL A   1      41.704  29.663  29.212  1.00  0.00     0.167 HD
ATOM     42  C   UNL A   1      45.852  28.697  28.357  1.00  0.00     0.031 A 
ATOM     43  C   UNL A   1      39.645  31.356  30.076  1.00  0.00     0.031 A 
ATOM     44  C   UNL A   1      45.903  29.982  29.003  1.00  0.00     0.049 A 
ATOM     45  C   UNL A   1      40.915  32.124  30.297  1.00  0.00     0.074 A 
ATOM     46  C   UNL A   1      47.012  30.758  29.293  1.00  0.00     0.029 A 
ATOM     47  N   UNL A   1      44.794  30.699  29.423  1.00  0.00    -0.354 N 
ATOM     48  N   UNL A   1      42.148  31.772  30.026  1.00  0.00    -0.248 NA
ATOM     49  C   UNL A   1      40.786  33.448  30.922  1.00  0.00     0.031 C 
ATOM     50  C   UNL A   1      46.575  31.938  29.906  1.00  0.00     0.029 A 
ATOM     51  C   UNL A   1      45.191  31.910  29.966  1.00  0.00     0.049 A 
ATOM     52  H   UNL A   1      43.861  30.392  29.346  1.00  0.00     0.167 HD
ATOM     53  C   UNL A   1      42.945  32.817  30.475  1.00  0.00     0.074 A 
ATOM     54  C   UNL A   1      42.053  33.837  30.988  1.00  0.00     0.031 C 
ATOM     55  C   UNL A   1      44.296  32.911  30.483  1.00  0.00     0.031 A 
BRANCH  42  56
ATOM     56  C   UNL A   1      47.152  28.060  27.946  1.00  0.00    -0.014 A 
ATOM     57  C   UNL A   1      47.890  27.251  28.826  1.00  0.00     0.010 A 
ATOM     58  C   UNL A   1      47.619  28.245  26.631  1.00  0.00     0.010 A 
ATOM     59  C   UNL A   1      49.089  26.664  28.409  1.00  0.00     0.020 A 
ATOM     60  C   UNL A   1      48.806  27.643  26.203  1.00  0.00     0.020 A 
ATOM     61  C   UNL A   1      49.543  26.870  27.101  1.00  0.00     0.054 A 
BRANCH  61  62
ATOM     62  S   UNL A   1      51.089  26.082  26.571  1.00  0.00     0.124 S 
ATOM     63  O   UNL A   1      51.165  26.482  25.167  1.00  0.00    -0.237 OA
ATOM     64  O   UNL A   1      52.083  26.692  27.451  1.00  0.00    -0.237 OA
ATOM     65  O   UNL A   1      50.850  24.659  26.802  1.00  0.00    -0.744 OA
ENDBRANCH  61  62
ENDBRANCH  42  56
BRANCH  43  66
ATOM     66  C   UNL A   1      38.324  31.946  30.421  1.00  0.00    -0.014 A 
ATOM     67  C   UNL A   1      37.712  31.645  31.650  1.00  0.00     0.010 A 
ATOM     68  C   UNL A   1      37.700  32.852  29.545  1.00  0.00     0.010 A 
ATOM     69  C   UNL A   1      36.502  32.250  32.001  1.00  0.00     0.020 A 
ATOM     70  C   UNL A   1      36.505  33.478  29.905  1.00  0.00     0.020 A 
ATOM     71  C   UNL A   1      35.910  33.170  31.129  1.00  0.00     0.054 A 
BRANCH  71  72
ATOM     72  S   UNL A   1      34.399  34.035  31.641  1.00  0.00     0.124 S 
ATOM     73  O   UNL A   1      33.683  34.165  30.375  1.00  0.00    -0.237 OA
ATOM     74  O   UNL A   1      33.810  33.113  32.610  1.00  0.00    -0.237 OA
ATOM     75  O   UNL A   1      34.904  35.282  32.210  1.00  0.00    -0.744 OA
ENDBRANCH  71  72
ENDBRANCH  43  66
BRANCH  55  76
ATOM     76  C   UNL A   1      44.892  34.158  31.072  1.00  0.00    -0.014 A 
ATOM     77  C   UNL A   1      45.251  34.206  32.430  1.00  0.00     0.010 A 
ATOM     78  C   UNL A   1      45.123  35.280  30.257  1.00  0.00     0.010 A 
ATOM     79  C   UNL A   1      45.805  35.368  32.972  1.00  0.00     0.020 A 
ATOM     80  C   UNL A   1      45.691  36.438  30.792  1.00  0.00     0.020 A 
ATOM     81  C   UNL A   1      46.016  36.480  32.151  1.00  0.00     0.054 A 
BRANCH  81  82
ATOM     82  S   UNL A   1      46.760  37.972  32.867  1.00  0.00     0.124 S 
ATOM     83  O   UNL A   1      47.743  38.336  31.851  1.00  0.00    -0.237 OA
ATOM     84  O   UNL A   1      45.620  38.878  32.991  1.00  0.00    -0.237 OA
ATOM     85  O   UNL A   1      47.317  37.504  34.135  1.00  0.00    -0.744 OA
ENDBRANCH  81  82
ENDBRANCH  55  76
ENDBRANCH  29  30
ENDBRANCH  22  24
ENDBRANCH  21  22
ENDBRANCH   1  21
TORSDOF 16
ENDMDL
MODEL 2
REMARK VINA RESULT:     -10.5      3.027      9.516
REMARK SMILES C[C@@H](C(=O)OCCOC(=O)c1ccc(-c2c3nc(c(-c4ccc(S(=O)(=O)[O-])cc4)c4ccc([nH]4)c(-c4ccc(S(=O)(=O)[O-])cc4)c4nc(c(-c5ccc(S(=O)(=O)[O-])cc5)c5ccc2[nH]5)C=C4)C=C3)cc1)c1ccc(-c2ccccc2)c(F)c1
REMARK SMILES IDX 7 1 6 2 5 3 3 4 4 5 2 6 1 7 71 8 72 9 83 10 73 11 81 12
REMARK SMILES IDX 74 13 82 14 75 15 76 16 80 17 77 18 79 19 78 20 8 21 9 22
REMARK SMILES IDX 10 23 11 24 12 25 70 26 13 27 69 28 14 29 15 30 16 31 63 32
REMARK SMILES IDX 17 33 68 34 62 35 64 36 18 37 67 38 61 39 60 40 19 42 49 43
REMARK SMILES IDX 30 44 48 45 31 46 34 47 47 48 65 49 32 50 33 51 46 53 66 54
REMARK SMILES IDX 35 55 20 56 21 57 29 58 22 59 28 60 23 61 24 62 25 63 26 64
REMARK SMILES IDX 27 65 50 66 51 67 59 68 52 69 58 70 53 71 54 72 55 73 56 74
REMARK SMILES IDX 57 75 36 76 37 77 45 78 38 79 44 80 39 81 40 82 41 83 42 84
REMARK SMILES IDX 43 85
REMARK H PARENT 64 41 34 52
REMARK Flexibility Score: inf
ROOT
ATOM      1  C   UNL A   1      32.388  30.467  27.146  1.00  0.00     0.275 C 
ENDROOT
BRANCH   1   2
ATOM      2  C   UNL A   1      31.821  30.255  25.746  1.00  0.00     0.274 C 
BRANCH   2   3
ATOM      3  O   UNL A   1      32.836  29.716  24.875  1.00  0.00    -0.462 OA
BRANCH   3   4
ATOM      4  C   UNL A   1      32.496  28.624  24.134  1.00  0.00     0.313 C 
ATOM      5  O   UNL A   1      31.343  28.245  23.962  1.00  0.00    -0.252 OA
BRANCH   4   6
ATOM      6  C   UNL A   1      33.721  27.875  23.590  1.00  0.00     0.126 C 
ATOM      7  C   UNL A   1      34.060  28.227  22.137  1.00  0.00     0.025 C 
BRANCH   6   8
ATOM      8  C   UNL A   1      33.609  26.373  23.827  1.00  0.00    -0.031 A 
ATOM      9  C   UNL A   1      33.732  25.487  22.748  1.00  0.00     0.005 A 
ATOM     10  C   UNL A   1      33.443  25.820  25.101  1.00  0.00     0.044 A 
ATOM     11  C   UNL A   1      33.715  24.096  22.944  1.00  0.00     0.012 A 
ATOM     12  C   UNL A   1      33.434  24.431  25.288  1.00  0.00     0.131 A 
ATOM     13  C   UNL A   1      33.595  23.526  24.226  1.00  0.00     0.017 A 
ATOM     14  F   UNL A   1      33.339  23.995  26.554  1.00  0.00    -0.206 F 
BRANCH  13  15
ATOM     15  C   UNL A   1      33.715  22.058  24.432  1.00  0.00    -0.015 A 
ATOM     16  C   UNL A   1      32.602  21.205  24.275  1.00  0.00     0.009 A 
ATOM     17  C   UNL A   1      34.942  21.442  24.741  1.00  0.00     0.009 A 
ATOM     18  C   UNL A   1      32.711  19.816  24.412  1.00  0.00     0.001 A 
ATOM     19  C   UNL A   1      35.058  20.052  24.860  1.00  0.00     0.001 A 
ATOM     20  C   UNL A   1      33.942  19.239  24.693  1.00  0.00     0.000 A 
ENDBRANCH  13  15
ENDBRANCH   6   8
ENDBRANCH   4   6
ENDBRANCH   3   4
ENDBRANCH   2   3
ENDBRANCH   1   2
BRANCH   1  21
ATOM     21  O   UNL A   1      33.816  30.323  27.098  1.00  0.00    -0.458 OA
BRANCH  21  22
ATOM     22  C   UNL A   1      34.516  31.000  28.037  1.00  0.00     0.338 C 
ATOM     23  O   UNL A   1      34.182  32.025  28.611  1.00  0.00    -0.246 OA
BRANCH  22  24
ATOM     24  C   UNL A   1      35.790  30.306  28.293  1.00  0.00     0.060 A 
ATOM     25  C   UNL A   1      35.997  29.648  29.503  1.00  0.00     0.016 A 
ATOM     26  C   UNL A   1      36.829  30.408  27.366  1.00  0.00     0.016 A 
ATOM     27  C   UNL A   1      37.271  29.182  29.826  1.00  0.00     0.010 A 
ATOM     28  C   UNL A   1      38.083  29.860  27.662  1.00  0.00     0.010 A 
ATOM     29  C   UNL A   1      38.337  29.284  28.919  1.00  0.00    -0.014 A 
BRANCH  29  30
ATOM     30  C   UNL A   1      39.716  28.861  29.311  1.00  0.00     0.031 A 
ATOM     31  C   UNL A   1      40.548  29.718  30.236  1.00  0.00     0.074 A 
ATOM     32  C   UNL A   1      40.229  27.690  28.877  1.00  0.00     0.049 A 
ATOM     33  N   UNL A   1      41.822  29.625  30.531  1.00  0.00    -0.248 NA
ATOM     34  C   UNL A   1      39.869  30.845  30.895  1.00  0.00     0.031 C 
ATOM     35  C   UNL A   1      39.540  26.719  28.025  1.00  0.00     0.029 A 
ATOM     36  N   UNL A   1      41.446  27.102  29.126  1.00  0.00    -0.354 N 
ATOM     37  C   UNL A   1      42.109  30.718  31.342  1.00  0.00     0.074 A 
ATOM     38  C   UNL A   1      40.877  31.461  31.499  1.00  0.00     0.031 C 
ATOM     39  C   UNL A   1      40.304  25.624  27.899  1.00  0.00     0.029 A 
ATOM     40  C   UNL A   1      41.578  25.851  28.573  1.00  0.00     0.049 A 
ATOM     41  H   UNL A   1      42.157  27.536  29.650  1.00  0.00     0.167 HD
ATOM     42  C   UNL A   1      43.290  31.073  31.903  1.00  0.00     0.031 A 
ATOM     43  C   UNL A   1      42.611  24.987  28.580  1.00  0.00     0.031 A 
ATOM     44  C   UNL A   1      44.494  30.288  31.827  1.00  0.00     0.049 A 
ATOM     45  C   UNL A   1      43.903  25.384  29.230  1.00  0.00     0.074 A 
ATOM     46  C   UNL A   1      45.744  30.572  32.351  1.00  0.00     0.029 A 
ATOM     47  N   UNL A   1      44.589  29.045  31.222  1.00  0.00    -0.354 N 
ATOM     48  N   UNL A   1      44.189  26.478  29.892  1.00  0.00    -0.248 NA
ATOM     49  C   UNL A   1      45.023  24.441  29.105  1.00  0.00     0.031 C 
ATOM     50  C   UNL A   1      46.600  29.509  32.047  1.00  0.00     0.029 A 
ATOM     51  C   UNL A   1      45.874  28.547  31.363  1.00  0.00     0.049 A 
ATOM     52  H   UNL A   1      43.851  28.584  30.760  1.00  0.00     0.167 HD
ATOM     53  C   UNL A   1      45.530  26.371  30.235  1.00  0.00     0.074 A 
ATOM     54  C   UNL A   1      45.986  25.082  29.754  1.00  0.00     0.031 C 
ATOM     55  C   UNL A   1      46.319  27.270  30.871  1.00  0.00     0.031 A 
BRANCH  42  56
ATOM     56  C   UNL A   1      43.354  32.398  32.614  1.00  0.00    -0.014 A 
ATOM     57  C   UNL A   1      43.159  32.503  34.002  1.00  0.00     0.010 A 
ATOM     58  C   UNL A   1      43.659  33.557  31.875  1.00  0.00     0.010 A 
ATOM     59  C   UNL A   1      43.237  33.749  34.633  1.00  0.00     0.020 A 
ATOM     60  C   UNL A   1      43.759  34.800  32.505  1.00  0.00     0.020 A 
ATOM     61  C   UNL A   1      43.530  34.890  33.879  1.00  0.00     0.054 A 
BRANCH  61  62
ATOM     62  S   UNL A   1      43.649  36.495  34.720  1.00  0.00     0.124 S 
ATOM     63  O   UNL A   1      45.042  36.860  34.475  1.00  0.00    -0.237 OA
ATOM     64  O   UNL A   1      42.656  37.304  34.017  1.00  0.00    -0.237 OA
ATOM     65  O   UNL A   1      43.320  36.183  36.109  1.00  0.00    -0.744 OA
ENDBRANCH  61  62
ENDBRANCH  42  56
BRANCH  43  66
ATOM     66  C   UNL A   1      42.470  23.672  27.897  1.00  0.00    -0.014 A 
ATOM     67  C   UNL A   1      42.868  23.522  26.558  1.00  0.00     0.010 A 
ATOM     68  C   UNL A   1      41.987  22.555  28.601  1.00  0.00     0.010 A 
ATOM     69  C   UNL A   1      42.796  22.271  25.938  1.00  0.00     0.020 A 
ATOM     70  C   UNL A   1      41.939  21.299  27.993  1.00  0.00     0.020 A 
ATOM     71  C   UNL A   1      42.339  21.166  26.663  1.00  0.00     0.054 A 
BRANCH  71  72
ATOM     72  S   UNL A   1      42.354  19.525  25.886  1.00  0.00     0.124 S 
ATOM     73  O   UNL A   1      43.397  19.679  24.876  1.00  0.00    -0.237 OA
ATOM     74  O   UNL A   1      42.680  18.640  27.002  1.00  0.00    -0.237 OA
ATOM     75  O   UNL A   1      40.994  19.386  25.371  1.00  0.00    -0.744 OA
ENDBRANCH  71  72
ENDBRANCH  43  66
BRANCH  55  76
ATOM     76  C   UNL A   1      47.759  26.894  31.076  1.00  0.00    -0.014 A 
ATOM     77  C   UNL A   1      48.751  27.353  30.191  1.00  0.00     0.010 A 
ATOM     78  C   UNL A   1      48.129  26.102  32.176  1.00  0.00     0.010 A 
ATOM     79  C   UNL A   1      50.088  27.001  30.387  1.00  0.00     0.020 A 
ATOM     80  C   UNL A   1      49.468  25.760  32.384  1.00  0.00     0.020 A 
ATOM     81  C   UNL A   1      50.438  26.200  31.479  1.00  0.00     0.054 A 
BRANCH  81  82
ATOM     82  S   UNL A   1      52.183  25.774  31.731  1.00  0.00     0.124 S 
ATOM     83  O   UNL A   1      52.582  26.731  32.759  1.00  0.00    -0.237 OA
ATOM     84  O   UNL A   1      52.119  24.379  32.163  1.00  0.00    -0.237 OA
ATOM     85  O   UNL A   1      52.783  25.984  30.415  1.00  0.00    -0.744 OA
ENDBRANCH  81  82
ENDBRANCH  55  76
ENDBRANCH  29  30
ENDBRANCH  22  24
ENDBRANCH  21  22
ENDBRANCH   1  21
TORSDOF 16
ENDMDL
MODEL 3
REMARK VINA RESULT:     -10.5      3.361      9.927
REMARK SMILES C[C@@H](C(=O)OCCOC(=O)c1ccc(-c2c3nc(c(-c4ccc(S(=O)(=O)[O-])cc4)c4ccc([nH]4)c(-c4ccc(S(=O)(=O)[O-])cc4)c4nc(c(-c5ccc(S(=O)(=O)[O-])cc5)c5ccc2[nH]5)C=C4)C=C3)cc1)c1ccc(-c2ccccc2)c(F)c1
REMARK SMILES IDX 7 1 6 2 5 3 3 4 4 5 2 6 1 7 71 8 72 9 83 10 73 11 81 12
REMARK SMILES IDX 74 13 82 14 75 15 76 16 80 17 77 18 79 19 78 20 8 21 9 22
REMARK SMILES IDX 10 23 11 24 12 25 70 26 13 27 69 28 14 29 15 30 16 31 63 32
REMARK SMILES IDX 17 33 68 34 62 35 64 36 18 37 67 38 61 39 60 40 19 42 49 43
REMARK SMILES IDX 30 44 48 45 31 46 34 47 47 48 65 49 32 50 33 51 46 53 66 54
REMARK SMILES IDX 35 55 20 56 21 57 29 58 22 59 28 60 23 61 24 62 25 63 26 64
REMARK SMILES IDX 27 65 50 66 51 67 59 68 52 69 58 70 53 71 54 72 55 73 56 74
REMARK SMILES IDX 57 75 36 76 37 77 45 78 38 79 44 80 39 81 40 82 41 83 42 84
REMARK SMILES IDX 43 85
REMARK H PARENT 64 41 34 52
REMARK Flexibility Score: inf
ROOT
ATOM      1  C   UNL A   1      34.984  30.389  27.641  1.00  0.00     0.275 C 
ENDROOT
BRANCH   1   2
ATOM      2  C   UNL A   1      34.377  29.233  26.853  1.00  0.00     0.274 C 
BRANCH   2   3
ATOM      3  O   UNL A   1      33.407  29.731  25.908  1.00  0.00    -0.462 OA
BRANCH   3   4
ATOM      4  C   UNL A   1      32.857  28.823  25.053  1.00  0.00     0.313 C 
ATOM      5  O   UNL A   1      31.656  28.589  24.982  1.00  0.00    -0.252 OA
BRANCH   4   6
ATOM      6  C   UNL A   1      33.913  28.072  24.230  1.00  0.00     0.126 C 
ATOM      7  C   UNL A   1      34.035  28.570  22.786  1.00  0.00     0.025 C 
BRANCH   6   8
ATOM      8  C   UNL A   1      33.725  26.562  24.325  1.00  0.00    -0.031 A 
ATOM      9  C   UNL A   1      33.669  25.793  23.155  1.00  0.00     0.005 A 
ATOM     10  C   UNL A   1      33.663  25.883  25.547  1.00  0.00     0.044 A 
ATOM     11  C   UNL A   1      33.579  24.392  23.209  1.00  0.00     0.012 A 
ATOM     12  C   UNL A   1      33.580  24.486  25.591  1.00  0.00     0.131 A 
ATOM     13  C   UNL A   1      33.561  23.693  24.431  1.00  0.00     0.017 A 
ATOM     14  F   UNL A   1      33.595  23.921  26.809  1.00  0.00    -0.206 F 
BRANCH  13  15
ATOM     15  C   UNL A   1      33.602  22.207  24.472  1.00  0.00    -0.015 A 
ATOM     16  C   UNL A   1      32.516  21.434  24.013  1.00  0.00     0.009 A 
ATOM     17  C   UNL A   1      34.735  21.501  24.917  1.00  0.00     0.009 A 
ATOM     18  C   UNL A   1      32.561  20.035  23.993  1.00  0.00     0.001 A 
ATOM     19  C   UNL A   1      34.791  20.102  24.881  1.00  0.00     0.001 A 
ATOM     20  C   UNL A   1      33.704  19.369  24.417  1.00  0.00     0.000 A 
ENDBRANCH  13  15
ENDBRANCH   6   8
ENDBRANCH   4   6
ENDBRANCH   3   4
ENDBRANCH   2   3
ENDBRANCH   1   2
BRANCH   1  21
ATOM     21  O   UNL A   1      36.412  30.236  27.670  1.00  0.00    -0.458 OA
BRANCH  21  22
ATOM     22  C   UNL A   1      36.918  29.552  28.721  1.00  0.00     0.338 C 
ATOM     23  O   UNL A   1      36.359  29.307  29.780  1.00  0.00    -0.246 OA
BRANCH  22  24
ATOM     24  C   UNL A   1      38.290  29.117  28.408  1.00  0.00     0.060 A 
ATOM     25  C   UNL A   1      39.097  28.579  29.407  1.00  0.00     0.016 A 
ATOM     26  C   UNL A   1      38.813  29.350  27.135  1.00  0.00     0.016 A 
ATOM     27  C   UNL A   1      40.454  28.371  29.160  1.00  0.00     0.010 A 
ATOM     28  C   UNL A   1      40.157  29.057  26.870  1.00  0.00     0.010 A 
ATOM     29  C   UNL A   1      41.010  28.612  27.894  1.00  0.00    -0.014 A 
BRANCH  29  30
ATOM     30  C   UNL A   1      42.480  28.468  27.666  1.00  0.00     0.031 A 
ATOM     31  C   UNL A   1      43.431  29.570  28.076  1.00  0.00     0.074 A 
ATOM     32  C   UNL A   1      42.990  27.341  27.126  1.00  0.00     0.049 A 
ATOM     33  N   UNL A   1      44.701  29.719  27.786  1.00  0.00    -0.248 NA
ATOM     34  C   UNL A   1      42.878  30.662  28.892  1.00  0.00     0.031 C 
ATOM     35  C   UNL A   1      42.220  26.161  26.728  1.00  0.00     0.029 A 
ATOM     36  N   UNL A   1      44.290  26.991  26.853  1.00  0.00    -0.354 N 
ATOM     37  C   UNL A   1      45.074  30.950  28.317  1.00  0.00     0.074 A 
ATOM     38  C   UNL A   1      43.898  31.507  28.951  1.00  0.00     0.031 C 
ATOM     39  C   UNL A   1      43.065  25.192  26.350  1.00  0.00     0.029 A 
ATOM     40  C   UNL A   1      44.429  25.709  26.379  1.00  0.00     0.049 A 
ATOM     41  H   UNL A   1      45.052  27.602  26.983  1.00  0.00     0.167 HD
ATOM     42  C   UNL A   1      46.282  31.561  28.278  1.00  0.00     0.031 A 
ATOM     43  C   UNL A   1      45.521  25.025  25.987  1.00  0.00     0.031 A 
ATOM     44  C   UNL A   1      47.474  30.970  27.731  1.00  0.00     0.049 A 
ATOM     45  C   UNL A   1      46.857  25.708  25.977  1.00  0.00     0.074 A 
ATOM     46  C   UNL A   1      48.742  31.518  27.634  1.00  0.00     0.029 A 
ATOM     47  N   UNL A   1      47.557  29.681  27.227  1.00  0.00    -0.354 N 
ATOM     48  N   UNL A   1      47.165  26.918  26.374  1.00  0.00    -0.248 NA
ATOM     49  C   UNL A   1      47.987  24.942  25.432  1.00  0.00     0.031 C 
ATOM     50  C   UNL A   1      49.589  30.567  27.053  1.00  0.00     0.029 A 
ATOM     51  C   UNL A   1      48.854  29.415  26.820  1.00  0.00     0.049 A 
ATOM     52  H   UNL A   1      46.804  29.049  27.166  1.00  0.00     0.167 HD
ATOM     53  C   UNL A   1      48.518  27.071  26.099  1.00  0.00     0.074 A 
ATOM     54  C   UNL A   1      48.981  25.813  25.550  1.00  0.00     0.031 C 
ATOM     55  C   UNL A   1      49.300  28.164  26.266  1.00  0.00     0.031 A 
BRANCH  42  56
ATOM     56  C   UNL A   1      46.367  32.969  28.803  1.00  0.00    -0.014 A 
ATOM     57  C   UNL A   1      46.090  34.080  27.988  1.00  0.00     0.010 A 
ATOM     58  C   UNL A   1      46.692  33.176  30.157  1.00  0.00     0.010 A 
ATOM     59  C   UNL A   1      46.168  35.375  28.511  1.00  0.00     0.020 A 
ATOM     60  C   UNL A   1      46.749  34.467  30.689  1.00  0.00     0.020 A 
ATOM     61  C   UNL A   1      46.504  35.561  29.856  1.00  0.00     0.054 A 
BRANCH  61  62
ATOM     62  S   UNL A   1      46.577  37.248  30.522  1.00  0.00     0.124 S 
ATOM     63  O   UNL A   1      47.881  37.256  31.180  1.00  0.00    -0.237 OA
ATOM     64  O   UNL A   1      46.475  38.075  29.322  1.00  0.00    -0.237 OA
ATOM     65  O   UNL A   1      45.425  37.316  31.419  1.00  0.00    -0.744 OA
ENDBRANCH  61  62
ENDBRANCH  42  56
BRANCH  43  66
ATOM     66  C   UNL A   1      45.377  23.620  25.521  1.00  0.00    -0.014 A 
ATOM     67  C   UNL A   1      45.420  22.559  26.442  1.00  0.00     0.010 A 
ATOM     68  C   UNL A   1      45.144  23.342  24.162  1.00  0.00     0.010 A 
ATOM     69  C   UNL A   1      45.219  21.244  26.012  1.00  0.00     0.020 A 
ATOM     70  C   UNL A   1      44.917  22.033  23.734  1.00  0.00     0.020 A 
ATOM     71  C   UNL A   1      44.961  20.990  24.661  1.00  0.00     0.054 A 
BRANCH  71  72
ATOM     72  S   UNL A   1      44.591  19.295  24.130  1.00  0.00     0.124 S 
ATOM     73  O   UNL A   1      45.704  18.548  24.709  1.00  0.00    -0.237 OA
ATOM     74  O   UNL A   1      43.281  19.045  24.728  1.00  0.00    -0.237 OA
ATOM     75  O   UNL A   1      44.590  19.394  22.671  1.00  0.00    -0.744 OA
ENDBRANCH  71  72
ENDBRANCH  43  66
BRANCH  55  76
ATOM     76  C   UNL A   1      50.737  28.050  25.840  1.00  0.00    -0.014 A 
ATOM     77  C   UNL A   1      51.117  28.342  24.519  1.00  0.00     0.010 A 
ATOM     78  C   UNL A   1      51.719  27.677  26.774  1.00  0.00     0.010 A 
ATOM     79  C   UNL A   1      52.454  28.234  24.129  1.00  0.00     0.020 A 
ATOM     80  C   UNL A   1      53.059  27.583  26.392  1.00  0.00     0.020 A 
ATOM     81  C   UNL A   1      53.416  27.849  25.067  1.00  0.00     0.054 A 
BRANCH  81  82
ATOM     82  S   UNL A   1      55.152  27.739  24.550  1.00  0.00     0.124 S 
ATOM     83  O   UNL A   1      55.163  28.569  23.349  1.00  0.00    -0.237 OA
ATOM     84  O   UNL A   1      55.870  28.287  25.698  1.00  0.00    -0.237 OA
ATOM     85  O   UNL A   1      55.354  26.309  24.322  1.00  0.00    -0.744 OA
ENDBRANCH  81  82
ENDBRANCH  55  76
ENDBRANCH  29  30
ENDBRANCH  22  24
ENDBRANCH  21  22
ENDBRANCH   1  21
TORSDOF 16
ENDMDL
