MODEL 1
REMARK VINA RESULT:     -10.1      0.000      0.000
REMARK SMILES CC1=C([C@H](NC(=O)[C@@H]2[C@H](C)c3cc(F)ccc3N2C)C(=O)OCCOC(=O)c2ccc(-c3c4nc(c(-c5ccc(S(=O)(=O)[O-])cc5)c5ccc([nH]5)c(-c5ccc(S(=O)(=O)[O-])cc5)c5nc(c(-c6ccc(S(=O)(=O)[O-])cc6)c6ccc3[nH]6)C=C5)C=C4)cc2)[C@@H](C)N=N1
REMARK SMILES IDX 24 1 23 2 22 3 20 4 21 5 4 6 3 7 1 8 2 9 91 10 88 11 90 12
REMARK SMILES IDX 89 13 5 14 6 15 7 17 8 18 9 19 18 20 11 21 10 22 17 23 19 24
REMARK SMILES IDX 12 25 16 26 13 27 15 28 14 29 25 30 26 31 27 32 28 33 29 34
REMARK SMILES IDX 87 35 30 36 86 37 31 38 32 39 33 40 80 41 34 42 85 43 79 44
REMARK SMILES IDX 81 45 35 46 84 47 78 48 77 49 36 51 66 52 47 53 65 54 48 55
REMARK SMILES IDX 51 56 64 57 82 58 49 59 50 60 63 62 83 63 52 64 37 65 38 66
REMARK SMILES IDX 46 67 39 68 45 69 40 70 41 71 42 72 43 73 44 74 67 75 68 76
REMARK SMILES IDX 76 77 69 78 75 79 70 80 71 81 72 82 73 83 74 84 53 85 54 86
REMARK SMILES IDX 62 87 55 88 61 89 56 90 57 91 58 92 59 93 60 94
REMARK H PARENT 5 16 81 50 51 61
REMARK Flexibility Score: inf
ROOT
ATOM      1  C   UNL A   1      35.546  33.901  31.638  1.00  0.00     0.275 C 
ENDROOT
BRANCH   1   2
ATOM      2  C   UNL A   1      36.839  34.532  32.207  1.00  0.00     0.274 C 
BRANCH   2   3
ATOM      3  O   UNL A   1      36.689  34.968  33.579  1.00  0.00    -0.460 OA
BRANCH   3   4
ATOM      4  C   UNL A   1      37.033  34.058  34.513  1.00  0.00     0.333 C 
ATOM      5  O   UNL A   1      36.242  33.691  35.370  1.00  0.00    -0.249 OA
BRANCH   4   6
ATOM      6  C   UNL A   1      38.501  33.559  34.468  1.00  0.00     0.223 C 
BRANCH   6   7
ATOM      7  C   UNL A   1      38.475  32.164  35.023  1.00  0.00     0.012 C 
ATOM      8  C   UNL A   1      37.597  30.733  33.075  1.00  0.00     0.069 C 
ATOM      9  C   UNL A   1      38.128  31.006  34.442  1.00  0.00     0.064 C 
ATOM     10  N   UNL A   1      38.341  29.932  35.268  1.00  0.00    -0.160 NA
ATOM     11  C   UNL A   1      38.929  31.791  36.410  1.00  0.00     0.156 C 
ATOM     12  N   UNL A   1      38.786  30.310  36.384  1.00  0.00    -0.181 NA
ATOM     13  C   UNL A   1      38.162  32.327  37.628  1.00  0.00     0.040 C 
ENDBRANCH   6   7
BRANCH   6  14
ATOM     14  N   UNL A   1      39.688  34.210  35.046  1.00  0.00    -0.337 N 
ATOM     15  C   UNL A   1      40.956  34.296  34.489  1.00  0.00     0.244 C 
ATOM     16  H   UNL A   1      39.570  34.632  35.928  1.00  0.00     0.164 HD
ATOM     17  O   UNL A   1      41.925  34.074  35.215  1.00  0.00    -0.273 OA
BRANCH  15  18
ATOM     18  C   UNL A   1      41.061  34.879  33.075  1.00  0.00     0.178 C 
ATOM     19  C   UNL A   1      40.621  34.098  31.810  1.00  0.00     0.050 C 
ATOM     20  N   UNL A   1      42.442  35.377  32.822  1.00  0.00    -0.362 N 
ATOM     21  C   UNL A   1      41.658  34.546  30.814  1.00  0.00    -0.016 A 
ATOM     22  C   UNL A   1      40.364  32.615  31.932  1.00  0.00     0.015 C 
ATOM     23  C   UNL A   1      42.656  35.288  31.458  1.00  0.00     0.041 A 
ATOM     24  C   UNL A   1      43.142  36.322  33.662  1.00  0.00     0.144 C 
ATOM     25  C   UNL A   1      41.611  34.443  29.433  1.00  0.00     0.045 A 
ATOM     26  C   UNL A   1      43.667  35.885  30.721  1.00  0.00     0.029 A 
ATOM     27  C   UNL A   1      42.609  35.078  28.701  1.00  0.00     0.123 A 
ATOM     28  C   UNL A   1      43.638  35.785  29.329  1.00  0.00     0.041 A 
ATOM     29  F   UNL A   1      42.570  35.039  27.363  1.00  0.00    -0.207 F 
ENDBRANCH  15  18
ENDBRANCH   6  14
ENDBRANCH   4   6
ENDBRANCH   3   4
ENDBRANCH   2   3
ENDBRANCH   1   2
BRANCH   1  30
ATOM     30  O   UNL A   1      35.783  32.561  31.163  1.00  0.00    -0.458 OA
BRANCH  30  31
ATOM     31  C   UNL A   1      35.375  32.200  29.921  1.00  0.00     0.338 C 
ATOM     32  O   UNL A   1      34.431  32.663  29.293  1.00  0.00    -0.246 OA
BRANCH  31  33
ATOM     33  C   UNL A   1      36.483  31.459  29.275  1.00  0.00     0.060 A 
ATOM     34  C   UNL A   1      36.424  30.067  29.190  1.00  0.00     0.016 A 
ATOM     35  C   UNL A   1      37.712  32.131  29.177  1.00  0.00     0.016 A 
ATOM     36  C   UNL A   1      37.608  29.346  29.272  1.00  0.00     0.010 A 
ATOM     37  C   UNL A   1      38.895  31.400  29.269  1.00  0.00     0.010 A 
ATOM     38  C   UNL A   1      38.842  30.011  29.409  1.00  0.00    -0.014 A 
BRANCH  38  39
ATOM     39  C   UNL A   1      40.068  29.218  29.304  1.00  0.00     0.031 A 
ATOM     40  C   UNL A   1      40.487  28.820  30.648  1.00  0.00     0.074 A 
ATOM     41  C   UNL A   1      40.850  28.880  28.260  1.00  0.00     0.049 A 
ATOM     42  N   UNL A   1      41.318  29.503  31.356  1.00  0.00    -0.248 NA
ATOM     43  C   UNL A   1      39.744  27.787  31.370  1.00  0.00     0.031 C 
ATOM     44  C   UNL A   1      40.647  29.139  26.851  1.00  0.00     0.029 A 
ATOM     45  N   UNL A   1      42.041  28.201  28.259  1.00  0.00    -0.354 N 
ATOM     46  C   UNL A   1      41.373  28.855  32.566  1.00  0.00     0.074 A 
ATOM     47  C   UNL A   1      40.246  27.954  32.594  1.00  0.00     0.031 C 
ATOM     48  C   UNL A   1      41.566  28.490  26.101  1.00  0.00     0.029 A 
ATOM     49  C   UNL A   1      42.513  27.854  26.996  1.00  0.00     0.049 A 
ATOM     50  H   UNL A   1      42.524  27.977  29.087  1.00  0.00     0.167 HD
ATOM     51  C   UNL A   1      42.498  28.933  33.320  1.00  0.00     0.031 A 
ATOM     52  C   UNL A   1      43.701  27.306  26.629  1.00  0.00     0.031 A 
ATOM     53  C   UNL A   1      43.363  30.007  32.890  1.00  0.00     0.049 A 
ATOM     54  C   UNL A   1      44.663  27.676  27.689  1.00  0.00     0.074 A 
ATOM     55  C   UNL A   1      43.229  31.380  32.805  1.00  0.00     0.029 A 
ATOM     56  N   UNL A   1      44.410  29.673  32.063  1.00  0.00    -0.354 N 
ATOM     57  N   UNL A   1      45.122  28.887  27.828  1.00  0.00    -0.248 NA
ATOM     58  C   UNL A   1      44.773  26.823  28.861  1.00  0.00     0.031 C 
ATOM     59  C   UNL A   1      43.919  31.755  31.616  1.00  0.00     0.029 A 
ATOM     60  C   UNL A   1      44.500  30.613  31.064  1.00  0.00     0.049 A 
ATOM     61  H   UNL A   1      44.997  28.890  32.168  1.00  0.00     0.167 HD
ATOM     62  C   UNL A   1      45.138  29.093  29.197  1.00  0.00     0.074 A 
ATOM     63  C   UNL A   1      45.011  27.759  29.782  1.00  0.00     0.031 C 
ATOM     64  C   UNL A   1      44.986  30.343  29.722  1.00  0.00     0.031 A 
BRANCH  51  65
ATOM     65  C   UNL A   1      42.950  27.790  34.171  1.00  0.00    -0.014 A 
ATOM     66  C   UNL A   1      43.390  26.561  33.632  1.00  0.00     0.010 A 
ATOM     67  C   UNL A   1      43.152  28.000  35.545  1.00  0.00     0.010 A 
ATOM     68  C   UNL A   1      43.939  25.561  34.424  1.00  0.00     0.020 A 
ATOM     69  C   UNL A   1      43.751  27.020  36.343  1.00  0.00     0.020 A 
ATOM     70  C   UNL A   1      44.119  25.798  35.778  1.00  0.00     0.054 A 
BRANCH  70  71
ATOM     71  S   UNL A   1      44.877  24.490  36.763  1.00  0.00     0.124 S 
ATOM     72  O   UNL A   1      44.399  23.291  36.079  1.00  0.00    -0.237 OA
ATOM     73  O   UNL A   1      46.302  24.776  36.615  1.00  0.00    -0.237 OA
ATOM     74  O   UNL A   1      44.330  24.709  38.099  1.00  0.00    -0.744 OA
ENDBRANCH  70  71
ENDBRANCH  51  65
BRANCH  52  75
ATOM     75  C   UNL A   1      43.847  26.036  25.856  1.00  0.00    -0.014 A 
ATOM     76  C   UNL A   1      42.801  25.097  25.794  1.00  0.00     0.010 A 
ATOM     77  C   UNL A   1      45.125  25.626  25.415  1.00  0.00     0.010 A 
ATOM     78  C   UNL A   1      43.050  23.761  25.455  1.00  0.00     0.020 A 
ATOM     79  C   UNL A   1      45.382  24.288  25.076  1.00  0.00     0.020 A 
ATOM     80  C   UNL A   1      44.351  23.353  25.157  1.00  0.00     0.054 A 
BRANCH  80  81
ATOM     81  S   UNL A   1      44.685  21.574  25.007  1.00  0.00     0.124 S 
ATOM     82  O   UNL A   1      43.658  21.003  25.874  1.00  0.00    -0.237 OA
ATOM     83  O   UNL A   1      44.503  21.333  23.578  1.00  0.00    -0.237 OA
ATOM     84  O   UNL A   1      46.058  21.436  25.488  1.00  0.00    -0.744 OA
ENDBRANCH  80  81
ENDBRANCH  52  75
BRANCH  64  85
ATOM     85  C   UNL A   1      45.125  31.541  28.798  1.00  0.00    -0.014 A 
ATOM     86  C   UNL A   1      44.297  31.569  27.660  1.00  0.00     0.010 A 
ATOM     87  C   UNL A   1      46.118  32.535  28.921  1.00  0.00     0.010 A 
ATOM     88  C   UNL A   1      44.476  32.523  26.657  1.00  0.00     0.020 A 
ATOM     89  C   UNL A   1      46.286  33.517  27.927  1.00  0.00     0.020 A 
ATOM     90  C   UNL A   1      45.476  33.487  26.788  1.00  0.00     0.054 A 
BRANCH  90  91
ATOM     91  S   UNL A   1      45.702  34.669  25.431  1.00  0.00     0.124 S 
ATOM     92  O   UNL A   1      45.316  35.934  26.051  1.00  0.00    -0.237 OA
ATOM     93  O   UNL A   1      47.126  34.537  25.121  1.00  0.00    -0.237 OA
ATOM     94  O   UNL A   1      44.797  34.191  24.387  1.00  0.00    -0.744 OA
ENDBRANCH  90  91
ENDBRANCH  64  85
ENDBRANCH  38  39
ENDBRANCH  31  33
ENDBRANCH  30  31
ENDBRANCH   1  30
TORSDOF 17
ENDMDL
MODEL 2
REMARK VINA RESULT:     -10.1      4.957      8.349
REMARK SMILES CC1=C([C@H](NC(=O)[C@@H]2[C@H](C)c3cc(F)ccc3N2C)C(=O)OCCOC(=O)c2ccc(-c3c4nc(c(-c5ccc(S(=O)(=O)[O-])cc5)c5ccc([nH]5)c(-c5ccc(S(=O)(=O)[O-])cc5)c5nc(c(-c6ccc(S(=O)(=O)[O-])cc6)c6ccc3[nH]6)C=C5)C=C4)cc2)[C@@H](C)N=N1
REMARK SMILES IDX 24 1 23 2 22 3 20 4 21 5 4 6 3 7 1 8 2 9 91 10 88 11 90 12
REMARK SMILES IDX 89 13 5 14 6 15 7 17 8 18 9 19 18 20 11 21 10 22 17 23 19 24
REMARK SMILES IDX 12 25 16 26 13 27 15 28 14 29 25 30 26 31 27 32 28 33 29 34
REMARK SMILES IDX 87 35 30 36 86 37 31 38 32 39 33 40 80 41 34 42 85 43 79 44
REMARK SMILES IDX 81 45 35 46 84 47 78 48 77 49 36 51 66 52 47 53 65 54 48 55
REMARK SMILES IDX 51 56 64 57 82 58 49 59 50 60 63 62 83 63 52 64 37 65 38 66
REMARK SMILES IDX 46 67 39 68 45 69 40 70 41 71 42 72 43 73 44 74 67 75 68 76
REMARK SMILES IDX 76 77 69 78 75 79 70 80 71 81 72 82 73 83 74 84 53 85 54 86
REMARK SMILES IDX 62 87 55 88 61 89 56 90 57 91 58 92 59 93 60 94
REMARK H PARENT 5 16 81 50 51 61
REMARK Flexibility Score: inf
ROOT
ATOM      1  C   UNL A   1      33.364  31.241  27.298  1.00  0.00     0.275 C 
ENDROOT
BRANCH   1   2
ATOM      2  C   UNL A   1      33.081  29.720  27.288  1.00  0.00     0.274 C 
BRANCH   2   3
ATOM      3  O   UNL A   1      32.142  29.335  26.257  1.00  0.00    -0.460 OA
BRANCH   3   4
ATOM      4  C   UNL A   1      31.542  28.141  26.442  1.00  0.00     0.333 C 
ATOM      5  O   UNL A   1      30.936  27.882  27.472  1.00  0.00    -0.249 OA
BRANCH   4   6
ATOM      6  C   UNL A   1      31.722  27.106  25.301  1.00  0.00     0.223 C 
BRANCH   6   7
ATOM      7  C   UNL A   1      31.624  27.887  24.021  1.00  0.00     0.012 C 
ATOM      8  C   UNL A   1      34.027  28.701  23.601  1.00  0.00     0.069 C 
ATOM      9  C   UNL A   1      32.574  28.518  23.316  1.00  0.00     0.064 C 
ATOM     10  N   UNL A   1      32.086  29.033  22.142  1.00  0.00    -0.160 NA
ATOM     11  C   UNL A   1      30.359  28.054  23.221  1.00  0.00     0.156 C 
ATOM     12  N   UNL A   1      30.851  28.807  22.036  1.00  0.00    -0.181 NA
ATOM     13  C   UNL A   1      29.176  28.827  23.824  1.00  0.00     0.040 C 
ENDBRANCH   6   7
BRANCH   6  14
ATOM     14  N   UNL A   1      30.959  25.866  25.084  1.00  0.00    -0.337 N 
ATOM     15  C   UNL A   1      31.385  24.718  24.433  1.00  0.00     0.244 C 
ATOM     16  H   UNL A   1      30.042  25.848  25.443  1.00  0.00     0.164 HD
ATOM     17  O   UNL A   1      30.614  24.182  23.637  1.00  0.00    -0.273 OA
BRANCH  15  18
ATOM     18  C   UNL A   1      32.693  24.081  24.919  1.00  0.00     0.178 C 
ATOM     19  C   UNL A   1      34.065  24.375  24.260  1.00  0.00     0.050 C 
ATOM     20  N   UNL A   1      32.552  22.601  24.991  1.00  0.00    -0.362 N 
ATOM     21  C   UNL A   1      34.732  23.029  24.361  1.00  0.00    -0.016 A 
ATOM     22  C   UNL A   1      34.086  25.065  22.917  1.00  0.00     0.015 C 
ATOM     23  C   UNL A   1      33.815  22.068  24.804  1.00  0.00     0.041 A 
ATOM     24  C   UNL A   1      31.513  21.909  25.721  1.00  0.00     0.144 C 
ATOM     25  C   UNL A   1      36.081  22.736  24.234  1.00  0.00     0.045 A 
ATOM     26  C   UNL A   1      34.232  20.772  25.064  1.00  0.00     0.029 A 
ATOM     27  C   UNL A   1      36.495  21.442  24.534  1.00  0.00     0.123 A 
ATOM     28  C   UNL A   1      35.586  20.459  24.935  1.00  0.00     0.041 A 
ATOM     29  F   UNL A   1      37.797  21.136  24.468  1.00  0.00    -0.207 F 
ENDBRANCH  15  18
ENDBRANCH   6  14
ENDBRANCH   4   6
ENDBRANCH   3   4
ENDBRANCH   2   3
ENDBRANCH   1   2
BRANCH   1  30
ATOM     30  O   UNL A   1      34.317  31.589  28.323  1.00  0.00    -0.458 OA
BRANCH  30  31
ATOM     31  C   UNL A   1      35.547  32.046  27.977  1.00  0.00     0.338 C 
ATOM     32  O   UNL A   1      35.832  33.174  27.594  1.00  0.00    -0.246 OA
BRANCH  31  33
ATOM     33  C   UNL A   1      36.553  31.105  28.522  1.00  0.00     0.060 A 
ATOM     34  C   UNL A   1      37.733  31.603  29.076  1.00  0.00     0.016 A 
ATOM     35  C   UNL A   1      36.478  29.778  28.070  1.00  0.00     0.016 A 
ATOM     36  C   UNL A   1      38.898  30.861  28.934  1.00  0.00     0.010 A 
ATOM     37  C   UNL A   1      37.653  29.044  27.923  1.00  0.00     0.010 A 
ATOM     38  C   UNL A   1      38.877  29.619  28.270  1.00  0.00    -0.014 A 
BRANCH  38  39
ATOM     39  C   UNL A   1      40.087  28.795  28.312  1.00  0.00     0.031 A 
ATOM     40  C   UNL A   1      40.418  28.515  29.709  1.00  0.00     0.074 A 
ATOM     41  C   UNL A   1      40.920  28.347  27.351  1.00  0.00     0.049 A 
ATOM     42  N   UNL A   1      41.223  29.244  30.400  1.00  0.00    -0.248 NA
ATOM     43  C   UNL A   1      39.609  27.568  30.476  1.00  0.00     0.031 C 
ATOM     44  C   UNL A   1      40.805  28.478  25.915  1.00  0.00     0.029 A 
ATOM     45  N   UNL A   1      42.091  27.647  27.484  1.00  0.00    -0.354 N 
ATOM     46  C   UNL A   1      41.193  28.710  31.665  1.00  0.00     0.074 A 
ATOM     47  C   UNL A   1      40.043  27.838  31.708  1.00  0.00     0.031 C 
ATOM     48  C   UNL A   1      41.749  27.745  25.284  1.00  0.00     0.029 A 
ATOM     49  C   UNL A   1      42.626  27.176  26.288  1.00  0.00     0.049 A 
ATOM     50  H   UNL A   1      42.520  27.491  28.356  1.00  0.00     0.167 HD
ATOM     51  C   UNL A   1      42.273  28.835  32.475  1.00  0.00     0.031 A 
ATOM     52  C   UNL A   1      43.819  26.572  26.044  1.00  0.00     0.031 A 
ATOM     53  C   UNL A   1      43.189  29.847  32.002  1.00  0.00     0.049 A 
ATOM     54  C   UNL A   1      44.727  27.020  27.122  1.00  0.00     0.074 A 
ATOM     55  C   UNL A   1      43.095  31.209  31.784  1.00  0.00     0.029 A 
ATOM     56  N   UNL A   1      44.273  29.417  31.272  1.00  0.00    -0.354 N 
ATOM     57  N   UNL A   1      45.209  28.228  27.177  1.00  0.00    -0.248 NA
ATOM     58  C   UNL A   1      44.748  26.276  28.371  1.00  0.00     0.031 C 
ATOM     59  C   UNL A   1      43.862  31.459  30.609  1.00  0.00     0.029 A 
ATOM     60  C   UNL A   1      44.444  30.259  30.200  1.00  0.00     0.049 A 
ATOM     61  H   UNL A   1      44.833  28.636  31.483  1.00  0.00     0.167 HD
ATOM     62  C   UNL A   1      45.150  28.560  28.520  1.00  0.00     0.074 A 
ATOM     63  C   UNL A   1      44.956  27.288  29.216  1.00  0.00     0.031 C 
ATOM     64  C   UNL A   1      45.000  29.856  28.919  1.00  0.00     0.031 A 
BRANCH  51  65
ATOM     65  C   UNL A   1      42.647  27.766  33.453  1.00  0.00    -0.014 A 
ATOM     66  C   UNL A   1      43.420  26.640  33.097  1.00  0.00     0.010 A 
ATOM     67  C   UNL A   1      42.409  27.980  34.820  1.00  0.00     0.010 A 
ATOM     68  C   UNL A   1      43.878  25.729  34.041  1.00  0.00     0.020 A 
ATOM     69  C   UNL A   1      42.910  27.098  35.783  1.00  0.00     0.020 A 
ATOM     70  C   UNL A   1      43.621  25.966  35.382  1.00  0.00     0.054 A 
BRANCH  70  71
ATOM     71  S   UNL A   1      44.273  24.784  36.580  1.00  0.00     0.124 S 
ATOM     72  O   UNL A   1      43.499  25.116  37.773  1.00  0.00    -0.237 OA
ATOM     73  O   UNL A   1      43.956  23.503  35.956  1.00  0.00    -0.237 OA
ATOM     74  O   UNL A   1      45.694  25.115  36.644  1.00  0.00    -0.744 OA
ENDBRANCH  70  71
ENDBRANCH  51  65
BRANCH  52  75
ATOM     75  C   UNL A   1      43.978  25.233  25.401  1.00  0.00    -0.014 A 
ATOM     76  C   UNL A   1      42.924  24.301  25.392  1.00  0.00     0.010 A 
ATOM     77  C   UNL A   1      45.265  24.775  25.044  1.00  0.00     0.010 A 
ATOM     78  C   UNL A   1      43.170  22.936  25.190  1.00  0.00     0.020 A 
ATOM     79  C   UNL A   1      45.519  23.408  24.843  1.00  0.00     0.020 A 
ATOM     80  C   UNL A   1      44.476  22.493  24.976  1.00  0.00     0.054 A 
BRANCH  80  81
ATOM     81  S   UNL A   1      44.796  20.705  25.007  1.00  0.00     0.124 S 
ATOM     82  O   UNL A   1      44.703  20.361  23.591  1.00  0.00    -0.237 OA
ATOM     83  O   UNL A   1      46.136  20.630  25.583  1.00  0.00    -0.237 OA
ATOM     84  O   UNL A   1      43.729  20.174  25.851  1.00  0.00    -0.744 OA
ENDBRANCH  80  81
ENDBRANCH  52  75
BRANCH  64  85
ATOM     85  C   UNL A   1      45.222  30.961  27.900  1.00  0.00    -0.014 A 
ATOM     86  C   UNL A   1      46.467  31.616  27.929  1.00  0.00     0.010 A 
ATOM     87  C   UNL A   1      44.224  31.469  27.042  1.00  0.00     0.010 A 
ATOM     88  C   UNL A   1      46.702  32.762  27.167  1.00  0.00     0.020 A 
ATOM     89  C   UNL A   1      44.463  32.607  26.249  1.00  0.00     0.020 A 
ATOM     90  C   UNL A   1      45.696  33.260  26.338  1.00  0.00     0.054 A 
BRANCH  90  91
ATOM     91  S   UNL A   1      46.033  34.783  25.411  1.00  0.00     0.124 S 
ATOM     92  O   UNL A   1      45.587  35.818  26.340  1.00  0.00    -0.237 OA
ATOM     93  O   UNL A   1      47.479  34.718  25.199  1.00  0.00    -0.237 OA
ATOM     94  O   UNL A   1      45.226  34.650  24.200  1.00  0.00    -0.744 OA
ENDBRANCH  90  91
ENDBRANCH  64  85
ENDBRANCH  38  39
ENDBRANCH  31  33
ENDBRANCH  30  31
ENDBRANCH   1  30
TORSDOF 17
ENDMDL
MODEL 3
REMARK VINA RESULT:     -10.0      5.164     11.892
REMARK SMILES CC1=C([C@H](NC(=O)[C@@H]2[C@H](C)c3cc(F)ccc3N2C)C(=O)OCCOC(=O)c2ccc(-c3c4nc(c(-c5ccc(S(=O)(=O)[O-])cc5)c5ccc([nH]5)c(-c5ccc(S(=O)(=O)[O-])cc5)c5nc(c(-c6ccc(S(=O)(=O)[O-])cc6)c6ccc3[nH]6)C=C5)C=C4)cc2)[C@@H](C)N=N1
REMARK SMILES IDX 24 1 23 2 22 3 20 4 21 5 4 6 3 7 1 8 2 9 91 10 88 11 90 12
REMARK SMILES IDX 89 13 5 14 6 15 7 17 8 18 9 19 18 20 11 21 10 22 17 23 19 24
REMARK SMILES IDX 12 25 16 26 13 27 15 28 14 29 25 30 26 31 27 32 28 33 29 34
REMARK SMILES IDX 87 35 30 36 86 37 31 38 32 39 33 40 80 41 34 42 85 43 79 44
REMARK SMILES IDX 81 45 35 46 84 47 78 48 77 49 36 51 66 52 47 53 65 54 48 55
REMARK SMILES IDX 51 56 64 57 82 58 49 59 50 60 63 62 83 63 52 64 37 65 38 66
REMARK SMILES IDX 46 67 39 68 45 69 40 70 41 71 42 72 43 73 44 74 67 75 68 76
REMARK SMILES IDX 76 77 69 78 75 79 70 80 71 81 72 82 73 83 74 84 53 85 54 86
REMARK SMILES IDX 62 87 55 88 61 89 56 90 57 91 58 92 59 93 60 94
REMARK H PARENT 5 16 81 50 51 61
REMARK Flexibility Score: inf
ROOT
ATOM      1  C   UNL A   1      38.197  22.539  25.907  1.00  0.00     0.275 C 
ENDROOT
BRANCH   1   2
ATOM      2  C   UNL A   1      37.921  21.205  25.176  1.00  0.00     0.274 C 
BRANCH   2   3
ATOM      3  O   UNL A   1      36.569  21.118  24.665  1.00  0.00    -0.460 OA
BRANCH   3   4
ATOM      4  C   UNL A   1      36.170  22.162  23.911  1.00  0.00     0.333 C 
ATOM      5  O   UNL A   1      36.880  22.622  23.029  1.00  0.00    -0.249 OA
BRANCH   4   6
ATOM      6  C   UNL A   1      34.793  22.776  24.274  1.00  0.00     0.223 C 
BRANCH   6   7
ATOM      7  C   UNL A   1      34.071  21.722  25.065  1.00  0.00     0.012 C 
ATOM      8  C   UNL A   1      32.601  20.530  23.324  1.00  0.00     0.069 C 
ATOM      9  C   UNL A   1      33.193  20.789  24.668  1.00  0.00     0.064 C 
ATOM     10  N   UNL A   1      32.838  19.949  25.693  1.00  0.00    -0.160 NA
ATOM     11  C   UNL A   1      34.273  21.476  26.537  1.00  0.00     0.156 C 
ATOM     12  N   UNL A   1      33.409  20.286  26.764  1.00  0.00    -0.181 NA
ATOM     13  C   UNL A   1      33.873  22.560  27.550  1.00  0.00     0.040 C 
ENDBRANCH   6   7
BRANCH   6  14
ATOM     14  N   UNL A   1      33.797  23.354  23.357  1.00  0.00    -0.337 N 
ATOM     15  C   UNL A   1      32.744  24.198  23.681  1.00  0.00     0.244 C 
ATOM     16  H   UNL A   1      33.888  23.117  22.406  1.00  0.00     0.164 HD
ATOM     17  O   UNL A   1      31.643  23.971  23.178  1.00  0.00    -0.273 OA
BRANCH  15  18
ATOM     18  C   UNL A   1      33.083  25.475  24.460  1.00  0.00     0.178 C 
ATOM     19  C   UNL A   1      32.533  25.761  25.881  1.00  0.00     0.050 C 
ATOM     20  N   UNL A   1      32.798  26.678  23.630  1.00  0.00    -0.362 N 
ATOM     21  C   UNL A   1      32.320  27.251  25.816  1.00  0.00    -0.016 A 
ATOM     22  C   UNL A   1      31.394  24.915  26.397  1.00  0.00     0.015 C 
ATOM     23  C   UNL A   1      32.508  27.709  24.507  1.00  0.00     0.041 A 
ATOM     24  C   UNL A   1      33.327  26.905  22.304  1.00  0.00     0.144 C 
ATOM     25  C   UNL A   1      32.147  28.132  26.872  1.00  0.00     0.045 A 
ATOM     26  C   UNL A   1      32.457  29.065  24.226  1.00  0.00     0.029 A 
ATOM     27  C   UNL A   1      32.135  29.493  26.585  1.00  0.00     0.123 A 
ATOM     28  C   UNL A   1      32.277  29.966  25.278  1.00  0.00     0.041 A 
ATOM     29  F   UNL A   1      32.017  30.375  27.587  1.00  0.00    -0.207 F 
ENDBRANCH  15  18
ENDBRANCH   6  14
ENDBRANCH   4   6
ENDBRANCH   3   4
ENDBRANCH   2   3
ENDBRANCH   1   2
BRANCH   1  30
ATOM     30  O   UNL A   1      39.220  22.384  26.910  1.00  0.00    -0.458 OA
BRANCH  30  31
ATOM     31  C   UNL A   1      40.529  22.464  26.561  1.00  0.00     0.338 C 
ATOM     32  O   UNL A   1      41.133  21.723  25.796  1.00  0.00    -0.246 OA
BRANCH  31  33
ATOM     33  C   UNL A   1      41.014  23.818  26.917  1.00  0.00     0.060 A 
ATOM     34  C   UNL A   1      41.414  24.084  28.227  1.00  0.00     0.016 A 
ATOM     35  C   UNL A   1      40.641  24.863  26.057  1.00  0.00     0.016 A 
ATOM     36  C   UNL A   1      41.189  25.352  28.746  1.00  0.00     0.010 A 
ATOM     37  C   UNL A   1      40.410  26.130  26.588  1.00  0.00     0.010 A 
ATOM     38  C   UNL A   1      40.597  26.353  27.954  1.00  0.00    -0.014 A 
BRANCH  38  39
ATOM     39  C   UNL A   1      40.554  27.717  28.485  1.00  0.00     0.031 A 
ATOM     40  C   UNL A   1      41.752  28.432  28.044  1.00  0.00     0.074 A 
ATOM     41  C   UNL A   1      39.693  28.350  29.306  1.00  0.00     0.049 A 
ATOM     42  N   UNL A   1      42.832  28.489  28.742  1.00  0.00    -0.248 NA
ATOM     43  C   UNL A   1      41.879  28.856  26.650  1.00  0.00     0.031 C 
ATOM     44  C   UNL A   1      38.445  27.872  29.859  1.00  0.00     0.029 A 
ATOM     45  N   UNL A   1      39.773  29.615  29.829  1.00  0.00    -0.354 N 
ATOM     46  C   UNL A   1      43.734  29.159  27.952  1.00  0.00     0.074 A 
ATOM     47  C   UNL A   1      43.176  29.168  26.620  1.00  0.00     0.031 C 
ATOM     48  C   UNL A   1      37.784  28.863  30.498  1.00  0.00     0.029 A 
ATOM     49  C   UNL A   1      38.631  30.040  30.503  1.00  0.00     0.049 A 
ATOM     50  H   UNL A   1      40.576  30.177  29.737  1.00  0.00     0.167 HD
ATOM     51  C   UNL A   1      44.732  29.874  28.527  1.00  0.00     0.031 A 
ATOM     52  C   UNL A   1      38.420  31.161  31.241  1.00  0.00     0.031 A 
ATOM     53  C   UNL A   1      44.915  29.525  29.917  1.00  0.00     0.049 A 
ATOM     54  C   UNL A   1      39.752  31.581  31.729  1.00  0.00     0.074 A 
ATOM     55  C   UNL A   1      45.255  28.364  30.584  1.00  0.00     0.029 A 
ATOM     56  N   UNL A   1      44.320  30.343  30.850  1.00  0.00    -0.354 N 
ATOM     57  N   UNL A   1      40.393  30.937  32.661  1.00  0.00    -0.248 NA
ATOM     58  C   UNL A   1      40.565  32.441  30.884  1.00  0.00     0.031 C 
ATOM     59  C   UNL A   1      44.473  28.369  31.776  1.00  0.00     0.029 A 
ATOM     60  C   UNL A   1      43.744  29.558  31.820  1.00  0.00     0.049 A 
ATOM     61  H   UNL A   1      44.309  31.327  30.827  1.00  0.00     0.167 HD
ATOM     62  C   UNL A   1      41.710  30.934  32.232  1.00  0.00     0.074 A 
ATOM     63  C   UNL A   1      41.771  31.958  31.191  1.00  0.00     0.031 C 
ATOM     64  C   UNL A   1      42.559  29.923  32.577  1.00  0.00     0.031 A 
BRANCH  51  65
ATOM     65  C   UNL A   1      45.246  31.137  27.911  1.00  0.00    -0.014 A 
ATOM     66  C   UNL A   1      46.486  31.211  27.240  1.00  0.00     0.010 A 
ATOM     67  C   UNL A   1      44.386  32.242  27.803  1.00  0.00     0.010 A 
ATOM     68  C   UNL A   1      46.887  32.349  26.552  1.00  0.00     0.020 A 
ATOM     69  C   UNL A   1      44.759  33.373  27.069  1.00  0.00     0.020 A 
ATOM     70  C   UNL A   1      46.017  33.425  26.469  1.00  0.00     0.054 A 
BRANCH  70  71
ATOM     71  S   UNL A   1      46.558  34.867  25.528  1.00  0.00     0.124 S 
ATOM     72  O   UNL A   1      47.984  34.594  25.363  1.00  0.00    -0.237 OA
ATOM     73  O   UNL A   1      45.751  34.767  24.315  1.00  0.00    -0.237 OA
ATOM     74  O   UNL A   1      46.233  35.988  26.406  1.00  0.00    -0.744 OA
ENDBRANCH  70  71
ENDBRANCH  51  65
BRANCH  52  75
ATOM     75  C   UNL A   1      37.338  32.157  30.982  1.00  0.00    -0.014 A 
ATOM     76  C   UNL A   1      36.000  31.884  31.323  1.00  0.00     0.010 A 
ATOM     77  C   UNL A   1      37.589  33.264  30.141  1.00  0.00     0.010 A 
ATOM     78  C   UNL A   1      34.945  32.585  30.724  1.00  0.00     0.020 A 
ATOM     79  C   UNL A   1      36.537  33.970  29.536  1.00  0.00     0.020 A 
ATOM     80  C   UNL A   1      35.221  33.584  29.789  1.00  0.00     0.054 A 
BRANCH  80  81
ATOM     81  S   UNL A   1      33.842  34.269  28.825  1.00  0.00     0.124 S 
ATOM     82  O   UNL A   1      34.486  35.383  28.134  1.00  0.00    -0.237 OA
ATOM     83  O   UNL A   1      33.456  33.145  27.976  1.00  0.00    -0.237 OA
ATOM     84  O   UNL A   1      32.861  34.644  29.840  1.00  0.00    -0.744 OA
ENDBRANCH  80  81
ENDBRANCH  52  75
BRANCH  64  85
ATOM     85  C   UNL A   1      42.148  28.976  33.690  1.00  0.00    -0.014 A 
ATOM     86  C   UNL A   1      42.670  29.232  34.972  1.00  0.00     0.010 A 
ATOM     87  C   UNL A   1      41.414  27.786  33.498  1.00  0.00     0.010 A 
ATOM     88  C   UNL A   1      42.507  28.320  36.017  1.00  0.00     0.020 A 
ATOM     89  C   UNL A   1      41.222  26.876  34.554  1.00  0.00     0.020 A 
ATOM     90  C   UNL A   1      41.794  27.140  35.802  1.00  0.00     0.054 A 
BRANCH  90  91
ATOM     91  S   UNL A   1      41.660  25.965  37.177  1.00  0.00     0.124 S 
ATOM     92  O   UNL A   1      41.894  24.683  36.515  1.00  0.00    -0.237 OA
ATOM     93  O   UNL A   1      42.723  26.402  38.081  1.00  0.00    -0.237 OA
ATOM     94  O   UNL A   1      40.302  26.160  37.682  1.00  0.00    -0.744 OA
ENDBRANCH  90  91
ENDBRANCH  64  85
ENDBRANCH  38  39
ENDBRANCH  31  33
ENDBRANCH  30  31
ENDBRANCH   1  30
TORSDOF 17
ENDMDL
