MODEL 1
REMARK VINA RESULT:     -11.6      0.000      0.000
REMARK SMILES O=C(COc1ccc(Br)cc1/C=C1\C(=O)Nc2ccc(Br)cc21)OCCOC(=O)c1ccc(-c2c3nc(c(-c4ccc(S(=O)(=O)[O-])cc4)c4ccc([nH]4)c(-c4ccc(S(=O)(=O)[O-])cc4)c4nc(c(-c5ccc(S(=O)(=O)[O-])cc5)c5ccc2[nH]5)C=C4)C=C3)cc1
REMARK SMILES IDX 25 1 24 2 2 3 1 4 3 5 4 6 5 7 6 8 11 9 7 10 10 11 8 12 9 13
REMARK SMILES IDX 12 14 13 15 14 16 23 17 15 18 16 19 17 20 22 21 18 23 20 24
REMARK SMILES IDX 19 25 21 26 26 27 27 28 28 29 29 30 30 31 31 32 89 33 32 34
REMARK SMILES IDX 88 35 33 36 34 37 35 38 82 39 36 40 87 41 81 42 83 43 37 44
REMARK SMILES IDX 86 45 80 46 79 47 38 49 68 50 49 51 67 52 50 53 53 54 66 55
REMARK SMILES IDX 84 56 51 57 52 58 65 60 85 61 54 62 39 63 40 64 48 65 41 66
REMARK SMILES IDX 47 67 42 68 43 69 44 70 45 71 46 72 69 73 70 74 78 75 71 76
REMARK SMILES IDX 77 77 72 78 73 79 74 80 75 81 76 82 55 83 56 84 64 85 57 86
REMARK SMILES IDX 63 87 58 88 59 89 60 90 61 91 62 92
REMARK H PARENT 16 22 83 48 53 59
REMARK Flexibility Score: inf
ROOT
ATOM      1  C   UNL A   1      31.987  28.639  26.714  1.00  0.00     0.274 C 
ENDROOT
BRANCH   1   2
ATOM      2  O   UNL A   1      33.022  27.645  26.837  1.00  0.00    -0.460 OA
BRANCH   2   3
ATOM      3  C   UNL A   1      33.550  27.015  25.755  1.00  0.00     0.344 C 
ATOM      4  O   UNL A   1      33.987  25.871  25.858  1.00  0.00    -0.248 OA
BRANCH   3   5
ATOM      5  C   UNL A   1      33.480  27.734  24.403  1.00  0.00     0.352 C 
BRANCH   5   6
ATOM      6  O   UNL A   1      33.005  26.955  23.292  1.00  0.00    -0.481 OA
BRANCH   6   7
ATOM      7  C   UNL A   1      31.672  27.248  23.071  1.00  0.00     0.127 A 
ATOM      8  C   UNL A   1      31.372  28.551  22.631  1.00  0.00     0.048 A 
ATOM      9  C   UNL A   1      30.656  26.313  23.364  1.00  0.00     0.018 A 
ATOM     10  C   UNL A   1      30.064  29.016  22.647  1.00  0.00     0.019 A 
ATOM     11  C   UNL A   1      29.358  26.845  23.433  1.00  0.00     0.027 A 
ATOM     12  C   UNL A   1      29.065  28.167  23.084  1.00  0.00     0.018 A 
ATOM     13  Br  UNL A   1      27.289  28.801  23.226  1.00  0.00    -0.051 Br
BRANCH   9  14
ATOM     14  C   UNL A   1      30.973  24.883  23.666  1.00  0.00     0.026 C 
ATOM     15  C   UNL A   1      30.916  24.198  24.830  1.00  0.00     0.050 C 
ATOM     16  C   UNL A   1      30.562  24.723  26.201  1.00  0.00     0.256 C 
ATOM     17  C   UNL A   1      31.684  22.966  25.082  1.00  0.00     0.012 A 
ATOM     18  O   UNL A   1      29.587  25.359  26.526  1.00  0.00    -0.269 OA
ATOM     19  N   UNL A   1      31.547  24.198  27.018  1.00  0.00    -0.321 N 
ATOM     20  C   UNL A   1      32.184  23.138  26.377  1.00  0.00     0.049 A 
ATOM     21  C   UNL A   1      31.895  21.772  24.420  1.00  0.00     0.026 A 
ATOM     22  H   UNL A   1      31.766  24.526  27.920  1.00  0.00     0.170 HD
ATOM     23  C   UNL A   1      33.053  22.256  26.968  1.00  0.00     0.028 A 
ATOM     24  C   UNL A   1      32.711  20.818  25.051  1.00  0.00     0.018 A 
ATOM     25  C   UNL A   1      33.339  21.081  26.282  1.00  0.00     0.018 A 
ATOM     26  Br  UNL A   1      32.910  19.097  24.287  1.00  0.00    -0.051 Br
ENDBRANCH   9  14
ENDBRANCH   6   7
ENDBRANCH   5   6
ENDBRANCH   3   5
ENDBRANCH   2   3
ENDBRANCH   1   2
BRANCH   1  27
ATOM     27  C   UNL A   1      32.554  30.026  27.022  1.00  0.00     0.275 C 
BRANCH  27  28
ATOM     28  O   UNL A   1      33.984  29.926  27.144  1.00  0.00    -0.458 OA
BRANCH  28  29
ATOM     29  C   UNL A   1      34.570  30.756  28.048  1.00  0.00     0.338 C 
ATOM     30  O   UNL A   1      34.035  31.660  28.662  1.00  0.00    -0.246 OA
BRANCH  29  31
ATOM     31  C   UNL A   1      35.946  30.264  28.297  1.00  0.00     0.060 A 
ATOM     32  C   UNL A   1      36.906  30.260  27.281  1.00  0.00     0.016 A 
ATOM     33  C   UNL A   1      36.269  29.769  29.567  1.00  0.00     0.016 A 
ATOM     34  C   UNL A   1      38.186  29.766  27.540  1.00  0.00     0.010 A 
ATOM     35  C   UNL A   1      37.555  29.283  29.828  1.00  0.00     0.010 A 
ATOM     36  C   UNL A   1      38.527  29.289  28.818  1.00  0.00    -0.014 A 
BRANCH  36  37
ATOM     37  C   UNL A   1      39.943  28.957  29.108  1.00  0.00     0.031 A 
ATOM     38  C   UNL A   1      40.835  29.873  29.892  1.00  0.00     0.074 A 
ATOM     39  C   UNL A   1      40.409  27.764  28.687  1.00  0.00     0.049 A 
ATOM     40  N   UNL A   1      42.035  29.631  30.355  1.00  0.00    -0.248 NA
ATOM     41  C   UNL A   1      40.332  31.220  30.200  1.00  0.00     0.031 C 
ATOM     42  C   UNL A   1      39.642  26.801  27.893  1.00  0.00     0.029 A 
ATOM     43  N   UNL A   1      41.615  27.143  28.894  1.00  0.00    -0.354 N 
ATOM     44  C   UNL A   1      42.429  30.783  31.021  1.00  0.00     0.074 A 
ATOM     45  C   UNL A   1      41.349  31.739  30.883  1.00  0.00     0.031 C 
ATOM     46  C   UNL A   1      40.377  25.693  27.721  1.00  0.00     0.029 A 
ATOM     47  C   UNL A   1      41.671  25.870  28.377  1.00  0.00     0.049 A 
ATOM     48  H   UNL A   1      42.366  27.567  29.368  1.00  0.00     0.167 HD
ATOM     49  C   UNL A   1      43.576  31.005  31.703  1.00  0.00     0.031 A 
ATOM     50  C   UNL A   1      42.638  24.933  28.442  1.00  0.00     0.031 A 
ATOM     51  C   UNL A   1      44.633  30.046  31.867  1.00  0.00     0.049 A 
ATOM     52  C   UNL A   1      43.887  25.206  29.229  1.00  0.00     0.074 A 
ATOM     53  C   UNL A   1      45.808  30.196  32.586  1.00  0.00     0.029 A 
ATOM     54  N   UNL A   1      44.653  28.774  31.324  1.00  0.00    -0.354 N 
ATOM     55  N   UNL A   1      44.199  26.273  29.923  1.00  0.00    -0.248 NA
ATOM     56  C   UNL A   1      44.905  24.146  29.262  1.00  0.00     0.031 C 
ATOM     57  C   UNL A   1      46.547  29.020  32.465  1.00  0.00     0.029 A 
ATOM     58  C   UNL A   1      45.822  28.129  31.691  1.00  0.00     0.049 A 
ATOM     59  H   UNL A   1      43.943  28.387  30.763  1.00  0.00     0.167 HD
ATOM     60  C   UNL A   1      45.434  25.999  30.500  1.00  0.00     0.074 A 
ATOM     61  C   UNL A   1      45.810  24.667  30.081  1.00  0.00     0.031 C 
ATOM     62  C   UNL A   1      46.182  26.791  31.303  1.00  0.00     0.031 A 
BRANCH  49  63
ATOM     63  C   UNL A   1      43.761  32.313  32.408  1.00  0.00    -0.014 A 
ATOM     64  C   UNL A   1      44.451  33.374  31.796  1.00  0.00     0.010 A 
ATOM     65  C   UNL A   1      43.423  32.398  33.767  1.00  0.00     0.010 A 
ATOM     66  C   UNL A   1      44.769  34.524  32.527  1.00  0.00     0.020 A 
ATOM     67  C   UNL A   1      43.769  33.529  34.503  1.00  0.00     0.020 A 
ATOM     68  C   UNL A   1      44.417  34.594  33.876  1.00  0.00     0.054 A 
BRANCH  68  69
ATOM     69  S   UNL A   1      44.696  36.105  34.836  1.00  0.00     0.124 S 
ATOM     70  O   UNL A   1      44.894  37.105  33.793  1.00  0.00    -0.237 OA
ATOM     71  O   UNL A   1      43.472  36.239  35.621  1.00  0.00    -0.237 OA
ATOM     72  O   UNL A   1      45.884  35.751  35.613  1.00  0.00    -0.744 OA
ENDBRANCH  68  69
ENDBRANCH  49  63
BRANCH  50  73
ATOM     73  C   UNL A   1      42.404  23.612  27.800  1.00  0.00    -0.014 A 
ATOM     74  C   UNL A   1      41.589  22.651  28.426  1.00  0.00     0.010 A 
ATOM     75  C   UNL A   1      43.060  23.282  26.602  1.00  0.00     0.010 A 
ATOM     76  C   UNL A   1      41.472  21.367  27.888  1.00  0.00     0.020 A 
ATOM     77  C   UNL A   1      42.923  22.008  26.046  1.00  0.00     0.020 A 
ATOM     78  C   UNL A   1      42.151  21.051  26.708  1.00  0.00     0.054 A 
BRANCH  78  79
ATOM     79  S   UNL A   1      42.017  19.367  26.048  1.00  0.00     0.124 S 
ATOM     80  O   UNL A   1      42.550  18.572  27.151  1.00  0.00    -0.237 OA
ATOM     81  O   UNL A   1      40.584  19.229  25.808  1.00  0.00    -0.237 OA
ATOM     82  O   UNL A   1      42.846  19.406  24.847  1.00  0.00    -0.744 OA
ENDBRANCH  78  79
ENDBRANCH  50  73
BRANCH  62  83
ATOM     83  C   UNL A   1      47.491  26.264  31.824  1.00  0.00    -0.014 A 
ATOM     84  C   UNL A   1      48.665  26.456  31.073  1.00  0.00     0.010 A 
ATOM     85  C   UNL A   1      47.529  25.444  32.964  1.00  0.00     0.010 A 
ATOM     86  C   UNL A   1      49.848  25.805  31.429  1.00  0.00     0.020 A 
ATOM     87  C   UNL A   1      48.717  24.809  33.338  1.00  0.00     0.020 A 
ATOM     88  C   UNL A   1      49.862  24.973  32.552  1.00  0.00     0.054 A 
BRANCH  88  89
ATOM     89  S   UNL A   1      51.392  24.097  32.975  1.00  0.00     0.124 S 
ATOM     90  O   UNL A   1      51.029  22.706  32.722  1.00  0.00    -0.237 OA
ATOM     91  O   UNL A   1      52.362  24.673  32.048  1.00  0.00    -0.237 OA
ATOM     92  O   UNL A   1      51.606  24.440  34.379  1.00  0.00    -0.744 OA
ENDBRANCH  88  89
ENDBRANCH  62  83
ENDBRANCH  36  37
ENDBRANCH  29  31
ENDBRANCH  28  29
ENDBRANCH  27  28
ENDBRANCH   1  27
TORSDOF 17
ENDMDL
MODEL 2
REMARK VINA RESULT:     -11.3      1.738      8.790
REMARK SMILES O=C(COc1ccc(Br)cc1/C=C1\C(=O)Nc2ccc(Br)cc21)OCCOC(=O)c1ccc(-c2c3nc(c(-c4ccc(S(=O)(=O)[O-])cc4)c4ccc([nH]4)c(-c4ccc(S(=O)(=O)[O-])cc4)c4nc(c(-c5ccc(S(=O)(=O)[O-])cc5)c5ccc2[nH]5)C=C4)C=C3)cc1
REMARK SMILES IDX 25 1 24 2 2 3 1 4 3 5 4 6 5 7 6 8 11 9 7 10 10 11 8 12 9 13
REMARK SMILES IDX 12 14 13 15 14 16 23 17 15 18 16 19 17 20 22 21 18 23 20 24
REMARK SMILES IDX 19 25 21 26 26 27 27 28 28 29 29 30 30 31 31 32 89 33 32 34
REMARK SMILES IDX 88 35 33 36 34 37 35 38 82 39 36 40 87 41 81 42 83 43 37 44
REMARK SMILES IDX 86 45 80 46 79 47 38 49 68 50 49 51 67 52 50 53 53 54 66 55
REMARK SMILES IDX 84 56 51 57 52 58 65 60 85 61 54 62 39 63 40 64 48 65 41 66
REMARK SMILES IDX 47 67 42 68 43 69 44 70 45 71 46 72 69 73 70 74 78 75 71 76
REMARK SMILES IDX 77 77 72 78 73 79 74 80 75 81 76 82 55 83 56 84 64 85 57 86
REMARK SMILES IDX 63 87 58 88 59 89 60 90 61 91 62 92
REMARK H PARENT 16 22 83 48 53 59
REMARK Flexibility Score: inf
ROOT
ATOM      1  C   UNL A   1      32.020  29.171  25.964  1.00  0.00     0.274 C 
ENDROOT
BRANCH   1   2
ATOM      2  O   UNL A   1      32.334  27.765  25.948  1.00  0.00    -0.460 OA
BRANCH   2   3
ATOM      3  C   UNL A   1      33.402  27.271  25.269  1.00  0.00     0.344 C 
ATOM      4  O   UNL A   1      34.063  28.006  24.537  1.00  0.00    -0.248 OA
BRANCH   3   5
ATOM      5  C   UNL A   1      33.807  25.816  25.531  1.00  0.00     0.352 C 
BRANCH   5   6
ATOM      6  O   UNL A   1      34.232  25.058  24.386  1.00  0.00    -0.481 OA
BRANCH   6   7
ATOM      7  C   UNL A   1      33.738  23.771  24.486  1.00  0.00     0.127 A 
ATOM      8  C   UNL A   1      34.631  22.779  24.931  1.00  0.00     0.048 A 
ATOM      9  C   UNL A   1      32.427  23.454  24.070  1.00  0.00     0.018 A 
ATOM     10  C   UNL A   1      34.311  21.435  24.802  1.00  0.00     0.019 A 
ATOM     11  C   UNL A   1      32.173  22.085  23.891  1.00  0.00     0.027 A 
ATOM     12  C   UNL A   1      33.093  21.094  24.246  1.00  0.00     0.018 A 
ATOM     13  Br  UNL A   1      32.670  19.274  23.951  1.00  0.00    -0.051 Br
BRANCH   9  14
ATOM     14  C   UNL A   1      31.425  24.521  23.759  1.00  0.00     0.026 C 
ATOM     15  C   UNL A   1      31.403  25.446  22.774  1.00  0.00     0.050 C 
ATOM     16  C   UNL A   1      32.451  25.701  21.716  1.00  0.00     0.256 C 
ATOM     17  C   UNL A   1      30.635  26.700  22.858  1.00  0.00     0.012 A 
ATOM     18  O   UNL A   1      32.956  24.905  20.960  1.00  0.00    -0.269 OA
ATOM     19  N   UNL A   1      32.603  27.076  21.730  1.00  0.00    -0.321 N 
ATOM     20  C   UNL A   1      31.517  27.669  22.368  1.00  0.00     0.049 A 
ATOM     21  C   UNL A   1      29.340  27.054  23.181  1.00  0.00     0.026 A 
ATOM     22  H   UNL A   1      33.368  27.563  21.346  1.00  0.00     0.170 HD
ATOM     23  C   UNL A   1      31.232  29.012  22.372  1.00  0.00     0.028 A 
ATOM     24  C   UNL A   1      29.004  28.416  23.106  1.00  0.00     0.018 A 
ATOM     25  C   UNL A   1      29.956  29.395  22.769  1.00  0.00     0.018 A 
ATOM     26  Br  UNL A   1      27.208  28.958  23.370  1.00  0.00    -0.051 Br
ENDBRANCH   9  14
ENDBRANCH   6   7
ENDBRANCH   5   6
ENDBRANCH   3   5
ENDBRANCH   2   3
ENDBRANCH   1   2
BRANCH   1  27
ATOM     27  C   UNL A   1      32.564  29.813  27.241  1.00  0.00     0.275 C 
BRANCH  27  28
ATOM     28  O   UNL A   1      33.978  30.031  27.087  1.00  0.00    -0.458 OA
BRANCH  28  29
ATOM     29  C   UNL A   1      34.577  30.792  28.041  1.00  0.00     0.338 C 
ATOM     30  O   UNL A   1      34.060  31.675  28.700  1.00  0.00    -0.246 OA
BRANCH  29  31
ATOM     31  C   UNL A   1      35.937  30.249  28.275  1.00  0.00     0.060 A 
ATOM     32  C   UNL A   1      36.873  30.180  27.239  1.00  0.00     0.016 A 
ATOM     33  C   UNL A   1      36.265  29.771  29.550  1.00  0.00     0.016 A 
ATOM     34  C   UNL A   1      38.137  29.640  27.485  1.00  0.00     0.010 A 
ATOM     35  C   UNL A   1      37.535  29.239  29.797  1.00  0.00     0.010 A 
ATOM     36  C   UNL A   1      38.485  29.180  28.767  1.00  0.00    -0.014 A 
BRANCH  36  37
ATOM     37  C   UNL A   1      39.892  28.796  29.037  1.00  0.00     0.031 A 
ATOM     38  C   UNL A   1      40.430  27.438  28.697  1.00  0.00     0.074 A 
ATOM     39  C   UNL A   1      40.711  29.732  29.558  1.00  0.00     0.049 A 
ATOM     40  N   UNL A   1      41.674  27.032  28.727  1.00  0.00    -0.248 NA
ATOM     41  C   UNL A   1      39.470  26.409  28.270  1.00  0.00     0.031 C 
ATOM     42  C   UNL A   1      40.295  31.080  29.955  1.00  0.00     0.029 A 
ATOM     43  N   UNL A   1      42.059  29.710  29.811  1.00  0.00    -0.354 N 
ATOM     44  C   UNL A   1      41.654  25.708  28.311  1.00  0.00     0.074 A 
ATOM     45  C   UNL A   1      40.269  25.367  28.056  1.00  0.00     0.031 C 
ATOM     46  C   UNL A   1      41.372  31.770  30.354  1.00  0.00     0.029 A 
ATOM     47  C   UNL A   1      42.552  30.913  30.260  1.00  0.00     0.049 A 
ATOM     48  H   UNL A   1      42.620  28.911  29.684  1.00  0.00     0.167 HD
ATOM     49  C   UNL A   1      42.702  24.870  28.137  1.00  0.00     0.031 A 
ATOM     50  C   UNL A   1      43.812  31.303  30.538  1.00  0.00     0.031 A 
ATOM     51  C   UNL A   1      44.078  25.217  28.359  1.00  0.00     0.049 A 
ATOM     52  C   UNL A   1      44.952  30.352  30.309  1.00  0.00     0.074 A 
ATOM     53  C   UNL A   1      45.195  24.421  28.158  1.00  0.00     0.029 A 
ATOM     54  N   UNL A   1      44.532  26.440  28.817  1.00  0.00    -0.354 N 
ATOM     55  N   UNL A   1      44.916  29.132  29.833  1.00  0.00    -0.248 NA
ATOM     56  C   UNL A   1      46.303  30.834  30.632  1.00  0.00     0.031 C 
ATOM     57  C   UNL A   1      46.325  25.158  28.511  1.00  0.00     0.029 A 
ATOM     58  C   UNL A   1      45.913  26.420  28.908  1.00  0.00     0.049 A 
ATOM     59  H   UNL A   1      43.960  27.208  29.042  1.00  0.00     0.167 HD
ATOM     60  C   UNL A   1      46.240  28.713  29.770  1.00  0.00     0.074 A 
ATOM     61  C   UNL A   1      47.054  29.808  30.250  1.00  0.00     0.031 C 
ATOM     62  C   UNL A   1      46.727  27.521  29.353  1.00  0.00     0.031 A 
BRANCH  49  63
ATOM     63  C   UNL A   1      42.449  23.490  27.611  1.00  0.00    -0.014 A 
ATOM     64  C   UNL A   1      42.201  22.417  28.484  1.00  0.00     0.010 A 
ATOM     65  C   UNL A   1      42.672  23.239  26.248  1.00  0.00     0.010 A 
ATOM     66  C   UNL A   1      42.142  21.107  27.993  1.00  0.00     0.020 A 
ATOM     67  C   UNL A   1      42.645  21.933  25.765  1.00  0.00     0.020 A 
ATOM     68  C   UNL A   1      42.358  20.878  26.633  1.00  0.00     0.054 A 
BRANCH  68  69
ATOM     69  S   UNL A   1      42.172  19.221  25.925  1.00  0.00     0.124 S 
ATOM     70  O   UNL A   1      42.657  18.366  27.003  1.00  0.00    -0.237 OA
ATOM     71  O   UNL A   1      40.744  19.133  25.637  1.00  0.00    -0.237 OA
ATOM     72  O   UNL A   1      43.030  19.303  24.743  1.00  0.00    -0.744 OA
ENDBRANCH  68  69
ENDBRANCH  49  63
BRANCH  50  73
ATOM     73  C   UNL A   1      44.052  32.699  30.987  1.00  0.00    -0.014 A 
ATOM     74  C   UNL A   1      43.859  33.057  32.334  1.00  0.00     0.010 A 
ATOM     75  C   UNL A   1      44.394  33.693  30.054  1.00  0.00     0.010 A 
ATOM     76  C   UNL A   1      43.959  34.392  32.731  1.00  0.00     0.020 A 
ATOM     77  C   UNL A   1      44.523  35.026  30.453  1.00  0.00     0.020 A 
ATOM     78  C   UNL A   1      44.277  35.370  31.784  1.00  0.00     0.054 A 
BRANCH  78  79
ATOM     79  S   UNL A   1      44.364  37.102  32.313  1.00  0.00     0.124 S 
ATOM     80  O   UNL A   1      45.779  37.240  32.651  1.00  0.00    -0.237 OA
ATOM     81  O   UNL A   1      43.929  37.824  31.121  1.00  0.00    -0.237 OA
ATOM     82  O   UNL A   1      43.443  37.160  33.444  1.00  0.00    -0.744 OA
ENDBRANCH  78  79
ENDBRANCH  50  73
BRANCH  62  83
ATOM     83  C   UNL A   1      48.215  27.303  29.360  1.00  0.00    -0.014 A 
ATOM     84  C   UNL A   1      48.844  26.847  30.532  1.00  0.00     0.010 A 
ATOM     85  C   UNL A   1      49.002  27.705  28.267  1.00  0.00     0.010 A 
ATOM     86  C   UNL A   1      50.237  26.833  30.629  1.00  0.00     0.020 A 
ATOM     87  C   UNL A   1      50.397  27.670  28.352  1.00  0.00     0.020 A 
ATOM     88  C   UNL A   1      51.004  27.260  29.542  1.00  0.00     0.054 A 
BRANCH  88  89
ATOM     89  S   UNL A   1      52.811  27.282  29.699  1.00  0.00     0.124 S 
ATOM     90  O   UNL A   1      53.055  26.155  30.595  1.00  0.00    -0.237 OA
ATOM     91  O   UNL A   1      53.259  27.100  28.321  1.00  0.00    -0.237 OA
ATOM     92  O   UNL A   1      53.088  28.600  30.266  1.00  0.00    -0.744 OA
ENDBRANCH  88  89
ENDBRANCH  62  83
ENDBRANCH  36  37
ENDBRANCH  29  31
ENDBRANCH  28  29
ENDBRANCH  27  28
ENDBRANCH   1  27
TORSDOF 17
ENDMDL
MODEL 3
REMARK VINA RESULT:     -11.2      3.860      9.512
REMARK SMILES O=C(COc1ccc(Br)cc1/C=C1\C(=O)Nc2ccc(Br)cc21)OCCOC(=O)c1ccc(-c2c3nc(c(-c4ccc(S(=O)(=O)[O-])cc4)c4ccc([nH]4)c(-c4ccc(S(=O)(=O)[O-])cc4)c4nc(c(-c5ccc(S(=O)(=O)[O-])cc5)c5ccc2[nH]5)C=C4)C=C3)cc1
REMARK SMILES IDX 25 1 24 2 2 3 1 4 3 5 4 6 5 7 6 8 11 9 7 10 10 11 8 12 9 13
REMARK SMILES IDX 12 14 13 15 14 16 23 17 15 18 16 19 17 20 22 21 18 23 20 24
REMARK SMILES IDX 19 25 21 26 26 27 27 28 28 29 29 30 30 31 31 32 89 33 32 34
REMARK SMILES IDX 88 35 33 36 34 37 35 38 82 39 36 40 87 41 81 42 83 43 37 44
REMARK SMILES IDX 86 45 80 46 79 47 38 49 68 50 49 51 67 52 50 53 53 54 66 55
REMARK SMILES IDX 84 56 51 57 52 58 65 60 85 61 54 62 39 63 40 64 48 65 41 66
REMARK SMILES IDX 47 67 42 68 43 69 44 70 45 71 46 72 69 73 70 74 78 75 71 76
REMARK SMILES IDX 77 77 72 78 73 79 74 80 75 81 76 82 55 83 56 84 64 85 57 86
REMARK SMILES IDX 63 87 58 88 59 89 60 90 61 91 62 92
REMARK H PARENT 16 22 83 48 53 59
REMARK Flexibility Score: inf
ROOT
ATOM      1  C   UNL A   1      38.063  21.103  25.013  1.00  0.00     0.274 C 
ENDROOT
BRANCH   1   2
ATOM      2  O   UNL A   1      38.405  22.149  25.944  1.00  0.00    -0.460 OA
BRANCH   2   3
ATOM      3  C   UNL A   1      37.733  23.329  25.981  1.00  0.00     0.344 C 
ATOM      4  O   UNL A   1      38.196  24.285  26.601  1.00  0.00    -0.248 OA
BRANCH   3   5
ATOM      5  C   UNL A   1      36.455  23.452  25.145  1.00  0.00     0.352 C 
BRANCH   5   6
ATOM      6  O   UNL A   1      35.219  23.519  25.877  1.00  0.00    -0.481 OA
BRANCH   6   7
ATOM      7  C   UNL A   1      34.409  22.465  25.495  1.00  0.00     0.127 A 
ATOM      8  C   UNL A   1      34.793  21.180  25.921  1.00  0.00     0.048 A 
ATOM      9  C   UNL A   1      33.304  22.663  24.640  1.00  0.00     0.018 A 
ATOM     10  C   UNL A   1      34.208  20.051  25.365  1.00  0.00     0.019 A 
ATOM     11  C   UNL A   1      32.789  21.496  24.052  1.00  0.00     0.027 A 
ATOM     12  C   UNL A   1      33.230  20.216  24.403  1.00  0.00     0.018 A 
ATOM     13  Br  UNL A   1      32.491  18.702  23.545  1.00  0.00    -0.051 Br
BRANCH   9  14
ATOM     14  C   UNL A   1      32.793  24.033  24.324  1.00  0.00     0.026 C 
ATOM     15  C   UNL A   1      31.875  24.796  24.958  1.00  0.00     0.050 C 
ATOM     16  C   UNL A   1      31.041  24.435  26.164  1.00  0.00     0.256 C 
ATOM     17  C   UNL A   1      31.138  25.889  24.300  1.00  0.00     0.012 A 
ATOM     18  O   UNL A   1      31.417  24.003  27.228  1.00  0.00    -0.269 OA
ATOM     19  N   UNL A   1      29.764  24.835  25.812  1.00  0.00    -0.321 N 
ATOM     20  C   UNL A   1      29.821  25.721  24.738  1.00  0.00     0.049 A 
ATOM     21  C   UNL A   1      31.465  26.980  23.517  1.00  0.00     0.026 A 
ATOM     22  H   UNL A   1      28.936  24.536  26.254  1.00  0.00     0.170 HD
ATOM     23  C   UNL A   1      28.774  26.476  24.273  1.00  0.00     0.028 A 
ATOM     24  C   UNL A   1      30.415  27.817  23.104  1.00  0.00     0.018 A 
ATOM     25  C   UNL A   1      29.075  27.533  23.422  1.00  0.00     0.018 A 
ATOM     26  Br  UNL A   1      30.802  29.421  22.174  1.00  0.00    -0.051 Br
ENDBRANCH   9  14
ENDBRANCH   6   7
ENDBRANCH   5   6
ENDBRANCH   3   5
ENDBRANCH   2   3
ENDBRANCH   1   2
BRANCH   1  27
ATOM     27  C   UNL A   1      38.810  19.818  25.375  1.00  0.00     0.275 C 
BRANCH  27  28
ATOM     28  O   UNL A   1      39.709  20.094  26.464  1.00  0.00    -0.458 OA
BRANCH  28  29
ATOM     29  C   UNL A   1      41.026  19.839  26.236  1.00  0.00     0.338 C 
ATOM     30  O   UNL A   1      41.499  18.834  25.740  1.00  0.00    -0.246 OA
BRANCH  29  31
ATOM     31  C   UNL A   1      41.790  21.074  26.535  1.00  0.00     0.060 A 
ATOM     32  C   UNL A   1      42.165  21.955  25.516  1.00  0.00     0.016 A 
ATOM     33  C   UNL A   1      42.164  21.335  27.859  1.00  0.00     0.016 A 
ATOM     34  C   UNL A   1      42.907  23.095  25.826  1.00  0.00     0.010 A 
ATOM     35  C   UNL A   1      42.900  22.484  28.170  1.00  0.00     0.010 A 
ATOM     36  C   UNL A   1      43.266  23.380  27.156  1.00  0.00    -0.014 A 
BRANCH  36  37
ATOM     37  C   UNL A   1      43.881  24.692  27.471  1.00  0.00     0.031 A 
ATOM     38  C   UNL A   1      45.333  24.975  27.226  1.00  0.00     0.074 A 
ATOM     39  C   UNL A   1      43.077  25.666  27.944  1.00  0.00     0.049 A 
ATOM     40  N   UNL A   1      45.956  26.123  27.301  1.00  0.00    -0.248 NA
ATOM     41  C   UNL A   1      46.197  23.845  26.851  1.00  0.00     0.031 C 
ATOM     42  C   UNL A   1      41.653  25.500  28.248  1.00  0.00     0.029 A 
ATOM     43  N   UNL A   1      43.327  26.987  28.218  1.00  0.00    -0.354 N 
ATOM     44  C   UNL A   1      47.279  25.865  26.970  1.00  0.00     0.074 A 
ATOM     45  C   UNL A   1      47.378  24.442  26.716  1.00  0.00     0.031 C 
ATOM     46  C   UNL A   1      41.145  26.685  28.619  1.00  0.00     0.029 A 
ATOM     47  C   UNL A   1      42.207  27.689  28.597  1.00  0.00     0.049 A 
ATOM     48  H   UNL A   1      44.221  27.393  28.150  1.00  0.00     0.167 HD
ATOM     49  C   UNL A   1      48.303  26.743  26.866  1.00  0.00     0.031 A 
ATOM     50  C   UNL A   1      42.035  28.998  28.869  1.00  0.00     0.031 A 
ATOM     51  C   UNL A   1      48.197  28.158  27.086  1.00  0.00     0.049 A 
ATOM     52  C   UNL A   1      43.190  29.946  28.719  1.00  0.00     0.074 A 
ATOM     53  C   UNL A   1      49.194  29.112  26.953  1.00  0.00     0.029 A 
ATOM     54  N   UNL A   1      47.049  28.826  27.472  1.00  0.00    -0.354 N 
ATOM     55  N   UNL A   1      44.411  29.691  28.321  1.00  0.00    -0.248 NA
ATOM     56  C   UNL A   1      42.941  31.361  29.031  1.00  0.00     0.031 C 
ATOM     57  C   UNL A   1      48.653  30.356  27.275  1.00  0.00     0.029 A 
ATOM     58  C   UNL A   1      47.314  30.180  27.585  1.00  0.00     0.049 A 
ATOM     59  H   UNL A   1      46.177  28.402  27.640  1.00  0.00     0.167 HD
ATOM     60  C   UNL A   1      45.067  30.916  28.305  1.00  0.00     0.074 A 
ATOM     61  C   UNL A   1      44.109  31.914  28.727  1.00  0.00     0.031 C 
ATOM     62  C   UNL A   1      46.352  31.179  27.972  1.00  0.00     0.031 A 
BRANCH  49  63
ATOM     63  C   UNL A   1      49.645  26.245  26.424  1.00  0.00    -0.014 A 
ATOM     64  C   UNL A   1      50.615  25.851  27.362  1.00  0.00     0.010 A 
ATOM     65  C   UNL A   1      49.999  26.375  25.072  1.00  0.00     0.010 A 
ATOM     66  C   UNL A   1      51.919  25.557  26.947  1.00  0.00     0.020 A 
ATOM     67  C   UNL A   1      51.305  26.114  24.665  1.00  0.00     0.020 A 
ATOM     68  C   UNL A   1      52.250  25.684  25.597  1.00  0.00     0.054 A 
BRANCH  68  69
ATOM     69  S   UNL A   1      53.886  25.200  24.989  1.00  0.00     0.124 S 
ATOM     70  O   UNL A   1      53.755  23.753  24.860  1.00  0.00    -0.237 OA
ATOM     71  O   UNL A   1      54.015  25.940  23.737  1.00  0.00    -0.237 OA
ATOM     72  O   UNL A   1      54.757  25.668  26.068  1.00  0.00    -0.744 OA
ENDBRANCH  68  69
ENDBRANCH  49  63
BRANCH  50  73
ATOM     73  C   UNL A   1      40.679  29.486  29.232  1.00  0.00    -0.014 A 
ATOM     74  C   UNL A   1      40.325  29.667  30.582  1.00  0.00     0.010 A 
ATOM     75  C   UNL A   1      39.711  29.693  28.234  1.00  0.00     0.010 A 
ATOM     76  C   UNL A   1      39.014  30.003  30.929  1.00  0.00     0.020 A 
ATOM     77  C   UNL A   1      38.406  30.055  28.576  1.00  0.00     0.020 A 
ATOM     78  C   UNL A   1      38.060  30.181  29.924  1.00  0.00     0.054 A 
BRANCH  78  79
ATOM     79  S   UNL A   1      36.355  30.577  30.398  1.00  0.00     0.124 S 
ATOM     80  O   UNL A   1      35.591  29.908  29.348  1.00  0.00    -0.237 OA
ATOM     81  O   UNL A   1      36.246  29.987  31.729  1.00  0.00    -0.237 OA
ATOM     82  O   UNL A   1      36.322  32.036  30.362  1.00  0.00    -0.744 OA
ENDBRANCH  78  79
ENDBRANCH  50  73
BRANCH  62  83
ATOM     83  C   UNL A   1      46.835  32.603  28.015  1.00  0.00    -0.014 A 
ATOM     84  C   UNL A   1      47.259  33.155  29.238  1.00  0.00     0.010 A 
ATOM     85  C   UNL A   1      46.714  33.435  26.889  1.00  0.00     0.010 A 
ATOM     86  C   UNL A   1      47.515  34.523  29.347  1.00  0.00     0.020 A 
ATOM     87  C   UNL A   1      46.993  34.800  26.988  1.00  0.00     0.020 A 
ATOM     88  C   UNL A   1      47.366  35.340  28.222  1.00  0.00     0.054 A 
BRANCH  88  89
ATOM     89  S   UNL A   1      47.656  37.122  28.390  1.00  0.00     0.124 S 
ATOM     90  O   UNL A   1      49.076  37.172  28.721  1.00  0.00    -0.237 OA
ATOM     91  O   UNL A   1      47.297  37.634  27.070  1.00  0.00    -0.237 OA
ATOM     92  O   UNL A   1      46.750  37.515  29.468  1.00  0.00    -0.744 OA
ENDBRANCH  88  89
ENDBRANCH  62  83
ENDBRANCH  36  37
ENDBRANCH  29  31
ENDBRANCH  28  29
ENDBRANCH  27  28
ENDBRANCH   1  27
TORSDOF 17
ENDMDL
