MODEL 1
REMARK VINA RESULT:     -10.7      0.000      0.000
REMARK SMILES COc1ccc(N2/C(=[NH+]/C(=O)CCCC(=O)OCCOC(=O)c3ccc(-c4c5nc(c(-c6ccc(S(=O)(=O)[O-])cc6)c6ccc([nH]6)c(-c6ccc(S(=O)(=O)[O-])cc6)c6nc(c(-c7ccc(S(=O)(=O)[O-])cc7)c7ccc4[nH]7)C=C6)C=C5)cc3)S[C@@H]3CS(=O)(=O)C[C@H]32)cc1Cl
REMARK SMILES IDX 18 1 17 2 15 3 16 4 14 5 13 6 12 7 10 8 7 9 8 10 90 11 9 12
REMARK SMILES IDX 83 13 84 14 89 15 85 17 86 18 11 19 87 20 88 21 6 22 3 23
REMARK SMILES IDX 4 24 92 25 5 26 91 27 93 28 2 29 1 30 19 31 20 32 21 33
REMARK SMILES IDX 22 34 23 35 24 36 82 37 25 38 81 39 26 40 27 41 28 42 75 43
REMARK SMILES IDX 29 44 80 45 74 46 76 47 30 48 79 49 73 50 72 51 31 53 61 54
REMARK SMILES IDX 42 55 60 56 43 57 46 58 59 59 77 60 44 61 45 62 58 64 78 65
REMARK SMILES IDX 47 66 32 67 33 68 41 69 34 70 40 71 35 72 36 73 37 74 38 75
REMARK SMILES IDX 39 76 62 77 63 78 71 79 64 80 70 81 65 82 66 83 67 84 68 85
REMARK SMILES IDX 69 86 48 87 49 88 57 89 50 90 56 91 51 92 52 93 53 94 54 95
REMARK SMILES IDX 55 96
REMARK H PARENT 9 16 76 52 46 63
REMARK Flexibility Score: inf
ROOT
ATOM      1  C   UNL A   1      42.854  18.432  27.017  1.00  0.00     0.274 C 
ENDROOT
BRANCH   1   2
ATOM      2  O   UNL A   1      42.206  19.706  27.187  1.00  0.00    -0.462 OA
BRANCH   2   3
ATOM      3  C   UNL A   1      41.179  19.977  26.348  1.00  0.00     0.305 C 
ATOM      4  O   UNL A   1      40.496  19.125  25.795  1.00  0.00    -0.252 OA
BRANCH   3   5
ATOM      5  C   UNL A   1      40.952  21.458  26.119  1.00  0.00     0.123 C 
BRANCH   5   6
ATOM      6  C   UNL A   1      39.555  22.029  26.341  1.00  0.00     0.024 C 
BRANCH   6   7
ATOM      7  C   UNL A   1      38.361  21.349  25.671  1.00  0.00     0.128 C 
BRANCH   7   8
ATOM      8  C   UNL A   1      37.229  22.214  25.140  1.00  0.00     0.307 C 
ATOM      9  N   UNL A   1      33.610  21.806  25.290  1.00  0.00    -0.217 N 
ATOM     10  C   UNL A   1      34.932  22.250  25.405  1.00  0.00     0.319 C 
ATOM     11  C   UNL A   1      32.620  22.737  25.826  1.00  0.00     0.212 C 
ATOM     12  N   UNL A   1      35.997  21.613  25.053  1.00  0.00    -0.204 N 
ATOM     13  S   UNL A   1      34.914  23.898  26.128  1.00  0.00    -0.029 SA
ATOM     14  C   UNL A   1      33.228  24.116  25.541  1.00  0.00     0.120 C 
ATOM     15  C   UNL A   1      31.250  22.808  25.187  1.00  0.00     0.188 C 
ATOM     16  H   UNL A   1      35.927  20.689  24.719  1.00  0.00     0.316 HD
ATOM     17  C   UNL A   1      32.291  25.120  26.155  1.00  0.00     0.156 C 
ATOM     18  S   UNL A   1      30.694  24.457  25.652  1.00  0.00     0.155 S 
ATOM     19  O   UNL A   1      37.485  23.314  24.652  1.00  0.00    -0.247 OA
ATOM     20  O   UNL A   1      30.268  25.147  24.454  1.00  0.00    -0.229 OA
ATOM     21  O   UNL A   1      29.856  24.354  26.826  1.00  0.00    -0.229 OA
BRANCH   9  22
ATOM     22  C   UNL A   1      33.218  20.481  25.077  1.00  0.00     0.130 A 
ATOM     23  C   UNL A   1      32.499  17.756  24.677  1.00  0.00     0.137 A 
ATOM     24  C   UNL A   1      32.785  18.259  25.955  1.00  0.00     0.052 A 
ATOM     25  C   UNL A   1      32.574  18.634  23.591  1.00  0.00     0.087 A 
ATOM     26  C   UNL A   1      33.138  19.597  26.153  1.00  0.00     0.056 A 
ATOM     27  C   UNL A   1      32.948  19.979  23.799  1.00  0.00     0.076 A 
ATOM     28  Cl  UNL A   1      32.194  18.216  21.958  1.00  0.00    -0.080 Cl
BRANCH  23  29
ATOM     29  O   UNL A   1      32.138  16.438  24.723  1.00  0.00    -0.495 OA
ATOM     30  C   UNL A   1      33.002  15.499  25.348  1.00  0.00     0.278 C 
ENDBRANCH  23  29
ENDBRANCH   9  22
ENDBRANCH   7   8
ENDBRANCH   6   7
ENDBRANCH   5   6
ENDBRANCH   3   5
ENDBRANCH   2   3
ENDBRANCH   1   2
BRANCH   1  31
ATOM     31  C   UNL A   1      43.401  18.263  25.596  1.00  0.00     0.275 C 
BRANCH  31  32
ATOM     32  O   UNL A   1      44.630  18.988  25.402  1.00  0.00    -0.458 OA
BRANCH  32  33
ATOM     33  C   UNL A   1      44.605  19.897  24.399  1.00  0.00     0.338 C 
ATOM     34  O   UNL A   1      44.413  19.679  23.214  1.00  0.00    -0.246 OA
BRANCH  33  35
ATOM     35  C   UNL A   1      44.679  21.259  24.953  1.00  0.00     0.060 A 
ATOM     36  C   UNL A   1      44.474  22.324  24.075  1.00  0.00     0.016 A 
ATOM     37  C   UNL A   1      45.027  21.500  26.282  1.00  0.00     0.016 A 
ATOM     38  C   UNL A   1      44.614  23.635  24.508  1.00  0.00     0.010 A 
ATOM     39  C   UNL A   1      45.173  22.822  26.720  1.00  0.00     0.010 A 
ATOM     40  C   UNL A   1      44.977  23.896  25.832  1.00  0.00    -0.014 A 
BRANCH  40  41
ATOM     41  C   UNL A   1      45.211  25.299  26.245  1.00  0.00     0.031 A 
ATOM     42  C   UNL A   1      46.586  25.892  26.121  1.00  0.00     0.074 A 
ATOM     43  C   UNL A   1      44.179  26.055  26.667  1.00  0.00     0.049 A 
ATOM     44  N   UNL A   1      47.005  27.081  26.466  1.00  0.00    -0.248 NA
ATOM     45  C   UNL A   1      47.628  25.034  25.531  1.00  0.00     0.031 C 
ATOM     46  C   UNL A   1      42.788  25.606  26.767  1.00  0.00     0.029 A 
ATOM     47  N   UNL A   1      44.138  27.361  27.082  1.00  0.00    -0.354 N 
ATOM     48  C   UNL A   1      48.361  27.108  26.162  1.00  0.00     0.074 A 
ATOM     49  C   UNL A   1      48.698  25.813  25.611  1.00  0.00     0.031 C 
ATOM     50  C   UNL A   1      42.030  26.624  27.207  1.00  0.00     0.029 A 
ATOM     51  C   UNL A   1      42.886  27.777  27.466  1.00  0.00     0.049 A 
ATOM     52  H   UNL A   1      44.930  27.946  27.101  1.00  0.00     0.167 HD
ATOM     53  C   UNL A   1      49.243  28.122  26.330  1.00  0.00     0.031 A 
ATOM     54  C   UNL A   1      42.479  28.949  27.993  1.00  0.00     0.031 A 
ATOM     55  C   UNL A   1      48.898  29.412  26.865  1.00  0.00     0.049 A 
ATOM     56  C   UNL A   1      43.492  30.041  28.214  1.00  0.00     0.074 A 
ATOM     57  C   UNL A   1      49.719  30.507  27.069  1.00  0.00     0.029 A 
ATOM     58  N   UNL A   1      47.627  29.784  27.275  1.00  0.00    -0.354 N 
ATOM     59  N   UNL A   1      44.774  30.043  27.934  1.00  0.00    -0.248 NA
ATOM     60  C   UNL A   1      43.002  31.286  28.820  1.00  0.00     0.031 C 
ATOM     61  C   UNL A   1      48.954  31.527  27.644  1.00  0.00     0.029 A 
ATOM     62  C   UNL A   1      47.645  31.085  27.749  1.00  0.00     0.049 A 
ATOM     63  H   UNL A   1      46.829  29.209  27.236  1.00  0.00     0.167 HD
ATOM     64  C   UNL A   1      45.239  31.298  28.312  1.00  0.00     0.074 A 
ATOM     65  C   UNL A   1      44.098  32.033  28.820  1.00  0.00     0.031 C 
ATOM     66  C   UNL A   1      46.498  31.799  28.248  1.00  0.00     0.031 A 
BRANCH  53  67
ATOM     67  C   UNL A   1      50.682  27.866  25.970  1.00  0.00    -0.014 A 
ATOM     68  C   UNL A   1      51.605  27.406  26.926  1.00  0.00     0.010 A 
ATOM     69  C   UNL A   1      51.099  28.030  24.637  1.00  0.00     0.010 A 
ATOM     70  C   UNL A   1      52.927  27.136  26.558  1.00  0.00     0.020 A 
ATOM     71  C   UNL A   1      52.413  27.740  24.260  1.00  0.00     0.020 A 
ATOM     72  C   UNL A   1      53.322  27.304  25.226  1.00  0.00     0.054 A 
BRANCH  72  73
ATOM     73  S   UNL A   1      55.030  26.902  24.766  1.00  0.00     0.124 S 
ATOM     74  O   UNL A   1      54.924  26.750  23.317  1.00  0.00    -0.237 OA
ATOM     75  O   UNL A   1      55.771  28.075  25.222  1.00  0.00    -0.237 OA
ATOM     76  O   UNL A   1      55.307  25.670  25.502  1.00  0.00    -0.744 OA
ENDBRANCH  72  73
ENDBRANCH  53  67
BRANCH  54  77
ATOM     77  C   UNL A   1      41.058  29.138  28.392  1.00  0.00    -0.014 A 
ATOM     78  C   UNL A   1      40.087  29.523  27.450  1.00  0.00     0.010 A 
ATOM     79  C   UNL A   1      40.671  28.950  29.732  1.00  0.00     0.010 A 
ATOM     80  C   UNL A   1      38.764  29.742  27.847  1.00  0.00     0.020 A 
ATOM     81  C   UNL A   1      39.344  29.139  30.126  1.00  0.00     0.020 A 
ATOM     82  C   UNL A   1      38.402  29.552  29.183  1.00  0.00     0.054 A 
BRANCH  82  83
ATOM     83  S   UNL A   1      36.675  29.811  29.674  1.00  0.00     0.124 S 
ATOM     84  O   UNL A   1      35.950  29.211  28.558  1.00  0.00    -0.237 OA
ATOM     85  O   UNL A   1      36.593  29.089  30.943  1.00  0.00    -0.237 OA
ATOM     86  O   UNL A   1      36.567  31.263  29.787  1.00  0.00    -0.744 OA
ENDBRANCH  82  83
ENDBRANCH  54  77
BRANCH  66  87
ATOM     87  C   UNL A   1      46.696  33.218  28.706  1.00  0.00    -0.014 A 
ATOM     88  C   UNL A   1      47.036  33.514  30.037  1.00  0.00     0.010 A 
ATOM     89  C   UNL A   1      46.568  34.269  27.779  1.00  0.00     0.010 A 
ATOM     90  C   UNL A   1      47.205  34.840  30.443  1.00  0.00     0.020 A 
ATOM     91  C   UNL A   1      46.762  35.593  28.176  1.00  0.00     0.020 A 
ATOM     92  C   UNL A   1      47.061  35.872  29.511  1.00  0.00     0.054 A 
BRANCH  92  93
ATOM     93  S   UNL A   1      47.305  37.585  30.054  1.00  0.00     0.124 S 
ATOM     94  O   UNL A   1      48.680  37.842  29.636  1.00  0.00    -0.237 OA
ATOM     95  O   UNL A   1      46.277  38.309  29.310  1.00  0.00    -0.237 OA
ATOM     96  O   UNL A   1      47.092  37.524  31.497  1.00  0.00    -0.744 OA
ENDBRANCH  92  93
ENDBRANCH  66  87
ENDBRANCH  40  41
ENDBRANCH  33  35
ENDBRANCH  32  33
ENDBRANCH  31  32
ENDBRANCH   1  31
TORSDOF 19
ENDMDL
MODEL 2
REMARK VINA RESULT:     -10.7      3.299      9.973
REMARK SMILES COc1ccc(N2/C(=[NH+]/C(=O)CCCC(=O)OCCOC(=O)c3ccc(-c4c5nc(c(-c6ccc(S(=O)(=O)[O-])cc6)c6ccc([nH]6)c(-c6ccc(S(=O)(=O)[O-])cc6)c6nc(c(-c7ccc(S(=O)(=O)[O-])cc7)c7ccc4[nH]7)C=C6)C=C5)cc3)S[C@@H]3CS(=O)(=O)C[C@H]32)cc1Cl
REMARK SMILES IDX 18 1 17 2 15 3 16 4 14 5 13 6 12 7 10 8 7 9 8 10 90 11 9 12
REMARK SMILES IDX 83 13 84 14 89 15 85 17 86 18 11 19 87 20 88 21 6 22 3 23
REMARK SMILES IDX 4 24 92 25 5 26 91 27 93 28 2 29 1 30 19 31 20 32 21 33
REMARK SMILES IDX 22 34 23 35 24 36 82 37 25 38 81 39 26 40 27 41 28 42 75 43
REMARK SMILES IDX 29 44 80 45 74 46 76 47 30 48 79 49 73 50 72 51 31 53 61 54
REMARK SMILES IDX 42 55 60 56 43 57 46 58 59 59 77 60 44 61 45 62 58 64 78 65
REMARK SMILES IDX 47 66 32 67 33 68 41 69 34 70 40 71 35 72 36 73 37 74 38 75
REMARK SMILES IDX 39 76 62 77 63 78 71 79 64 80 70 81 65 82 66 83 67 84 68 85
REMARK SMILES IDX 69 86 48 87 49 88 57 89 50 90 56 91 51 92 52 93 53 94 54 95
REMARK SMILES IDX 55 96
REMARK H PARENT 9 16 76 52 46 63
REMARK Flexibility Score: inf
ROOT
ATOM      1  C   UNL A   1      35.806  32.141  31.143  1.00  0.00     0.274 C 
ENDROOT
BRANCH   1   2
ATOM      2  O   UNL A   1      35.685  33.328  30.337  1.00  0.00    -0.462 OA
BRANCH   2   3
ATOM      3  C   UNL A   1      35.718  33.153  28.995  1.00  0.00     0.305 C 
ATOM      4  O   UNL A   1      36.711  33.330  28.301  1.00  0.00    -0.252 OA
BRANCH   3   5
ATOM      5  C   UNL A   1      34.388  32.738  28.399  1.00  0.00     0.123 C 
BRANCH   5   6
ATOM      6  C   UNL A   1      34.281  31.377  27.720  1.00  0.00     0.024 C 
BRANCH   6   7
ATOM      7  C   UNL A   1      32.921  30.914  27.197  1.00  0.00     0.128 C 
BRANCH   7   8
ATOM      8  C   UNL A   1      32.709  29.435  26.915  1.00  0.00     0.307 C 
ATOM      9  N   UNL A   1      31.630  27.684  23.906  1.00  0.00    -0.217 N 
ATOM     10  C   UNL A   1      32.326  28.166  25.020  1.00  0.00     0.319 C 
ATOM     11  C   UNL A   1      32.319  26.611  23.192  1.00  0.00     0.212 C 
ATOM     12  N   UNL A   1      31.969  29.131  25.800  1.00  0.00    -0.204 N 
ATOM     13  S   UNL A   1      33.831  27.197  25.210  1.00  0.00    -0.029 SA
ATOM     14  C   UNL A   1      33.056  25.852  24.301  1.00  0.00     0.120 C 
ATOM     15  C   UNL A   1      31.504  25.541  22.501  1.00  0.00     0.188 C 
ATOM     16  H   UNL A   1      31.159  29.652  25.594  1.00  0.00     0.316 HD
ATOM     17  C   UNL A   1      33.861  24.784  23.613  1.00  0.00     0.156 C 
ATOM     18  S   UNL A   1      32.667  24.168  22.414  1.00  0.00     0.155 S 
ATOM     19  O   UNL A   1      33.035  28.605  27.763  1.00  0.00    -0.247 OA
ATOM     20  O   UNL A   1      32.026  22.994  22.967  1.00  0.00    -0.229 OA
ATOM     21  O   UNL A   1      33.292  24.167  21.111  1.00  0.00    -0.229 OA
BRANCH   9  22
ATOM     22  C   UNL A   1      30.598  28.357  23.245  1.00  0.00     0.130 A 
ATOM     23  C   UNL A   1      28.528  29.803  21.930  1.00  0.00     0.137 A 
ATOM     24  C   UNL A   1      29.880  30.018  21.626  1.00  0.00     0.052 A 
ATOM     25  C   UNL A   1      28.216  28.847  22.903  1.00  0.00     0.087 A 
ATOM     26  C   UNL A   1      30.898  29.309  22.271  1.00  0.00     0.056 A 
ATOM     27  C   UNL A   1      29.250  28.149  23.561  1.00  0.00     0.076 A 
ATOM     28  Cl  UNL A   1      26.611  28.397  23.362  1.00  0.00    -0.080 Cl
BRANCH  23  29
ATOM     29  O   UNL A   1      27.707  30.571  21.153  1.00  0.00    -0.495 OA
ATOM     30  C   UNL A   1      28.149  31.852  20.726  1.00  0.00     0.278 C 
ENDBRANCH  23  29
ENDBRANCH   9  22
ENDBRANCH   7   8
ENDBRANCH   6   7
ENDBRANCH   5   6
ENDBRANCH   3   5
ENDBRANCH   2   3
ENDBRANCH   1   2
BRANCH   1  31
ATOM     31  C   UNL A   1      37.212  31.538  31.049  1.00  0.00     0.275 C 
BRANCH  31  32
ATOM     32  O   UNL A   1      37.185  30.099  31.095  1.00  0.00    -0.458 OA
BRANCH  32  33
ATOM     33  C   UNL A   1      37.088  29.492  29.890  1.00  0.00     0.338 C 
ATOM     34  O   UNL A   1      36.075  29.319  29.233  1.00  0.00    -0.246 OA
BRANCH  33  35
ATOM     35  C   UNL A   1      38.432  29.195  29.367  1.00  0.00     0.060 A 
ATOM     36  C   UNL A   1      39.394  28.755  30.277  1.00  0.00     0.016 A 
ATOM     37  C   UNL A   1      38.776  29.423  28.035  1.00  0.00     0.016 A 
ATOM     38  C   UNL A   1      40.704  28.538  29.873  1.00  0.00     0.010 A 
ATOM     39  C   UNL A   1      40.099  29.209  27.625  1.00  0.00     0.010 A 
ATOM     40  C   UNL A   1      41.071  28.776  28.545  1.00  0.00    -0.014 A 
BRANCH  40  41
ATOM     41  C   UNL A   1      42.494  28.627  28.160  1.00  0.00     0.031 A 
ATOM     42  C   UNL A   1      43.447  29.769  28.377  1.00  0.00     0.074 A 
ATOM     43  C   UNL A   1      42.939  27.451  27.678  1.00  0.00     0.049 A 
ATOM     44  N   UNL A   1      44.714  29.854  28.070  1.00  0.00    -0.248 NA
ATOM     45  C   UNL A   1      42.902  30.974  29.026  1.00  0.00     0.031 C 
ATOM     46  C   UNL A   1      42.119  26.252  27.486  1.00  0.00     0.029 A 
ATOM     47  N   UNL A   1      44.191  27.067  27.273  1.00  0.00    -0.354 N 
ATOM     48  C   UNL A   1      45.114  31.126  28.461  1.00  0.00     0.074 A 
ATOM     49  C   UNL A   1      43.953  31.783  29.022  1.00  0.00     0.031 C 
ATOM     50  C   UNL A   1      42.893  25.265  27.006  1.00  0.00     0.029 A 
ATOM     51  C   UNL A   1      44.248  25.773  26.813  1.00  0.00     0.049 A 
ATOM     52  H   UNL A   1      44.976  27.661  27.310  1.00  0.00     0.167 HD
ATOM     53  C   UNL A   1      46.339  31.694  28.359  1.00  0.00     0.031 A 
ATOM     54  C   UNL A   1      45.271  25.084  26.271  1.00  0.00     0.031 A 
ATOM     55  C   UNL A   1      47.494  31.030  27.814  1.00  0.00     0.049 A 
ATOM     56  C   UNL A   1      46.609  25.757  26.125  1.00  0.00     0.074 A 
ATOM     57  C   UNL A   1      48.781  31.519  27.673  1.00  0.00     0.029 A 
ATOM     58  N   UNL A   1      47.503  29.732  27.326  1.00  0.00    -0.354 N 
ATOM     59  N   UNL A   1      46.965  26.967  26.487  1.00  0.00    -0.248 NA
ATOM     60  C   UNL A   1      47.681  24.972  25.499  1.00  0.00     0.031 C 
ATOM     61  C   UNL A   1      49.558  30.532  27.058  1.00  0.00     0.029 A 
ATOM     62  C   UNL A   1      48.769  29.410  26.866  1.00  0.00     0.049 A 
ATOM     63  H   UNL A   1      46.726  29.129  27.309  1.00  0.00     0.167 HD
ATOM     64  C   UNL A   1      48.310  27.080  26.150  1.00  0.00     0.074 A 
ATOM     65  C   UNL A   1      48.706  25.810  25.576  1.00  0.00     0.031 C 
ATOM     66  C   UNL A   1      49.143  28.140  26.300  1.00  0.00     0.031 A 
BRANCH  53  67
ATOM     67  C   UNL A   1      46.490  33.122  28.809  1.00  0.00    -0.014 A 
ATOM     68  C   UNL A   1      46.781  33.442  30.146  1.00  0.00     0.010 A 
ATOM     69  C   UNL A   1      46.399  34.157  27.860  1.00  0.00     0.010 A 
ATOM     70  C   UNL A   1      46.956  34.774  30.532  1.00  0.00     0.020 A 
ATOM     71  C   UNL A   1      46.596  35.489  28.237  1.00  0.00     0.020 A 
ATOM     72  C   UNL A   1      46.864  35.790  29.574  1.00  0.00     0.054 A 
BRANCH  72  73
ATOM     73  S   UNL A   1      47.142  37.506  30.091  1.00  0.00     0.124 S 
ATOM     74  O   UNL A   1      45.799  37.925  30.481  1.00  0.00    -0.237 OA
ATOM     75  O   UNL A   1      48.097  37.361  31.186  1.00  0.00    -0.237 OA
ATOM     76  O   UNL A   1      47.671  38.149  28.889  1.00  0.00    -0.744 OA
ENDBRANCH  72  73
ENDBRANCH  53  67
BRANCH  54  77
ATOM     77  C   UNL A   1      45.062  23.693  25.782  1.00  0.00    -0.014 A 
ATOM     78  C   UNL A   1      45.716  22.607  26.391  1.00  0.00     0.010 A 
ATOM     79  C   UNL A   1      44.215  23.452  24.684  1.00  0.00     0.010 A 
ATOM     80  C   UNL A   1      45.547  21.311  25.893  1.00  0.00     0.020 A 
ATOM     81  C   UNL A   1      44.022  22.154  24.203  1.00  0.00     0.020 A 
ATOM     82  C   UNL A   1      44.704  21.094  24.800  1.00  0.00     0.054 A 
BRANCH  82  83
ATOM     83  S   UNL A   1      44.472  19.402  24.187  1.00  0.00     0.124 S 
ATOM     84  O   UNL A   1      43.135  19.083  24.678  1.00  0.00    -0.237 OA
ATOM     85  O   UNL A   1      44.593  19.568  22.740  1.00  0.00    -0.237 OA
ATOM     86  O   UNL A   1      45.565  18.661  24.813  1.00  0.00    -0.744 OA
ENDBRANCH  82  83
ENDBRANCH  54  77
BRANCH  66  87
ATOM     87  C   UNL A   1      50.572  27.955  25.868  1.00  0.00    -0.014 A 
ATOM     88  C   UNL A   1      51.548  27.479  26.761  1.00  0.00     0.010 A 
ATOM     89  C   UNL A   1      50.935  28.235  24.538  1.00  0.00     0.010 A 
ATOM     90  C   UNL A   1      52.871  27.325  26.342  1.00  0.00     0.020 A 
ATOM     91  C   UNL A   1      52.252  28.056  24.108  1.00  0.00     0.020 A 
ATOM     92  C   UNL A   1      53.216  27.620  25.020  1.00  0.00     0.054 A 
BRANCH  92  93
ATOM     93  S   UNL A   1      54.936  27.392  24.490  1.00  0.00     0.124 S 
ATOM     94  O   UNL A   1      55.010  25.945  24.314  1.00  0.00    -0.237 OA
ATOM     95  O   UNL A   1      55.002  28.179  23.260  1.00  0.00    -0.237 OA
ATOM     96  O   UNL A   1      55.714  27.926  25.604  1.00  0.00    -0.744 OA
ENDBRANCH  92  93
ENDBRANCH  66  87
ENDBRANCH  40  41
ENDBRANCH  33  35
ENDBRANCH  32  33
ENDBRANCH  31  32
ENDBRANCH   1  31
TORSDOF 19
ENDMDL
MODEL 3
REMARK VINA RESULT:     -10.6      5.620     11.735
REMARK SMILES COc1ccc(N2/C(=[NH+]/C(=O)CCCC(=O)OCCOC(=O)c3ccc(-c4c5nc(c(-c6ccc(S(=O)(=O)[O-])cc6)c6ccc([nH]6)c(-c6ccc(S(=O)(=O)[O-])cc6)c6nc(c(-c7ccc(S(=O)(=O)[O-])cc7)c7ccc4[nH]7)C=C6)C=C5)cc3)S[C@@H]3CS(=O)(=O)C[C@H]32)cc1Cl
REMARK SMILES IDX 18 1 17 2 15 3 16 4 14 5 13 6 12 7 10 8 7 9 8 10 90 11 9 12
REMARK SMILES IDX 83 13 84 14 89 15 85 17 86 18 11 19 87 20 88 21 6 22 3 23
REMARK SMILES IDX 4 24 92 25 5 26 91 27 93 28 2 29 1 30 19 31 20 32 21 33
REMARK SMILES IDX 22 34 23 35 24 36 82 37 25 38 81 39 26 40 27 41 28 42 75 43
REMARK SMILES IDX 29 44 80 45 74 46 76 47 30 48 79 49 73 50 72 51 31 53 61 54
REMARK SMILES IDX 42 55 60 56 43 57 46 58 59 59 77 60 44 61 45 62 58 64 78 65
REMARK SMILES IDX 47 66 32 67 33 68 41 69 34 70 40 71 35 72 36 73 37 74 38 75
REMARK SMILES IDX 39 76 62 77 63 78 71 79 64 80 70 81 65 82 66 83 67 84 68 85
REMARK SMILES IDX 69 86 48 87 49 88 57 89 50 90 56 91 51 92 52 93 53 94 54 95
REMARK SMILES IDX 55 96
REMARK H PARENT 9 16 76 52 46 63
REMARK Flexibility Score: inf
ROOT
ATOM      1  C   UNL A   1      33.261  33.041  28.020  1.00  0.00     0.274 C 
ENDROOT
BRANCH   1   2
ATOM      2  O   UNL A   1      34.258  33.126  29.054  1.00  0.00    -0.462 OA
BRANCH   2   3
ATOM      3  C   UNL A   1      35.334  33.905  28.794  1.00  0.00     0.305 C 
ATOM      4  O   UNL A   1      35.268  35.060  28.394  1.00  0.00    -0.252 OA
BRANCH   3   5
ATOM      5  C   UNL A   1      36.662  33.208  29.015  1.00  0.00     0.123 C 
BRANCH   5   6
ATOM      6  C   UNL A   1      37.925  34.055  29.126  1.00  0.00     0.024 C 
BRANCH   6   7
ATOM      7  C   UNL A   1      38.328  34.607  30.493  1.00  0.00     0.128 C 
BRANCH   7   8
ATOM      8  C   UNL A   1      37.579  34.129  31.727  1.00  0.00     0.307 C 
ATOM      9  N   UNL A   1      38.590  31.948  34.467  1.00  0.00    -0.217 N 
ATOM     10  C   UNL A   1      38.161  33.013  33.668  1.00  0.00     0.319 C 
ATOM     11  C   UNL A   1      38.575  32.236  35.900  1.00  0.00     0.212 C 
ATOM     12  N   UNL A   1      38.114  33.045  32.378  1.00  0.00    -0.204 N 
ATOM     13  S   UNL A   1      37.659  34.364  34.746  1.00  0.00    -0.029 SA
ATOM     14  C   UNL A   1      37.378  33.178  36.068  1.00  0.00     0.120 C 
ATOM     15  C   UNL A   1      38.293  31.114  36.875  1.00  0.00     0.188 C 
ATOM     16  H   UNL A   1      38.463  32.286  31.857  1.00  0.00     0.316 HD
ATOM     17  C   UNL A   1      37.365  33.583  37.517  1.00  0.00     0.156 C 
ATOM     18  S   UNL A   1      37.691  32.005  38.321  1.00  0.00     0.155 S 
ATOM     19  O   UNL A   1      36.467  34.594  31.978  1.00  0.00    -0.247 OA
ATOM     20  O   UNL A   1      36.427  31.423  38.719  1.00  0.00    -0.229 OA
ATOM     21  O   UNL A   1      38.787  32.186  39.247  1.00  0.00    -0.229 OA
BRANCH   9  22
ATOM     22  C   UNL A   1      39.343  30.857  34.023  1.00  0.00     0.130 A 
ATOM     23  C   UNL A   1      40.920  28.689  33.065  1.00  0.00     0.137 A 
ATOM     24  C   UNL A   1      41.502  29.794  33.704  1.00  0.00     0.052 A 
ATOM     25  C   UNL A   1      39.529  28.675  32.911  1.00  0.00     0.087 A 
ATOM     26  C   UNL A   1      40.730  30.859  34.175  1.00  0.00     0.056 A 
ATOM     27  C   UNL A   1      38.759  29.763  33.374  1.00  0.00     0.076 A 
ATOM     28  Cl  UNL A   1      38.629  27.375  32.213  1.00  0.00    -0.080 Cl
BRANCH  23  29
ATOM     29  O   UNL A   1      41.854  27.751  32.726  1.00  0.00    -0.495 OA
ATOM     30  C   UNL A   1      43.173  27.861  33.243  1.00  0.00     0.278 C 
ENDBRANCH  23  29
ENDBRANCH   9  22
ENDBRANCH   7   8
ENDBRANCH   6   7
ENDBRANCH   5   6
ENDBRANCH   3   5
ENDBRANCH   2   3
ENDBRANCH   1   2
BRANCH   1  31
ATOM     31  C   UNL A   1      33.249  31.657  27.362  1.00  0.00     0.275 C 
BRANCH  31  32
ATOM     32  O   UNL A   1      33.872  30.659  28.193  1.00  0.00    -0.458 OA
BRANCH  32  33
ATOM     33  C   UNL A   1      34.575  29.716  27.523  1.00  0.00     0.338 C 
ATOM     34  O   UNL A   1      34.204  29.072  26.556  1.00  0.00    -0.246 OA
BRANCH  33  35
ATOM     35  C   UNL A   1      35.960  29.672  28.022  1.00  0.00     0.060 A 
ATOM     36  C   UNL A   1      36.985  29.836  27.090  1.00  0.00     0.016 A 
ATOM     37  C   UNL A   1      36.258  29.390  29.354  1.00  0.00     0.016 A 
ATOM     38  C   UNL A   1      38.314  29.721  27.472  1.00  0.00     0.010 A 
ATOM     39  C   UNL A   1      37.599  29.269  29.742  1.00  0.00     0.010 A 
ATOM     40  C   UNL A   1      38.633  29.423  28.800  1.00  0.00    -0.014 A 
BRANCH  40  41
ATOM     41  C   UNL A   1      40.053  29.213  29.164  1.00  0.00     0.031 A 
ATOM     42  C   UNL A   1      40.725  27.913  28.821  1.00  0.00     0.074 A 
ATOM     43  C   UNL A   1      40.752  30.210  29.740  1.00  0.00     0.049 A 
ATOM     44  N   UNL A   1      41.942  27.518  29.089  1.00  0.00    -0.248 NA
ATOM     45  C   UNL A   1      39.922  26.927  28.077  1.00  0.00     0.031 C 
ATOM     46  C   UNL A   1      40.224  31.538  30.061  1.00  0.00     0.029 A 
ATOM     47  N   UNL A   1      42.060  30.264  30.149  1.00  0.00    -0.354 N 
ATOM     48  C   UNL A   1      42.045  26.232  28.574  1.00  0.00     0.074 A 
ATOM     49  C   UNL A   1      40.764  25.907  27.983  1.00  0.00     0.031 C 
ATOM     50  C   UNL A   1      41.201  32.277  30.611  1.00  0.00     0.029 A 
ATOM     51  C   UNL A   1      42.407  31.463  30.725  1.00  0.00     0.049 A 
ATOM     52  H   UNL A   1      42.691  29.516  30.040  1.00  0.00     0.167 HD
ATOM     53  C   UNL A   1      43.111  25.397  28.595  1.00  0.00     0.031 A 
ATOM     54  C   UNL A   1      43.560  31.852  31.303  1.00  0.00     0.031 A 
ATOM     55  C   UNL A   1      44.387  25.732  29.171  1.00  0.00     0.049 A 
ATOM     56  C   UNL A   1      44.713  30.886  31.355  1.00  0.00     0.074 A 
ATOM     57  C   UNL A   1      45.532  24.957  29.237  1.00  0.00     0.029 A 
ATOM     58  N   UNL A   1      44.689  26.943  29.775  1.00  0.00    -0.354 N 
ATOM     59  N   UNL A   1      44.787  29.667  30.876  1.00  0.00    -0.248 NA
ATOM     60  C   UNL A   1      45.936  31.349  32.025  1.00  0.00     0.031 C 
ATOM     61  C   UNL A   1      46.512  25.683  29.920  1.00  0.00     0.029 A 
ATOM     62  C   UNL A   1      45.995  26.929  30.233  1.00  0.00     0.049 A 
ATOM     63  H   UNL A   1      44.067  27.700  29.866  1.00  0.00     0.167 HD
ATOM     64  C   UNL A   1      46.073  29.225  31.169  1.00  0.00     0.074 A 
ATOM     65  C   UNL A   1      46.746  30.314  31.848  1.00  0.00     0.031 C 
ATOM     66  C   UNL A   1      46.647  28.025  30.904  1.00  0.00     0.031 A 
BRANCH  53  67
ATOM     67  C   UNL A   1      42.936  24.021  28.013  1.00  0.00    -0.014 A 
ATOM     68  C   UNL A   1      42.400  22.967  28.774  1.00  0.00     0.010 A 
ATOM     69  C   UNL A   1      43.256  23.797  26.661  1.00  0.00     0.010 A 
ATOM     70  C   UNL A   1      42.209  21.707  28.199  1.00  0.00     0.020 A 
ATOM     71  C   UNL A   1      43.045  22.546  26.076  1.00  0.00     0.020 A 
ATOM     72  C   UNL A   1      42.532  21.505  26.852  1.00  0.00     0.054 A 
BRANCH  72  73
ATOM     73  S   UNL A   1      42.230  19.874  26.118  1.00  0.00     0.124 S 
ATOM     74  O   UNL A   1      43.229  19.833  25.054  1.00  0.00    -0.237 OA
ATOM     75  O   UNL A   1      42.468  18.968  27.238  1.00  0.00    -0.237 OA
ATOM     76  O   UNL A   1      40.842  19.949  25.666  1.00  0.00    -0.744 OA
ENDBRANCH  72  73
ENDBRANCH  53  67
BRANCH  54  77
ATOM     77  C   UNL A   1      43.670  33.202  31.922  1.00  0.00    -0.014 A 
ATOM     78  C   UNL A   1      43.299  33.416  33.261  1.00  0.00     0.010 A 
ATOM     79  C   UNL A   1      44.133  34.291  31.159  1.00  0.00     0.010 A 
ATOM     80  C   UNL A   1      43.363  34.697  33.817  1.00  0.00     0.020 A 
ATOM     81  C   UNL A   1      44.226  35.567  31.720  1.00  0.00     0.020 A 
ATOM     82  C   UNL A   1      43.823  35.765  33.041  1.00  0.00     0.054 A 
BRANCH  82  83
ATOM     83  S   UNL A   1      43.929  37.416  33.788  1.00  0.00     0.124 S 
ATOM     84  O   UNL A   1      43.851  38.283  32.617  1.00  0.00    -0.237 OA
ATOM     85  O   UNL A   1      42.766  37.441  34.673  1.00  0.00    -0.237 OA
ATOM     86  O   UNL A   1      45.220  37.397  34.471  1.00  0.00    -0.744 OA
ENDBRANCH  82  83
ENDBRANCH  54  77
BRANCH  66  87
ATOM     87  C   UNL A   1      48.081  27.844  31.317  1.00  0.00    -0.014 A 
ATOM     88  C   UNL A   1      49.134  28.061  30.411  1.00  0.00     0.010 A 
ATOM     89  C   UNL A   1      48.380  27.481  32.643  1.00  0.00     0.010 A 
ATOM     90  C   UNL A   1      50.459  27.877  30.813  1.00  0.00     0.020 A 
ATOM     91  C   UNL A   1      49.705  27.322  33.055  1.00  0.00     0.020 A 
ATOM     92  C   UNL A   1      50.736  27.503  32.131  1.00  0.00     0.054 A 
BRANCH  92  93
ATOM     93  S   UNL A   1      52.464  27.291  32.638  1.00  0.00     0.124 S 
ATOM     94  O   UNL A   1      53.077  26.775  31.418  1.00  0.00    -0.237 OA
ATOM     95  O   UNL A   1      52.859  28.646  33.016  1.00  0.00    -0.237 OA
ATOM     96  O   UNL A   1      52.385  26.342  33.746  1.00  0.00    -0.744 OA
ENDBRANCH  92  93
ENDBRANCH  66  87
ENDBRANCH  40  41
ENDBRANCH  33  35
ENDBRANCH  32  33
ENDBRANCH  31  32
ENDBRANCH   1  31
TORSDOF 19
ENDMDL
