MODEL 1
REMARK VINA RESULT:      -9.0      0.000      0.000
REMARK SMILES CS(=O)(=O)c1ccc(N2N=C(C(=O)OCCOC(=O)c3ccc(-c4c5nc(c(-c6ccc(S(=O)(=O)[O-])cc6)c6ccc([nH]6)c(-c6ccc(S(=O)(=O)[O-])cc6)c6nc(c(-c7ccc(S(=O)(=O)[O-])cc7)c7ccc4[nH]7)C=C6)C=C5)cc3)C[C@H]2c2cccs2)cc1
REMARK SMILES IDX 16 1 15 2 14 3 12 4 13 5 11 6 9 7 10 8 81 9 80 10 8 11 5 12
REMARK SMILES IDX 6 13 88 14 7 15 87 16 2 17 1 18 3 19 4 20 82 21 83 22 86 23
REMARK SMILES IDX 84 24 85 25 17 26 18 27 19 28 20 29 21 30 79 31 22 32 78 33
REMARK SMILES IDX 23 34 24 35 25 36 72 37 26 38 77 39 71 40 73 41 27 42 76 43
REMARK SMILES IDX 70 44 69 45 28 47 58 48 39 49 57 50 40 51 43 52 56 53 74 54
REMARK SMILES IDX 41 55 42 56 55 58 75 59 44 60 29 61 30 62 38 63 31 64 37 65
REMARK SMILES IDX 32 66 33 67 34 68 35 69 36 70 59 71 60 72 68 73 61 74 67 75
REMARK SMILES IDX 62 76 63 77 64 78 65 79 66 80 45 81 46 82 54 83 47 84 53 85
REMARK SMILES IDX 48 86 49 87 50 88 51 89 52 90
REMARK H PARENT 73 46 43 57
REMARK Flexibility Score: inf
ROOT
ATOM      1  C   UNL A   1      34.492  32.869  28.819  1.00  0.00     0.275 C 
ENDROOT
BRANCH   1   2
ATOM      2  C   UNL A   1      34.441  33.549  30.190  1.00  0.00     0.275 C 
BRANCH   2   3
ATOM      3  O   UNL A   1      34.419  32.535  31.206  1.00  0.00    -0.458 OA
BRANCH   3   4
ATOM      4  C   UNL A   1      34.586  32.962  32.472  1.00  0.00     0.354 C 
ATOM      5  O   UNL A   1      33.750  33.398  33.234  1.00  0.00    -0.245 OA
BRANCH   4   6
ATOM      6  C   UNL A   1      36.037  32.794  32.834  1.00  0.00     0.148 C 
ATOM      7  N   UNL A   1      37.882  31.929  33.356  1.00  0.00    -0.256 N 
ATOM      8  N   UNL A   1      36.581  31.642  33.088  1.00  0.00    -0.169 NA
ATOM      9  C   UNL A   1      38.155  33.355  33.528  1.00  0.00     0.154 C 
ATOM     10  C   UNL A   1      36.951  33.979  32.812  1.00  0.00     0.099 C 
BRANCH   7  11
ATOM     11  C   UNL A   1      38.834  30.941  33.527  1.00  0.00     0.060 A 
ATOM     12  C   UNL A   1      40.804  28.959  33.769  1.00  0.00     0.067 A 
ATOM     13  C   UNL A   1      39.640  28.691  33.046  1.00  0.00     0.022 A 
ATOM     14  C   UNL A   1      40.997  30.204  34.371  1.00  0.00     0.022 A 
ATOM     15  C   UNL A   1      38.664  29.684  32.929  1.00  0.00     0.029 A 
ATOM     16  C   UNL A   1      40.006  31.184  34.254  1.00  0.00     0.029 A 
BRANCH  12  17
ATOM     17  S   UNL A   1      42.078  27.721  33.846  1.00  0.00     0.175 S 
ATOM     18  C   UNL A   1      43.314  28.440  34.896  1.00  0.00     0.163 C 
ATOM     19  O   UNL A   1      42.636  27.582  32.513  1.00  0.00    -0.224 OA
ATOM     20  O   UNL A   1      41.502  26.574  34.522  1.00  0.00    -0.224 OA
ENDBRANCH  12  17
ENDBRANCH   7  11
BRANCH   9  21
ATOM     21  C   UNL A   1      38.311  33.801  34.974  1.00  0.00     0.030 A 
ATOM     22  C   UNL A   1      39.219  34.723  35.469  1.00  0.00     0.017 A 
ATOM     23  S   UNL A   1      37.386  33.114  36.251  1.00  0.00    -0.147 S 
ATOM     24  C   UNL A   1      39.134  34.877  36.883  1.00  0.00     0.012 A 
ATOM     25  C   UNL A   1      38.168  34.066  37.431  1.00  0.00     0.065 A 
ENDBRANCH   9  21
ENDBRANCH   4   6
ENDBRANCH   3   4
ENDBRANCH   2   3
ENDBRANCH   1   2
BRANCH   1  26
ATOM     26  O   UNL A   1      34.182  31.468  28.948  1.00  0.00    -0.458 OA
BRANCH  26  27
ATOM     27  C   UNL A   1      34.588  30.684  27.916  1.00  0.00     0.338 C 
ATOM     28  O   UNL A   1      33.977  30.462  26.884  1.00  0.00    -0.246 OA
BRANCH  27  29
ATOM     29  C   UNL A   1      35.972  30.229  28.163  1.00  0.00     0.060 A 
ATOM     30  C   UNL A   1      36.277  29.734  29.434  1.00  0.00     0.016 A 
ATOM     31  C   UNL A   1      36.959  30.290  27.174  1.00  0.00     0.016 A 
ATOM     32  C   UNL A   1      37.566  29.290  29.721  1.00  0.00     0.010 A 
ATOM     33  C   UNL A   1      38.258  29.863  27.467  1.00  0.00     0.010 A 
ATOM     34  C   UNL A   1      38.567  29.367  28.744  1.00  0.00    -0.014 A 
BRANCH  34  35
ATOM     35  C   UNL A   1      39.951  28.971  29.085  1.00  0.00     0.031 A 
ATOM     36  C   UNL A   1      40.836  29.930  29.823  1.00  0.00     0.074 A 
ATOM     37  C   UNL A   1      40.399  27.746  28.762  1.00  0.00     0.049 A 
ATOM     38  N   UNL A   1      42.061  29.758  30.248  1.00  0.00    -0.248 NA
ATOM     39  C   UNL A   1      40.266  31.251  30.131  1.00  0.00     0.031 C 
ATOM     40  C   UNL A   1      39.624  26.713  28.076  1.00  0.00     0.029 A 
ATOM     41  N   UNL A   1      41.621  27.163  28.981  1.00  0.00    -0.354 N 
ATOM     42  C   UNL A   1      42.409  30.944  30.881  1.00  0.00     0.074 A 
ATOM     43  C   UNL A   1      41.267  31.830  30.780  1.00  0.00     0.031 C 
ATOM     44  C   UNL A   1      40.391  25.619  27.928  1.00  0.00     0.029 A 
ATOM     45  C   UNL A   1      41.709  25.879  28.502  1.00  0.00     0.049 A 
ATOM     46  H   UNL A   1      42.364  27.621  29.438  1.00  0.00     0.167 HD
ATOM     47  C   UNL A   1      43.573  31.269  31.491  1.00  0.00     0.031 A 
ATOM     48  C   UNL A   1      42.739  25.013  28.521  1.00  0.00     0.031 A 
ATOM     49  C   UNL A   1      44.720  30.409  31.573  1.00  0.00     0.049 A 
ATOM     50  C   UNL A   1      44.042  25.417  29.149  1.00  0.00     0.074 A 
ATOM     51  C   UNL A   1      45.944  30.655  32.168  1.00  0.00     0.029 A 
ATOM     52  N   UNL A   1      44.790  29.139  31.024  1.00  0.00    -0.354 N 
ATOM     53  N   UNL A   1      44.347  26.538  29.757  1.00  0.00    -0.248 NA
ATOM     54  C   UNL A   1      45.139  24.441  29.086  1.00  0.00     0.031 C 
ATOM     55  C   UNL A   1      46.764  29.538  31.962  1.00  0.00     0.029 A 
ATOM     56  C   UNL A   1      46.041  28.593  31.251  1.00  0.00     0.049 A 
ATOM     57  H   UNL A   1      44.058  28.690  30.543  1.00  0.00     0.167 HD
ATOM     58  C   UNL A   1      45.675  26.404  30.146  1.00  0.00     0.074 A 
ATOM     59  C   UNL A   1      46.110  25.091  29.715  1.00  0.00     0.031 C 
ATOM     60  C   UNL A   1      46.462  27.292  30.800  1.00  0.00     0.031 A 
BRANCH  47  61
ATOM     61  C   UNL A   1      43.648  32.636  32.103  1.00  0.00    -0.014 A 
ATOM     62  C   UNL A   1      43.058  32.888  33.354  1.00  0.00     0.010 A 
ATOM     63  C   UNL A   1      44.282  33.681  31.411  1.00  0.00     0.010 A 
ATOM     64  C   UNL A   1      43.065  34.179  33.887  1.00  0.00     0.020 A 
ATOM     65  C   UNL A   1      44.296  34.973  31.945  1.00  0.00     0.020 A 
ATOM     66  C   UNL A   1      43.668  35.217  33.169  1.00  0.00     0.054 A 
BRANCH  66  67
ATOM     67  S   UNL A   1      43.646  36.898  33.850  1.00  0.00     0.124 S 
ATOM     68  O   UNL A   1      42.646  36.777  34.908  1.00  0.00    -0.237 OA
ATOM     69  O   UNL A   1      45.021  37.090  34.306  1.00  0.00    -0.237 OA
ATOM     70  O   UNL A   1      43.253  37.721  32.710  1.00  0.00    -0.744 OA
ENDBRANCH  66  67
ENDBRANCH  47  61
BRANCH  48  71
ATOM     71  C   UNL A   1      42.575  23.671  27.910  1.00  0.00    -0.014 A 
ATOM     72  C   UNL A   1      42.720  23.501  26.524  1.00  0.00     0.010 A 
ATOM     73  C   UNL A   1      42.312  22.555  28.722  1.00  0.00     0.010 A 
ATOM     74  C   UNL A   1      42.604  22.231  25.954  1.00  0.00     0.020 A 
ATOM     75  C   UNL A   1      42.204  21.282  28.157  1.00  0.00     0.020 A 
ATOM     76  C   UNL A   1      42.345  21.129  26.775  1.00  0.00     0.054 A 
BRANCH  76  77
ATOM     77  S   UNL A   1      42.269  19.466  26.050  1.00  0.00     0.124 S 
ATOM     78  O   UNL A   1      40.861  19.362  25.679  1.00  0.00    -0.237 OA
ATOM     79  O   UNL A   1      43.212  19.545  24.937  1.00  0.00    -0.237 OA
ATOM     80  O   UNL A   1      42.695  18.608  27.154  1.00  0.00    -0.744 OA
ENDBRANCH  76  77
ENDBRANCH  48  71
BRANCH  60  81
ATOM     81  C   UNL A   1      47.877  26.877  31.072  1.00  0.00    -0.014 A 
ATOM     82  C   UNL A   1      48.917  27.308  30.231  1.00  0.00     0.010 A 
ATOM     83  C   UNL A   1      48.177  26.086  32.196  1.00  0.00     0.010 A 
ATOM     84  C   UNL A   1      50.238  26.943  30.501  1.00  0.00     0.020 A 
ATOM     85  C   UNL A   1      49.498  25.725  32.471  1.00  0.00     0.020 A 
ATOM     86  C   UNL A   1      50.520  26.147  31.615  1.00  0.00     0.054 A 
BRANCH  86  87
ATOM     87  S   UNL A   1      52.243  25.714  31.988  1.00  0.00     0.124 S 
ATOM     88  O   UNL A   1      52.111  24.348  32.484  1.00  0.00    -0.237 OA
ATOM     89  O   UNL A   1      52.908  25.850  30.693  1.00  0.00    -0.237 OA
ATOM     90  O   UNL A   1      52.632  26.709  32.985  1.00  0.00    -0.744 OA
ENDBRANCH  86  87
ENDBRANCH  60  81
ENDBRANCH  34  35
ENDBRANCH  27  29
ENDBRANCH  26  27
ENDBRANCH   1  26
TORSDOF 17
ENDMDL
MODEL 2
REMARK VINA RESULT:      -8.9      4.752     11.407
REMARK SMILES CS(=O)(=O)c1ccc(N2N=C(C(=O)OCCOC(=O)c3ccc(-c4c5nc(c(-c6ccc(S(=O)(=O)[O-])cc6)c6ccc([nH]6)c(-c6ccc(S(=O)(=O)[O-])cc6)c6nc(c(-c7ccc(S(=O)(=O)[O-])cc7)c7ccc4[nH]7)C=C6)C=C5)cc3)C[C@H]2c2cccs2)cc1
REMARK SMILES IDX 16 1 15 2 14 3 12 4 13 5 11 6 9 7 10 8 81 9 80 10 8 11 5 12
REMARK SMILES IDX 6 13 88 14 7 15 87 16 2 17 1 18 3 19 4 20 82 21 83 22 86 23
REMARK SMILES IDX 84 24 85 25 17 26 18 27 19 28 20 29 21 30 79 31 22 32 78 33
REMARK SMILES IDX 23 34 24 35 25 36 72 37 26 38 77 39 71 40 73 41 27 42 76 43
REMARK SMILES IDX 70 44 69 45 28 47 58 48 39 49 57 50 40 51 43 52 56 53 74 54
REMARK SMILES IDX 41 55 42 56 55 58 75 59 44 60 29 61 30 62 38 63 31 64 37 65
REMARK SMILES IDX 32 66 33 67 34 68 35 69 36 70 59 71 60 72 68 73 61 74 67 75
REMARK SMILES IDX 62 76 63 77 64 78 65 79 66 80 45 81 46 82 54 83 47 84 53 85
REMARK SMILES IDX 48 86 49 87 50 88 51 89 52 90
REMARK H PARENT 73 46 43 57
REMARK Flexibility Score: inf
ROOT
ATOM      1  C   UNL A   1      36.225  23.177  25.975  1.00  0.00     0.275 C 
ENDROOT
BRANCH   1   2
ATOM      2  C   UNL A   1      35.142  23.049  24.899  1.00  0.00     0.275 C 
BRANCH   2   3
ATOM      3  O   UNL A   1      33.862  22.954  25.544  1.00  0.00    -0.458 OA
BRANCH   3   4
ATOM      4  C   UNL A   1      32.786  23.031  24.739  1.00  0.00     0.354 C 
ATOM      5  O   UNL A   1      32.388  22.212  23.937  1.00  0.00    -0.245 OA
BRANCH   4   6
ATOM      6  C   UNL A   1      32.099  24.343  25.001  1.00  0.00     0.148 C 
ATOM      7  N   UNL A   1      31.129  26.187  24.712  1.00  0.00    -0.256 N 
ATOM      8  N   UNL A   1      31.691  25.137  24.057  1.00  0.00    -0.169 NA
ATOM      9  C   UNL A   1      31.396  26.205  26.150  1.00  0.00     0.154 C 
ATOM     10  C   UNL A   1      31.763  24.739  26.405  1.00  0.00     0.099 C 
BRANCH   7  11
ATOM     11  C   UNL A   1      30.437  27.183  24.048  1.00  0.00     0.060 A 
ATOM     12  C   UNL A   1      28.987  29.235  22.802  1.00  0.00     0.067 A 
ATOM     13  C   UNL A   1      28.346  28.039  23.132  1.00  0.00     0.022 A 
ATOM     14  C   UNL A   1      30.341  29.419  23.088  1.00  0.00     0.022 A 
ATOM     15  C   UNL A   1      29.075  27.022  23.754  1.00  0.00     0.029 A 
ATOM     16  C   UNL A   1      31.060  28.388  23.701  1.00  0.00     0.029 A 
BRANCH  12  17
ATOM     17  S   UNL A   1      28.035  30.556  22.086  1.00  0.00     0.175 S 
ATOM     18  C   UNL A   1      29.091  31.975  22.233  1.00  0.00     0.163 C 
ATOM     19  O   UNL A   1      26.871  30.764  22.928  1.00  0.00    -0.224 OA
ATOM     20  O   UNL A   1      27.875  30.237  20.680  1.00  0.00    -0.224 OA
ENDBRANCH  12  17
ENDBRANCH   7  11
BRANCH   9  21
ATOM     21  C   UNL A   1      32.467  27.195  26.583  1.00  0.00     0.030 A 
ATOM     22  C   UNL A   1      32.343  28.195  27.532  1.00  0.00     0.017 A 
ATOM     23  S   UNL A   1      34.020  27.245  25.847  1.00  0.00    -0.147 S 
ATOM     24  C   UNL A   1      33.525  28.980  27.665  1.00  0.00     0.012 A 
ATOM     25  C   UNL A   1      34.519  28.561  26.813  1.00  0.00     0.065 A 
ENDBRANCH   9  21
ENDBRANCH   4   6
ENDBRANCH   3   4
ENDBRANCH   2   3
ENDBRANCH   1   2
BRANCH   1  26
ATOM     26  O   UNL A   1      37.511  23.387  25.360  1.00  0.00    -0.458 OA
BRANCH  26  27
ATOM     27  C   UNL A   1      38.583  23.051  26.123  1.00  0.00     0.338 C 
ATOM     28  O   UNL A   1      39.104  21.951  26.205  1.00  0.00    -0.246 OA
BRANCH  27  29
ATOM     29  C   UNL A   1      39.131  24.267  26.759  1.00  0.00     0.060 A 
ATOM     30  C   UNL A   1      38.809  24.501  28.100  1.00  0.00     0.016 A 
ATOM     31  C   UNL A   1      39.940  25.169  26.060  1.00  0.00     0.016 A 
ATOM     32  C   UNL A   1      39.300  25.632  28.749  1.00  0.00     0.010 A 
ATOM     33  C   UNL A   1      40.416  26.314  26.706  1.00  0.00     0.010 A 
ATOM     34  C   UNL A   1      40.093  26.552  28.052  1.00  0.00    -0.014 A 
BRANCH  34  35
ATOM     35  C   UNL A   1      40.539  27.790  28.727  1.00  0.00     0.031 A 
ATOM     36  C   UNL A   1      41.948  27.895  29.228  1.00  0.00     0.074 A 
ATOM     37  C   UNL A   1      39.693  28.826  28.860  1.00  0.00     0.049 A 
ATOM     38  N   UNL A   1      42.542  28.906  29.807  1.00  0.00    -0.248 NA
ATOM     39  C   UNL A   1      42.803  26.712  29.044  1.00  0.00     0.031 C 
ATOM     40  C   UNL A   1      38.310  28.858  28.385  1.00  0.00     0.029 A 
ATOM     41  N   UNL A   1      39.882  30.058  29.432  1.00  0.00    -0.354 N 
ATOM     42  C   UNL A   1      43.843  28.488  30.052  1.00  0.00     0.074 A 
ATOM     43  C   UNL A   1      43.950  27.129  29.563  1.00  0.00     0.031 C 
ATOM     44  C   UNL A   1      37.774  30.053  28.685  1.00  0.00     0.029 A 
ATOM     45  C   UNL A   1      38.773  30.863  29.379  1.00  0.00     0.049 A 
ATOM     46  H   UNL A   1      40.734  30.338  29.841  1.00  0.00     0.167 HD
ATOM     47  C   UNL A   1      44.857  29.171  30.632  1.00  0.00     0.031 A 
ATOM     48  C   UNL A   1      38.582  32.112  29.843  1.00  0.00     0.031 A 
ATOM     49  C   UNL A   1      44.754  30.508  31.145  1.00  0.00     0.049 A 
ATOM     50  C   UNL A   1      39.703  32.828  30.539  1.00  0.00     0.074 A 
ATOM     51  C   UNL A   1      45.728  31.279  31.753  1.00  0.00     0.029 A 
ATOM     52  N   UNL A   1      43.596  31.269  31.126  1.00  0.00    -0.354 N 
ATOM     53  N   UNL A   1      40.932  32.422  30.747  1.00  0.00    -0.248 NA
ATOM     54  C   UNL A   1      39.408  34.168  31.066  1.00  0.00     0.031 C 
ATOM     55  C   UNL A   1      45.153  32.503  32.120  1.00  0.00     0.029 A 
ATOM     56  C   UNL A   1      43.824  32.495  31.727  1.00  0.00     0.049 A 
ATOM     57  H   UNL A   1      42.736  30.981  30.742  1.00  0.00     0.167 HD
ATOM     58  C   UNL A   1      41.557  33.456  31.436  1.00  0.00     0.074 A 
ATOM     59  C   UNL A   1      40.575  34.509  31.597  1.00  0.00     0.031 C 
ATOM     60  C   UNL A   1      42.830  33.523  31.893  1.00  0.00     0.031 A 
BRANCH  47  61
ATOM     61  C   UNL A   1      46.167  28.451  30.749  1.00  0.00    -0.014 A 
ATOM     62  C   UNL A   1      46.447  27.665  31.881  1.00  0.00     0.010 A 
ATOM     63  C   UNL A   1      47.135  28.583  29.739  1.00  0.00     0.010 A 
ATOM     64  C   UNL A   1      47.697  27.055  32.021  1.00  0.00     0.020 A 
ATOM     65  C   UNL A   1      48.383  27.969  29.874  1.00  0.00     0.020 A 
ATOM     66  C   UNL A   1      48.662  27.228  31.025  1.00  0.00     0.054 A 
BRANCH  66  67
ATOM     67  S   UNL A   1      50.294  26.461  31.228  1.00  0.00     0.124 S 
ATOM     68  O   UNL A   1      51.050  27.535  31.867  1.00  0.00    -0.237 OA
ATOM     69  O   UNL A   1      50.014  25.303  32.073  1.00  0.00    -0.237 OA
ATOM     70  O   UNL A   1      50.693  26.145  29.859  1.00  0.00    -0.744 OA
ENDBRANCH  66  67
ENDBRANCH  47  61
BRANCH  48  71
ATOM     71  C   UNL A   1      37.259  32.762  29.669  1.00  0.00    -0.014 A 
ATOM     72  C   UNL A   1      36.279  32.653  30.669  1.00  0.00     0.010 A 
ATOM     73  C   UNL A   1      36.994  33.521  28.517  1.00  0.00     0.010 A 
ATOM     74  C   UNL A   1      35.048  33.297  30.522  1.00  0.00     0.020 A 
ATOM     75  C   UNL A   1      35.767  34.173  28.370  1.00  0.00     0.020 A 
ATOM     76  C   UNL A   1      34.800  34.052  29.372  1.00  0.00     0.054 A 
BRANCH  76  77
ATOM     77  S   UNL A   1      33.232  34.953  29.209  1.00  0.00     0.124 S 
ATOM     78  O   UNL A   1      33.679  36.253  28.720  1.00  0.00    -0.237 OA
ATOM     79  O   UNL A   1      32.481  34.142  28.253  1.00  0.00    -0.237 OA
ATOM     80  O   UNL A   1      32.703  34.939  30.572  1.00  0.00    -0.744 OA
ENDBRANCH  76  77
ENDBRANCH  48  71
BRANCH  60  81
ATOM     81  C   UNL A   1      43.226  34.770  32.627  1.00  0.00    -0.014 A 
ATOM     82  C   UNL A   1      43.755  35.868  31.926  1.00  0.00     0.010 A 
ATOM     83  C   UNL A   1      43.032  34.865  34.017  1.00  0.00     0.010 A 
ATOM     84  C   UNL A   1      44.099  37.038  32.605  1.00  0.00     0.020 A 
ATOM     85  C   UNL A   1      43.369  36.037  34.697  1.00  0.00     0.020 A 
ATOM     86  C   UNL A   1      43.911  37.113  33.988  1.00  0.00     0.054 A 
BRANCH  86  87
ATOM     87  S   UNL A   1      44.315  38.654  34.860  1.00  0.00     0.124 S 
ATOM     88  O   UNL A   1      43.419  39.609  34.217  1.00  0.00    -0.237 OA
ATOM     89  O   UNL A   1      44.001  38.339  36.253  1.00  0.00    -0.237 OA
ATOM     90  O   UNL A   1      45.737  38.838  34.577  1.00  0.00    -0.744 OA
ENDBRANCH  86  87
ENDBRANCH  60  81
ENDBRANCH  34  35
ENDBRANCH  27  29
ENDBRANCH  26  27
ENDBRANCH   1  26
TORSDOF 17
ENDMDL
MODEL 3
REMARK VINA RESULT:      -8.8      5.075     11.034
REMARK SMILES CS(=O)(=O)c1ccc(N2N=C(C(=O)OCCOC(=O)c3ccc(-c4c5nc(c(-c6ccc(S(=O)(=O)[O-])cc6)c6ccc([nH]6)c(-c6ccc(S(=O)(=O)[O-])cc6)c6nc(c(-c7ccc(S(=O)(=O)[O-])cc7)c7ccc4[nH]7)C=C6)C=C5)cc3)C[C@H]2c2cccs2)cc1
REMARK SMILES IDX 16 1 15 2 14 3 12 4 13 5 11 6 9 7 10 8 81 9 80 10 8 11 5 12
REMARK SMILES IDX 6 13 88 14 7 15 87 16 2 17 1 18 3 19 4 20 82 21 83 22 86 23
REMARK SMILES IDX 84 24 85 25 17 26 18 27 19 28 20 29 21 30 79 31 22 32 78 33
REMARK SMILES IDX 23 34 24 35 25 36 72 37 26 38 77 39 71 40 73 41 27 42 76 43
REMARK SMILES IDX 70 44 69 45 28 47 58 48 39 49 57 50 40 51 43 52 56 53 74 54
REMARK SMILES IDX 41 55 42 56 55 58 75 59 44 60 29 61 30 62 38 63 31 64 37 65
REMARK SMILES IDX 32 66 33 67 34 68 35 69 36 70 59 71 60 72 68 73 61 74 67 75
REMARK SMILES IDX 62 76 63 77 64 78 65 79 66 80 45 81 46 82 54 83 47 84 53 85
REMARK SMILES IDX 48 86 49 87 50 88 51 89 52 90
REMARK H PARENT 73 46 43 57
REMARK Flexibility Score: inf
ROOT
ATOM      1  C   UNL A   1      40.130  19.995  26.010  1.00  0.00     0.275 C 
ENDROOT
BRANCH   1   2
ATOM      2  C   UNL A   1      39.752  21.404  26.478  1.00  0.00     0.275 C 
BRANCH   2   3
ATOM      3  O   UNL A   1      38.543  21.801  25.813  1.00  0.00    -0.458 OA
BRANCH   3   4
ATOM      4  C   UNL A   1      38.153  23.075  26.004  1.00  0.00     0.354 C 
ATOM      5  O   UNL A   1      38.671  23.923  26.699  1.00  0.00    -0.245 OA
BRANCH   4   6
ATOM      6  C   UNL A   1      36.923  23.316  25.173  1.00  0.00     0.148 C 
ATOM      7  N   UNL A   1      35.136  24.148  24.436  1.00  0.00    -0.256 N 
ATOM      8  N   UNL A   1      36.080  24.278  25.405  1.00  0.00    -0.169 NA
ATOM      9  C   UNL A   1      35.224  22.898  23.682  1.00  0.00     0.154 C 
ATOM     10  C   UNL A   1      36.676  22.488  23.951  1.00  0.00     0.099 C 
BRANCH   7  11
ATOM     11  C   UNL A   1      34.139  25.087  24.249  1.00  0.00     0.060 A 
ATOM     12  C   UNL A   1      32.196  27.075  23.876  1.00  0.00     0.067 A 
ATOM     13  C   UNL A   1      32.682  26.817  25.160  1.00  0.00     0.022 A 
ATOM     14  C   UNL A   1      32.668  26.354  22.778  1.00  0.00     0.022 A 
ATOM     15  C   UNL A   1      33.651  25.827  25.337  1.00  0.00     0.029 A 
ATOM     16  C   UNL A   1      33.630  25.357  22.973  1.00  0.00     0.029 A 
BRANCH  12  17
ATOM     17  S   UNL A   1      31.023  28.392  23.645  1.00  0.00     0.175 S 
ATOM     18  C   UNL A   1      29.464  27.558  23.498  1.00  0.00     0.163 C 
ATOM     19  O   UNL A   1      31.322  29.028  22.375  1.00  0.00    -0.224 OA
ATOM     20  O   UNL A   1      31.024  29.168  24.871  1.00  0.00    -0.224 OA
ENDBRANCH  12  17
ENDBRANCH   7  11
BRANCH   9  21
ATOM     21  C   UNL A   1      34.201  21.845  24.079  1.00  0.00     0.030 A 
ATOM     22  C   UNL A   1      32.838  21.873  23.832  1.00  0.00     0.017 A 
ATOM     23  S   UNL A   1      34.622  20.458  25.003  1.00  0.00    -0.147 S 
ATOM     24  C   UNL A   1      32.155  20.750  24.381  1.00  0.00     0.012 A 
ATOM     25  C   UNL A   1      33.012  19.896  25.036  1.00  0.00     0.065 A 
ENDBRANCH   9  21
ENDBRANCH   4   6
ENDBRANCH   3   4
ENDBRANCH   2   3
ENDBRANCH   1   2
BRANCH   1  26
ATOM     26  O   UNL A   1      41.375  19.590  26.613  1.00  0.00    -0.458 OA
BRANCH  26  27
ATOM     27  C   UNL A   1      42.476  19.742  25.833  1.00  0.00     0.338 C 
ATOM     28  O   UNL A   1      42.913  18.941  25.024  1.00  0.00    -0.246 OA
BRANCH  27  29
ATOM     29  C   UNL A   1      43.012  21.108  26.005  1.00  0.00     0.060 A 
ATOM     30  C   UNL A   1      43.295  21.536  27.306  1.00  0.00     0.016 A 
ATOM     31  C   UNL A   1      43.231  21.961  24.919  1.00  0.00     0.016 A 
ATOM     32  C   UNL A   1      43.804  22.814  27.526  1.00  0.00     0.010 A 
ATOM     33  C   UNL A   1      43.723  23.251  25.142  1.00  0.00     0.010 A 
ATOM     34  C   UNL A   1      44.006  23.684  26.447  1.00  0.00    -0.014 A 
BRANCH  34  35
ATOM     35  C   UNL A   1      44.468  25.066  26.701  1.00  0.00     0.031 A 
ATOM     36  C   UNL A   1      43.498  26.091  27.206  1.00  0.00     0.074 A 
ATOM     37  C   UNL A   1      45.758  25.390  26.509  1.00  0.00     0.049 A 
ATOM     38  N   UNL A   1      43.714  27.340  27.527  1.00  0.00    -0.248 NA
ATOM     39  C   UNL A   1      42.105  25.650  27.382  1.00  0.00     0.031 C 
ATOM     40  C   UNL A   1      46.804  24.474  26.053  1.00  0.00     0.029 A 
ATOM     41  N   UNL A   1      46.408  26.585  26.684  1.00  0.00    -0.354 N 
ATOM     42  C   UNL A   1      42.488  27.837  27.951  1.00  0.00     0.074 A 
ATOM     43  C   UNL A   1      41.532  26.755  27.841  1.00  0.00     0.031 C 
ATOM     44  C   UNL A   1      47.968  25.143  25.985  1.00  0.00     0.029 A 
ATOM     45  C   UNL A   1      47.745  26.531  26.383  1.00  0.00     0.049 A 
ATOM     46  H   UNL A   1      45.957  27.404  26.996  1.00  0.00     0.167 HD
ATOM     47  C   UNL A   1      42.185  29.080  28.391  1.00  0.00     0.031 A 
ATOM     48  C   UNL A   1      48.685  27.494  26.419  1.00  0.00     0.031 A 
ATOM     49  C   UNL A   1      43.119  30.167  28.477  1.00  0.00     0.049 A 
ATOM     50  C   UNL A   1      48.312  28.883  26.852  1.00  0.00     0.074 A 
ATOM     51  C   UNL A   1      42.900  31.464  28.907  1.00  0.00     0.029 A 
ATOM     52  N   UNL A   1      44.452  30.088  28.107  1.00  0.00    -0.354 N 
ATOM     53  N   UNL A   1      47.150  29.330  27.265  1.00  0.00    -0.248 NA
ATOM     54  C   UNL A   1      49.376  29.896  26.817  1.00  0.00     0.031 C 
ATOM     55  C   UNL A   1      44.099  32.176  28.779  1.00  0.00     0.029 A 
ATOM     56  C   UNL A   1      45.065  31.316  28.281  1.00  0.00     0.049 A 
ATOM     57  H   UNL A   1      44.897  29.278  27.768  1.00  0.00     0.167 HD
ATOM     58  C   UNL A   1      47.342  30.680  27.534  1.00  0.00     0.074 A 
ATOM     59  C   UNL A   1      48.733  30.973  27.250  1.00  0.00     0.031 C 
ATOM     60  C   UNL A   1      46.445  31.593  27.976  1.00  0.00     0.031 A 
BRANCH  47  61
ATOM     61  C   UNL A   1      40.760  29.316  28.796  1.00  0.00    -0.014 A 
ATOM     62  C   UNL A   1      39.750  29.406  27.822  1.00  0.00     0.010 A 
ATOM     63  C   UNL A   1      40.433  29.480  30.152  1.00  0.00     0.010 A 
ATOM     64  C   UNL A   1      38.437  29.700  28.196  1.00  0.00     0.020 A 
ATOM     65  C   UNL A   1      39.119  29.768  30.530  1.00  0.00     0.020 A 
ATOM     66  C   UNL A   1      38.134  29.898  29.547  1.00  0.00     0.054 A 
BRANCH  66  67
ATOM     67  S   UNL A   1      36.434  30.311  30.025  1.00  0.00     0.124 S 
ATOM     68  O   UNL A   1      35.667  29.737  28.922  1.00  0.00    -0.237 OA
ATOM     69  O   UNL A   1      36.278  29.638  31.313  1.00  0.00    -0.237 OA
ATOM     70  O   UNL A   1      36.443  31.770  30.087  1.00  0.00    -0.744 OA
ENDBRANCH  66  67
ENDBRANCH  47  61
BRANCH  48  71
ATOM     71  C   UNL A   1      50.077  27.172  26.021  1.00  0.00    -0.014 A 
ATOM     72  C   UNL A   1      50.960  26.585  26.942  1.00  0.00     0.010 A 
ATOM     73  C   UNL A   1      50.508  27.418  24.706  1.00  0.00     0.010 A 
ATOM     74  C   UNL A   1      52.259  26.247  26.555  1.00  0.00     0.020 A 
ATOM     75  C   UNL A   1      51.804  27.074  24.313  1.00  0.00     0.020 A 
ATOM     76  C   UNL A   1      52.673  26.495  25.242  1.00  0.00     0.054 A 
BRANCH  76  77
ATOM     77  S   UNL A   1      54.333  25.988  24.713  1.00  0.00     0.124 S 
ATOM     78  O   UNL A   1      55.187  26.813  25.561  1.00  0.00    -0.237 OA
ATOM     79  O   UNL A   1      54.352  24.555  25.001  1.00  0.00    -0.237 OA
ATOM     80  O   UNL A   1      54.342  26.326  23.291  1.00  0.00    -0.744 OA
ENDBRANCH  76  77
ENDBRANCH  48  71
BRANCH  60  81
ATOM     81  C   UNL A   1      46.937  32.998  28.162  1.00  0.00    -0.014 A 
ATOM     82  C   UNL A   1      46.838  33.929  27.114  1.00  0.00     0.010 A 
ATOM     83  C   UNL A   1      47.465  33.403  29.401  1.00  0.00     0.010 A 
ATOM     84  C   UNL A   1      47.273  35.244  27.296  1.00  0.00     0.020 A 
ATOM     85  C   UNL A   1      47.894  34.720  29.588  1.00  0.00     0.020 A 
ATOM     86  C   UNL A   1      47.805  35.629  28.530  1.00  0.00     0.054 A 
BRANCH  86  87
ATOM     87  S   UNL A   1      48.325  37.351  28.777  1.00  0.00     0.124 S 
ATOM     88  O   UNL A   1      47.962  37.963  27.502  1.00  0.00    -0.237 OA
ATOM     89  O   UNL A   1      47.529  37.777  29.927  1.00  0.00    -0.237 OA
ATOM     90  O   UNL A   1      49.760  37.236  29.031  1.00  0.00    -0.744 OA
ENDBRANCH  86  87
ENDBRANCH  60  81
ENDBRANCH  34  35
ENDBRANCH  27  29
ENDBRANCH  26  27
ENDBRANCH   1  26
TORSDOF 17
ENDMDL
