MODEL 1
REMARK VINA RESULT:     -11.9      0.000      0.000
REMARK SMILES O=C(OCCOC(=O)c1ccc(-c2c3nc(c(-c4ccc(S(=O)(=O)[O-])cc4)c4ccc([nH]4)c(-c4ccc(S(=O)(=O)[O-])cc4)c4nc(c(-c5ccc(S(=O)(=O)[O-])cc5)c5ccc2[nH]5)C=C4)C=C3)cc1)c1ccc(NS(=O)(=O)C2=Cc3ccccc3CC2)cc1
REMARK SMILES IDX 4 1 3 2 2 3 1 4 69 5 70 6 88 7 71 8 87 9 72 10 73 11 74 13
REMARK SMILES IDX 75 14 76 15 77 16 78 17 86 18 79 19 85 20 80 21 84 22 81 23
REMARK SMILES IDX 83 24 82 25 5 26 6 27 7 28 8 29 9 30 10 31 68 32 11 33 67 34
REMARK SMILES IDX 12 35 13 36 14 37 61 38 15 39 66 40 60 41 62 42 16 43 65 44
REMARK SMILES IDX 59 45 58 46 17 48 47 49 28 50 46 51 29 52 32 53 45 54 63 55
REMARK SMILES IDX 30 56 31 57 44 59 64 60 33 61 18 62 19 63 27 64 20 65 26 66
REMARK SMILES IDX 21 67 22 68 23 69 24 70 25 71 48 72 49 73 57 74 50 75 56 76
REMARK SMILES IDX 51 77 52 78 53 79 54 80 55 81 34 82 35 83 43 84 36 85 42 86
REMARK SMILES IDX 37 87 38 88 39 89 40 90 41 91
REMARK H PARENT 73 12 62 47 32 58
REMARK Flexibility Score: inf
ROOT
ATOM      1  C   UNL A   1      38.869  21.884  25.832  1.00  0.00     0.275 C 
ENDROOT
BRANCH   1   2
ATOM      2  O   UNL A   1      37.609  22.545  25.589  1.00  0.00    -0.458 OA
BRANCH   2   3
ATOM      3  C   UNL A   1      36.671  22.323  24.633  1.00  0.00     0.338 C 
ATOM      4  O   UNL A   1      36.892  22.669  23.475  1.00  0.00    -0.246 OA
BRANCH   3   5
ATOM      5  C   UNL A   1      35.306  21.841  24.970  1.00  0.00     0.060 A 
ATOM      6  C   UNL A   1      34.911  21.340  26.204  1.00  0.00     0.018 A 
ATOM      7  C   UNL A   1      34.347  21.880  23.956  1.00  0.00     0.018 A 
ATOM      8  C   UNL A   1      33.551  21.200  26.500  1.00  0.00     0.027 A 
ATOM      9  C   UNL A   1      32.998  21.701  24.264  1.00  0.00     0.027 A 
ATOM     10  C   UNL A   1      32.581  21.527  25.575  1.00  0.00     0.049 A 
BRANCH  10  11
ATOM     11  N   UNL A   1      31.283  22.009  25.909  1.00  0.00    -0.280 N 
ATOM     12  H   UNL A   1      30.522  21.446  25.640  1.00  0.00     0.180 HD
BRANCH  11  13
ATOM     13  S   UNL A   1      30.914  23.435  26.710  1.00  0.00     0.258 S 
ATOM     14  O   UNL A   1      29.757  23.078  27.508  1.00  0.00    -0.202 OA
ATOM     15  O   UNL A   1      32.141  23.846  27.359  1.00  0.00    -0.202 OA
BRANCH  13  16
ATOM     16  C   UNL A   1      30.422  24.689  25.509  1.00  0.00     0.066 C 
ATOM     17  C   UNL A   1      30.156  25.910  26.039  1.00  0.00     0.026 C 
ATOM     18  C   UNL A   1      31.321  24.794  24.285  1.00  0.00     0.055 C 
ATOM     19  C   UNL A   1      31.367  26.769  26.264  1.00  0.00    -0.021 A 
ATOM     20  C   UNL A   1      32.706  25.313  24.670  1.00  0.00     0.041 C 
ATOM     21  C   UNL A   1      31.283  27.911  27.061  1.00  0.00     0.008 A 
ATOM     22  C   UNL A   1      32.607  26.427  25.679  1.00  0.00    -0.040 A 
ATOM     23  C   UNL A   1      32.438  28.642  27.358  1.00  0.00     0.001 A 
ATOM     24  C   UNL A   1      33.766  27.122  26.036  1.00  0.00     0.004 A 
ATOM     25  C   UNL A   1      33.680  28.223  26.880  1.00  0.00     0.000 A 
ENDBRANCH  13  16
ENDBRANCH  11  13
ENDBRANCH  10  11
ENDBRANCH   3   5
ENDBRANCH   2   3
ENDBRANCH   1   2
BRANCH   1  26
ATOM     26  C   UNL A   1      39.835  22.635  26.749  1.00  0.00     0.275 C 
BRANCH  26  27
ATOM     27  O   UNL A   1      39.589  24.046  26.792  1.00  0.00    -0.458 OA
BRANCH  27  28
ATOM     28  C   UNL A   1      40.712  24.813  26.700  1.00  0.00     0.338 C 
ATOM     29  O   UNL A   1      41.561  24.752  25.838  1.00  0.00    -0.246 OA
BRANCH  28  30
ATOM     30  C   UNL A   1      40.717  25.834  27.774  1.00  0.00     0.060 A 
ATOM     31  C   UNL A   1      39.616  25.882  28.638  1.00  0.00     0.016 A 
ATOM     32  C   UNL A   1      41.766  26.743  27.924  1.00  0.00     0.016 A 
ATOM     33  C   UNL A   1      39.568  26.830  29.667  1.00  0.00     0.010 A 
ATOM     34  C   UNL A   1      41.716  27.685  28.958  1.00  0.00     0.010 A 
ATOM     35  C   UNL A   1      40.618  27.741  29.840  1.00  0.00    -0.014 A 
BRANCH  35  36
ATOM     36  C   UNL A   1      40.569  28.804  30.882  1.00  0.00     0.031 A 
ATOM     37  C   UNL A   1      41.351  28.629  32.150  1.00  0.00     0.074 A 
ATOM     38  C   UNL A   1      39.787  29.894  30.750  1.00  0.00     0.049 A 
ATOM     39  N   UNL A   1      41.393  29.407  33.199  1.00  0.00    -0.248 NA
ATOM     40  C   UNL A   1      42.218  27.444  32.236  1.00  0.00     0.031 C 
ATOM     41  C   UNL A   1      39.059  30.263  29.547  1.00  0.00     0.029 A 
ATOM     42  N   UNL A   1      39.436  30.872  31.648  1.00  0.00    -0.354 N 
ATOM     43  C   UNL A   1      42.305  28.822  34.062  1.00  0.00     0.074 A 
ATOM     44  C   UNL A   1      42.748  27.590  33.441  1.00  0.00     0.031 C 
ATOM     45  C   UNL A   1      38.230  31.286  29.811  1.00  0.00     0.029 A 
ATOM     46  C   UNL A   1      38.435  31.702  31.193  1.00  0.00     0.049 A 
ATOM     47  H   UNL A   1      39.859  30.971  32.531  1.00  0.00     0.167 HD
ATOM     48  C   UNL A   1      42.760  29.285  35.250  1.00  0.00     0.031 A 
ATOM     49  C   UNL A   1      37.767  32.700  31.804  1.00  0.00     0.031 A 
ATOM     50  C   UNL A   1      42.306  30.494  35.878  1.00  0.00     0.049 A 
ATOM     51  C   UNL A   1      38.200  33.134  33.174  1.00  0.00     0.074 A 
ATOM     52  C   UNL A   1      42.750  31.068  37.056  1.00  0.00     0.029 A 
ATOM     53  N   UNL A   1      41.287  31.303  35.399  1.00  0.00    -0.354 N 
ATOM     54  N   UNL A   1      39.147  32.632  33.929  1.00  0.00    -0.248 NA
ATOM     55  C   UNL A   1      37.521  34.302  33.753  1.00  0.00     0.031 C 
ATOM     56  C   UNL A   1      41.958  32.190  37.321  1.00  0.00     0.029 A 
ATOM     57  C   UNL A   1      41.058  32.348  36.279  1.00  0.00     0.049 A 
ATOM     58  H   UNL A   1      40.797  31.155  34.558  1.00  0.00     0.167 HD
ATOM     59  C   UNL A   1      39.213  33.453  35.049  1.00  0.00     0.074 A 
ATOM     60  C   UNL A   1      38.203  34.477  34.878  1.00  0.00     0.031 C 
ATOM     61  C   UNL A   1      40.055  33.369  36.108  1.00  0.00     0.031 A 
BRANCH  48  62
ATOM     62  C   UNL A   1      43.795  28.449  35.947  1.00  0.00    -0.014 A 
ATOM     63  C   UNL A   1      45.167  28.666  35.725  1.00  0.00     0.010 A 
ATOM     64  C   UNL A   1      43.390  27.429  36.825  1.00  0.00     0.010 A 
ATOM     65  C   UNL A   1      46.116  27.835  36.323  1.00  0.00     0.020 A 
ATOM     66  C   UNL A   1      44.339  26.613  37.445  1.00  0.00     0.020 A 
ATOM     67  C   UNL A   1      45.694  26.806  37.170  1.00  0.00     0.054 A 
BRANCH  67  68
ATOM     68  S   UNL A   1      46.944  25.724  37.915  1.00  0.00     0.124 S 
ATOM     69  O   UNL A   1      46.183  25.080  38.982  1.00  0.00    -0.237 OA
ATOM     70  O   UNL A   1      47.323  24.856  36.802  1.00  0.00    -0.237 OA
ATOM     71  O   UNL A   1      47.982  26.650  38.361  1.00  0.00    -0.744 OA
ENDBRANCH  67  68
ENDBRANCH  48  62
BRANCH  49  72
ATOM     72  C   UNL A   1      36.648  33.384  31.099  1.00  0.00    -0.014 A 
ATOM     73  C   UNL A   1      36.852  34.010  29.858  1.00  0.00     0.010 A 
ATOM     74  C   UNL A   1      35.361  33.393  31.668  1.00  0.00     0.010 A 
ATOM     75  C   UNL A   1      35.793  34.648  29.205  1.00  0.00     0.020 A 
ATOM     76  C   UNL A   1      34.295  34.015  31.010  1.00  0.00     0.020 A 
ATOM     77  C   UNL A   1      34.521  34.647  29.784  1.00  0.00     0.054 A 
BRANCH  77  78
ATOM     78  S   UNL A   1      33.154  35.441  28.892  1.00  0.00     0.124 S 
ATOM     79  O   UNL A   1      32.355  35.989  29.984  1.00  0.00    -0.237 OA
ATOM     80  O   UNL A   1      33.849  36.422  28.063  1.00  0.00    -0.237 OA
ATOM     81  O   UNL A   1      32.538  34.340  28.156  1.00  0.00    -0.744 OA
ENDBRANCH  77  78
ENDBRANCH  49  72
BRANCH  61  82
ATOM     82  C   UNL A   1      39.957  34.432  37.169  1.00  0.00    -0.014 A 
ATOM     83  C   UNL A   1      39.174  34.244  38.319  1.00  0.00     0.010 A 
ATOM     84  C   UNL A   1      40.744  35.594  37.055  1.00  0.00     0.010 A 
ATOM     85  C   UNL A   1      39.177  35.201  39.338  1.00  0.00     0.020 A 
ATOM     86  C   UNL A   1      40.769  36.541  38.082  1.00  0.00     0.020 A 
ATOM     87  C   UNL A   1      39.981  36.340  39.217  1.00  0.00     0.054 A 
BRANCH  87  88
ATOM     88  S   UNL A   1      40.040  37.519  40.594  1.00  0.00     0.124 S 
ATOM     89  O   UNL A   1      40.250  36.641  41.740  1.00  0.00    -0.237 OA
ATOM     90  O   UNL A   1      41.173  38.371  40.239  1.00  0.00    -0.237 OA
ATOM     91  O   UNL A   1      38.736  38.178  40.543  1.00  0.00    -0.744 OA
ENDBRANCH  87  88
ENDBRANCH  61  82
ENDBRANCH  35  36
ENDBRANCH  28  30
ENDBRANCH  27  28
ENDBRANCH  26  27
ENDBRANCH   1  26
TORSDOF 17
ENDMDL
MODEL 2
REMARK VINA RESULT:     -11.8      7.045     12.381
REMARK SMILES O=C(OCCOC(=O)c1ccc(-c2c3nc(c(-c4ccc(S(=O)(=O)[O-])cc4)c4ccc([nH]4)c(-c4ccc(S(=O)(=O)[O-])cc4)c4nc(c(-c5ccc(S(=O)(=O)[O-])cc5)c5ccc2[nH]5)C=C4)C=C3)cc1)c1ccc(NS(=O)(=O)C2=Cc3ccccc3CC2)cc1
REMARK SMILES IDX 4 1 3 2 2 3 1 4 69 5 70 6 88 7 71 8 87 9 72 10 73 11 74 13
REMARK SMILES IDX 75 14 76 15 77 16 78 17 86 18 79 19 85 20 80 21 84 22 81 23
REMARK SMILES IDX 83 24 82 25 5 26 6 27 7 28 8 29 9 30 10 31 68 32 11 33 67 34
REMARK SMILES IDX 12 35 13 36 14 37 61 38 15 39 66 40 60 41 62 42 16 43 65 44
REMARK SMILES IDX 59 45 58 46 17 48 47 49 28 50 46 51 29 52 32 53 45 54 63 55
REMARK SMILES IDX 30 56 31 57 44 59 64 60 33 61 18 62 19 63 27 64 20 65 26 66
REMARK SMILES IDX 21 67 22 68 23 69 24 70 25 71 48 72 49 73 57 74 50 75 56 76
REMARK SMILES IDX 51 77 52 78 53 79 54 80 55 81 34 82 35 83 43 84 36 85 42 86
REMARK SMILES IDX 37 87 38 88 39 89 40 90 41 91
REMARK H PARENT 73 12 62 47 32 58
REMARK Flexibility Score: inf
ROOT
ATOM      1  C   UNL A   1      34.215  30.602  27.640  1.00  0.00     0.275 C 
ENDROOT
BRANCH   1   2
ATOM      2  O   UNL A   1      33.701  29.628  26.707  1.00  0.00    -0.458 OA
BRANCH   2   3
ATOM      3  C   UNL A   1      32.422  29.339  26.355  1.00  0.00     0.338 C 
ATOM      4  O   UNL A   1      31.564  29.228  27.227  1.00  0.00    -0.246 OA
BRANCH   3   5
ATOM      5  C   UNL A   1      32.056  28.967  24.962  1.00  0.00     0.060 A 
ATOM      6  C   UNL A   1      32.738  29.363  23.819  1.00  0.00     0.018 A 
ATOM      7  C   UNL A   1      30.924  28.169  24.792  1.00  0.00     0.018 A 
ATOM      8  C   UNL A   1      32.493  28.720  22.601  1.00  0.00     0.027 A 
ATOM      9  C   UNL A   1      30.676  27.566  23.558  1.00  0.00     0.027 A 
ATOM     10  C   UNL A   1      31.562  27.708  22.501  1.00  0.00     0.049 A 
BRANCH  10  11
ATOM     11  N   UNL A   1      31.647  26.625  21.581  1.00  0.00    -0.280 N 
ATOM     12  H   UNL A   1      30.869  26.482  20.995  1.00  0.00     0.180 HD
BRANCH  11  13
ATOM     13  S   UNL A   1      32.934  25.566  21.389  1.00  0.00     0.258 S 
ATOM     14  O   UNL A   1      32.954  25.321  19.960  1.00  0.00    -0.202 OA
ATOM     15  O   UNL A   1      34.064  26.206  22.030  1.00  0.00    -0.202 OA
BRANCH  13  16
ATOM     16  C   UNL A   1      32.565  24.015  22.235  1.00  0.00     0.066 C 
ATOM     17  C   UNL A   1      33.590  23.124  22.261  1.00  0.00     0.026 C 
ATOM     18  C   UNL A   1      31.921  24.167  23.605  1.00  0.00     0.055 C 
ATOM     19  C   UNL A   1      34.585  23.352  23.362  1.00  0.00    -0.021 A 
ATOM     20  C   UNL A   1      32.899  24.794  24.599  1.00  0.00     0.041 C 
ATOM     21  C   UNL A   1      35.824  22.711  23.337  1.00  0.00     0.008 A 
ATOM     22  C   UNL A   1      34.283  24.224  24.432  1.00  0.00    -0.040 A 
ATOM     23  C   UNL A   1      36.788  23.015  24.304  1.00  0.00     0.001 A 
ATOM     24  C   UNL A   1      35.275  24.572  25.354  1.00  0.00     0.004 A 
ATOM     25  C   UNL A   1      36.526  23.973  25.284  1.00  0.00     0.000 A 
ENDBRANCH  13  16
ENDBRANCH  11  13
ENDBRANCH  10  11
ENDBRANCH   3   5
ENDBRANCH   2   3
ENDBRANCH   1   2
BRANCH   1  26
ATOM     26  C   UNL A   1      35.738  30.649  27.764  1.00  0.00     0.275 C 
BRANCH  26  27
ATOM     27  O   UNL A   1      36.321  29.367  28.028  1.00  0.00    -0.458 OA
BRANCH  27  28
ATOM     28  C   UNL A   1      37.043  29.307  29.182  1.00  0.00     0.338 C 
ATOM     29  O   UNL A   1      36.606  29.343  30.311  1.00  0.00    -0.246 OA
BRANCH  28  30
ATOM     30  C   UNL A   1      38.475  29.088  28.874  1.00  0.00     0.060 A 
ATOM     31  C   UNL A   1      39.335  28.777  29.934  1.00  0.00     0.016 A 
ATOM     32  C   UNL A   1      38.978  29.205  27.577  1.00  0.00     0.016 A 
ATOM     33  C   UNL A   1      40.698  28.564  29.699  1.00  0.00     0.010 A 
ATOM     34  C   UNL A   1      40.342  28.986  27.345  1.00  0.00     0.010 A 
ATOM     35  C   UNL A   1      41.217  28.665  28.402  1.00  0.00    -0.014 A 
BRANCH  35  36
ATOM     36  C   UNL A   1      42.672  28.510  28.126  1.00  0.00     0.031 A 
ATOM     37  C   UNL A   1      43.571  29.707  28.212  1.00  0.00     0.074 A 
ATOM     38  C   UNL A   1      43.199  27.333  27.733  1.00  0.00     0.049 A 
ATOM     39  N   UNL A   1      44.849  29.791  27.952  1.00  0.00    -0.248 NA
ATOM     40  C   UNL A   1      42.961  30.961  28.679  1.00  0.00     0.031 C 
ATOM     41  C   UNL A   1      42.491  26.064  27.707  1.00  0.00     0.029 A 
ATOM     42  N   UNL A   1      44.441  27.015  27.239  1.00  0.00    -0.354 N 
ATOM     43  C   UNL A   1      45.204  31.099  28.243  1.00  0.00     0.074 A 
ATOM     44  C   UNL A   1      43.994  31.789  28.641  1.00  0.00     0.031 C 
ATOM     45  C   UNL A   1      43.237  25.137  27.085  1.00  0.00     0.029 A 
ATOM     46  C   UNL A   1      44.523  25.733  26.743  1.00  0.00     0.049 A 
ATOM     47  H   UNL A   1      45.199  27.643  27.241  1.00  0.00     0.167 HD
ATOM     48  C   UNL A   1      46.433  31.665  28.215  1.00  0.00     0.031 A 
ATOM     49  C   UNL A   1      45.522  25.094  26.103  1.00  0.00     0.031 A 
ATOM     50  C   UNL A   1      47.630  30.989  27.799  1.00  0.00     0.049 A 
ATOM     51  C   UNL A   1      46.854  25.775  25.970  1.00  0.00     0.074 A 
ATOM     52  C   UNL A   1      48.927  31.470  27.789  1.00  0.00     0.029 A 
ATOM     53  N   UNL A   1      47.677  29.699  27.293  1.00  0.00    -0.354 N 
ATOM     54  N   UNL A   1      47.198  26.979  26.356  1.00  0.00    -0.248 NA
ATOM     55  C   UNL A   1      47.947  24.997  25.370  1.00  0.00     0.031 C 
ATOM     56  C   UNL A   1      49.750  30.492  27.220  1.00  0.00     0.029 A 
ATOM     57  C   UNL A   1      48.975  29.382  26.928  1.00  0.00     0.049 A 
ATOM     58  H   UNL A   1      46.902  29.098  27.204  1.00  0.00     0.167 HD
ATOM     59  C   UNL A   1      48.559  27.085  26.095  1.00  0.00     0.074 A 
ATOM     60  C   UNL A   1      48.972  25.828  25.506  1.00  0.00     0.031 C 
ATOM     61  C   UNL A   1      49.387  28.129  26.345  1.00  0.00     0.031 A 
BRANCH  48  62
ATOM     62  C   UNL A   1      46.520  33.105  28.633  1.00  0.00    -0.014 A 
ATOM     63  C   UNL A   1      46.261  34.140  27.714  1.00  0.00     0.010 A 
ATOM     64  C   UNL A   1      46.875  33.428  29.953  1.00  0.00     0.010 A 
ATOM     65  C   UNL A   1      46.417  35.474  28.096  1.00  0.00     0.020 A 
ATOM     66  C   UNL A   1      47.006  34.761  30.345  1.00  0.00     0.020 A 
ATOM     67  C   UNL A   1      46.800  35.775  29.406  1.00  0.00     0.054 A 
BRANCH  67  68
ATOM     68  S   UNL A   1      47.020  37.513  29.871  1.00  0.00     0.124 S 
ATOM     69  O   UNL A   1      47.303  38.134  28.579  1.00  0.00    -0.237 OA
ATOM     70  O   UNL A   1      45.727  37.855  30.461  1.00  0.00    -0.237 OA
ATOM     71  O   UNL A   1      48.139  37.483  30.807  1.00  0.00    -0.744 OA
ENDBRANCH  67  68
ENDBRANCH  48  62
BRANCH  49  72
ATOM     72  C   UNL A   1      45.308  23.716  25.583  1.00  0.00    -0.014 A 
ATOM     73  C   UNL A   1      44.806  23.503  24.288  1.00  0.00     0.010 A 
ATOM     74  C   UNL A   1      45.626  22.605  26.386  1.00  0.00     0.010 A 
ATOM     75  C   UNL A   1      44.610  22.203  23.811  1.00  0.00     0.020 A 
ATOM     76  C   UNL A   1      45.448  21.304  25.906  1.00  0.00     0.020 A 
ATOM     77  C   UNL A   1      44.932  21.111  24.622  1.00  0.00     0.054 A 
BRANCH  77  78
ATOM     78  S   UNL A   1      44.712  19.436  23.959  1.00  0.00     0.124 S 
ATOM     79  O   UNL A   1      44.517  19.694  22.535  1.00  0.00    -0.237 OA
ATOM     80  O   UNL A   1      45.972  18.789  24.317  1.00  0.00    -0.237 OA
ATOM     81  O   UNL A   1      43.539  18.935  24.672  1.00  0.00    -0.744 OA
ENDBRANCH  77  78
ENDBRANCH  49  72
BRANCH  61  82
ATOM     82  C   UNL A   1      50.847  27.961  26.018  1.00  0.00    -0.014 A 
ATOM     83  C   UNL A   1      51.756  27.476  26.971  1.00  0.00     0.010 A 
ATOM     84  C   UNL A   1      51.291  28.198  24.703  1.00  0.00     0.010 A 
ATOM     85  C   UNL A   1      53.086  27.232  26.617  1.00  0.00     0.020 A 
ATOM     86  C   UNL A   1      52.613  27.932  24.338  1.00  0.00     0.020 A 
ATOM     87  C   UNL A   1      53.504  27.454  25.300  1.00  0.00     0.054 A 
BRANCH  87  88
ATOM     88  S   UNL A   1      55.210  27.040  24.843  1.00  0.00     0.124 S 
ATOM     89  O   UNL A   1      55.758  26.560  26.108  1.00  0.00    -0.237 OA
ATOM     90  O   UNL A   1      55.029  26.023  23.810  1.00  0.00    -0.237 OA
ATOM     91  O   UNL A   1      55.759  28.308  24.368  1.00  0.00    -0.744 OA
ENDBRANCH  87  88
ENDBRANCH  61  82
ENDBRANCH  35  36
ENDBRANCH  28  30
ENDBRANCH  27  28
ENDBRANCH  26  27
ENDBRANCH   1  26
TORSDOF 17
ENDMDL
MODEL 3
REMARK VINA RESULT:     -11.8      4.113     10.012
REMARK SMILES O=C(OCCOC(=O)c1ccc(-c2c3nc(c(-c4ccc(S(=O)(=O)[O-])cc4)c4ccc([nH]4)c(-c4ccc(S(=O)(=O)[O-])cc4)c4nc(c(-c5ccc(S(=O)(=O)[O-])cc5)c5ccc2[nH]5)C=C4)C=C3)cc1)c1ccc(NS(=O)(=O)C2=Cc3ccccc3CC2)cc1
REMARK SMILES IDX 4 1 3 2 2 3 1 4 69 5 70 6 88 7 71 8 87 9 72 10 73 11 74 13
REMARK SMILES IDX 75 14 76 15 77 16 78 17 86 18 79 19 85 20 80 21 84 22 81 23
REMARK SMILES IDX 83 24 82 25 5 26 6 27 7 28 8 29 9 30 10 31 68 32 11 33 67 34
REMARK SMILES IDX 12 35 13 36 14 37 61 38 15 39 66 40 60 41 62 42 16 43 65 44
REMARK SMILES IDX 59 45 58 46 17 48 47 49 28 50 46 51 29 52 32 53 45 54 63 55
REMARK SMILES IDX 30 56 31 57 44 59 64 60 33 61 18 62 19 63 27 64 20 65 26 66
REMARK SMILES IDX 21 67 22 68 23 69 24 70 25 71 48 72 49 73 57 74 50 75 56 76
REMARK SMILES IDX 51 77 52 78 53 79 54 80 55 81 34 82 35 83 43 84 36 85 42 86
REMARK SMILES IDX 37 87 38 88 39 89 40 90 41 91
REMARK H PARENT 73 12 62 47 32 58
REMARK Flexibility Score: inf
ROOT
ATOM      1  C   UNL A   1      32.676  29.263  24.385  1.00  0.00     0.275 C 
ENDROOT
BRANCH   1   2
ATOM      2  O   UNL A   1      31.381  28.883  23.873  1.00  0.00    -0.458 OA
BRANCH   2   3
ATOM      3  C   UNL A   1      30.997  27.769  23.200  1.00  0.00     0.338 C 
ATOM      4  O   UNL A   1      30.676  27.855  22.017  1.00  0.00    -0.246 OA
BRANCH   3   5
ATOM      5  C   UNL A   1      30.772  26.472  23.892  1.00  0.00     0.060 A 
ATOM      6  C   UNL A   1      30.724  25.228  23.276  1.00  0.00     0.018 A 
ATOM      7  C   UNL A   1      30.576  26.513  25.274  1.00  0.00     0.018 A 
ATOM      8  C   UNL A   1      30.809  24.063  24.045  1.00  0.00     0.027 A 
ATOM      9  C   UNL A   1      30.626  25.335  26.021  1.00  0.00     0.027 A 
ATOM     10  C   UNL A   1      30.914  24.119  25.419  1.00  0.00     0.049 A 
BRANCH  10  11
ATOM     11  N   UNL A   1      31.592  23.151  26.214  1.00  0.00    -0.280 N 
ATOM     12  H   UNL A   1      31.057  22.692  26.901  1.00  0.00     0.180 HD
BRANCH  11  13
ATOM     13  S   UNL A   1      33.206  22.711  26.103  1.00  0.00     0.258 S 
ATOM     14  O   UNL A   1      33.691  22.879  27.460  1.00  0.00    -0.202 OA
ATOM     15  O   UNL A   1      33.211  21.398  25.490  1.00  0.00    -0.202 OA
BRANCH  13  16
ATOM     16  C   UNL A   1      34.074  23.876  25.032  1.00  0.00     0.066 C 
ATOM     17  C   UNL A   1      35.133  24.499  25.611  1.00  0.00     0.026 C 
ATOM     18  C   UNL A   1      34.426  23.340  23.652  1.00  0.00     0.055 C 
ATOM     19  C   UNL A   1      36.409  23.708  25.588  1.00  0.00    -0.021 A 
ATOM     20  C   UNL A   1      35.470  22.228  23.749  1.00  0.00     0.041 C 
ATOM     21  C   UNL A   1      37.487  24.085  26.390  1.00  0.00     0.008 A 
ATOM     22  C   UNL A   1      36.533  22.568  24.762  1.00  0.00    -0.040 A 
ATOM     23  C   UNL A   1      38.630  23.280  26.449  1.00  0.00     0.001 A 
ATOM     24  C   UNL A   1      37.648  21.734  24.878  1.00  0.00     0.004 A 
ATOM     25  C   UNL A   1      38.691  22.088  25.727  1.00  0.00     0.000 A 
ENDBRANCH  13  16
ENDBRANCH  11  13
ENDBRANCH  10  11
ENDBRANCH   3   5
ENDBRANCH   2   3
ENDBRANCH   1   2
BRANCH   1  26
ATOM     26  C   UNL A   1      32.735  29.510  25.893  1.00  0.00     0.275 C 
BRANCH  26  27
ATOM     27  O   UNL A   1      34.045  29.322  26.444  1.00  0.00    -0.458 OA
BRANCH  27  28
ATOM     28  C   UNL A   1      34.385  30.228  27.402  1.00  0.00     0.338 C 
ATOM     29  O   UNL A   1      33.689  31.121  27.833  1.00  0.00    -0.246 OA
BRANCH  28  30
ATOM     30  C   UNL A   1      35.730  29.917  27.939  1.00  0.00     0.060 A 
ATOM     31  C   UNL A   1      36.815  29.956  27.055  1.00  0.00     0.016 A 
ATOM     32  C   UNL A   1      35.930  29.572  29.277  1.00  0.00     0.016 A 
ATOM     33  C   UNL A   1      38.107  29.667  27.509  1.00  0.00     0.010 A 
ATOM     34  C   UNL A   1      37.225  29.289  29.729  1.00  0.00     0.010 A 
ATOM     35  C   UNL A   1      38.327  29.331  28.851  1.00  0.00    -0.014 A 
BRANCH  35  36
ATOM     36  C   UNL A   1      39.678  28.954  29.353  1.00  0.00     0.031 A 
ATOM     37  C   UNL A   1      40.536  29.992  30.010  1.00  0.00     0.074 A 
ATOM     38  C   UNL A   1      40.182  27.716  29.174  1.00  0.00     0.049 A 
ATOM     39  N   UNL A   1      41.759  29.879  30.457  1.00  0.00    -0.248 NA
ATOM     40  C   UNL A   1      39.932  31.317  30.216  1.00  0.00     0.031 C 
ATOM     41  C   UNL A   1      39.443  26.575  28.659  1.00  0.00     0.029 A 
ATOM     42  N   UNL A   1      41.447  27.217  29.364  1.00  0.00    -0.354 N 
ATOM     43  C   UNL A   1      42.066  31.108  31.019  1.00  0.00     0.074 A 
ATOM     44  C   UNL A   1      40.924  31.973  30.801  1.00  0.00     0.031 C 
ATOM     45  C   UNL A   1      40.283  25.556  28.424  1.00  0.00     0.029 A 
ATOM     46  C   UNL A   1      41.619  25.948  28.857  1.00  0.00     0.049 A 
ATOM     47  H   UNL A   1      42.162  27.717  29.820  1.00  0.00     0.167 HD
ATOM     48  C   UNL A   1      43.185  31.475  31.686  1.00  0.00     0.031 A 
ATOM     49  C   UNL A   1      42.717  25.173  28.766  1.00  0.00     0.031 A 
ATOM     50  C   UNL A   1      44.328  30.627  31.884  1.00  0.00     0.049 A 
ATOM     51  C   UNL A   1      43.992  25.637  29.408  1.00  0.00     0.074 A 
ATOM     52  C   UNL A   1      45.484  30.897  32.594  1.00  0.00     0.029 A 
ATOM     53  N   UNL A   1      44.474  29.356  31.349  1.00  0.00    -0.354 N 
ATOM     54  N   UNL A   1      44.228  26.765  30.035  1.00  0.00    -0.248 NA
ATOM     55  C   UNL A   1      45.131  24.709  29.385  1.00  0.00     0.031 C 
ATOM     56  C   UNL A   1      46.355  29.814  32.438  1.00  0.00     0.029 A 
ATOM     57  C   UNL A   1      45.719  28.845  31.678  1.00  0.00     0.049 A 
ATOM     58  H   UNL A   1      43.794  28.887  30.814  1.00  0.00     0.167 HD
ATOM     59  C   UNL A   1      45.523  26.661  30.526  1.00  0.00     0.074 A 
ATOM     60  C   UNL A   1      46.025  25.366  30.115  1.00  0.00     0.031 C 
ATOM     61  C   UNL A   1      46.218  27.555  31.271  1.00  0.00     0.031 A 
BRANCH  48  62
ATOM     62  C   UNL A   1      43.217  32.875  32.230  1.00  0.00    -0.014 A 
ATOM     63  C   UNL A   1      43.619  33.954  31.421  1.00  0.00     0.010 A 
ATOM     64  C   UNL A   1      42.852  33.112  33.566  1.00  0.00     0.010 A 
ATOM     65  C   UNL A   1      43.714  35.238  31.959  1.00  0.00     0.020 A 
ATOM     66  C   UNL A   1      42.920  34.400  34.099  1.00  0.00     0.020 A 
ATOM     67  C   UNL A   1      43.375  35.450  33.299  1.00  0.00     0.054 A 
BRANCH  67  68
ATOM     68  S   UNL A   1      43.530  37.123  33.982  1.00  0.00     0.124 S 
ATOM     69  O   UNL A   1      44.415  36.899  35.122  1.00  0.00    -0.237 OA
ATOM     70  O   UNL A   1      44.115  37.871  32.871  1.00  0.00    -0.237 OA
ATOM     71  O   UNL A   1      42.157  37.487  34.320  1.00  0.00    -0.744 OA
ENDBRANCH  67  68
ENDBRANCH  48  62
BRANCH  49  72
ATOM     72  C   UNL A   1      42.640  23.856  28.075  1.00  0.00    -0.014 A 
ATOM     73  C   UNL A   1      42.300  22.690  28.781  1.00  0.00     0.010 A 
ATOM     74  C   UNL A   1      42.893  23.771  26.693  1.00  0.00     0.010 A 
ATOM     75  C   UNL A   1      42.230  21.459  28.121  1.00  0.00     0.020 A 
ATOM     76  C   UNL A   1      42.807  22.545  26.027  1.00  0.00     0.020 A 
ATOM     77  C   UNL A   1      42.483  21.394  26.748  1.00  0.00     0.054 A 
BRANCH  77  78
ATOM     78  S   UNL A   1      42.338  19.791  25.908  1.00  0.00     0.124 S 
ATOM     79  O   UNL A   1      42.642  18.854  26.986  1.00  0.00    -0.237 OA
ATOM     80  O   UNL A   1      40.951  19.801  25.451  1.00  0.00    -0.237 OA
ATOM     81  O   UNL A   1      43.337  19.868  24.844  1.00  0.00    -0.744 OA
ENDBRANCH  77  78
ENDBRANCH  49  72
BRANCH  61  82
ATOM     82  C   UNL A   1      47.597  27.166  31.730  1.00  0.00    -0.014 A 
ATOM     83  C   UNL A   1      47.797  26.482  32.940  1.00  0.00     0.010 A 
ATOM     84  C   UNL A   1      48.698  27.402  30.885  1.00  0.00     0.010 A 
ATOM     85  C   UNL A   1      49.073  26.041  33.300  1.00  0.00     0.020 A 
ATOM     86  C   UNL A   1      49.971  26.941  31.228  1.00  0.00     0.020 A 
ATOM     87  C   UNL A   1      50.152  26.266  32.437  1.00  0.00     0.054 A 
BRANCH  87  88
ATOM     88  S   UNL A   1      51.780  25.602  32.881  1.00  0.00     0.124 S 
ATOM     89  O   UNL A   1      51.582  25.211  34.273  1.00  0.00    -0.237 OA
ATOM     90  O   UNL A   1      51.947  24.500  31.936  1.00  0.00    -0.237 OA
ATOM     91  O   UNL A   1      52.684  26.732  32.674  1.00  0.00    -0.744 OA
ENDBRANCH  87  88
ENDBRANCH  61  82
ENDBRANCH  35  36
ENDBRANCH  28  30
ENDBRANCH  27  28
ENDBRANCH  26  27
ENDBRANCH   1  26
TORSDOF 17
ENDMDL
