MODEL 1
REMARK VINA RESULT:     -11.6      0.000      0.000
REMARK SMILES Cc1noc(C[N@H+]2CCC[C@@H](c3ccc(C(=O)OCCOC(=O)c4ccc(-c5c6nc(c(-c7ccc(S(=O)(=O)[O-])cc7)c7ccc([nH]7)c(-c7ccc(S(=O)(=O)[O-])cc7)c7nc(c(-c8ccc(S(=O)(=O)[O-])cc8)c8ccc5[nH]8)C=C7)C=C6)cc4)cc3)C2)n1
REMARK SMILES IDX 19 1 18 2 16 3 17 4 15 5 12 6 13 7 85 8 14 9 84 10 11 11
REMARK SMILES IDX 7 12 8 13 86 14 9 16 10 17 6 18 5 19 1 20 2 21 3 22 87 23
REMARK SMILES IDX 4 24 20 25 21 26 22 27 23 28 24 29 25 30 83 31 26 32 82 33
REMARK SMILES IDX 27 34 28 35 29 36 76 37 30 38 81 39 75 40 77 41 31 42 80 43
REMARK SMILES IDX 74 44 73 45 32 47 62 48 43 49 61 50 44 51 47 52 60 53 78 54
REMARK SMILES IDX 45 55 46 56 59 58 79 59 48 60 33 61 34 62 42 63 35 64 41 65
REMARK SMILES IDX 36 66 37 67 38 68 39 69 40 70 63 71 64 72 72 73 65 74 71 75
REMARK SMILES IDX 66 76 67 77 68 78 69 79 70 80 49 81 50 82 58 83 51 84 57 85
REMARK SMILES IDX 52 86 53 87 54 88 55 89 56 90
REMARK H PARENT 7 15 77 46 47 57
REMARK Flexibility Score: inf
ROOT
ATOM      1  C   UNL A   1      31.818  29.861  25.469  1.00  0.00     0.275 C 
ENDROOT
BRANCH   1   2
ATOM      2  O   UNL A   1      31.816  28.961  24.342  1.00  0.00    -0.458 OA
BRANCH   2   3
ATOM      3  C   UNL A   1      30.673  28.246  24.197  1.00  0.00     0.338 C 
ATOM      4  O   UNL A   1      29.666  28.600  23.605  1.00  0.00    -0.246 OA
BRANCH   3   5
ATOM      5  C   UNL A   1      30.818  26.891  24.771  1.00  0.00     0.060 A 
ATOM      6  C   UNL A   1      31.335  24.376  25.916  1.00  0.00    -0.039 A 
ATOM      7  C   UNL A   1      31.608  25.558  26.622  1.00  0.00     0.005 A 
ATOM      8  C   UNL A   1      30.736  24.472  24.651  1.00  0.00     0.005 A 
ATOM      9  C   UNL A   1      31.399  26.796  26.036  1.00  0.00     0.016 A 
ATOM     10  C   UNL A   1      30.460  25.727  24.085  1.00  0.00     0.016 A 
BRANCH   6  11
ATOM     11  C   UNL A   1      31.796  23.038  26.484  1.00  0.00     0.074 C 
ATOM     12  N   UNL A   1      32.424  20.693  25.692  1.00  0.00    -0.327 N 
ATOM     13  C   UNL A   1      33.767  20.873  26.261  1.00  0.00     0.262 C 
ATOM     14  C   UNL A   1      31.807  21.983  25.346  1.00  0.00     0.270 C 
ATOM     15  H   UNL A   1      31.850  20.251  26.410  1.00  0.00     0.348 HD
ATOM     16  C   UNL A   1      33.723  21.770  27.499  1.00  0.00     0.062 C 
ATOM     17  C   UNL A   1      33.172  23.151  27.155  1.00  0.00     0.020 C 
BRANCH  12  18
ATOM     18  C   UNL A   1      32.456  19.796  24.500  1.00  0.00     0.364 C 
BRANCH  18  19
ATOM     19  C   UNL A   1      32.937  18.392  24.729  1.00  0.00     0.281 A 
ATOM     20  C   UNL A   1      35.077  15.637  25.176  1.00  0.00     0.093 C 
ATOM     21  C   UNL A   1      33.960  16.595  25.052  1.00  0.00     0.169 A 
ATOM     22  N   UNL A   1      32.706  16.305  25.424  1.00  0.00    -0.063 NA
ATOM     23  N   UNL A   1      34.139  17.874  24.589  1.00  0.00    -0.191 NA
ATOM     24  O   UNL A   1      32.021  17.501  25.210  1.00  0.00    -0.333 OA
ENDBRANCH  18  19
ENDBRANCH  12  18
ENDBRANCH   6  11
ENDBRANCH   3   5
ENDBRANCH   2   3
ENDBRANCH   1   2
BRANCH   1  25
ATOM     25  C   UNL A   1      33.243  30.098  25.967  1.00  0.00     0.275 C 
BRANCH  25  26
ATOM     26  O   UNL A   1      33.301  29.932  27.395  1.00  0.00    -0.458 OA
BRANCH  26  27
ATOM     27  C   UNL A   1      34.136  30.776  28.048  1.00  0.00     0.338 C 
ATOM     28  O   UNL A   1      33.872  31.900  28.441  1.00  0.00    -0.246 OA
BRANCH  27  29
ATOM     29  C   UNL A   1      35.469  30.156  28.220  1.00  0.00     0.060 A 
ATOM     30  C   UNL A   1      35.880  29.669  29.460  1.00  0.00     0.016 A 
ATOM     31  C   UNL A   1      36.365  30.156  27.151  1.00  0.00     0.016 A 
ATOM     32  C   UNL A   1      37.210  29.285  29.664  1.00  0.00     0.010 A 
ATOM     33  C   UNL A   1      37.668  29.675  27.332  1.00  0.00     0.010 A 
ATOM     34  C   UNL A   1      38.128  29.280  28.601  1.00  0.00    -0.014 A 
BRANCH  34  35
ATOM     35  C   UNL A   1      39.569  28.936  28.813  1.00  0.00     0.031 A 
ATOM     36  C   UNL A   1      40.507  29.950  29.431  1.00  0.00     0.074 A 
ATOM     37  C   UNL A   1      40.063  27.726  28.474  1.00  0.00     0.049 A 
ATOM     38  N   UNL A   1      41.815  29.929  29.515  1.00  0.00    -0.248 NA
ATOM     39  C   UNL A   1      39.894  31.154  30.015  1.00  0.00     0.031 C 
ATOM     40  C   UNL A   1      39.294  26.615  27.912  1.00  0.00     0.029 A 
ATOM     41  N   UNL A   1      41.342  27.226  28.567  1.00  0.00    -0.354 N 
ATOM     42  C   UNL A   1      42.182  31.143  30.086  1.00  0.00     0.074 A 
ATOM     43  C   UNL A   1      40.959  31.875  30.335  1.00  0.00     0.031 C 
ATOM     44  C   UNL A   1      40.099  25.550  27.766  1.00  0.00     0.029 A 
ATOM     45  C   UNL A   1      41.460  25.925  28.138  1.00  0.00     0.049 A 
ATOM     46  H   UNL A   1      42.101  27.751  28.909  1.00  0.00     0.167 HD
ATOM     47  C   UNL A   1      43.420  31.613  30.375  1.00  0.00     0.031 A 
ATOM     48  C   UNL A   1      42.540  25.126  28.019  1.00  0.00     0.031 A 
ATOM     49  C   UNL A   1      44.639  30.869  30.193  1.00  0.00     0.049 A 
ATOM     50  C   UNL A   1      43.905  25.662  28.346  1.00  0.00     0.074 A 
ATOM     51  C   UNL A   1      45.939  31.267  30.458  1.00  0.00     0.029 A 
ATOM     52  N   UNL A   1      44.706  29.565  29.732  1.00  0.00    -0.354 N 
ATOM     53  N   UNL A   1      44.237  26.849  28.792  1.00  0.00    -0.248 NA
ATOM     54  C   UNL A   1      45.043  24.757  28.126  1.00  0.00     0.031 C 
ATOM     55  C   UNL A   1      46.796  30.207  30.136  1.00  0.00     0.029 A 
ATOM     56  C   UNL A   1      46.024  29.141  29.706  1.00  0.00     0.049 A 
ATOM     57  H   UNL A   1      43.932  29.020  29.462  1.00  0.00     0.167 HD
ATOM     58  C   UNL A   1      45.623  26.833  28.906  1.00  0.00     0.074 A 
ATOM     59  C   UNL A   1      46.064  25.513  28.505  1.00  0.00     0.031 C 
ATOM     60  C   UNL A   1      46.454  27.828  29.300  1.00  0.00     0.031 A 
BRANCH  47  61
ATOM     61  C   UNL A   1      43.520  33.027  30.884  1.00  0.00    -0.014 A 
ATOM     62  C   UNL A   1      43.637  34.118  30.005  1.00  0.00     0.010 A 
ATOM     63  C   UNL A   1      43.477  33.264  32.270  1.00  0.00     0.010 A 
ATOM     64  C   UNL A   1      43.759  35.417  30.507  1.00  0.00     0.020 A 
ATOM     65  C   UNL A   1      43.576  34.564  32.775  1.00  0.00     0.020 A 
ATOM     66  C   UNL A   1      43.739  35.631  31.889  1.00  0.00     0.054 A 
BRANCH  66  67
ATOM     67  S   UNL A   1      43.899  37.323  32.521  1.00  0.00     0.124 S 
ATOM     68  O   UNL A   1      42.837  37.371  33.523  1.00  0.00    -0.237 OA
ATOM     69  O   UNL A   1      45.261  37.346  33.051  1.00  0.00    -0.237 OA
ATOM     70  O   UNL A   1      43.682  38.155  31.340  1.00  0.00    -0.744 OA
ENDBRANCH  66  67
ENDBRANCH  47  61
BRANCH  48  71
ATOM     71  C   UNL A   1      42.372  23.730  27.534  1.00  0.00    -0.014 A 
ATOM     72  C   UNL A   1      42.463  23.440  26.162  1.00  0.00     0.010 A 
ATOM     73  C   UNL A   1      42.153  22.680  28.445  1.00  0.00     0.010 A 
ATOM     74  C   UNL A   1      42.346  22.123  25.709  1.00  0.00     0.020 A 
ATOM     75  C   UNL A   1      42.060  21.360  27.998  1.00  0.00     0.020 A 
ATOM     76  C   UNL A   1      42.151  21.090  26.631  1.00  0.00     0.054 A 
BRANCH  76  77
ATOM     77  S   UNL A   1      42.097  19.377  26.038  1.00  0.00     0.124 S 
ATOM     78  O   UNL A   1      43.012  19.420  24.902  1.00  0.00    -0.237 OA
ATOM     79  O   UNL A   1      42.562  18.621  27.198  1.00  0.00    -0.237 OA
ATOM     80  O   UNL A   1      40.688  19.181  25.703  1.00  0.00    -0.744 OA
ENDBRANCH  76  77
ENDBRANCH  48  71
BRANCH  60  81
ATOM     81  C   UNL A   1      47.926  27.523  29.332  1.00  0.00    -0.014 A 
ATOM     82  C   UNL A   1      48.719  27.674  28.181  1.00  0.00     0.010 A 
ATOM     83  C   UNL A   1      48.527  27.117  30.536  1.00  0.00     0.010 A 
ATOM     84  C   UNL A   1      50.088  27.396  28.228  1.00  0.00     0.020 A 
ATOM     85  C   UNL A   1      49.899  26.854  30.590  1.00  0.00     0.020 A 
ATOM     86  C   UNL A   1      50.669  26.982  29.431  1.00  0.00     0.054 A 
BRANCH  86  87
ATOM     87  S   UNL A   1      52.454  26.660  29.481  1.00  0.00     0.124 S 
ATOM     88  O   UNL A   1      53.004  28.012  29.514  1.00  0.00    -0.237 OA
ATOM     89  O   UNL A   1      52.611  25.887  30.710  1.00  0.00    -0.237 OA
ATOM     90  O   UNL A   1      52.703  25.915  28.249  1.00  0.00    -0.744 OA
ENDBRANCH  86  87
ENDBRANCH  60  81
ENDBRANCH  34  35
ENDBRANCH  27  29
ENDBRANCH  26  27
ENDBRANCH  25  26
ENDBRANCH   1  25
TORSDOF 17
ENDMDL
MODEL 2
REMARK VINA RESULT:     -11.6      3.430      9.564
REMARK SMILES Cc1noc(C[N@H+]2CCC[C@@H](c3ccc(C(=O)OCCOC(=O)c4ccc(-c5c6nc(c(-c7ccc(S(=O)(=O)[O-])cc7)c7ccc([nH]7)c(-c7ccc(S(=O)(=O)[O-])cc7)c7nc(c(-c8ccc(S(=O)(=O)[O-])cc8)c8ccc5[nH]8)C=C7)C=C6)cc4)cc3)C2)n1
REMARK SMILES IDX 19 1 18 2 16 3 17 4 15 5 12 6 13 7 85 8 14 9 84 10 11 11
REMARK SMILES IDX 7 12 8 13 86 14 9 16 10 17 6 18 5 19 1 20 2 21 3 22 87 23
REMARK SMILES IDX 4 24 20 25 21 26 22 27 23 28 24 29 25 30 83 31 26 32 82 33
REMARK SMILES IDX 27 34 28 35 29 36 76 37 30 38 81 39 75 40 77 41 31 42 80 43
REMARK SMILES IDX 74 44 73 45 32 47 62 48 43 49 61 50 44 51 47 52 60 53 78 54
REMARK SMILES IDX 45 55 46 56 59 58 79 59 48 60 33 61 34 62 42 63 35 64 41 65
REMARK SMILES IDX 36 66 37 67 38 68 39 69 40 70 63 71 64 72 72 73 65 74 71 75
REMARK SMILES IDX 66 76 67 77 68 78 69 79 70 80 49 81 50 82 58 83 51 84 57 85
REMARK SMILES IDX 52 86 53 87 54 88 55 89 56 90
REMARK H PARENT 7 15 77 46 47 57
REMARK Flexibility Score: inf
ROOT
ATOM      1  C   UNL A   1      41.452  19.746  27.042  1.00  0.00     0.275 C 
ENDROOT
BRANCH   1   2
ATOM      2  O   UNL A   1      40.456  20.264  26.137  1.00  0.00    -0.458 OA
BRANCH   2   3
ATOM      3  C   UNL A   1      40.360  21.616  26.123  1.00  0.00     0.338 C 
ATOM      4  O   UNL A   1      41.287  22.410  26.161  1.00  0.00    -0.246 OA
BRANCH   3   5
ATOM      5  C   UNL A   1      38.956  22.047  25.949  1.00  0.00     0.060 A 
ATOM      6  C   UNL A   1      36.302  22.779  25.378  1.00  0.00    -0.039 A 
ATOM      7  C   UNL A   1      36.754  21.471  25.142  1.00  0.00     0.005 A 
ATOM      8  C   UNL A   1      37.184  23.698  25.967  1.00  0.00     0.005 A 
ATOM      9  C   UNL A   1      38.076  21.127  25.378  1.00  0.00     0.016 A 
ATOM     10  C   UNL A   1      38.504  23.329  26.270  1.00  0.00     0.016 A 
BRANCH   6  11
ATOM     11  C   UNL A   1      34.920  23.196  24.888  1.00  0.00     0.074 C 
ATOM     12  N   UNL A   1      32.833  22.173  23.829  1.00  0.00    -0.327 N 
ATOM     13  C   UNL A   1      32.045  22.609  24.990  1.00  0.00     0.262 C 
ATOM     14  C   UNL A   1      34.251  21.989  24.177  1.00  0.00     0.270 C 
ATOM     15  H   UNL A   1      32.773  22.914  23.130  1.00  0.00     0.348 HD
ATOM     16  C   UNL A   1      32.602  23.906  25.577  1.00  0.00     0.062 C 
ATOM     17  C   UNL A   1      34.047  23.724  26.035  1.00  0.00     0.020 C 
BRANCH  12  18
ATOM     18  C   UNL A   1      32.277  20.923  23.235  1.00  0.00     0.364 C 
BRANCH  18  19
ATOM     19  C   UNL A   1      32.555  19.647  23.975  1.00  0.00     0.281 A 
ATOM     20  C   UNL A   1      33.956  16.541  24.848  1.00  0.00     0.093 C 
ATOM     21  C   UNL A   1      33.223  17.819  24.745  1.00  0.00     0.169 A 
ATOM     22  N   UNL A   1      32.531  18.346  25.764  1.00  0.00    -0.063 NA
ATOM     23  N   UNL A   1      33.240  18.584  23.607  1.00  0.00    -0.191 NA
ATOM     24  O   UNL A   1      32.084  19.565  25.254  1.00  0.00    -0.333 OA
ENDBRANCH  18  19
ENDBRANCH  12  18
ENDBRANCH   6  11
ENDBRANCH   3   5
ENDBRANCH   2   3
ENDBRANCH   1   2
BRANCH   1  25
ATOM     25  C   UNL A   1      42.451  18.862  26.295  1.00  0.00     0.275 C 
BRANCH  25  26
ATOM     26  O   UNL A   1      42.735  19.423  25.001  1.00  0.00    -0.458 OA
BRANCH  26  27
ATOM     27  C   UNL A   1      44.050  19.538  24.691  1.00  0.00     0.338 C 
ATOM     28  O   UNL A   1      44.781  18.650  24.288  1.00  0.00    -0.246 OA
BRANCH  27  29
ATOM     29  C   UNL A   1      44.518  20.922  24.925  1.00  0.00     0.060 A 
ATOM     30  C   UNL A   1      45.267  21.246  26.055  1.00  0.00     0.016 A 
ATOM     31  C   UNL A   1      44.114  21.936  24.056  1.00  0.00     0.016 A 
ATOM     32  C   UNL A   1      45.519  22.584  26.377  1.00  0.00     0.010 A 
ATOM     33  C   UNL A   1      44.456  23.267  24.327  1.00  0.00     0.010 A 
ATOM     34  C   UNL A   1      45.119  23.619  25.517  1.00  0.00    -0.014 A 
BRANCH  34  35
ATOM     35  C   UNL A   1      45.320  25.058  25.875  1.00  0.00     0.031 A 
ATOM     36  C   UNL A   1      46.664  25.715  25.646  1.00  0.00     0.074 A 
ATOM     37  C   UNL A   1      44.322  25.802  26.396  1.00  0.00     0.049 A 
ATOM     38  N   UNL A   1      47.104  26.876  26.067  1.00  0.00    -0.248 NA
ATOM     39  C   UNL A   1      47.648  24.959  24.853  1.00  0.00     0.031 C 
ATOM     40  C   UNL A   1      42.953  25.346  26.640  1.00  0.00     0.029 A 
ATOM     41  N   UNL A   1      44.307  27.116  26.806  1.00  0.00    -0.354 N 
ATOM     42  C   UNL A   1      48.432  26.953  25.660  1.00  0.00     0.074 A 
ATOM     43  C   UNL A   1      48.725  25.725  24.952  1.00  0.00     0.031 C 
ATOM     44  C   UNL A   1      42.219  26.373  27.098  1.00  0.00     0.029 A 
ATOM     45  C   UNL A   1      43.082  27.539  27.267  1.00  0.00     0.049 A 
ATOM     46  H   UNL A   1      45.099  27.699  26.771  1.00  0.00     0.167 HD
ATOM     47  C   UNL A   1      49.331  27.948  25.857  1.00  0.00     0.031 A 
ATOM     48  C   UNL A   1      42.695  28.714  27.802  1.00  0.00     0.031 A 
ATOM     49  C   UNL A   1      49.034  29.201  26.502  1.00  0.00     0.049 A 
ATOM     50  C   UNL A   1      43.704  29.808  28.012  1.00  0.00     0.074 A 
ATOM     51  C   UNL A   1      49.884  30.267  26.746  1.00  0.00     0.029 A 
ATOM     52  N   UNL A   1      47.786  29.569  26.974  1.00  0.00    -0.354 N 
ATOM     53  N   UNL A   1      44.978  29.820  27.707  1.00  0.00    -0.248 NA
ATOM     54  C   UNL A   1      43.224  31.036  28.663  1.00  0.00     0.031 C 
ATOM     55  C   UNL A   1      49.151  31.273  27.386  1.00  0.00     0.029 A 
ATOM     56  C   UNL A   1      47.840  30.846  27.507  1.00  0.00     0.049 A 
ATOM     57  H   UNL A   1      46.979  29.006  26.937  1.00  0.00     0.167 HD
ATOM     58  C   UNL A   1      45.454  31.056  28.130  1.00  0.00     0.074 A 
ATOM     59  C   UNL A   1      44.327  31.773  28.690  1.00  0.00     0.031 C 
ATOM     60  C   UNL A   1      46.715  31.548  28.067  1.00  0.00     0.031 A 
BRANCH  47  61
ATOM     61  C   UNL A   1      50.745  27.700  25.402  1.00  0.00    -0.014 A 
ATOM     62  C   UNL A   1      51.674  27.033  26.220  1.00  0.00     0.010 A 
ATOM     63  C   UNL A   1      51.142  28.130  24.123  1.00  0.00     0.010 A 
ATOM     64  C   UNL A   1      52.989  26.845  25.784  1.00  0.00     0.020 A 
ATOM     65  C   UNL A   1      52.449  27.924  23.674  1.00  0.00     0.020 A 
ATOM     66  C   UNL A   1      53.371  27.301  24.518  1.00  0.00     0.054 A 
BRANCH  66  67
ATOM     67  S   UNL A   1      55.082  27.048  23.970  1.00  0.00     0.124 S 
ATOM     68  O   UNL A   1      55.734  28.263  24.454  1.00  0.00    -0.237 OA
ATOM     69  O   UNL A   1      55.466  25.816  24.655  1.00  0.00    -0.237 OA
ATOM     70  O   UNL A   1      54.967  26.937  22.518  1.00  0.00    -0.744 OA
ENDBRANCH  66  67
ENDBRANCH  47  61
BRANCH  48  71
ATOM     71  C   UNL A   1      41.277  28.905  28.208  1.00  0.00    -0.014 A 
ATOM     72  C   UNL A   1      40.917  28.867  29.566  1.00  0.00     0.010 A 
ATOM     73  C   UNL A   1      40.287  29.160  27.241  1.00  0.00     0.010 A 
ATOM     74  C   UNL A   1      39.591  29.087  29.952  1.00  0.00     0.020 A 
ATOM     75  C   UNL A   1      38.966  29.404  27.626  1.00  0.00     0.020 A 
ATOM     76  C   UNL A   1      38.625  29.361  28.979  1.00  0.00     0.054 A 
BRANCH  76  77
ATOM     77  S   UNL A   1      36.929  29.738  29.502  1.00  0.00     0.124 S 
ATOM     78  O   UNL A   1      36.806  28.948  30.723  1.00  0.00    -0.237 OA
ATOM     79  O   UNL A   1      36.965  31.187  29.685  1.00  0.00    -0.237 OA
ATOM     80  O   UNL A   1      36.120  29.283  28.374  1.00  0.00    -0.744 OA
ENDBRANCH  76  77
ENDBRANCH  48  71
BRANCH  60  81
ATOM     81  C   UNL A   1      46.941  32.934  28.603  1.00  0.00    -0.014 A 
ATOM     82  C   UNL A   1      47.271  33.140  29.954  1.00  0.00     0.010 A 
ATOM     83  C   UNL A   1      46.856  34.039  27.737  1.00  0.00     0.010 A 
ATOM     84  C   UNL A   1      47.488  34.434  30.436  1.00  0.00     0.020 A 
ATOM     85  C   UNL A   1      47.089  35.333  28.213  1.00  0.00     0.020 A 
ATOM     86  C   UNL A   1      47.390  35.523  29.564  1.00  0.00     0.054 A 
BRANCH  86  87
ATOM     87  S   UNL A   1      47.709  37.192  30.202  1.00  0.00     0.124 S 
ATOM     88  O   UNL A   1      48.412  37.813  29.083  1.00  0.00    -0.237 OA
ATOM     89  O   UNL A   1      46.366  37.703  30.462  1.00  0.00    -0.237 OA
ATOM     90  O   UNL A   1      48.519  36.955  31.394  1.00  0.00    -0.744 OA
ENDBRANCH  86  87
ENDBRANCH  60  81
ENDBRANCH  34  35
ENDBRANCH  27  29
ENDBRANCH  26  27
ENDBRANCH  25  26
ENDBRANCH   1  25
TORSDOF 17
ENDMDL
MODEL 3
REMARK VINA RESULT:     -11.5      4.848     11.006
REMARK SMILES Cc1noc(C[N@H+]2CCC[C@@H](c3ccc(C(=O)OCCOC(=O)c4ccc(-c5c6nc(c(-c7ccc(S(=O)(=O)[O-])cc7)c7ccc([nH]7)c(-c7ccc(S(=O)(=O)[O-])cc7)c7nc(c(-c8ccc(S(=O)(=O)[O-])cc8)c8ccc5[nH]8)C=C7)C=C6)cc4)cc3)C2)n1
REMARK SMILES IDX 19 1 18 2 16 3 17 4 15 5 12 6 13 7 85 8 14 9 84 10 11 11
REMARK SMILES IDX 7 12 8 13 86 14 9 16 10 17 6 18 5 19 1 20 2 21 3 22 87 23
REMARK SMILES IDX 4 24 20 25 21 26 22 27 23 28 24 29 25 30 83 31 26 32 82 33
REMARK SMILES IDX 27 34 28 35 29 36 76 37 30 38 81 39 75 40 77 41 31 42 80 43
REMARK SMILES IDX 74 44 73 45 32 47 62 48 43 49 61 50 44 51 47 52 60 53 78 54
REMARK SMILES IDX 45 55 46 56 59 58 79 59 48 60 33 61 34 62 42 63 35 64 41 65
REMARK SMILES IDX 36 66 37 67 38 68 39 69 40 70 63 71 64 72 72 73 65 74 71 75
REMARK SMILES IDX 66 76 67 77 68 78 69 79 70 80 49 81 50 82 58 83 51 84 57 85
REMARK SMILES IDX 52 86 53 87 54 88 55 89 56 90
REMARK H PARENT 7 15 77 46 47 57
REMARK Flexibility Score: inf
ROOT
ATOM      1  C   UNL A   1      42.373  21.359  26.572  1.00  0.00     0.275 C 
ENDROOT
BRANCH   1   2
ATOM      2  O   UNL A   1      40.991  21.025  26.815  1.00  0.00    -0.458 OA
BRANCH   2   3
ATOM      3  C   UNL A   1      40.481  20.097  25.967  1.00  0.00     0.338 C 
ATOM      4  O   UNL A   1      41.020  19.059  25.618  1.00  0.00    -0.246 OA
BRANCH   3   5
ATOM      5  C   UNL A   1      39.100  20.445  25.569  1.00  0.00     0.060 A 
ATOM      6  C   UNL A   1      36.451  21.223  25.038  1.00  0.00    -0.039 A 
ATOM      7  C   UNL A   1      37.415  22.168  25.425  1.00  0.00     0.005 A 
ATOM      8  C   UNL A   1      36.852  19.891  24.856  1.00  0.00     0.005 A 
ATOM      9  C   UNL A   1      38.707  21.773  25.734  1.00  0.00     0.016 A 
ATOM     10  C   UNL A   1      38.178  19.503  25.103  1.00  0.00     0.016 A 
BRANCH   6  11
ATOM     11  C   UNL A   1      34.989  21.640  24.938  1.00  0.00     0.074 C 
ATOM     12  N   UNL A   1      33.435  22.965  23.403  1.00  0.00    -0.327 N 
ATOM     13  C   UNL A   1      32.625  21.756  23.200  1.00  0.00     0.262 C 
ATOM     14  C   UNL A   1      34.825  22.631  23.754  1.00  0.00     0.270 C 
ATOM     15  H   UNL A   1      33.025  23.474  24.187  1.00  0.00     0.348 HD
ATOM     16  C   UNL A   1      32.640  20.869  24.445  1.00  0.00     0.062 C 
ATOM     17  C   UNL A   1      34.061  20.427  24.785  1.00  0.00     0.020 C 
BRANCH  12  18
ATOM     18  C   UNL A   1      33.401  23.849  22.202  1.00  0.00     0.364 C 
BRANCH  18  19
ATOM     19  C   UNL A   1      33.456  25.328  22.453  1.00  0.00     0.281 A 
ATOM     20  C   UNL A   1      33.829  28.413  24.101  1.00  0.00     0.093 C 
ATOM     21  C   UNL A   1      33.646  27.288  23.161  1.00  0.00     0.169 A 
ATOM     22  N   UNL A   1      33.666  27.439  21.830  1.00  0.00    -0.063 NA
ATOM     23  N   UNL A   1      33.491  25.994  23.589  1.00  0.00    -0.191 NA
ATOM     24  O   UNL A   1      33.540  26.134  21.355  1.00  0.00    -0.333 OA
ENDBRANCH  18  19
ENDBRANCH  12  18
ENDBRANCH   6  11
ENDBRANCH   3   5
ENDBRANCH   2   3
ENDBRANCH   1   2
BRANCH   1  25
ATOM     25  C   UNL A   1      42.479  22.571  25.646  1.00  0.00     0.275 C 
BRANCH  25  26
ATOM     26  O   UNL A   1      41.830  23.708  26.244  1.00  0.00    -0.458 OA
BRANCH  26  27
ATOM     27  C   UNL A   1      42.388  24.911  25.966  1.00  0.00     0.338 C 
ATOM     28  O   UNL A   1      43.162  25.161  25.057  1.00  0.00    -0.246 OA
BRANCH  27  29
ATOM     29  C   UNL A   1      41.944  25.927  26.947  1.00  0.00     0.060 A 
ATOM     30  C   UNL A   1      42.284  27.270  26.795  1.00  0.00     0.016 A 
ATOM     31  C   UNL A   1      41.267  25.516  28.095  1.00  0.00     0.016 A 
ATOM     32  C   UNL A   1      42.048  28.182  27.829  1.00  0.00     0.010 A 
ATOM     33  C   UNL A   1      40.939  26.452  29.085  1.00  0.00     0.010 A 
ATOM     34  C   UNL A   1      41.369  27.788  28.993  1.00  0.00    -0.014 A 
BRANCH  34  35
ATOM     35  C   UNL A   1      41.165  28.730  30.138  1.00  0.00     0.031 A 
ATOM     36  C   UNL A   1      42.131  28.729  31.303  1.00  0.00     0.074 A 
ATOM     37  C   UNL A   1      40.135  29.603  30.159  1.00  0.00     0.049 A 
ATOM     38  N   UNL A   1      42.025  29.313  32.471  1.00  0.00    -0.248 NA
ATOM     39  C   UNL A   1      43.371  27.952  31.138  1.00  0.00     0.031 C 
ATOM     40  C   UNL A   1      39.138  29.775  29.101  1.00  0.00     0.029 A 
ATOM     41  N   UNL A   1      39.765  30.525  31.111  1.00  0.00    -0.354 N 
ATOM     42  C   UNL A   1      43.139  28.913  33.202  1.00  0.00     0.074 A 
ATOM     43  C   UNL A   1      43.912  28.041  32.344  1.00  0.00     0.031 C 
ATOM     44  C   UNL A   1      38.309  30.777  29.434  1.00  0.00     0.029 A 
ATOM     45  C   UNL A   1      38.657  31.264  30.766  1.00  0.00     0.049 A 
ATOM     46  H   UNL A   1      40.250  30.647  31.959  1.00  0.00     0.167 HD
ATOM     47  C   UNL A   1      43.490  29.235  34.471  1.00  0.00     0.031 A 
ATOM     48  C   UNL A   1      37.969  32.200  31.449  1.00  0.00     0.031 A 
ATOM     49  C   UNL A   1      42.765  30.151  35.312  1.00  0.00     0.049 A 
ATOM     50  C   UNL A   1      38.372  32.546  32.855  1.00  0.00     0.074 A 
ATOM     51  C   UNL A   1      43.046  30.536  36.613  1.00  0.00     0.029 A 
ATOM     52  N   UNL A   1      41.635  30.852  34.924  1.00  0.00    -0.354 N 
ATOM     53  N   UNL A   1      39.373  32.080  33.561  1.00  0.00    -0.248 NA
ATOM     54  C   UNL A   1      37.534  33.525  33.563  1.00  0.00     0.031 C 
ATOM     55  C   UNL A   1      42.072  31.456  37.019  1.00  0.00     0.029 A 
ATOM     56  C   UNL A   1      41.207  31.668  35.959  1.00  0.00     0.049 A 
ATOM     57  H   UNL A   1      41.200  30.781  34.045  1.00  0.00     0.167 HD
ATOM     58  C   UNL A   1      39.285  32.710  34.798  1.00  0.00     0.074 A 
ATOM     59  C   UNL A   1      38.148  33.605  34.736  1.00  0.00     0.031 C 
ATOM     60  C   UNL A   1      40.072  32.551  35.889  1.00  0.00     0.031 A 
BRANCH  47  61
ATOM     61  C   UNL A   1      44.701  28.549  35.048  1.00  0.00    -0.014 A 
ATOM     62  C   UNL A   1      45.980  29.125  34.966  1.00  0.00     0.010 A 
ATOM     63  C   UNL A   1      44.545  27.311  35.699  1.00  0.00     0.010 A 
ATOM     64  C   UNL A   1      47.090  28.451  35.484  1.00  0.00     0.020 A 
ATOM     65  C   UNL A   1      45.649  26.645  36.237  1.00  0.00     0.020 A 
ATOM     66  C   UNL A   1      46.919  27.209  36.106  1.00  0.00     0.054 A 
BRANCH  66  67
ATOM     67  S   UNL A   1      48.372  26.349  36.770  1.00  0.00     0.124 S 
ATOM     68  O   UNL A   1      48.420  25.153  35.932  1.00  0.00    -0.237 OA
ATOM     69  O   UNL A   1      49.449  27.311  36.551  1.00  0.00    -0.237 OA
ATOM     70  O   UNL A   1      48.026  26.118  38.170  1.00  0.00    -0.744 OA
ENDBRANCH  66  67
ENDBRANCH  47  61
BRANCH  48  71
ATOM     71  C   UNL A   1      36.796  32.859  30.815  1.00  0.00    -0.014 A 
ATOM     72  C   UNL A   1      35.493  32.559  31.249  1.00  0.00     0.010 A 
ATOM     73  C   UNL A   1      36.979  33.814  29.798  1.00  0.00     0.010 A 
ATOM     74  C   UNL A   1      34.392  33.208  30.682  1.00  0.00     0.020 A 
ATOM     75  C   UNL A   1      35.882  34.482  29.247  1.00  0.00     0.020 A 
ATOM     76  C   UNL A   1      34.595  34.170  29.689  1.00  0.00     0.054 A 
BRANCH  76  77
ATOM     77  S   UNL A   1      33.165  35.072  29.030  1.00  0.00     0.124 S 
ATOM     78  O   UNL A   1      33.789  36.277  28.492  1.00  0.00    -0.237 OA
ATOM     79  O   UNL A   1      32.627  34.142  28.041  1.00  0.00    -0.237 OA
ATOM     80  O   UNL A   1      32.322  35.272  30.206  1.00  0.00    -0.744 OA
ENDBRANCH  76  77
ENDBRANCH  48  71
BRANCH  60  81
ATOM     81  C   UNL A   1      39.741  33.375  37.102  1.00  0.00    -0.014 A 
ATOM     82  C   UNL A   1      38.832  32.907  38.066  1.00  0.00     0.010 A 
ATOM     83  C   UNL A   1      40.375  34.616  37.296  1.00  0.00     0.010 A 
ATOM     84  C   UNL A   1      38.541  33.680  39.194  1.00  0.00     0.020 A 
ATOM     85  C   UNL A   1      40.099  35.383  38.431  1.00  0.00     0.020 A 
ATOM     86  C   UNL A   1      39.172  34.917  39.367  1.00  0.00     0.054 A 
BRANCH  86  87
ATOM     87  S   UNL A   1      38.807  35.890  40.855  1.00  0.00     0.124 S 
ATOM     88  O   UNL A   1      38.525  37.208  40.292  1.00  0.00    -0.237 OA
ATOM     89  O   UNL A   1      37.659  35.192  41.426  1.00  0.00    -0.237 OA
ATOM     90  O   UNL A   1      40.037  35.796  41.637  1.00  0.00    -0.744 OA
ENDBRANCH  86  87
ENDBRANCH  60  81
ENDBRANCH  34  35
ENDBRANCH  27  29
ENDBRANCH  26  27
ENDBRANCH  25  26
ENDBRANCH   1  25
TORSDOF 17
ENDMDL
