MODEL 1
REMARK VINA RESULT:     -10.6      0.000      0.000
REMARK SMILES O=C(Cc1csc(Sc2ncnc3c2CCCC3)n1)OCCOC(=O)c1ccc(-c2c3nc(c(-c4ccc(S(=O)(=O)[O-])cc4)c4ccc([nH]4)c(-c4ccc(S(=O)(=O)[O-])cc4)c4nc(c(-c5ccc(S(=O)(=O)[O-])cc5)c5ccc2[nH]5)C=C4)C=C3)cc1
REMARK SMILES IDX 21 1 20 2 2 3 1 4 3 5 4 6 5 7 19 8 6 9 7 10 8 11 9 12 10 13
REMARK SMILES IDX 14 14 11 15 13 16 15 17 12 18 18 19 16 20 17 21 22 22 23 23
REMARK SMILES IDX 24 24 25 25 26 26 27 27 85 28 28 29 84 30 29 31 30 32 31 33
REMARK SMILES IDX 78 34 32 35 83 36 77 37 79 38 33 39 82 40 76 41 75 42 34 44
REMARK SMILES IDX 64 45 45 46 63 47 46 48 49 49 62 50 80 51 47 52 48 53 61 55
REMARK SMILES IDX 81 56 50 57 35 58 36 59 44 60 37 61 43 62 38 63 39 64 40 65
REMARK SMILES IDX 41 66 42 67 65 68 66 69 74 70 67 71 73 72 68 73 69 74 70 75
REMARK SMILES IDX 71 76 72 77 51 78 52 79 60 80 53 81 59 82 54 83 55 84 56 85
REMARK SMILES IDX 57 86 58 87
REMARK H PARENT 79 43 49 54
REMARK Flexibility Score: inf
ROOT
ATOM      1  C   UNL A   1      39.133  22.257  26.458  1.00  0.00     0.274 C 
ENDROOT
BRANCH   1   2
ATOM      2  O   UNL A   1      38.573  21.535  25.340  1.00  0.00    -0.462 OA
BRANCH   2   3
ATOM      3  C   UNL A   1      37.319  21.681  24.844  1.00  0.00     0.312 C 
ATOM      4  O   UNL A   1      37.168  22.065  23.684  1.00  0.00    -0.252 OA
BRANCH   3   5
ATOM      5  C   UNL A   1      36.127  21.444  25.741  1.00  0.00     0.179 C 
BRANCH   5   6
ATOM      6  C   UNL A   1      34.828  21.350  25.025  1.00  0.00     0.064 A 
ATOM      7  C   UNL A   1      34.100  20.195  24.803  1.00  0.00     0.092 A 
ATOM      8  N   UNL A   1      34.253  22.494  24.519  1.00  0.00    -0.234 NA
ATOM      9  S   UNL A   1      32.694  20.555  23.892  1.00  0.00    -0.116 S 
ATOM     10  C   UNL A   1      33.142  22.212  23.879  1.00  0.00     0.156 A 
BRANCH  10  11
ATOM     11  S   UNL A   1      32.181  23.427  23.068  1.00  0.00    -0.039 SA
BRANCH  11  12
ATOM     12  C   UNL A   1      31.701  24.388  24.498  1.00  0.00     0.110 A 
ATOM     13  N   UNL A   1      30.799  23.788  25.306  1.00  0.00    -0.229 NA
ATOM     14  C   UNL A   1      32.284  25.620  24.785  1.00  0.00     0.006 A 
ATOM     15  C   UNL A   1      30.458  24.467  26.403  1.00  0.00     0.223 A 
ATOM     16  C   UNL A   1      31.921  26.176  26.006  1.00  0.00     0.048 A 
ATOM     17  C   UNL A   1      33.286  26.285  23.879  1.00  0.00     0.040 C 
ATOM     18  N   UNL A   1      30.998  25.619  26.818  1.00  0.00    -0.241 NA
ATOM     19  C   UNL A   1      32.529  27.463  26.500  1.00  0.00     0.056 C 
ATOM     20  C   UNL A   1      33.648  27.713  24.291  1.00  0.00     0.005 C 
ATOM     21  C   UNL A   1      33.841  27.802  25.798  1.00  0.00     0.007 C 
ENDBRANCH  11  12
ENDBRANCH  10  11
ENDBRANCH   5   6
ENDBRANCH   3   5
ENDBRANCH   2   3
ENDBRANCH   1   2
BRANCH   1  22
ATOM     22  C   UNL A   1      39.108  23.765  26.204  1.00  0.00     0.275 C 
BRANCH  22  23
ATOM     23  O   UNL A   1      40.104  24.403  27.024  1.00  0.00    -0.458 OA
BRANCH  23  24
ATOM     24  C   UNL A   1      40.465  25.653  26.642  1.00  0.00     0.338 C 
ATOM     25  O   UNL A   1      40.761  26.017  25.518  1.00  0.00    -0.246 OA
BRANCH  24  26
ATOM     26  C   UNL A   1      40.237  26.573  27.777  1.00  0.00     0.060 A 
ATOM     27  C   UNL A   1      40.777  27.863  27.697  1.00  0.00     0.016 A 
ATOM     28  C   UNL A   1      39.466  26.198  28.883  1.00  0.00     0.016 A 
ATOM     29  C   UNL A   1      40.580  28.769  28.740  1.00  0.00     0.010 A 
ATOM     30  C   UNL A   1      39.279  27.103  29.933  1.00  0.00     0.010 A 
ATOM     31  C   UNL A   1      39.861  28.381  29.879  1.00  0.00    -0.014 A 
BRANCH  31  32
ATOM     32  C   UNL A   1      39.895  29.224  31.098  1.00  0.00     0.031 A 
ATOM     33  C   UNL A   1      41.036  29.026  32.062  1.00  0.00     0.074 A 
ATOM     34  C   UNL A   1      38.957  30.157  31.342  1.00  0.00     0.049 A 
ATOM     35  N   UNL A   1      41.261  29.610  33.209  1.00  0.00    -0.248 NA
ATOM     36  C   UNL A   1      42.062  28.041  31.674  1.00  0.00     0.031 C 
ATOM     37  C   UNL A   1      37.837  30.491  30.463  1.00  0.00     0.029 A 
ATOM     38  N   UNL A   1      38.808  31.004  32.412  1.00  0.00    -0.354 N 
ATOM     39  C   UNL A   1      42.461  29.083  33.669  1.00  0.00     0.074 A 
ATOM     40  C   UNL A   1      42.898  28.104  32.698  1.00  0.00     0.031 C 
ATOM     41  C   UNL A   1      37.116  31.475  31.030  1.00  0.00     0.029 A 
ATOM     42  C   UNL A   1      37.706  31.821  32.323  1.00  0.00     0.049 A 
ATOM     43  H   UNL A   1      39.432  31.025  33.172  1.00  0.00     0.167 HD
ATOM     44  C   UNL A   1      43.148  29.392  34.792  1.00  0.00     0.031 A 
ATOM     45  C   UNL A   1      37.227  32.733  33.193  1.00  0.00     0.031 A 
ATOM     46  C   UNL A   1      42.707  30.338  35.778  1.00  0.00     0.049 A 
ATOM     47  C   UNL A   1      37.949  32.967  34.496  1.00  0.00     0.074 A 
ATOM     48  C   UNL A   1      43.317  30.685  36.972  1.00  0.00     0.029 A 
ATOM     49  N   UNL A   1      41.548  31.089  35.686  1.00  0.00    -0.354 N 
ATOM     50  N   UNL A   1      39.071  32.440  34.928  1.00  0.00    -0.248 NA
ATOM     51  C   UNL A   1      37.334  33.922  35.433  1.00  0.00     0.031 C 
ATOM     52  C   UNL A   1      42.504  31.620  37.621  1.00  0.00     0.029 A 
ATOM     53  C   UNL A   1      41.415  31.888  36.808  1.00  0.00     0.049 A 
ATOM     54  H   UNL A   1      40.912  31.059  34.935  1.00  0.00     0.167 HD
ATOM     55  C   UNL A   1      39.305  33.019  36.172  1.00  0.00     0.074 A 
ATOM     56  C   UNL A   1      38.222  33.947  36.416  1.00  0.00     0.031 C 
ATOM     57  C   UNL A   1      40.328  32.803  37.037  1.00  0.00     0.031 A 
BRANCH  44  58
ATOM     58  C   UNL A   1      44.455  28.687  35.018  1.00  0.00    -0.014 A 
ATOM     59  C   UNL A   1      45.657  29.249  34.551  1.00  0.00     0.010 A 
ATOM     60  C   UNL A   1      44.491  27.487  35.749  1.00  0.00     0.010 A 
ATOM     61  C   UNL A   1      46.876  28.615  34.805  1.00  0.00     0.020 A 
ATOM     62  C   UNL A   1      45.710  26.860  36.019  1.00  0.00     0.020 A 
ATOM     63  C   UNL A   1      46.893  27.426  35.540  1.00  0.00     0.054 A 
BRANCH  63  64
ATOM     64  S   UNL A   1      48.496  26.656  35.902  1.00  0.00     0.124 S 
ATOM     65  O   UNL A   1      48.385  25.384  35.192  1.00  0.00    -0.237 OA
ATOM     66  O   UNL A   1      49.444  27.611  35.335  1.00  0.00    -0.237 OA
ATOM     67  O   UNL A   1      48.512  26.556  37.359  1.00  0.00    -0.744 OA
ENDBRANCH  63  64
ENDBRANCH  44  58
BRANCH  45  68
ATOM     68  C   UNL A   1      35.982  33.493  32.892  1.00  0.00    -0.014 A 
ATOM     69  C   UNL A   1      36.039  34.704  32.180  1.00  0.00     0.010 A 
ATOM     70  C   UNL A   1      34.741  33.046  33.381  1.00  0.00     0.010 A 
ATOM     71  C   UNL A   1      34.886  35.473  31.994  1.00  0.00     0.020 A 
ATOM     72  C   UNL A   1      33.582  33.799  33.175  1.00  0.00     0.020 A 
ATOM     73  C   UNL A   1      33.665  35.018  32.500  1.00  0.00     0.054 A 
BRANCH  73  74
ATOM     74  S   UNL A   1      32.179  36.029  32.247  1.00  0.00     0.124 S 
ATOM     75  O   UNL A   1      32.271  36.351  30.827  1.00  0.00    -0.237 OA
ATOM     76  O   UNL A   1      31.105  35.112  32.622  1.00  0.00    -0.237 OA
ATOM     77  O   UNL A   1      32.374  37.153  33.160  1.00  0.00    -0.744 OA
ENDBRANCH  73  74
ENDBRANCH  45  68
BRANCH  57  78
ATOM     78  C   UNL A   1      40.335  33.599  38.314  1.00  0.00    -0.014 A 
ATOM     79  C   UNL A   1      39.814  33.065  39.505  1.00  0.00     0.010 A 
ATOM     80  C   UNL A   1      40.905  34.886  38.330  1.00  0.00     0.010 A 
ATOM     81  C   UNL A   1      39.825  33.819  40.682  1.00  0.00     0.020 A 
ATOM     82  C   UNL A   1      40.943  35.633  39.510  1.00  0.00     0.020 A 
ATOM     83  C   UNL A   1      40.385  35.101  40.675  1.00  0.00     0.054 A 
BRANCH  83  84
ATOM     84  S   UNL A   1      40.410  36.051  42.220  1.00  0.00     0.124 S 
ATOM     85  O   UNL A   1      41.242  37.196  41.858  1.00  0.00    -0.237 OA
ATOM     86  O   UNL A   1      38.997  36.347  42.440  1.00  0.00    -0.237 OA
ATOM     87  O   UNL A   1      41.006  35.129  43.184  1.00  0.00    -0.744 OA
ENDBRANCH  83  84
ENDBRANCH  57  78
ENDBRANCH  31  32
ENDBRANCH  24  26
ENDBRANCH  23  24
ENDBRANCH  22  23
ENDBRANCH   1  22
TORSDOF 17
ENDMDL
MODEL 2
REMARK VINA RESULT:     -10.6      4.478     10.554
REMARK SMILES O=C(Cc1csc(Sc2ncnc3c2CCCC3)n1)OCCOC(=O)c1ccc(-c2c3nc(c(-c4ccc(S(=O)(=O)[O-])cc4)c4ccc([nH]4)c(-c4ccc(S(=O)(=O)[O-])cc4)c4nc(c(-c5ccc(S(=O)(=O)[O-])cc5)c5ccc2[nH]5)C=C4)C=C3)cc1
REMARK SMILES IDX 21 1 20 2 2 3 1 4 3 5 4 6 5 7 19 8 6 9 7 10 8 11 9 12 10 13
REMARK SMILES IDX 14 14 11 15 13 16 15 17 12 18 18 19 16 20 17 21 22 22 23 23
REMARK SMILES IDX 24 24 25 25 26 26 27 27 85 28 28 29 84 30 29 31 30 32 31 33
REMARK SMILES IDX 78 34 32 35 83 36 77 37 79 38 33 39 82 40 76 41 75 42 34 44
REMARK SMILES IDX 64 45 45 46 63 47 46 48 49 49 62 50 80 51 47 52 48 53 61 55
REMARK SMILES IDX 81 56 50 57 35 58 36 59 44 60 37 61 43 62 38 63 39 64 40 65
REMARK SMILES IDX 41 66 42 67 65 68 66 69 74 70 67 71 73 72 68 73 69 74 70 75
REMARK SMILES IDX 71 76 72 77 51 78 52 79 60 80 53 81 59 82 54 83 55 84 56 85
REMARK SMILES IDX 57 86 58 87
REMARK H PARENT 79 43 49 54
REMARK Flexibility Score: inf
ROOT
ATOM      1  C   UNL A   1      32.252  29.288  25.787  1.00  0.00     0.274 C 
ENDROOT
BRANCH   1   2
ATOM      2  O   UNL A   1      31.157  29.497  24.868  1.00  0.00    -0.462 OA
BRANCH   2   3
ATOM      3  C   UNL A   1      30.879  28.745  23.774  1.00  0.00     0.312 C 
ATOM      4  O   UNL A   1      29.752  28.787  23.281  1.00  0.00    -0.252 OA
BRANCH   3   5
ATOM      5  C   UNL A   1      31.931  27.811  23.222  1.00  0.00     0.179 C 
BRANCH   5   6
ATOM      6  C   UNL A   1      31.664  26.371  23.472  1.00  0.00     0.064 A 
ATOM      7  C   UNL A   1      31.274  25.437  22.529  1.00  0.00     0.092 A 
ATOM      8  N   UNL A   1      31.811  25.869  24.746  1.00  0.00    -0.234 NA
ATOM      9  S   UNL A   1      31.034  23.914  23.276  1.00  0.00    -0.116 S 
ATOM     10  C   UNL A   1      31.486  24.598  24.784  1.00  0.00     0.156 A 
BRANCH  10  11
ATOM     11  S   UNL A   1      31.507  23.659  26.260  1.00  0.00    -0.039 SA
BRANCH  11  12
ATOM     12  C   UNL A   1      32.539  22.308  25.702  1.00  0.00     0.110 A 
ATOM     13  N   UNL A   1      31.868  21.178  25.384  1.00  0.00    -0.229 NA
ATOM     14  C   UNL A   1      33.913  22.453  25.534  1.00  0.00     0.006 A 
ATOM     15  C   UNL A   1      32.611  20.169  24.924  1.00  0.00     0.223 A 
ATOM     16  C   UNL A   1      34.556  21.367  24.952  1.00  0.00     0.048 A 
ATOM     17  C   UNL A   1      34.656  23.713  25.892  1.00  0.00     0.040 C 
ATOM     18  N   UNL A   1      33.921  20.214  24.656  1.00  0.00    -0.241 NA
ATOM     19  C   UNL A   1      36.027  21.401  24.626  1.00  0.00     0.056 C 
ATOM     20  C   UNL A   1      36.178  23.585  25.808  1.00  0.00     0.005 C 
ATOM     21  C   UNL A   1      36.582  22.821  24.556  1.00  0.00     0.007 C 
ENDBRANCH  11  12
ENDBRANCH  10  11
ENDBRANCH   5   6
ENDBRANCH   3   5
ENDBRANCH   2   3
ENDBRANCH   1   2
BRANCH   1  22
ATOM     22  C   UNL A   1      32.481  30.526  26.657  1.00  0.00     0.275 C 
BRANCH  22  23
ATOM     23  O   UNL A   1      33.366  30.189  27.740  1.00  0.00    -0.458 OA
BRANCH  23  24
ATOM     24  C   UNL A   1      34.275  31.140  28.072  1.00  0.00     0.338 C 
ATOM     25  O   UNL A   1      34.048  32.306  28.342  1.00  0.00    -0.246 OA
BRANCH  24  26
ATOM     26  C   UNL A   1      35.587  30.485  28.265  1.00  0.00     0.060 A 
ATOM     27  C   UNL A   1      35.883  29.966  29.532  1.00  0.00     0.016 A 
ATOM     28  C   UNL A   1      36.496  30.336  27.211  1.00  0.00     0.016 A 
ATOM     29  C   UNL A   1      37.105  29.331  29.758  1.00  0.00     0.010 A 
ATOM     30  C   UNL A   1      37.725  29.710  27.443  1.00  0.00     0.010 A 
ATOM     31  C   UNL A   1      38.046  29.233  28.724  1.00  0.00    -0.014 A 
BRANCH  31  32
ATOM     32  C   UNL A   1      39.440  28.828  29.028  1.00  0.00     0.031 A 
ATOM     33  C   UNL A   1      40.322  29.816  29.745  1.00  0.00     0.074 A 
ATOM     34  C   UNL A   1      39.912  27.611  28.702  1.00  0.00     0.049 A 
ATOM     35  N   UNL A   1      41.580  29.710  30.083  1.00  0.00    -0.248 NA
ATOM     36  C   UNL A   1      39.696  31.092  30.138  1.00  0.00     0.031 C 
ATOM     37  C   UNL A   1      39.146  26.541  28.063  1.00  0.00     0.029 A 
ATOM     38  N   UNL A   1      41.162  27.071  28.876  1.00  0.00    -0.354 N 
ATOM     39  C   UNL A   1      41.891  30.891  30.745  1.00  0.00     0.074 A 
ATOM     40  C   UNL A   1      40.703  31.716  30.729  1.00  0.00     0.031 C 
ATOM     41  C   UNL A   1      39.945  25.471  27.900  1.00  0.00     0.029 A 
ATOM     42  C   UNL A   1      41.284  25.788  28.398  1.00  0.00     0.049 A 
ATOM     43  H   UNL A   1      41.903  27.557  29.304  1.00  0.00     0.167 HD
ATOM     44  C   UNL A   1      43.055  31.255  31.328  1.00  0.00     0.031 A 
ATOM     45  C   UNL A   1      42.356  24.972  28.357  1.00  0.00     0.031 A 
ATOM     46  C   UNL A   1      44.250  30.458  31.321  1.00  0.00     0.049 A 
ATOM     47  C   UNL A   1      43.677  25.455  28.904  1.00  0.00     0.074 A 
ATOM     48  C   UNL A   1      45.492  30.763  31.849  1.00  0.00     0.029 A 
ATOM     49  N   UNL A   1      44.351  29.196  30.760  1.00  0.00    -0.354 N 
ATOM     50  N   UNL A   1      43.961  26.587  29.505  1.00  0.00    -0.248 NA
ATOM     51  C   UNL A   1      44.825  24.545  28.763  1.00  0.00     0.031 C 
ATOM     52  C   UNL A   1      46.358  29.700  31.572  1.00  0.00     0.029 A 
ATOM     53  C   UNL A   1      45.639  28.714  30.914  1.00  0.00     0.049 A 
ATOM     54  H   UNL A   1      43.617  28.713  30.317  1.00  0.00     0.167 HD
ATOM     55  C   UNL A   1      45.311  26.510  29.834  1.00  0.00     0.074 A 
ATOM     56  C   UNL A   1      45.783  25.219  29.383  1.00  0.00     0.031 C 
ATOM     57  C   UNL A   1      46.093  27.428  30.456  1.00  0.00     0.031 A 
BRANCH  44  58
ATOM     58  C   UNL A   1      43.095  32.588  32.019  1.00  0.00    -0.014 A 
ATOM     59  C   UNL A   1      42.935  32.673  33.413  1.00  0.00     0.010 A 
ATOM     60  C   UNL A   1      43.351  33.756  31.280  1.00  0.00     0.010 A 
ATOM     61  C   UNL A   1      43.020  33.909  34.058  1.00  0.00     0.020 A 
ATOM     62  C   UNL A   1      43.455  34.992  31.925  1.00  0.00     0.020 A 
ATOM     63  C   UNL A   1      43.283  35.059  33.309  1.00  0.00     0.054 A 
BRANCH  63  64
ATOM     64  S   UNL A   1      43.444  36.642  34.181  1.00  0.00     0.124 S 
ATOM     65  O   UNL A   1      44.648  36.425  34.979  1.00  0.00    -0.237 OA
ATOM     66  O   UNL A   1      43.580  37.597  33.086  1.00  0.00    -0.237 OA
ATOM     67  O   UNL A   1      42.202  36.746  34.944  1.00  0.00    -0.744 OA
ENDBRANCH  63  64
ENDBRANCH  44  58
BRANCH  45  68
ATOM     68  C   UNL A   1      42.259  23.612  27.758  1.00  0.00    -0.014 A 
ATOM     69  C   UNL A   1      41.835  22.519  28.534  1.00  0.00     0.010 A 
ATOM     70  C   UNL A   1      42.659  23.392  26.428  1.00  0.00     0.010 A 
ATOM     71  C   UNL A   1      41.849  21.226  28.004  1.00  0.00     0.020 A 
ATOM     72  C   UNL A   1      42.650  22.103  25.887  1.00  0.00     0.020 A 
ATOM     73  C   UNL A   1      42.263  21.025  26.685  1.00  0.00     0.054 A 
BRANCH  73  74
ATOM     74  S   UNL A   1      42.272  19.339  26.014  1.00  0.00     0.124 S 
ATOM     75  O   UNL A   1      40.883  19.169  25.602  1.00  0.00    -0.237 OA
ATOM     76  O   UNL A   1      43.248  19.434  24.931  1.00  0.00    -0.237 OA
ATOM     77  O   UNL A   1      42.695  18.524  27.151  1.00  0.00    -0.744 OA
ENDBRANCH  73  74
ENDBRANCH  45  68
BRANCH  57  78
ATOM     78  C   UNL A   1      47.531  27.059  30.705  1.00  0.00    -0.014 A 
ATOM     79  C   UNL A   1      47.903  26.314  31.838  1.00  0.00     0.010 A 
ATOM     80  C   UNL A   1      48.517  27.429  29.773  1.00  0.00     0.010 A 
ATOM     81  C   UNL A   1      49.242  25.982  32.056  1.00  0.00     0.020 A 
ATOM     82  C   UNL A   1      49.854  27.076  29.973  1.00  0.00     0.020 A 
ATOM     83  C   UNL A   1      50.210  26.370  31.125  1.00  0.00     0.054 A 
BRANCH  83  84
ATOM     84  S   UNL A   1      51.939  25.906  31.417  1.00  0.00     0.124 S 
ATOM     85  O   UNL A   1      51.818  24.497  31.781  1.00  0.00    -0.237 OA
ATOM     86  O   UNL A   1      52.567  26.170  30.125  1.00  0.00    -0.237 OA
ATOM     87  O   UNL A   1      52.357  26.795  32.500  1.00  0.00    -0.744 OA
ENDBRANCH  83  84
ENDBRANCH  57  78
ENDBRANCH  31  32
ENDBRANCH  24  26
ENDBRANCH  23  24
ENDBRANCH  22  23
ENDBRANCH   1  22
TORSDOF 17
ENDMDL
MODEL 3
REMARK VINA RESULT:     -10.5      3.964      4.887
REMARK SMILES O=C(Cc1csc(Sc2ncnc3c2CCCC3)n1)OCCOC(=O)c1ccc(-c2c3nc(c(-c4ccc(S(=O)(=O)[O-])cc4)c4ccc([nH]4)c(-c4ccc(S(=O)(=O)[O-])cc4)c4nc(c(-c5ccc(S(=O)(=O)[O-])cc5)c5ccc2[nH]5)C=C4)C=C3)cc1
REMARK SMILES IDX 21 1 20 2 2 3 1 4 3 5 4 6 5 7 19 8 6 9 7 10 8 11 9 12 10 13
REMARK SMILES IDX 14 14 11 15 13 16 15 17 12 18 18 19 16 20 17 21 22 22 23 23
REMARK SMILES IDX 24 24 25 25 26 26 27 27 85 28 28 29 84 30 29 31 30 32 31 33
REMARK SMILES IDX 78 34 32 35 83 36 77 37 79 38 33 39 82 40 76 41 75 42 34 44
REMARK SMILES IDX 64 45 45 46 63 47 46 48 49 49 62 50 80 51 47 52 48 53 61 55
REMARK SMILES IDX 81 56 50 57 35 58 36 59 44 60 37 61 43 62 38 63 39 64 40 65
REMARK SMILES IDX 41 66 42 67 65 68 66 69 74 70 67 71 73 72 68 73 69 74 70 75
REMARK SMILES IDX 71 76 72 77 51 78 52 79 60 80 53 81 59 82 54 83 55 84 56 85
REMARK SMILES IDX 57 86 58 87
REMARK H PARENT 79 43 49 54
REMARK Flexibility Score: inf
ROOT
ATOM      1  C   UNL A   1      35.903  21.632  25.911  1.00  0.00     0.274 C 
ENDROOT
BRANCH   1   2
ATOM      2  O   UNL A   1      35.222  21.200  24.712  1.00  0.00    -0.462 OA
BRANCH   2   3
ATOM      3  C   UNL A   1      33.969  20.685  24.649  1.00  0.00     0.312 C 
ATOM      4  O   UNL A   1      33.681  19.709  25.341  1.00  0.00    -0.252 OA
BRANCH   3   5
ATOM      5  C   UNL A   1      32.970  21.266  23.676  1.00  0.00     0.179 C 
BRANCH   5   6
ATOM      6  C   UNL A   1      32.710  22.718  23.857  1.00  0.00     0.064 A 
ATOM      7  C   UNL A   1      33.408  23.752  23.261  1.00  0.00     0.092 A 
ATOM      8  N   UNL A   1      31.684  23.121  24.682  1.00  0.00    -0.234 NA
ATOM      9  S   UNL A   1      32.793  25.260  23.797  1.00  0.00    -0.116 S 
ATOM     10  C   UNL A   1      31.637  24.431  24.758  1.00  0.00     0.156 A 
BRANCH  10  11
ATOM     11  S   UNL A   1      30.486  25.281  25.763  1.00  0.00    -0.039 SA
BRANCH  11  12
ATOM     12  C   UNL A   1      30.684  26.919  25.070  1.00  0.00     0.110 A 
ATOM     13  N   UNL A   1      29.940  27.160  23.968  1.00  0.00    -0.229 NA
ATOM     14  C   UNL A   1      31.482  27.883  25.680  1.00  0.00     0.006 A 
ATOM     15  C   UNL A   1      30.038  28.389  23.457  1.00  0.00     0.223 A 
ATOM     16  C   UNL A   1      31.418  29.150  25.111  1.00  0.00     0.048 A 
ATOM     17  C   UNL A   1      32.311  27.608  26.906  1.00  0.00     0.040 C 
ATOM     18  N   UNL A   1      30.713  29.414  23.991  1.00  0.00    -0.241 NA
ATOM     19  C   UNL A   1      32.157  30.321  25.705  1.00  0.00     0.056 C 
ATOM     20  C   UNL A   1      33.256  28.749  27.290  1.00  0.00     0.005 C 
ATOM     21  C   UNL A   1      32.552  30.092  27.161  1.00  0.00     0.007 C 
ENDBRANCH  11  12
ENDBRANCH  10  11
ENDBRANCH   5   6
ENDBRANCH   3   5
ENDBRANCH   2   3
ENDBRANCH   1   2
BRANCH   1  22
ATOM     22  C   UNL A   1      36.079  23.151  25.924  1.00  0.00     0.275 C 
BRANCH  22  23
ATOM     23  O   UNL A   1      37.374  23.486  25.393  1.00  0.00    -0.458 OA
BRANCH  23  24
ATOM     24  C   UNL A   1      38.434  23.081  26.136  1.00  0.00     0.338 C 
ATOM     25  O   UNL A   1      38.924  21.966  26.166  1.00  0.00    -0.246 OA
BRANCH  24  26
ATOM     26  C   UNL A   1      39.051  24.274  26.758  1.00  0.00     0.060 A 
ATOM     27  C   UNL A   1      38.809  24.505  28.118  1.00  0.00     0.016 A 
ATOM     28  C   UNL A   1      39.892  25.127  26.035  1.00  0.00     0.016 A 
ATOM     29  C   UNL A   1      39.378  25.612  28.750  1.00  0.00     0.010 A 
ATOM     30  C   UNL A   1      40.452  26.242  26.667  1.00  0.00     0.010 A 
ATOM     31  C   UNL A   1      40.172  26.506  28.018  1.00  0.00    -0.014 A 
BRANCH  31  32
ATOM     32  C   UNL A   1      40.534  27.821  28.600  1.00  0.00     0.031 A 
ATOM     33  C   UNL A   1      41.952  28.018  29.070  1.00  0.00     0.074 A 
ATOM     34  C   UNL A   1      39.644  28.825  28.691  1.00  0.00     0.049 A 
ATOM     35  N   UNL A   1      42.495  29.057  29.647  1.00  0.00    -0.248 NA
ATOM     36  C   UNL A   1      42.879  26.892  28.854  1.00  0.00     0.031 C 
ATOM     37  C   UNL A   1      38.261  28.787  28.218  1.00  0.00     0.029 A 
ATOM     38  N   UNL A   1      39.784  30.087  29.215  1.00  0.00    -0.354 N 
ATOM     39  C   UNL A   1      43.829  28.722  29.843  1.00  0.00     0.074 A 
ATOM     40  C   UNL A   1      44.006  27.370  29.359  1.00  0.00     0.031 C 
ATOM     41  C   UNL A   1      37.679  29.973  28.472  1.00  0.00     0.029 A 
ATOM     42  C   UNL A   1      38.639  30.845  29.150  1.00  0.00     0.049 A 
ATOM     43  H   UNL A   1      40.627  30.418  29.601  1.00  0.00     0.167 HD
ATOM     44  C   UNL A   1      44.824  29.473  30.365  1.00  0.00     0.031 A 
ATOM     45  C   UNL A   1      38.395  32.093  29.596  1.00  0.00     0.031 A 
ATOM     46  C   UNL A   1      44.653  30.804  30.877  1.00  0.00     0.049 A 
ATOM     47  C   UNL A   1      39.494  32.862  30.288  1.00  0.00     0.074 A 
ATOM     48  C   UNL A   1      45.596  31.628  31.466  1.00  0.00     0.029 A 
ATOM     49  N   UNL A   1      43.460  31.507  30.860  1.00  0.00    -0.354 N 
ATOM     50  N   UNL A   1      40.745  32.519  30.489  1.00  0.00    -0.248 NA
ATOM     51  C   UNL A   1      39.142  34.189  30.818  1.00  0.00     0.031 C 
ATOM     52  C   UNL A   1      44.962  32.817  31.842  1.00  0.00     0.029 A 
ATOM     53  C   UNL A   1      43.638  32.749  31.443  1.00  0.00     0.049 A 
ATOM     54  H   UNL A   1      42.611  31.172  30.490  1.00  0.00     0.167 HD
ATOM     55  C   UNL A   1      41.331  33.599  31.143  1.00  0.00     0.074 A 
ATOM     56  C   UNL A   1      40.306  34.610  31.290  1.00  0.00     0.031 C 
ATOM     57  C   UNL A   1      42.606  33.742  31.584  1.00  0.00     0.031 A 
BRANCH  44  58
ATOM     58  C   UNL A   1      46.196  28.864  30.416  1.00  0.00    -0.014 A 
ATOM     59  C   UNL A   1      47.100  29.053  29.355  1.00  0.00     0.010 A 
ATOM     60  C   UNL A   1      46.606  28.146  31.553  1.00  0.00     0.010 A 
ATOM     61  C   UNL A   1      48.391  28.525  29.427  1.00  0.00     0.020 A 
ATOM     62  C   UNL A   1      47.903  27.632  31.636  1.00  0.00     0.020 A 
ATOM     63  C   UNL A   1      48.784  27.821  30.569  1.00  0.00     0.054 A 
BRANCH  63  64
ATOM     64  S   UNL A   1      50.484  27.196  30.658  1.00  0.00     0.124 S 
ATOM     65  O   UNL A   1      50.882  27.595  32.005  1.00  0.00    -0.237 OA
ATOM     66  O   UNL A   1      50.308  25.761  30.453  1.00  0.00    -0.237 OA
ATOM     67  O   UNL A   1      51.169  27.897  29.574  1.00  0.00    -0.744 OA
ENDBRANCH  63  64
ENDBRANCH  44  58
BRANCH  45  68
ATOM     68  C   UNL A   1      37.050  32.711  29.438  1.00  0.00    -0.014 A 
ATOM     69  C   UNL A   1      36.584  33.091  28.166  1.00  0.00     0.010 A 
ATOM     70  C   UNL A   1      36.258  32.990  30.566  1.00  0.00     0.010 A 
ATOM     71  C   UNL A   1      35.371  33.771  28.029  1.00  0.00     0.020 A 
ATOM     72  C   UNL A   1      35.032  33.647  30.430  1.00  0.00     0.020 A 
ATOM     73  C   UNL A   1      34.605  34.051  29.164  1.00  0.00     0.054 A 
BRANCH  73  74
ATOM     74  S   UNL A   1      33.031  34.932  28.965  1.00  0.00     0.124 S 
ATOM     75  O   UNL A   1      33.474  36.243  28.504  1.00  0.00    -0.237 OA
ATOM     76  O   UNL A   1      32.333  34.114  27.977  1.00  0.00    -0.237 OA
ATOM     77  O   UNL A   1      32.454  34.901  30.308  1.00  0.00    -0.744 OA
ENDBRANCH  73  74
ENDBRANCH  45  68
BRANCH  57  78
ATOM     78  C   UNL A   1      42.968  35.046  32.244  1.00  0.00    -0.014 A 
ATOM     79  C   UNL A   1      42.704  35.267  33.607  1.00  0.00     0.010 A 
ATOM     80  C   UNL A   1      43.616  36.047  31.498  1.00  0.00     0.010 A 
ATOM     81  C   UNL A   1      43.045  36.484  34.203  1.00  0.00     0.020 A 
ATOM     82  C   UNL A   1      43.982  37.256  32.097  1.00  0.00     0.020 A 
ATOM     83  C   UNL A   1      43.677  37.473  33.443  1.00  0.00     0.054 A 
BRANCH  83  84
ATOM     84  S   UNL A   1      44.130  39.035  34.244  1.00  0.00     0.124 S 
ATOM     85  O   UNL A   1      45.407  39.345  33.605  1.00  0.00    -0.237 OA
ATOM     86  O   UNL A   1      43.020  39.915  33.888  1.00  0.00    -0.237 OA
ATOM     87  O   UNL A   1      44.212  38.687  35.661  1.00  0.00    -0.744 OA
ENDBRANCH  83  84
ENDBRANCH  57  78
ENDBRANCH  31  32
ENDBRANCH  24  26
ENDBRANCH  23  24
ENDBRANCH  22  23
ENDBRANCH   1  22
TORSDOF 17
ENDMDL
