MODEL 1
REMARK VINA RESULT:     -12.3      0.000      0.000
REMARK SMILES C[C@]12CC[C@@H]3[C@@H](CCC4=C/C(=N\OCC(=O)N5CCC[C@@H]5C(=O)OCCOC(=O)c5ccc(-c6c7nc(c(-c8ccc(S(=O)(=O)[O-])cc8)c8ccc([nH]8)c(-c8ccc(S(=O)(=O)[O-])cc8)c8nc(c(-c9ccc(S(=O)(=O)[O-])cc9)c9ccc6[nH]9)C=C8)C=C7)cc5)CC[C@@]43C)[C@@H]1CC[C@@H]2O
REMARK SMILES IDX 25 1 24 2 22 3 23 4 21 5 17 6 18 7 19 8 20 9 15 10 16 11
REMARK SMILES IDX 14 12 13 13 12 14 1 15 2 16 3 17 94 18 97 19 4 20 6 21 95 22
REMARK SMILES IDX 96 23 5 24 7 25 92 26 8 27 9 28 91 29 93 30 10 31 90 32
REMARK SMILES IDX 11 33 98 34 26 36 27 37 28 38 29 39 30 40 31 41 89 42 32 43
REMARK SMILES IDX 88 44 33 45 34 46 35 47 82 48 36 49 87 50 81 51 83 52 37 53
REMARK SMILES IDX 86 54 80 55 79 56 38 58 68 59 49 60 67 61 50 62 53 63 66 64
REMARK SMILES IDX 84 65 51 66 52 67 65 69 85 70 54 71 39 72 40 73 48 74 41 75
REMARK SMILES IDX 47 76 42 77 43 78 44 79 45 80 46 81 69 82 70 83 78 84 71 85
REMARK SMILES IDX 77 86 72 87 73 88 74 89 75 90 76 91 55 92 56 93 64 94 57 95
REMARK SMILES IDX 63 96 58 97 59 98 60 99 61 100 62 101
REMARK H PARENT 98 35 83 57 53 68
REMARK Flexibility Score: inf
ROOT
ATOM      1  C   UNL A   1      43.400  25.740  24.998  1.00  0.00     0.274 C 
ENDROOT
BRANCH   1   2
ATOM      2  O   UNL A   1      44.281  24.706  25.465  1.00  0.00    -0.461 OA
BRANCH   2   3
ATOM      3  C   UNL A   1      43.840  23.424  25.306  1.00  0.00     0.328 C 
ATOM      4  O   UNL A   1      43.376  22.973  24.266  1.00  0.00    -0.250 OA
BRANCH   3   5
ATOM      5  C   UNL A   1      44.024  22.557  26.561  1.00  0.00     0.195 C 
ATOM      6  N   UNL A   1      42.762  22.064  27.099  1.00  0.00    -0.326 N 
ATOM      7  C   UNL A   1      42.375  22.799  28.297  1.00  0.00     0.120 C 
ATOM      8  C   UNL A   1      43.384  23.931  28.414  1.00  0.00     0.024 C 
ATOM      9  C   UNL A   1      44.614  23.356  27.724  1.00  0.00     0.039 C 
BRANCH   6  10
ATOM     10  C   UNL A   1      42.003  21.035  26.597  1.00  0.00     0.264 C 
ATOM     11  O   UNL A   1      42.430  20.349  25.658  1.00  0.00    -0.271 OA
BRANCH  10  12
ATOM     12  C   UNL A   1      40.558  20.790  27.113  1.00  0.00     0.363 C 
BRANCH  12  13
ATOM     13  O   UNL A   1      39.400  20.833  26.292  1.00  0.00    -0.385 OA
BRANCH  13  14
ATOM     14  N   UNL A   1      38.955  22.156  26.202  1.00  0.00    -0.091 NA
ATOM     15  C   UNL A   1      30.774  24.707  24.170  1.00  0.00     0.014 C 
ATOM     16  C   UNL A   1      32.040  24.445  25.029  1.00  0.00    -0.003 C 
ATOM     17  C   UNL A   1      33.161  25.309  24.441  1.00  0.00     0.010 C 
ATOM     18  C   UNL A   1      32.470  22.957  25.139  1.00  0.00     0.001 C 
ATOM     19  C   UNL A   1      31.740  24.678  26.522  1.00  0.00     0.120 C 
ATOM     20  C   UNL A   1      33.750  24.687  23.160  1.00  0.00     0.005 C 
ATOM     21  C   UNL A   1      32.914  22.364  23.809  1.00  0.00    -0.003 C 
ATOM     22  C   UNL A   1      31.312  22.331  25.914  1.00  0.00     0.007 C 
ATOM     23  C   UNL A   1      30.897  23.445  26.905  1.00  0.00     0.032 C 
ATOM     24  C   UNL A   1      34.105  23.177  23.259  1.00  0.00     0.002 C 
ATOM     25  C   UNL A   1      33.280  20.879  23.808  1.00  0.00     0.008 C 
ATOM     26  C   UNL A   1      35.519  22.870  23.923  1.00  0.00    -0.008 C 
ATOM     27  C   UNL A   1      34.545  20.503  24.575  1.00  0.00     0.032 C 
ATOM     28  C   UNL A   1      35.661  21.520  24.638  1.00  0.00    -0.062 C 
ATOM     29  C   UNL A   1      35.933  23.930  24.973  1.00  0.00     0.018 C 
ATOM     30  C   UNL A   1      36.515  22.898  22.734  1.00  0.00     0.016 C 
ATOM     31  C   UNL A   1      36.739  21.238  25.413  1.00  0.00     0.027 C 
ATOM     32  C   UNL A   1      37.282  23.732  25.641  1.00  0.00     0.061 C 
ATOM     33  C   UNL A   1      37.743  22.291  25.751  1.00  0.00     0.080 C 
BRANCH  19  34
ATOM     34  O   UNL A   1      31.077  25.892  26.800  1.00  0.00    -0.393 OA
ATOM     35  H   UNL A   1      31.224  26.515  26.072  1.00  0.00     0.210 HD
ENDBRANCH  19  34
ENDBRANCH  13  14
ENDBRANCH  12  13
ENDBRANCH  10  12
ENDBRANCH   6  10
ENDBRANCH   3   5
ENDBRANCH   2   3
ENDBRANCH   1   2
BRANCH   1  36
ATOM     36  C   UNL A   1      42.935  26.728  26.065  1.00  0.00     0.275 C 
BRANCH  36  37
ATOM     37  O   UNL A   1      41.596  27.184  25.814  1.00  0.00    -0.458 OA
BRANCH  37  38
ATOM     38  C   UNL A   1      40.656  26.532  26.527  1.00  0.00     0.338 C 
ATOM     39  O   UNL A   1      40.205  25.415  26.312  1.00  0.00    -0.246 OA
BRANCH  38  40
ATOM     40  C   UNL A   1      40.269  27.309  27.707  1.00  0.00     0.060 A 
ATOM     41  C   UNL A   1      40.756  28.610  27.809  1.00  0.00     0.016 A 
ATOM     42  C   UNL A   1      39.644  26.699  28.791  1.00  0.00     0.016 A 
ATOM     43  C   UNL A   1      40.721  29.281  29.018  1.00  0.00     0.010 A 
ATOM     44  C   UNL A   1      39.555  27.397  30.000  1.00  0.00     0.010 A 
ATOM     45  C   UNL A   1      40.141  28.669  30.131  1.00  0.00    -0.014 A 
BRANCH  45  46
ATOM     46  C   UNL A   1      40.266  29.325  31.452  1.00  0.00     0.031 A 
ATOM     47  C   UNL A   1      39.207  30.296  31.889  1.00  0.00     0.074 A 
ATOM     48  C   UNL A   1      41.276  28.994  32.276  1.00  0.00     0.049 A 
ATOM     49  N   UNL A   1      39.193  31.090  32.927  1.00  0.00    -0.248 NA
ATOM     50  C   UNL A   1      38.003  30.393  31.042  1.00  0.00     0.031 C 
ATOM     51  C   UNL A   1      42.305  27.990  31.997  1.00  0.00     0.029 A 
ATOM     52  N   UNL A   1      41.595  29.461  33.524  1.00  0.00    -0.354 N 
ATOM     53  C   UNL A   1      38.015  31.821  32.827  1.00  0.00     0.074 A 
ATOM     54  C   UNL A   1      37.332  31.370  31.635  1.00  0.00     0.031 C 
ATOM     55  C   UNL A   1      43.129  27.902  33.051  1.00  0.00     0.029 A 
ATOM     56  C   UNL A   1      42.734  28.894  34.044  1.00  0.00     0.049 A 
ATOM     57  H   UNL A   1      41.060  30.136  34.001  1.00  0.00     0.167 HD
ATOM     58  C   UNL A   1      37.557  32.790  33.653  1.00  0.00     0.031 A 
ATOM     59  C   UNL A   1      43.408  29.178  35.174  1.00  0.00     0.031 A 
ATOM     60  C   UNL A   1      38.236  33.202  34.853  1.00  0.00     0.049 A 
ATOM     61  C   UNL A   1      42.902  30.282  36.057  1.00  0.00     0.074 A 
ATOM     62  C   UNL A   1      37.878  34.188  35.754  1.00  0.00     0.029 A 
ATOM     63  N   UNL A   1      39.408  32.631  35.326  1.00  0.00    -0.354 N 
ATOM     64  N   UNL A   1      41.835  31.031  35.904  1.00  0.00    -0.248 NA
ATOM     65  C   UNL A   1      43.696  30.590  37.251  1.00  0.00     0.031 C 
ATOM     66  C   UNL A   1      38.852  34.232  36.759  1.00  0.00     0.029 A 
ATOM     67  C   UNL A   1      39.793  33.247  36.504  1.00  0.00     0.049 A 
ATOM     68  H   UNL A   1      39.895  31.894  34.889  1.00  0.00     0.167 HD
ATOM     69  C   UNL A   1      41.830  31.903  36.985  1.00  0.00     0.074 A 
ATOM     70  C   UNL A   1      42.987  31.570  37.795  1.00  0.00     0.031 C 
ATOM     71  C   UNL A   1      40.954  32.896  37.280  1.00  0.00     0.031 A 
BRANCH  58  72
ATOM     72  C   UNL A   1      36.299  33.508  33.249  1.00  0.00    -0.014 A 
ATOM     73  C   UNL A   1      35.026  33.005  33.571  1.00  0.00     0.010 A 
ATOM     74  C   UNL A   1      36.396  34.720  32.541  1.00  0.00     0.010 A 
ATOM     75  C   UNL A   1      33.874  33.683  33.159  1.00  0.00     0.020 A 
ATOM     76  C   UNL A   1      35.249  35.412  32.147  1.00  0.00     0.020 A 
ATOM     77  C   UNL A   1      33.992  34.879  32.443  1.00  0.00     0.054 A 
BRANCH  77  78
ATOM     78  S   UNL A   1      32.485  35.750  31.931  1.00  0.00     0.124 S 
ATOM     79  O   UNL A   1      32.473  35.508  30.491  1.00  0.00    -0.237 OA
ATOM     80  O   UNL A   1      31.441  35.068  32.692  1.00  0.00    -0.237 OA
ATOM     81  O   UNL A   1      32.735  37.133  32.328  1.00  0.00    -0.744 OA
ENDBRANCH  77  78
ENDBRANCH  58  72
BRANCH  59  82
ATOM     82  C   UNL A   1      44.660  28.443  35.486  1.00  0.00    -0.014 A 
ATOM     83  C   UNL A   1      44.628  27.250  36.228  1.00  0.00     0.010 A 
ATOM     84  C   UNL A   1      45.894  28.910  34.994  1.00  0.00     0.010 A 
ATOM     85  C   UNL A   1      45.806  26.536  36.471  1.00  0.00     0.020 A 
ATOM     86  C   UNL A   1      47.069  28.186  35.211  1.00  0.00     0.020 A 
ATOM     87  C   UNL A   1      47.017  27.006  35.956  1.00  0.00     0.054 A 
BRANCH  87  88
ATOM     88  S   UNL A   1      48.523  26.021  36.200  1.00  0.00     0.124 S 
ATOM     89  O   UNL A   1      48.857  25.635  34.833  1.00  0.00    -0.237 OA
ATOM     90  O   UNL A   1      49.432  26.976  36.830  1.00  0.00    -0.237 OA
ATOM     91  O   UNL A   1      48.077  24.934  37.070  1.00  0.00    -0.744 OA
ENDBRANCH  87  88
ENDBRANCH  59  82
BRANCH  71  92
ATOM     92  C   UNL A   1      41.214  33.673  38.538  1.00  0.00    -0.014 A 
ATOM     93  C   UNL A   1      40.643  33.277  39.759  1.00  0.00     0.010 A 
ATOM     94  C   UNL A   1      42.063  34.793  38.499  1.00  0.00     0.010 A 
ATOM     95  C   UNL A   1      40.892  34.011  40.920  1.00  0.00     0.020 A 
ATOM     96  C   UNL A   1      42.329  35.518  39.661  1.00  0.00     0.020 A 
ATOM     97  C   UNL A   1      41.728  35.131  40.862  1.00  0.00     0.054 A 
BRANCH  97  98
ATOM     98  S   UNL A   1      42.060  36.057  42.385  1.00  0.00     0.124 S 
ATOM     99  O   UNL A   1      41.570  35.139  43.410  1.00  0.00    -0.237 OA
ATOM    100  O   UNL A   1      43.509  36.240  42.345  1.00  0.00    -0.237 OA
ATOM    101  O   UNL A   1      41.280  37.282  42.220  1.00  0.00    -0.744 OA
ENDBRANCH  97  98
ENDBRANCH  71  92
ENDBRANCH  45  46
ENDBRANCH  38  40
ENDBRANCH  37  38
ENDBRANCH  36  37
ENDBRANCH   1  36
TORSDOF 19
ENDMDL
MODEL 2
REMARK VINA RESULT:     -12.0      5.743     12.579
REMARK SMILES C[C@]12CC[C@@H]3[C@@H](CCC4=C/C(=N\OCC(=O)N5CCC[C@@H]5C(=O)OCCOC(=O)c5ccc(-c6c7nc(c(-c8ccc(S(=O)(=O)[O-])cc8)c8ccc([nH]8)c(-c8ccc(S(=O)(=O)[O-])cc8)c8nc(c(-c9ccc(S(=O)(=O)[O-])cc9)c9ccc6[nH]9)C=C8)C=C7)cc5)CC[C@@]43C)[C@@H]1CC[C@@H]2O
REMARK SMILES IDX 25 1 24 2 22 3 23 4 21 5 17 6 18 7 19 8 20 9 15 10 16 11
REMARK SMILES IDX 14 12 13 13 12 14 1 15 2 16 3 17 94 18 97 19 4 20 6 21 95 22
REMARK SMILES IDX 96 23 5 24 7 25 92 26 8 27 9 28 91 29 93 30 10 31 90 32
REMARK SMILES IDX 11 33 98 34 26 36 27 37 28 38 29 39 30 40 31 41 89 42 32 43
REMARK SMILES IDX 88 44 33 45 34 46 35 47 82 48 36 49 87 50 81 51 83 52 37 53
REMARK SMILES IDX 86 54 80 55 79 56 38 58 68 59 49 60 67 61 50 62 53 63 66 64
REMARK SMILES IDX 84 65 51 66 52 67 65 69 85 70 54 71 39 72 40 73 48 74 41 75
REMARK SMILES IDX 47 76 42 77 43 78 44 79 45 80 46 81 69 82 70 83 78 84 71 85
REMARK SMILES IDX 77 86 72 87 73 88 74 89 75 90 76 91 55 92 56 93 64 94 57 95
REMARK SMILES IDX 63 96 58 97 59 98 60 99 61 100 62 101
REMARK H PARENT 98 35 83 57 53 68
REMARK Flexibility Score: inf
ROOT
ATOM      1  C   UNL A   1      35.842  32.705  33.533  1.00  0.00     0.274 C 
ENDROOT
BRANCH   1   2
ATOM      2  O   UNL A   1      35.965  34.044  33.027  1.00  0.00    -0.461 OA
BRANCH   2   3
ATOM      3  C   UNL A   1      35.778  34.197  31.684  1.00  0.00     0.328 C 
ATOM      4  O   UNL A   1      36.682  34.290  30.862  1.00  0.00    -0.250 OA
BRANCH   3   5
ATOM      5  C   UNL A   1      34.298  34.195  31.271  1.00  0.00     0.195 C 
ATOM      6  N   UNL A   1      34.068  34.832  29.981  1.00  0.00    -0.326 N 
ATOM      7  C   UNL A   1      33.484  36.158  30.143  1.00  0.00     0.120 C 
ATOM      8  C   UNL A   1      33.505  36.423  31.641  1.00  0.00     0.024 C 
ATOM      9  C   UNL A   1      33.438  35.020  32.230  1.00  0.00     0.039 C 
BRANCH   6  10
ATOM     10  C   UNL A   1      34.331  34.297  28.743  1.00  0.00     0.264 C 
ATOM     11  O   UNL A   1      34.402  35.034  27.750  1.00  0.00    -0.271 OA
BRANCH  10  12
ATOM     12  C   UNL A   1      34.424  32.759  28.548  1.00  0.00     0.363 C 
BRANCH  12  13
ATOM     13  O   UNL A   1      34.362  32.110  27.286  1.00  0.00    -0.385 OA
BRANCH  13  14
ATOM     14  N   UNL A   1      34.735  30.771  27.445  1.00  0.00    -0.091 NA
ATOM     15  C   UNL A   1      31.184  23.905  23.224  1.00  0.00     0.014 C 
ATOM     16  C   UNL A   1      32.231  24.980  23.620  1.00  0.00    -0.003 C 
ATOM     17  C   UNL A   1      32.587  24.734  25.090  1.00  0.00     0.010 C 
ATOM     18  C   UNL A   1      31.793  26.451  23.382  1.00  0.00     0.001 C 
ATOM     19  C   UNL A   1      33.420  24.965  22.641  1.00  0.00     0.120 C 
ATOM     20  C   UNL A   1      31.497  25.268  26.039  1.00  0.00     0.005 C 
ATOM     21  C   UNL A   1      30.621  26.873  24.258  1.00  0.00    -0.003 C 
ATOM     22  C   UNL A   1      31.683  26.526  21.860  1.00  0.00     0.007 C 
ATOM     23  C   UNL A   1      32.834  25.615  21.371  1.00  0.00     0.032 C 
ATOM     24  C   UNL A   1      31.010  26.713  25.744  1.00  0.00     0.002 C 
ATOM     25  C   UNL A   1      30.071  28.283  24.035  1.00  0.00     0.008 C 
ATOM     26  C   UNL A   1      31.937  27.860  26.344  1.00  0.00    -0.008 C 
ATOM     27  C   UNL A   1      30.991  29.431  24.442  1.00  0.00     0.032 C 
ATOM     28  C   UNL A   1      31.937  29.202  25.598  1.00  0.00    -0.062 C 
ATOM     29  C   UNL A   1      33.426  27.446  26.432  1.00  0.00     0.018 C 
ATOM     30  C   UNL A   1      31.377  28.098  27.771  1.00  0.00     0.016 C 
ATOM     31  C   UNL A   1      32.836  30.176  25.891  1.00  0.00     0.027 C 
ATOM     32  C   UNL A   1      34.381  28.471  27.019  1.00  0.00     0.061 C 
ATOM     33  C   UNL A   1      33.976  29.919  26.822  1.00  0.00     0.080 C 
BRANCH  19  34
ATOM     34  O   UNL A   1      33.954  23.683  22.392  1.00  0.00    -0.393 OA
ATOM     35  H   UNL A   1      34.901  23.759  22.196  1.00  0.00     0.210 HD
ENDBRANCH  19  34
ENDBRANCH  13  14
ENDBRANCH  12  13
ENDBRANCH  10  12
ENDBRANCH   6  10
ENDBRANCH   3   5
ENDBRANCH   2   3
ENDBRANCH   1   2
BRANCH   1  36
ATOM     36  C   UNL A   1      37.045  31.800  33.278  1.00  0.00     0.275 C 
BRANCH  36  37
ATOM     37  O   UNL A   1      36.829  30.940  32.148  1.00  0.00    -0.458 OA
BRANCH  37  38
ATOM     38  C   UNL A   1      37.529  29.789  32.198  1.00  0.00     0.338 C 
ATOM     39  O   UNL A   1      37.133  28.696  32.580  1.00  0.00    -0.246 OA
BRANCH  38  40
ATOM     40  C   UNL A   1      38.867  29.973  31.631  1.00  0.00     0.060 A 
ATOM     41  C   UNL A   1      38.955  30.312  30.284  1.00  0.00     0.016 A 
ATOM     42  C   UNL A   1      40.002  29.593  32.341  1.00  0.00     0.016 A 
ATOM     43  C   UNL A   1      40.150  30.177  29.601  1.00  0.00     0.010 A 
ATOM     44  C   UNL A   1      41.225  29.510  31.668  1.00  0.00     0.010 A 
ATOM     45  C   UNL A   1      41.291  29.751  30.283  1.00  0.00    -0.014 A 
BRANCH  45  46
ATOM     46  C   UNL A   1      42.514  29.446  29.508  1.00  0.00     0.031 A 
ATOM     47  C   UNL A   1      42.641  28.106  28.840  1.00  0.00     0.074 A 
ATOM     48  C   UNL A   1      43.462  30.386  29.345  1.00  0.00     0.049 A 
ATOM     49  N   UNL A   1      43.677  27.576  28.245  1.00  0.00    -0.248 NA
ATOM     50  C   UNL A   1      41.445  27.244  28.847  1.00  0.00     0.031 C 
ATOM     51  C   UNL A   1      43.397  31.755  29.865  1.00  0.00     0.029 A 
ATOM     52  N   UNL A   1      44.661  30.337  28.684  1.00  0.00    -0.354 N 
ATOM     53  C   UNL A   1      43.279  26.301  27.861  1.00  0.00     0.074 A 
ATOM     54  C   UNL A   1      41.905  26.139  28.278  1.00  0.00     0.031 C 
ATOM     55  C   UNL A   1      44.498  32.420  29.485  1.00  0.00     0.029 A 
ATOM     56  C   UNL A   1      45.378  31.506  28.765  1.00  0.00     0.049 A 
ATOM     57  H   UNL A   1      44.976  29.541  28.199  1.00  0.00     0.167 HD
ATOM     58  C   UNL A   1      44.006  25.350  27.229  1.00  0.00     0.031 A 
ATOM     59  C   UNL A   1      46.624  31.792  28.345  1.00  0.00     0.031 A 
ATOM     60  C   UNL A   1      45.364  25.544  26.793  1.00  0.00     0.049 A 
ATOM     61  C   UNL A   1      47.426  30.712  27.680  1.00  0.00     0.074 A 
ATOM     62  C   UNL A   1      46.206  24.645  26.163  1.00  0.00     0.029 A 
ATOM     63  N   UNL A   1      46.069  26.730  26.928  1.00  0.00    -0.354 N 
ATOM     64  N   UNL A   1      47.072  29.478  27.404  1.00  0.00    -0.248 NA
ATOM     65  C   UNL A   1      48.796  31.053  27.283  1.00  0.00     0.031 C 
ATOM     66  C   UNL A   1      47.433  25.282  25.943  1.00  0.00     0.029 A 
ATOM     67  C   UNL A   1      47.340  26.587  26.399  1.00  0.00     0.049 A 
ATOM     68  H   UNL A   1      45.718  27.554  27.338  1.00  0.00     0.167 HD
ATOM     69  C   UNL A   1      48.178  28.894  26.802  1.00  0.00     0.074 A 
ATOM     70  C   UNL A   1      49.203  29.919  26.732  1.00  0.00     0.031 C 
ATOM     71  C   UNL A   1      48.338  27.624  26.354  1.00  0.00     0.031 A 
BRANCH  58  72
ATOM     72  C   UNL A   1      43.366  24.004  27.032  1.00  0.00    -0.014 A 
ATOM     73  C   UNL A   1      43.007  23.536  25.756  1.00  0.00     0.010 A 
ATOM     74  C   UNL A   1      43.130  23.185  28.152  1.00  0.00     0.010 A 
ATOM     75  C   UNL A   1      42.390  22.290  25.607  1.00  0.00     0.020 A 
ATOM     76  C   UNL A   1      42.534  21.930  28.006  1.00  0.00     0.020 A 
ATOM     77  C   UNL A   1      42.151  21.497  26.735  1.00  0.00     0.054 A 
BRANCH  77  78
ATOM     78  S   UNL A   1      41.362  19.877  26.520  1.00  0.00     0.124 S 
ATOM     79  O   UNL A   1      39.969  20.249  26.288  1.00  0.00    -0.237 OA
ATOM     80  O   UNL A   1      42.065  19.325  25.365  1.00  0.00    -0.237 OA
ATOM     81  O   UNL A   1      41.623  19.196  27.785  1.00  0.00    -0.744 OA
ENDBRANCH  77  78
ENDBRANCH  58  72
BRANCH  59  82
ATOM     82  C   UNL A   1      47.195  33.138  28.605  1.00  0.00    -0.014 A 
ATOM     83  C   UNL A   1      47.921  33.396  29.780  1.00  0.00     0.010 A 
ATOM     84  C   UNL A   1      47.057  34.160  27.647  1.00  0.00     0.010 A 
ATOM     85  C   UNL A   1      48.501  34.651  29.992  1.00  0.00     0.020 A 
ATOM     86  C   UNL A   1      47.657  35.407  27.842  1.00  0.00     0.020 A 
ATOM     87  C   UNL A   1      48.370  35.647  29.018  1.00  0.00     0.054 A 
BRANCH  87  88
ATOM     88  S   UNL A   1      49.205  37.239  29.265  1.00  0.00     0.124 S 
ATOM     89  O   UNL A   1      49.760  37.499  27.941  1.00  0.00    -0.237 OA
ATOM     90  O   UNL A   1      48.110  38.115  29.677  1.00  0.00    -0.237 OA
ATOM     91  O   UNL A   1      50.183  36.949  30.311  1.00  0.00    -0.744 OA
ENDBRANCH  87  88
ENDBRANCH  59  82
BRANCH  71  92
ATOM     92  C   UNL A   1      49.665  27.289  25.737  1.00  0.00    -0.014 A 
ATOM     93  C   UNL A   1      49.890  27.479  24.363  1.00  0.00     0.010 A 
ATOM     94  C   UNL A   1      50.706  26.807  26.550  1.00  0.00     0.010 A 
ATOM     95  C   UNL A   1      51.128  27.160  23.804  1.00  0.00     0.020 A 
ATOM     96  C   UNL A   1      51.952  26.506  25.998  1.00  0.00     0.020 A 
ATOM     97  C   UNL A   1      52.149  26.669  24.624  1.00  0.00     0.054 A 
BRANCH  97  98
ATOM     98  S   UNL A   1      53.760  26.285  23.884  1.00  0.00     0.124 S 
ATOM     99  O   UNL A   1      54.511  27.510  24.142  1.00  0.00    -0.237 OA
ATOM    100  O   UNL A   1      54.192  25.111  24.638  1.00  0.00    -0.237 OA
ATOM    101  O   UNL A   1      53.441  26.031  22.480  1.00  0.00    -0.744 OA
ENDBRANCH  97  98
ENDBRANCH  71  92
ENDBRANCH  45  46
ENDBRANCH  38  40
ENDBRANCH  37  38
ENDBRANCH  36  37
ENDBRANCH   1  36
TORSDOF 19
ENDMDL
MODEL 3
REMARK VINA RESULT:     -12.0      1.681      2.218
REMARK SMILES C[C@]12CC[C@@H]3[C@@H](CCC4=C/C(=N\OCC(=O)N5CCC[C@@H]5C(=O)OCCOC(=O)c5ccc(-c6c7nc(c(-c8ccc(S(=O)(=O)[O-])cc8)c8ccc([nH]8)c(-c8ccc(S(=O)(=O)[O-])cc8)c8nc(c(-c9ccc(S(=O)(=O)[O-])cc9)c9ccc6[nH]9)C=C8)C=C7)cc5)CC[C@@]43C)[C@@H]1CC[C@@H]2O
REMARK SMILES IDX 25 1 24 2 22 3 23 4 21 5 17 6 18 7 19 8 20 9 15 10 16 11
REMARK SMILES IDX 14 12 13 13 12 14 1 15 2 16 3 17 94 18 97 19 4 20 6 21 95 22
REMARK SMILES IDX 96 23 5 24 7 25 92 26 8 27 9 28 91 29 93 30 10 31 90 32
REMARK SMILES IDX 11 33 98 34 26 36 27 37 28 38 29 39 30 40 31 41 89 42 32 43
REMARK SMILES IDX 88 44 33 45 34 46 35 47 82 48 36 49 87 50 81 51 83 52 37 53
REMARK SMILES IDX 86 54 80 55 79 56 38 58 68 59 49 60 67 61 50 62 53 63 66 64
REMARK SMILES IDX 84 65 51 66 52 67 65 69 85 70 54 71 39 72 40 73 48 74 41 75
REMARK SMILES IDX 47 76 42 77 43 78 44 79 45 80 46 81 69 82 70 83 78 84 71 85
REMARK SMILES IDX 77 86 72 87 73 88 74 89 75 90 76 91 55 92 56 93 64 94 57 95
REMARK SMILES IDX 63 96 58 97 59 98 60 99 61 100 62 101
REMARK H PARENT 98 35 83 57 53 68
REMARK Flexibility Score: inf
ROOT
ATOM      1  C   UNL A   1      44.245  23.737  25.874  1.00  0.00     0.274 C 
ENDROOT
BRANCH   1   2
ATOM      2  O   UNL A   1      44.739  22.896  24.819  1.00  0.00    -0.461 OA
BRANCH   2   3
ATOM      3  C   UNL A   1      45.056  21.616  25.171  1.00  0.00     0.328 C 
ATOM      4  O   UNL A   1      46.067  21.294  25.784  1.00  0.00    -0.250 OA
BRANCH   3   5
ATOM      5  C   UNL A   1      43.987  20.590  24.764  1.00  0.00     0.195 C 
ATOM      6  N   UNL A   1      43.203  20.109  25.894  1.00  0.00    -0.326 N 
ATOM      7  C   UNL A   1      43.605  18.762  26.280  1.00  0.00     0.120 C 
ATOM      8  C   UNL A   1      44.831  18.453  25.434  1.00  0.00     0.024 C 
ATOM      9  C   UNL A   1      44.609  19.313  24.197  1.00  0.00     0.039 C 
BRANCH   6  10
ATOM     10  C   UNL A   1      42.195  20.783  26.540  1.00  0.00     0.264 C 
ATOM     11  O   UNL A   1      42.339  21.133  27.720  1.00  0.00    -0.271 OA
BRANCH  10  12
ATOM     12  C   UNL A   1      40.824  21.012  25.848  1.00  0.00     0.363 C 
BRANCH  12  13
ATOM     13  O   UNL A   1      39.590  21.133  26.543  1.00  0.00    -0.385 OA
BRANCH  13  14
ATOM     14  N   UNL A   1      39.090  22.427  26.359  1.00  0.00    -0.091 NA
ATOM     15  C   UNL A   1      30.830  24.480  24.097  1.00  0.00     0.014 C 
ATOM     16  C   UNL A   1      32.098  24.332  24.981  1.00  0.00    -0.003 C 
ATOM     17  C   UNL A   1      33.187  25.201  24.344  1.00  0.00     0.010 C 
ATOM     18  C   UNL A   1      32.589  22.875  25.196  1.00  0.00     0.001 C 
ATOM     19  C   UNL A   1      31.773  24.654  26.452  1.00  0.00     0.120 C 
ATOM     20  C   UNL A   1      33.815  24.519  23.113  1.00  0.00     0.005 C 
ATOM     21  C   UNL A   1      33.071  22.212  23.913  1.00  0.00    -0.003 C 
ATOM     22  C   UNL A   1      31.450  22.254  26.004  1.00  0.00     0.007 C 
ATOM     23  C   UNL A   1      30.979  23.414  26.913  1.00  0.00     0.032 C 
ATOM     24  C   UNL A   1      34.232  23.036  23.317  1.00  0.00     0.002 C 
ATOM     25  C   UNL A   1      33.499  20.748  24.016  1.00  0.00     0.008 C 
ATOM     26  C   UNL A   1      35.651  22.836  24.011  1.00  0.00    -0.008 C 
ATOM     27  C   UNL A   1      34.771  20.479  24.817  1.00  0.00     0.032 C 
ATOM     28  C   UNL A   1      35.843  21.545  24.818  1.00  0.00    -0.062 C 
ATOM     29  C   UNL A   1      36.009  23.982  24.990  1.00  0.00     0.018 C 
ATOM     30  C   UNL A   1      36.657  22.826  22.831  1.00  0.00     0.016 C 
ATOM     31  C   UNL A   1      36.924  21.363  25.619  1.00  0.00     0.027 C 
ATOM     32  C   UNL A   1      37.359  23.887  25.679  1.00  0.00     0.061 C 
ATOM     33  C   UNL A   1      37.879  22.479  25.891  1.00  0.00     0.080 C 
BRANCH  19  34
ATOM     34  O   UNL A   1      31.056  25.853  26.642  1.00  0.00    -0.393 OA
ATOM     35  H   UNL A   1      31.611  26.490  27.118  1.00  0.00     0.210 HD
ENDBRANCH  19  34
ENDBRANCH  13  14
ENDBRANCH  12  13
ENDBRANCH  10  12
ENDBRANCH   6  10
ENDBRANCH   3   5
ENDBRANCH   2   3
ENDBRANCH   1   2
BRANCH   1  36
ATOM     36  C   UNL A   1      42.802  24.206  25.710  1.00  0.00     0.275 C 
BRANCH  36  37
ATOM     37  O   UNL A   1      42.718  25.637  25.625  1.00  0.00    -0.458 OA
BRANCH  37  38
ATOM     38  C   UNL A   1      41.563  26.144  26.103  1.00  0.00     0.338 C 
ATOM     39  O   UNL A   1      40.462  26.109  25.570  1.00  0.00    -0.246 OA
BRANCH  38  40
ATOM     40  C   UNL A   1      41.756  26.698  27.445  1.00  0.00     0.060 A 
ATOM     41  C   UNL A   1      40.986  26.168  28.477  1.00  0.00     0.016 A 
ATOM     42  C   UNL A   1      42.499  27.859  27.639  1.00  0.00     0.016 A 
ATOM     43  C   UNL A   1      40.861  26.842  29.678  1.00  0.00     0.010 A 
ATOM     44  C   UNL A   1      42.421  28.513  28.873  1.00  0.00     0.010 A 
ATOM     45  C   UNL A   1      41.560  28.034  29.877  1.00  0.00    -0.014 A 
BRANCH  45  46
ATOM     46  C   UNL A   1      41.283  28.829  31.094  1.00  0.00     0.031 A 
ATOM     47  C   UNL A   1      40.108  29.767  31.104  1.00  0.00     0.074 A 
ATOM     48  C   UNL A   1      42.030  28.655  32.199  1.00  0.00     0.049 A 
ATOM     49  N   UNL A   1      39.774  30.660  31.996  1.00  0.00    -0.248 NA
ATOM     50  C   UNL A   1      39.191  29.694  29.952  1.00  0.00     0.031 C 
ATOM     51  C   UNL A   1      43.133  27.700  32.335  1.00  0.00     0.029 A 
ATOM     52  N   UNL A   1      41.967  29.269  33.422  1.00  0.00    -0.354 N 
ATOM     53  C   UNL A   1      38.646  31.295  31.489  1.00  0.00     0.074 A 
ATOM     54  C   UNL A   1      38.344  30.679  30.217  1.00  0.00     0.031 C 
ATOM     55  C   UNL A   1      43.628  27.777  33.579  1.00  0.00     0.029 A 
ATOM     56  C   UNL A   1      42.932  28.837  34.299  1.00  0.00     0.049 A 
ATOM     57  H   UNL A   1      41.295  29.951  33.649  1.00  0.00     0.167 HD
ATOM     58  C   UNL A   1      37.938  32.311  32.036  1.00  0.00     0.031 A 
ATOM     59  C   UNL A   1      43.249  29.281  35.530  1.00  0.00     0.031 A 
ATOM     60  C   UNL A   1      38.236  32.889  33.320  1.00  0.00     0.049 A 
ATOM     61  C   UNL A   1      42.475  30.433  36.102  1.00  0.00     0.074 A 
ATOM     62  C   UNL A   1      37.602  33.936  33.964  1.00  0.00     0.029 A 
ATOM     63  N   UNL A   1      39.246  32.451  34.162  1.00  0.00    -0.354 N 
ATOM     64  N   UNL A   1      41.468  31.088  35.573  1.00  0.00    -0.248 NA
ATOM     65  C   UNL A   1      42.887  30.916  37.424  1.00  0.00     0.031 C 
ATOM     66  C   UNL A   1      38.250  34.149  35.187  1.00  0.00     0.029 A 
ATOM     67  C   UNL A   1      39.260  33.210  35.319  1.00  0.00     0.049 A 
ATOM     68  H   UNL A   1      39.863  31.708  33.967  1.00  0.00     0.167 HD
ATOM     69  C   UNL A   1      41.126  32.064  36.500  1.00  0.00     0.074 A 
ATOM     70  C   UNL A   1      42.018  31.895  37.631  1.00  0.00     0.031 C 
ATOM     71  C   UNL A   1      40.167  33.020  36.422  1.00  0.00     0.031 A 
BRANCH  58  72
ATOM     72  C   UNL A   1      36.820  32.896  31.218  1.00  0.00    -0.014 A 
ATOM     73  C   UNL A   1      35.471  32.691  31.558  1.00  0.00     0.010 A 
ATOM     74  C   UNL A   1      37.130  33.679  30.091  1.00  0.00     0.010 A 
ATOM     75  C   UNL A   1      34.453  33.227  30.763  1.00  0.00     0.020 A 
ATOM     76  C   UNL A   1      36.117  34.235  29.307  1.00  0.00     0.020 A 
ATOM     77  C   UNL A   1      34.782  33.991  29.638  1.00  0.00     0.054 A 
BRANCH  77  78
ATOM     78  S   UNL A   1      33.446  34.690  28.628  1.00  0.00     0.124 S 
ATOM     79  O   UNL A   1      32.454  35.037  29.642  1.00  0.00    -0.237 OA
ATOM     80  O   UNL A   1      34.095  35.821  27.970  1.00  0.00    -0.237 OA
ATOM     81  O   UNL A   1      33.073  33.591  27.742  1.00  0.00    -0.744 OA
ENDBRANCH  77  78
ENDBRANCH  58  72
BRANCH  59  82
ATOM     82  C   UNL A   1      44.388  28.669  36.261  1.00  0.00    -0.014 A 
ATOM     83  C   UNL A   1      45.676  29.225  36.180  1.00  0.00     0.010 A 
ATOM     84  C   UNL A   1      44.177  27.548  37.086  1.00  0.00     0.010 A 
ATOM     85  C   UNL A   1      46.731  28.674  36.914  1.00  0.00     0.020 A 
ATOM     86  C   UNL A   1      45.222  27.010  37.841  1.00  0.00     0.020 A 
ATOM     87  C   UNL A   1      46.496  27.573  37.744  1.00  0.00     0.054 A 
BRANCH  87  88
ATOM     88  S   UNL A   1      47.854  26.926  38.760  1.00  0.00     0.124 S 
ATOM     89  O   UNL A   1      48.787  28.048  38.768  1.00  0.00    -0.237 OA
ATOM     90  O   UNL A   1      47.194  26.641  40.033  1.00  0.00    -0.237 OA
ATOM     91  O   UNL A   1      48.295  25.745  38.021  1.00  0.00    -0.744 OA
ENDBRANCH  87  88
ENDBRANCH  59  82
BRANCH  71  92
ATOM     92  C   UNL A   1      40.032  33.939  37.601  1.00  0.00    -0.014 A 
ATOM     93  C   UNL A   1      39.250  33.575  38.711  1.00  0.00     0.010 A 
ATOM     94  C   UNL A   1      40.721  35.164  37.610  1.00  0.00     0.010 A 
ATOM     95  C   UNL A   1      39.133  34.441  39.800  1.00  0.00     0.020 A 
ATOM     96  C   UNL A   1      40.621  36.023  38.705  1.00  0.00     0.020 A 
ATOM     97  C   UNL A   1      39.814  35.662  39.786  1.00  0.00     0.054 A 
BRANCH  97  98
ATOM     98  S   UNL A   1      39.670  36.762  41.221  1.00  0.00     0.124 S 
ATOM     99  O   UNL A   1      38.851  35.967  42.131  1.00  0.00    -0.237 OA
ATOM    100  O   UNL A   1      41.061  36.951  41.627  1.00  0.00    -0.237 OA
ATOM    101  O   UNL A   1      39.021  37.954  40.677  1.00  0.00    -0.744 OA
ENDBRANCH  97  98
ENDBRANCH  71  92
ENDBRANCH  45  46
ENDBRANCH  38  40
ENDBRANCH  37  38
ENDBRANCH  36  37
ENDBRANCH   1  36
TORSDOF 19
ENDMDL
