MODEL 1
REMARK VINA RESULT:      -9.9      0.000      0.000
REMARK SMILES C[C@@]1(C(=O)N[C@@H](CO)C(=O)OCCOC(=O)c2ccc(-c3c4nc(c(-c5ccc(S(=O)(=O)[O-])cc5)c5ccc([nH]5)c(-c5ccc(S(=O)(=O)[O-])cc5)c5nc(c(-c6ccc(S(=O)(=O)[O-])cc6)c6ccc3[nH]6)C=C5)C=C4)cc2)CCCO1
REMARK SMILES IDX 13 1 12 2 11 3 9 4 10 5 6 6 5 7 3 8 4 9 2 11 1 12 77 13
REMARK SMILES IDX 80 14 78 15 79 16 7 17 8 18 14 20 15 21 16 22 17 23 18 24
REMARK SMILES IDX 76 25 19 26 75 27 20 28 21 29 22 30 69 31 23 32 74 33 68 34
REMARK SMILES IDX 70 35 24 36 73 37 67 38 66 39 25 41 55 42 36 43 54 44 37 45
REMARK SMILES IDX 40 46 53 47 71 48 38 49 39 50 52 52 72 53 41 54 26 55 27 56
REMARK SMILES IDX 35 57 28 58 34 59 29 60 30 61 31 62 32 63 33 64 56 65 57 66
REMARK SMILES IDX 65 67 58 68 64 69 59 70 60 71 61 72 62 73 63 74 42 75 43 76
REMARK SMILES IDX 51 77 44 78 50 79 45 80 46 81 47 82 48 83 49 84
REMARK H PARENT 5 10 8 19 70 40 40 51
REMARK Flexibility Score: inf
ROOT
ATOM      1  C   UNL A   1      32.865  30.813  26.849  1.00  0.00     0.275 C 
ENDROOT
BRANCH   1   2
ATOM      2  C   UNL A   1      31.804  29.850  26.335  1.00  0.00     0.274 C 
BRANCH   2   3
ATOM      3  O   UNL A   1      31.991  29.648  24.920  1.00  0.00    -0.460 OA
BRANCH   3   4
ATOM      4  C   UNL A   1      30.893  29.246  24.219  1.00  0.00     0.331 C 
ATOM      5  O   UNL A   1      29.985  29.983  23.850  1.00  0.00    -0.250 OA
BRANCH   4   6
ATOM      6  C   UNL A   1      30.888  27.734  23.974  1.00  0.00     0.218 C 
BRANCH   6   7
ATOM      7  N   UNL A   1      30.156  26.987  25.002  1.00  0.00    -0.338 N 
ATOM      8  C   UNL A   1      30.519  25.887  25.724  1.00  0.00     0.252 C 
ATOM      9  O   UNL A   1      29.662  25.420  26.479  1.00  0.00    -0.272 OA
ATOM     10  H   UNL A   1      29.257  27.335  25.205  1.00  0.00     0.164 HD
BRANCH   8  11
ATOM     11  C   UNL A   1      31.957  25.294  25.631  1.00  0.00     0.143 C 
ATOM     12  C   UNL A   1      32.046  24.031  26.500  1.00  0.00     0.053 C 
ATOM     13  C   UNL A   1      33.016  26.302  26.088  1.00  0.00     0.048 C 
ATOM     14  O   UNL A   1      32.301  24.934  24.281  1.00  0.00    -0.365 OA
ATOM     15  C   UNL A   1      34.055  26.323  24.983  1.00  0.00     0.032 C 
ATOM     16  C   UNL A   1      33.712  25.131  24.125  1.00  0.00     0.162 C 
ENDBRANCH   8  11
ENDBRANCH   6   7
BRANCH   6  17
ATOM     17  C   UNL A   1      30.305  27.473  22.582  1.00  0.00     0.193 C 
BRANCH  17  18
ATOM     18  O   UNL A   1      30.725  28.476  21.650  1.00  0.00    -0.394 OA
ATOM     19  H   UNL A   1      30.736  29.341  22.089  1.00  0.00     0.210 HD
ENDBRANCH  17  18
ENDBRANCH   6  17
ENDBRANCH   4   6
ENDBRANCH   3   4
ENDBRANCH   2   3
ENDBRANCH   1   2
BRANCH   1  20
ATOM     20  O   UNL A   1      33.527  30.216  27.980  1.00  0.00    -0.458 OA
BRANCH  20  21
ATOM     21  C   UNL A   1      34.491  30.971  28.555  1.00  0.00     0.338 C 
ATOM     22  O   UNL A   1      34.367  32.098  29.005  1.00  0.00    -0.246 OA
BRANCH  21  23
ATOM     23  C   UNL A   1      35.774  30.236  28.578  1.00  0.00     0.060 A 
ATOM     24  C   UNL A   1      36.282  29.704  29.762  1.00  0.00     0.016 A 
ATOM     25  C   UNL A   1      36.547  30.200  27.415  1.00  0.00     0.016 A 
ATOM     26  C   UNL A   1      37.607  29.255  29.803  1.00  0.00     0.010 A 
ATOM     27  C   UNL A   1      37.839  29.660  27.447  1.00  0.00     0.010 A 
ATOM     28  C   UNL A   1      38.420  29.245  28.656  1.00  0.00    -0.014 A 
BRANCH  28  29
ATOM     29  C   UNL A   1      39.880  28.904  28.729  1.00  0.00     0.031 A 
ATOM     30  C   UNL A   1      40.875  29.911  29.274  1.00  0.00     0.074 A 
ATOM     31  C   UNL A   1      40.353  27.696  28.355  1.00  0.00     0.049 A 
ATOM     32  N   UNL A   1      42.185  29.902  29.206  1.00  0.00    -0.248 NA
ATOM     33  C   UNL A   1      40.329  31.091  29.965  1.00  0.00     0.031 C 
ATOM     34  C   UNL A   1      39.551  26.579  27.854  1.00  0.00     0.029 A 
ATOM     35  N   UNL A   1      41.635  27.197  28.365  1.00  0.00    -0.354 N 
ATOM     36  C   UNL A   1      42.607  31.117  29.738  1.00  0.00     0.074 A 
ATOM     37  C   UNL A   1      41.416  31.826  30.156  1.00  0.00     0.031 C 
ATOM     38  C   UNL A   1      40.341  25.507  27.690  1.00  0.00     0.029 A 
ATOM     39  C   UNL A   1      41.724  25.885  27.963  1.00  0.00     0.049 A 
ATOM     40  H   UNL A   1      42.417  27.731  28.635  1.00  0.00     0.167 HD
ATOM     41  C   UNL A   1      43.865  31.609  29.855  1.00  0.00     0.031 A 
ATOM     42  C   UNL A   1      42.789  25.078  27.790  1.00  0.00     0.031 A 
ATOM     43  C   UNL A   1      45.064  30.876  29.542  1.00  0.00     0.049 A 
ATOM     44  C   UNL A   1      44.178  25.616  27.982  1.00  0.00     0.074 A 
ATOM     45  C   UNL A   1      46.381  31.297  29.631  1.00  0.00     0.029 A 
ATOM     46  N   UNL A   1      45.096  29.555  29.124  1.00  0.00    -0.354 N 
ATOM     47  N   UNL A   1      44.551  26.816  28.351  1.00  0.00    -0.248 NA
ATOM     48  C   UNL A   1      45.290  24.696  27.698  1.00  0.00     0.031 C 
ATOM     49  C   UNL A   1      47.210  30.234  29.253  1.00  0.00     0.029 A 
ATOM     50  C   UNL A   1      46.409  29.144  28.962  1.00  0.00     0.049 A 
ATOM     51  H   UNL A   1      44.304  28.993  28.966  1.00  0.00     0.167 HD
ATOM     52  C   UNL A   1      45.941  26.803  28.322  1.00  0.00     0.074 A 
ATOM     53  C   UNL A   1      46.344  25.464  27.940  1.00  0.00     0.031 C 
ATOM     54  C   UNL A   1      46.805  27.817  28.569  1.00  0.00     0.031 A 
BRANCH  41  55
ATOM     55  C   UNL A   1      44.014  33.041  30.293  1.00  0.00    -0.014 A 
ATOM     56  C   UNL A   1      44.270  33.388  31.630  1.00  0.00     0.010 A 
ATOM     57  C   UNL A   1      43.939  34.059  29.323  1.00  0.00     0.010 A 
ATOM     58  C   UNL A   1      44.409  34.731  31.996  1.00  0.00     0.020 A 
ATOM     59  C   UNL A   1      44.100  35.400  29.680  1.00  0.00     0.020 A 
ATOM     60  C   UNL A   1      44.315  35.729  31.020  1.00  0.00     0.054 A 
BRANCH  60  61
ATOM     61  S   UNL A   1      44.520  37.464  31.508  1.00  0.00     0.124 S 
ATOM     62  O   UNL A   1      43.738  37.521  32.741  1.00  0.00    -0.237 OA
ATOM     63  O   UNL A   1      45.965  37.588  31.675  1.00  0.00    -0.237 OA
ATOM     64  O   UNL A   1      43.961  38.206  30.380  1.00  0.00    -0.744 OA
ENDBRANCH  60  61
ENDBRANCH  41  55
BRANCH  42  65
ATOM     65  C   UNL A   1      42.578  23.671  27.357  1.00  0.00    -0.014 A 
ATOM     66  C   UNL A   1      42.601  23.338  25.992  1.00  0.00     0.010 A 
ATOM     67  C   UNL A   1      42.397  22.653  28.310  1.00  0.00     0.010 A 
ATOM     68  C   UNL A   1      42.460  22.007  25.589  1.00  0.00     0.020 A 
ATOM     69  C   UNL A   1      42.283  21.320  27.913  1.00  0.00     0.020 A 
ATOM     70  C   UNL A   1      42.311  21.006  26.552  1.00  0.00     0.054 A 
BRANCH  70  71
ATOM     71  S   UNL A   1      42.241  19.270  26.026  1.00  0.00     0.124 S 
ATOM     72  O   UNL A   1      40.837  19.122  25.659  1.00  0.00    -0.237 OA
ATOM     73  O   UNL A   1      43.194  19.229  24.918  1.00  0.00    -0.237 OA
ATOM     74  O   UNL A   1      42.661  18.543  27.222  1.00  0.00    -0.744 OA
ENDBRANCH  70  71
ENDBRANCH  42  65
BRANCH  54  75
ATOM     75  C   UNL A   1      48.271  27.519  28.435  1.00  0.00    -0.014 A 
ATOM     76  C   UNL A   1      48.977  26.898  29.481  1.00  0.00     0.010 A 
ATOM     77  C   UNL A   1      48.947  27.840  27.245  1.00  0.00     0.010 A 
ATOM     78  C   UNL A   1      50.342  26.633  29.352  1.00  0.00     0.020 A 
ATOM     79  C   UNL A   1      50.310  27.563  27.107  1.00  0.00     0.020 A 
ATOM     80  C   UNL A   1      51.003  26.976  28.168  1.00  0.00     0.054 A 
BRANCH  80  81
ATOM     81  S   UNL A   1      52.773  26.608  28.012  1.00  0.00     0.124 S 
ATOM     82  O   UNL A   1      52.761  25.412  27.174  1.00  0.00    -0.237 OA
ATOM     83  O   UNL A   1      53.301  27.814  27.378  1.00  0.00    -0.237 OA
ATOM     84  O   UNL A   1      53.204  26.398  29.392  1.00  0.00    -0.744 OA
ENDBRANCH  80  81
ENDBRANCH  54  75
ENDBRANCH  28  29
ENDBRANCH  21  23
ENDBRANCH  20  21
ENDBRANCH   1  20
TORSDOF 18
ENDMDL
MODEL 2
REMARK VINA RESULT:      -9.7      4.995     11.938
REMARK SMILES C[C@@]1(C(=O)N[C@@H](CO)C(=O)OCCOC(=O)c2ccc(-c3c4nc(c(-c5ccc(S(=O)(=O)[O-])cc5)c5ccc([nH]5)c(-c5ccc(S(=O)(=O)[O-])cc5)c5nc(c(-c6ccc(S(=O)(=O)[O-])cc6)c6ccc3[nH]6)C=C5)C=C4)cc2)CCCO1
REMARK SMILES IDX 13 1 12 2 11 3 9 4 10 5 6 6 5 7 3 8 4 9 2 11 1 12 77 13
REMARK SMILES IDX 80 14 78 15 79 16 7 17 8 18 14 20 15 21 16 22 17 23 18 24
REMARK SMILES IDX 76 25 19 26 75 27 20 28 21 29 22 30 69 31 23 32 74 33 68 34
REMARK SMILES IDX 70 35 24 36 73 37 67 38 66 39 25 41 55 42 36 43 54 44 37 45
REMARK SMILES IDX 40 46 53 47 71 48 38 49 39 50 52 52 72 53 41 54 26 55 27 56
REMARK SMILES IDX 35 57 28 58 34 59 29 60 30 61 31 62 32 63 33 64 56 65 57 66
REMARK SMILES IDX 65 67 58 68 64 69 59 70 60 71 61 72 62 73 63 74 42 75 43 76
REMARK SMILES IDX 51 77 44 78 50 79 45 80 46 81 47 82 48 83 49 84
REMARK H PARENT 5 10 8 19 70 40 40 51
REMARK Flexibility Score: inf
ROOT
ATOM      1  C   UNL A   1      40.899  20.204  26.562  1.00  0.00     0.275 C 
ENDROOT
BRANCH   1   2
ATOM      2  C   UNL A   1      42.242  19.530  26.319  1.00  0.00     0.274 C 
BRANCH   2   3
ATOM      3  O   UNL A   1      42.931  20.213  25.253  1.00  0.00    -0.460 OA
BRANCH   3   4
ATOM      4  C   UNL A   1      44.140  19.699  24.890  1.00  0.00     0.331 C 
ATOM      5  O   UNL A   1      44.340  18.533  24.570  1.00  0.00    -0.250 OA
BRANCH   4   6
ATOM      6  C   UNL A   1      45.257  20.743  24.969  1.00  0.00     0.218 C 
BRANCH   6   7
ATOM      7  N   UNL A   1      45.310  21.432  26.263  1.00  0.00    -0.338 N 
ATOM      8  C   UNL A   1      45.384  22.763  26.554  1.00  0.00     0.252 C 
ATOM      9  O   UNL A   1      45.491  23.058  27.748  1.00  0.00    -0.272 OA
ATOM     10  H   UNL A   1      45.289  20.838  27.048  1.00  0.00     0.164 HD
BRANCH   8  11
ATOM     11  C   UNL A   1      45.284  23.845  25.438  1.00  0.00     0.143 C 
ATOM     12  C   UNL A   1      44.199  23.440  24.428  1.00  0.00     0.053 C 
ATOM     13  C   UNL A   1      46.618  24.028  24.705  1.00  0.00     0.048 C 
ATOM     14  O   UNL A   1      44.940  25.136  25.972  1.00  0.00    -0.365 OA
ATOM     15  C   UNL A   1      46.878  25.521  24.710  1.00  0.00     0.032 C 
ATOM     16  C   UNL A   1      45.570  26.128  25.152  1.00  0.00     0.162 C 
ENDBRANCH   8  11
ENDBRANCH   6   7
BRANCH   6  17
ATOM     17  C   UNL A   1      46.587  20.051  24.657  1.00  0.00     0.193 C 
BRANCH  17  18
ATOM     18  O   UNL A   1      46.826  18.963  25.557  1.00  0.00    -0.394 OA
ATOM     19  H   UNL A   1      46.709  18.123  25.087  1.00  0.00     0.210 HD
ENDBRANCH  17  18
ENDBRANCH   6  17
ENDBRANCH   4   6
ENDBRANCH   3   4
ENDBRANCH   2   3
ENDBRANCH   1   2
BRANCH   1  20
ATOM     20  O   UNL A   1      41.068  21.630  26.455  1.00  0.00    -0.458 OA
BRANCH  20  21
ATOM     21  C   UNL A   1      39.943  22.331  26.182  1.00  0.00     0.338 C 
ATOM     22  O   UNL A   1      38.970  21.938  25.562  1.00  0.00    -0.246 OA
BRANCH  21  23
ATOM     23  C   UNL A   1      40.035  23.693  26.751  1.00  0.00     0.060 A 
ATOM     24  C   UNL A   1      41.143  24.504  26.509  1.00  0.00     0.016 A 
ATOM     25  C   UNL A   1      39.055  24.111  27.654  1.00  0.00     0.016 A 
ATOM     26  C   UNL A   1      41.324  25.668  27.267  1.00  0.00     0.010 A 
ATOM     27  C   UNL A   1      39.201  25.324  28.338  1.00  0.00     0.010 A 
ATOM     28  C   UNL A   1      40.372  26.089  28.211  1.00  0.00    -0.014 A 
BRANCH  28  29
ATOM     29  C   UNL A   1      40.632  27.250  29.127  1.00  0.00     0.031 A 
ATOM     30  C   UNL A   1      41.922  27.325  29.922  1.00  0.00     0.074 A 
ATOM     31  C   UNL A   1      39.761  28.275  29.248  1.00  0.00     0.049 A 
ATOM     32  N   UNL A   1      42.231  28.109  30.926  1.00  0.00    -0.248 NA
ATOM     33  C   UNL A   1      42.993  26.382  29.557  1.00  0.00     0.031 C 
ATOM     34  C   UNL A   1      38.493  28.413  28.531  1.00  0.00     0.029 A 
ATOM     35  N   UNL A   1      39.830  29.419  30.010  1.00  0.00    -0.354 N 
ATOM     36  C   UNL A   1      43.475  27.680  31.381  1.00  0.00     0.074 A 
ATOM     37  C   UNL A   1      43.880  26.588  30.521  1.00  0.00     0.031 C 
ATOM     38  C   UNL A   1      37.950  29.606  28.818  1.00  0.00     0.029 A 
ATOM     39  C   UNL A   1      38.769  30.275  29.825  1.00  0.00     0.049 A 
ATOM     40  H   UNL A   1      40.571  29.608  30.630  1.00  0.00     0.167 HD
ATOM     41  C   UNL A   1      44.209  28.138  32.425  1.00  0.00     0.031 A 
ATOM     42  C   UNL A   1      38.455  31.443  30.417  1.00  0.00     0.031 A 
ATOM     43  C   UNL A   1      43.872  29.288  33.222  1.00  0.00     0.049 A 
ATOM     44  C   UNL A   1      39.310  31.974  31.531  1.00  0.00     0.074 A 
ATOM     45  C   UNL A   1      44.559  29.822  34.300  1.00  0.00     0.029 A 
ATOM     46  N   UNL A   1      42.779  30.109  33.001  1.00  0.00    -0.354 N 
ATOM     47  N   UNL A   1      40.408  31.470  32.036  1.00  0.00    -0.248 NA
ATOM     48  C   UNL A   1      38.858  33.214  32.180  1.00  0.00     0.031 C 
ATOM     49  C   UNL A   1      43.873  30.961  34.739  1.00  0.00     0.029 A 
ATOM     50  C   UNL A   1      42.778  31.151  33.914  1.00  0.00     0.049 A 
ATOM     51  H   UNL A   1      42.102  29.973  32.299  1.00  0.00     0.167 HD
ATOM     52  C   UNL A   1      40.767  32.319  33.077  1.00  0.00     0.074 A 
ATOM     53  C   UNL A   1      39.794  33.392  33.103  1.00  0.00     0.031 C 
ATOM     54  C   UNL A   1      41.801  32.207  33.946  1.00  0.00     0.031 A 
BRANCH  41  55
ATOM     55  C   UNL A   1      45.436  27.355  32.809  1.00  0.00    -0.014 A 
ATOM     56  C   UNL A   1      46.695  27.619  32.245  1.00  0.00     0.010 A 
ATOM     57  C   UNL A   1      45.323  26.358  33.797  1.00  0.00     0.010 A 
ATOM     58  C   UNL A   1      47.813  26.873  32.634  1.00  0.00     0.020 A 
ATOM     59  C   UNL A   1      46.441  25.626  34.205  1.00  0.00     0.020 A 
ATOM     60  C   UNL A   1      47.677  25.876  33.606  1.00  0.00     0.054 A 
BRANCH  60  61
ATOM     61  S   UNL A   1      49.141  24.933  34.115  1.00  0.00     0.124 S 
ATOM     62  O   UNL A   1      49.316  25.376  35.497  1.00  0.00    -0.237 OA
ATOM     63  O   UNL A   1      48.710  23.548  33.950  1.00  0.00    -0.237 OA
ATOM     64  O   UNL A   1      50.175  25.375  33.183  1.00  0.00    -0.744 OA
ENDBRANCH  60  61
ENDBRANCH  41  55
BRANCH  42  65
ATOM     65  C   UNL A   1      37.230  32.172  29.993  1.00  0.00    -0.014 A 
ATOM     66  C   UNL A   1      36.001  31.925  30.629  1.00  0.00     0.010 A 
ATOM     67  C   UNL A   1      37.297  33.147  28.982  1.00  0.00     0.010 A 
ATOM     68  C   UNL A   1      34.863  32.651  30.269  1.00  0.00     0.020 A 
ATOM     69  C   UNL A   1      36.168  33.893  28.639  1.00  0.00     0.020 A 
ATOM     70  C   UNL A   1      34.955  33.636  29.283  1.00  0.00     0.054 A 
BRANCH  70  71
ATOM     71  S   UNL A   1      33.500  34.652  28.901  1.00  0.00     0.124 S 
ATOM     72  O   UNL A   1      32.802  33.822  27.924  1.00  0.00    -0.237 OA
ATOM     73  O   UNL A   1      32.847  34.784  30.202  1.00  0.00    -0.237 OA
ATOM     74  O   UNL A   1      34.082  35.886  28.379  1.00  0.00    -0.744 OA
ENDBRANCH  70  71
ENDBRANCH  42  65
BRANCH  54  75
ATOM     75  C   UNL A   1      41.933  33.271  34.999  1.00  0.00    -0.014 A 
ATOM     76  C   UNL A   1      41.390  33.082  36.282  1.00  0.00     0.010 A 
ATOM     77  C   UNL A   1      42.626  34.460  34.713  1.00  0.00     0.010 A 
ATOM     78  C   UNL A   1      41.508  34.080  37.253  1.00  0.00     0.020 A 
ATOM     79  C   UNL A   1      42.759  35.454  35.687  1.00  0.00     0.020 A 
ATOM     80  C   UNL A   1      42.184  35.264  36.946  1.00  0.00     0.054 A 
BRANCH  80  81
ATOM     81  S   UNL A   1      42.343  36.542  38.224  1.00  0.00     0.124 S 
ATOM     82  O   UNL A   1      42.772  35.761  39.381  1.00  0.00    -0.237 OA
ATOM     83  O   UNL A   1      43.350  37.440  37.664  1.00  0.00    -0.237 OA
ATOM     84  O   UNL A   1      40.998  37.106  38.316  1.00  0.00    -0.744 OA
ENDBRANCH  80  81
ENDBRANCH  54  75
ENDBRANCH  28  29
ENDBRANCH  21  23
ENDBRANCH  20  21
ENDBRANCH   1  20
TORSDOF 18
ENDMDL
MODEL 3
REMARK VINA RESULT:      -9.5      4.163     11.317
REMARK SMILES C[C@@]1(C(=O)N[C@@H](CO)C(=O)OCCOC(=O)c2ccc(-c3c4nc(c(-c5ccc(S(=O)(=O)[O-])cc5)c5ccc([nH]5)c(-c5ccc(S(=O)(=O)[O-])cc5)c5nc(c(-c6ccc(S(=O)(=O)[O-])cc6)c6ccc3[nH]6)C=C5)C=C4)cc2)CCCO1
REMARK SMILES IDX 13 1 12 2 11 3 9 4 10 5 6 6 5 7 3 8 4 9 2 11 1 12 77 13
REMARK SMILES IDX 80 14 78 15 79 16 7 17 8 18 14 20 15 21 16 22 17 23 18 24
REMARK SMILES IDX 76 25 19 26 75 27 20 28 21 29 22 30 69 31 23 32 74 33 68 34
REMARK SMILES IDX 70 35 24 36 73 37 67 38 66 39 25 41 55 42 36 43 54 44 37 45
REMARK SMILES IDX 40 46 53 47 71 48 38 49 39 50 52 52 72 53 41 54 26 55 27 56
REMARK SMILES IDX 35 57 28 58 34 59 29 60 30 61 31 62 32 63 33 64 56 65 57 66
REMARK SMILES IDX 65 67 58 68 64 69 59 70 60 71 61 72 62 73 63 74 42 75 43 76
REMARK SMILES IDX 51 77 44 78 50 79 45 80 46 81 47 82 48 83 49 84
REMARK H PARENT 5 10 8 19 70 40 40 51
REMARK Flexibility Score: inf
ROOT
ATOM      1  C   UNL A   1      40.284  20.095  25.986  1.00  0.00     0.275 C 
ENDROOT
BRANCH   1   2
ATOM      2  C   UNL A   1      41.507  19.384  26.547  1.00  0.00     0.274 C 
BRANCH   2   3
ATOM      3  O   UNL A   1      42.698  20.061  26.098  1.00  0.00    -0.460 OA
BRANCH   3   4
ATOM      4  C   UNL A   1      43.590  19.308  25.394  1.00  0.00     0.331 C 
ATOM      5  O   UNL A   1      43.535  18.091  25.264  1.00  0.00    -0.250 OA
BRANCH   4   6
ATOM      6  C   UNL A   1      44.721  20.157  24.805  1.00  0.00     0.218 C 
BRANCH   6   7
ATOM      7  N   UNL A   1      45.397  20.989  25.806  1.00  0.00    -0.338 N 
ATOM      8  C   UNL A   1      45.449  22.346  25.940  1.00  0.00     0.252 C 
ATOM      9  O   UNL A   1      46.164  22.780  26.847  1.00  0.00    -0.272 OA
ATOM     10  H   UNL A   1      45.894  20.487  26.492  1.00  0.00     0.164 HD
BRANCH   8  11
ATOM     11  C   UNL A   1      44.606  23.284  25.026  1.00  0.00     0.143 C 
ATOM     12  C   UNL A   1      44.664  22.776  23.577  1.00  0.00     0.053 C 
ATOM     13  C   UNL A   1      45.110  24.730  25.078  1.00  0.00     0.048 C 
ATOM     14  O   UNL A   1      43.225  23.326  25.430  1.00  0.00    -0.365 OA
ATOM     15  C   UNL A   1      43.881  25.576  25.348  1.00  0.00     0.032 C 
ATOM     16  C   UNL A   1      42.723  24.634  25.129  1.00  0.00     0.162 C 
ENDBRANCH   8  11
ENDBRANCH   6   7
BRANCH   6  17
ATOM     17  C   UNL A   1      45.711  19.222  24.104  1.00  0.00     0.193 C 
BRANCH  17  18
ATOM     18  O   UNL A   1      45.240  18.852  22.804  1.00  0.00    -0.394 OA
ATOM     19  H   UNL A   1      45.860  18.223  22.403  1.00  0.00     0.210 HD
ENDBRANCH  17  18
ENDBRANCH   6  17
ENDBRANCH   4   6
ENDBRANCH   3   4
ENDBRANCH   2   3
ENDBRANCH   1   2
BRANCH   1  20
ATOM     20  O   UNL A   1      40.449  21.515  26.163  1.00  0.00    -0.458 OA
BRANCH  20  21
ATOM     21  C   UNL A   1      39.305  22.237  26.166  1.00  0.00     0.338 C 
ATOM     22  O   UNL A   1      38.262  21.958  25.599  1.00  0.00    -0.246 OA
BRANCH  21  23
ATOM     23  C   UNL A   1      39.474  23.464  26.973  1.00  0.00     0.060 A 
ATOM     24  C   UNL A   1      38.702  24.601  26.732  1.00  0.00     0.016 A 
ATOM     25  C   UNL A   1      40.518  23.521  27.899  1.00  0.00     0.016 A 
ATOM     26  C   UNL A   1      39.063  25.817  27.325  1.00  0.00     0.010 A 
ATOM     27  C   UNL A   1      40.810  24.722  28.558  1.00  0.00     0.010 A 
ATOM     28  C   UNL A   1      40.135  25.909  28.229  1.00  0.00    -0.014 A 
BRANCH  28  29
ATOM     29  C   UNL A   1      40.615  27.233  28.749  1.00  0.00     0.031 A 
ATOM     30  C   UNL A   1      42.081  27.440  29.083  1.00  0.00     0.074 A 
ATOM     31  C   UNL A   1      39.784  28.285  28.902  1.00  0.00     0.049 A 
ATOM     32  N   UNL A   1      42.648  28.414  29.752  1.00  0.00    -0.248 NA
ATOM     33  C   UNL A   1      43.027  26.408  28.626  1.00  0.00     0.031 C 
ATOM     34  C   UNL A   1      38.354  28.302  28.588  1.00  0.00     0.029 A 
ATOM     35  N   UNL A   1      40.035  29.566  29.340  1.00  0.00    -0.354 N 
ATOM     36  C   UNL A   1      43.987  28.056  29.892  1.00  0.00     0.074 A 
ATOM     37  C   UNL A   1      44.155  26.791  29.209  1.00  0.00     0.031 C 
ATOM     38  C   UNL A   1      37.879  29.545  28.759  1.00  0.00     0.029 A 
ATOM     39  C   UNL A   1      38.937  30.392  29.302  1.00  0.00     0.049 A 
ATOM     40  H   UNL A   1      40.921  29.862  29.652  1.00  0.00     0.167 HD
ATOM     41  C   UNL A   1      44.983  28.709  30.541  1.00  0.00     0.031 A 
ATOM     42  C   UNL A   1      38.772  31.670  29.693  1.00  0.00     0.031 A 
ATOM     43  C   UNL A   1      44.858  30.014  31.133  1.00  0.00     0.049 A 
ATOM     44  C   UNL A   1      39.901  32.405  30.356  1.00  0.00     0.074 A 
ATOM     45  C   UNL A   1      45.816  30.750  31.811  1.00  0.00     0.029 A 
ATOM     46  N   UNL A   1      43.719  30.801  31.079  1.00  0.00    -0.354 N 
ATOM     47  N   UNL A   1      41.118  31.990  30.603  1.00  0.00    -0.248 NA
ATOM     48  C   UNL A   1      39.619  33.770  30.825  1.00  0.00     0.031 C 
ATOM     49  C   UNL A   1      45.252  31.977  32.179  1.00  0.00     0.029 A 
ATOM     50  C   UNL A   1      43.954  32.016  31.702  1.00  0.00     0.049 A 
ATOM     51  H   UNL A   1      42.868  30.535  30.661  1.00  0.00     0.167 HD
ATOM     52  C   UNL A   1      41.742  33.034  31.277  1.00  0.00     0.074 A 
ATOM     53  C   UNL A   1      40.782  34.116  31.361  1.00  0.00     0.031 C 
ATOM     54  C   UNL A   1      42.993  33.083  31.796  1.00  0.00     0.031 A 
BRANCH  41  55
ATOM     55  C   UNL A   1      46.297  27.991  30.698  1.00  0.00    -0.014 A 
ATOM     56  C   UNL A   1      47.353  28.165  29.790  1.00  0.00     0.010 A 
ATOM     57  C   UNL A   1      46.484  27.155  31.816  1.00  0.00     0.010 A 
ATOM     58  C   UNL A   1      48.562  27.485  29.975  1.00  0.00     0.020 A 
ATOM     59  C   UNL A   1      47.697  26.492  32.017  1.00  0.00     0.020 A 
ATOM     60  C   UNL A   1      48.723  26.647  31.083  1.00  0.00     0.054 A 
BRANCH  60  61
ATOM     61  S   UNL A   1      50.305  25.790  31.320  1.00  0.00     0.124 S 
ATOM     62  O   UNL A   1      51.092  26.804  32.016  1.00  0.00    -0.237 OA
ATOM     63  O   UNL A   1      49.929  24.628  32.121  1.00  0.00    -0.237 OA
ATOM     64  O   UNL A   1      50.739  25.489  29.958  1.00  0.00    -0.744 OA
ENDBRANCH  60  61
ENDBRANCH  41  55
BRANCH  42  65
ATOM     65  C   UNL A   1      37.449  32.326  29.510  1.00  0.00    -0.014 A 
ATOM     66  C   UNL A   1      36.523  32.361  30.566  1.00  0.00     0.010 A 
ATOM     67  C   UNL A   1      37.131  32.957  28.295  1.00  0.00     0.010 A 
ATOM     68  C   UNL A   1      35.304  33.027  30.413  1.00  0.00     0.020 A 
ATOM     69  C   UNL A   1      35.926  33.646  28.147  1.00  0.00     0.020 A 
ATOM     70  C   UNL A   1      35.017  33.673  29.208  1.00  0.00     0.054 A 
BRANCH  70  71
ATOM     71  S   UNL A   1      33.482  34.630  29.055  1.00  0.00     0.124 S 
ATOM     72  O   UNL A   1      33.971  35.903  28.536  1.00  0.00    -0.237 OA
ATOM     73  O   UNL A   1      32.691  33.828  28.124  1.00  0.00    -0.237 OA
ATOM     74  O   UNL A   1      32.972  34.661  30.424  1.00  0.00    -0.744 OA
ENDBRANCH  70  71
ENDBRANCH  42  65
BRANCH  54  75
ATOM     75  C   UNL A   1      43.395  34.346  32.504  1.00  0.00    -0.014 A 
ATOM     76  C   UNL A   1      43.285  34.452  33.902  1.00  0.00     0.010 A 
ATOM     77  C   UNL A   1      43.909  35.429  31.770  1.00  0.00     0.010 A 
ATOM     78  C   UNL A   1      43.652  35.634  34.551  1.00  0.00     0.020 A 
ATOM     79  C   UNL A   1      44.291  36.607  32.418  1.00  0.00     0.020 A 
ATOM     80  C   UNL A   1      44.144  36.707  33.804  1.00  0.00     0.054 A 
BRANCH  80  81
ATOM     81  S   UNL A   1      44.632  38.228  34.666  1.00  0.00     0.124 S 
ATOM     82  O   UNL A   1      44.184  39.260  33.735  1.00  0.00    -0.237 OA
ATOM     83  O   UNL A   1      43.886  38.145  35.919  1.00  0.00    -0.237 OA
ATOM     84  O   UNL A   1      46.081  38.097  34.801  1.00  0.00    -0.744 OA
ENDBRANCH  80  81
ENDBRANCH  54  75
ENDBRANCH  28  29
ENDBRANCH  21  23
ENDBRANCH  20  21
ENDBRANCH   1  20
TORSDOF 18
ENDMDL
