MODEL 1
REMARK VINA RESULT:     -12.7      0.000      0.000
REMARK SMILES O=C(OCCOC(=O)c1ccc(-c2c3nc(c(-c4ccc(S(=O)(=O)[O-])cc4)c4ccc([nH]4)c(-c4ccc(S(=O)(=O)[O-])cc4)c4nc(c(-c5ccc(S(=O)(=O)[O-])cc5)c5ccc2[nH]5)C=C4)C=C3)cc1)C1=Cc2c(Cl)ccc(Cl)c2O[C@@H]1C(F)(F)F
REMARK SMILES IDX 5 1 4 2 3 3 2 4 1 5 69 6 70 7 80 8 71 9 79 10 72 11 78 12
REMARK SMILES IDX 73 13 74 14 76 15 75 16 77 17 81 18 82 19 83 20 84 21 6 22
REMARK SMILES IDX 7 23 8 24 9 25 10 26 68 27 11 28 67 29 12 30 13 31 14 32
REMARK SMILES IDX 61 33 15 34 66 35 60 36 62 37 16 38 65 39 59 40 58 41 17 43
REMARK SMILES IDX 47 44 28 45 46 46 29 47 32 48 45 49 63 50 30 51 31 52 44 54
REMARK SMILES IDX 64 55 33 56 18 57 19 58 27 59 20 60 26 61 21 62 22 63 23 64
REMARK SMILES IDX 24 65 25 66 48 67 49 68 57 69 50 70 56 71 51 72 52 73 53 74
REMARK SMILES IDX 54 75 55 76 34 77 35 78 43 79 36 80 42 81 37 82 38 83 39 84
REMARK SMILES IDX 40 85 41 86
REMARK H PARENT 62 42 32 53
REMARK Flexibility Score: inf
ROOT
ATOM      1  C   UNL A   1      38.594  23.452  26.161  1.00  0.00     0.275 C 
ENDROOT
BRANCH   1   2
ATOM      2  C   UNL A   1      36.735  23.718  25.099  1.00  0.00     0.275 C 
BRANCH   2   3
ATOM      3  O   UNL A   1      35.303  23.690  25.719  1.00  0.00    -0.459 OA
BRANCH   3   4
ATOM      4  C   UNL A   1      34.340  24.013  24.848  1.00  0.00     0.338 C 
ATOM      5  O   UNL A   1      34.370  24.100  23.648  1.00  0.00    -0.246 OA
BRANCH   4   6
ATOM      6  C   UNL A   1      33.435  24.523  25.845  1.00  0.00     0.087 C 
ATOM      7  C   UNL A   1      33.710  25.951  26.127  1.00  0.00     0.029 C 
ATOM      8  C   UNL A   1      31.817  23.844  25.041  1.00  0.00     0.316 C 
ATOM      9  C   UNL A   1      32.614  27.308  25.604  1.00  0.00     0.037 A 
ATOM     10  O   UNL A   1      30.663  25.259  24.445  1.00  0.00    -0.474 OA
ATOM     11  C   UNL A   1      33.031  28.613  25.706  1.00  0.00     0.052 A 
ATOM     12  C   UNL A   1      31.149  26.996  24.709  1.00  0.00     0.148 A 
ATOM     13  Cl  UNL A   1      34.475  29.087  26.496  1.00  0.00    -0.084 Cl
ATOM     14  C   UNL A   1      32.227  29.567  25.055  1.00  0.00     0.023 A 
ATOM     15  C   UNL A   1      30.427  27.999  24.115  1.00  0.00     0.083 A 
ATOM     16  C   UNL A   1      31.007  29.277  24.307  1.00  0.00     0.026 A 
ATOM     17  Cl  UNL A   1      29.031  27.791  23.175  1.00  0.00    -0.080 Cl
BRANCH   8  18
ATOM     18  C   UNL A   1      31.575  22.597  25.958  1.00  0.00     0.430 C 
ATOM     19  F   UNL A   1      30.277  22.259  26.004  1.00  0.00    -0.167 F 
ATOM     20  F   UNL A   1      32.188  21.523  25.376  1.00  0.00    -0.167 F 
ATOM     21  F   UNL A   1      32.117  22.625  27.185  1.00  0.00    -0.167 F 
ENDBRANCH   8  18
ENDBRANCH   4   6
ENDBRANCH   3   4
ENDBRANCH   2   3
ENDBRANCH   1   2
BRANCH   1  22
ATOM     22  O   UNL A   1      39.566  24.687  26.828  1.00  0.00    -0.458 OA
BRANCH  22  23
ATOM     23  C   UNL A   1      40.304  25.802  26.524  1.00  0.00     0.338 C 
ATOM     24  O   UNL A   1      40.985  26.045  25.547  1.00  0.00    -0.246 OA
BRANCH  23  25
ATOM     25  C   UNL A   1      39.822  26.849  27.475  1.00  0.00     0.060 A 
ATOM     26  C   UNL A   1      39.158  26.442  28.644  1.00  0.00     0.016 A 
ATOM     27  C   UNL A   1      40.365  28.132  27.397  1.00  0.00     0.016 A 
ATOM     28  C   UNL A   1      39.254  27.227  29.808  1.00  0.00     0.010 A 
ATOM     29  C   UNL A   1      40.431  28.921  28.548  1.00  0.00     0.010 A 
ATOM     30  C   UNL A   1      39.947  28.446  29.781  1.00  0.00    -0.014 A 
BRANCH  30  31
ATOM     31  C   UNL A   1      39.975  29.355  30.957  1.00  0.00     0.031 A 
ATOM     32  C   UNL A   1      41.082  29.112  31.939  1.00  0.00     0.074 A 
ATOM     33  C   UNL A   1      39.031  30.286  31.214  1.00  0.00     0.049 A 
ATOM     34  N   UNL A   1      41.301  29.661  33.102  1.00  0.00    -0.248 NA
ATOM     35  C   UNL A   1      42.060  28.077  31.556  1.00  0.00     0.031 C 
ATOM     36  C   UNL A   1      37.900  30.631  30.351  1.00  0.00     0.029 A 
ATOM     37  N   UNL A   1      38.867  31.111  32.308  1.00  0.00    -0.354 N 
ATOM     38  C   UNL A   1      42.438  29.033  33.590  1.00  0.00     0.074 A 
ATOM     39  C   UNL A   1      42.828  28.030  32.627  1.00  0.00     0.031 C 
ATOM     40  C   UNL A   1      37.155  31.582  30.954  1.00  0.00     0.029 A 
ATOM     41  C   UNL A   1      37.739  31.906  32.255  1.00  0.00     0.049 A 
ATOM     42  H   UNL A   1      39.499  31.130  33.062  1.00  0.00     0.167 HD
ATOM     43  C   UNL A   1      43.116  29.273  34.734  1.00  0.00     0.031 A 
ATOM     44  C   UNL A   1      37.243  32.784  33.157  1.00  0.00     0.031 A 
ATOM     45  C   UNL A   1      42.711  30.234  35.715  1.00  0.00     0.049 A 
ATOM     46  C   UNL A   1      37.985  32.993  34.463  1.00  0.00     0.074 A 
ATOM     47  C   UNL A   1      43.324  30.551  36.912  1.00  0.00     0.029 A 
ATOM     48  N   UNL A   1      41.577  31.025  35.615  1.00  0.00    -0.354 N 
ATOM     49  N   UNL A   1      39.099  32.438  34.881  1.00  0.00    -0.248 NA
ATOM     50  C   UNL A   1      37.408  33.958  35.415  1.00  0.00     0.031 C 
ATOM     51  C   UNL A   1      42.533  31.507  37.558  1.00  0.00     0.029 A 
ATOM     52  C   UNL A   1      41.463  31.825  36.736  1.00  0.00     0.049 A 
ATOM     53  H   UNL A   1      40.948  31.018  34.857  1.00  0.00     0.167 HD
ATOM     54  C   UNL A   1      39.375  33.017  36.119  1.00  0.00     0.074 A 
ATOM     55  C   UNL A   1      38.318  33.969  36.380  1.00  0.00     0.031 C 
ATOM     56  C   UNL A   1      40.413  32.786  36.962  1.00  0.00     0.031 A 
BRANCH  43  57
ATOM     57  C   UNL A   1      44.347  28.444  34.961  1.00  0.00    -0.014 A 
ATOM     58  C   UNL A   1      44.261  27.206  35.625  1.00  0.00     0.010 A 
ATOM     59  C   UNL A   1      45.604  28.938  34.578  1.00  0.00     0.010 A 
ATOM     60  C   UNL A   1      45.419  26.506  35.960  1.00  0.00     0.020 A 
ATOM     61  C   UNL A   1      46.765  28.222  34.883  1.00  0.00     0.020 A 
ATOM     62  C   UNL A   1      46.665  27.024  35.594  1.00  0.00     0.054 A 
BRANCH  62  63
ATOM     63  S   UNL A   1      48.155  26.103  36.057  1.00  0.00     0.124 S 
ATOM     64  O   UNL A   1      47.592  24.840  36.529  1.00  0.00    -0.237 OA
ATOM     65  O   UNL A   1      48.891  26.029  34.798  1.00  0.00    -0.237 OA
ATOM     66  O   UNL A   1      48.770  26.935  37.088  1.00  0.00    -0.744 OA
ENDBRANCH  62  63
ENDBRANCH  43  57
BRANCH  44  67
ATOM     67  C   UNL A   1      35.985  33.555  32.892  1.00  0.00    -0.014 A 
ATOM     68  C   UNL A   1      36.046  34.881  32.419  1.00  0.00     0.010 A 
ATOM     69  C   UNL A   1      34.722  33.004  33.178  1.00  0.00     0.010 A 
ATOM     70  C   UNL A   1      34.882  35.646  32.268  1.00  0.00     0.020 A 
ATOM     71  C   UNL A   1      33.552  33.758  33.005  1.00  0.00     0.020 A 
ATOM     72  C   UNL A   1      33.640  35.080  32.564  1.00  0.00     0.054 A 
BRANCH  72  73
ATOM     73  S   UNL A   1      32.142  36.085  32.342  1.00  0.00     0.124 S 
ATOM     74  O   UNL A   1      32.356  37.171  33.292  1.00  0.00    -0.237 OA
ATOM     75  O   UNL A   1      32.217  36.456  30.931  1.00  0.00    -0.237 OA
ATOM     76  O   UNL A   1      31.058  35.164  32.679  1.00  0.00    -0.744 OA
ENDBRANCH  72  73
ENDBRANCH  44  67
BRANCH  56  77
ATOM     77  C   UNL A   1      40.506  33.609  38.220  1.00  0.00    -0.014 A 
ATOM     78  C   UNL A   1      41.352  34.727  38.306  1.00  0.00     0.010 A 
ATOM     79  C   UNL A   1      39.640  33.319  39.292  1.00  0.00     0.010 A 
ATOM     80  C   UNL A   1      41.342  35.532  39.449  1.00  0.00     0.020 A 
ATOM     81  C   UNL A   1      39.606  34.137  40.423  1.00  0.00     0.020 A 
ATOM     82  C   UNL A   1      40.464  35.235  40.498  1.00  0.00     0.054 A 
BRANCH  82  83
ATOM     83  S   UNL A   1      40.413  36.341  41.935  1.00  0.00     0.124 S 
ATOM     84  O   UNL A   1      40.748  37.631  41.340  1.00  0.00    -0.237 OA
ATOM     85  O   UNL A   1      39.034  36.200  42.399  1.00  0.00    -0.237 OA
ATOM     86  O   UNL A   1      41.424  35.788  42.835  1.00  0.00    -0.744 OA
ENDBRANCH  82  83
ENDBRANCH  56  77
ENDBRANCH  30  31
ENDBRANCH  23  25
ENDBRANCH  22  23
ENDBRANCH   1  22
TORSDOF 15
ENDMDL
MODEL 2
REMARK VINA RESULT:     -12.7      4.497     10.491
REMARK SMILES O=C(OCCOC(=O)c1ccc(-c2c3nc(c(-c4ccc(S(=O)(=O)[O-])cc4)c4ccc([nH]4)c(-c4ccc(S(=O)(=O)[O-])cc4)c4nc(c(-c5ccc(S(=O)(=O)[O-])cc5)c5ccc2[nH]5)C=C4)C=C3)cc1)C1=Cc2c(Cl)ccc(Cl)c2O[C@@H]1C(F)(F)F
REMARK SMILES IDX 5 1 4 2 3 3 2 4 1 5 69 6 70 7 80 8 71 9 79 10 72 11 78 12
REMARK SMILES IDX 73 13 74 14 76 15 75 16 77 17 81 18 82 19 83 20 84 21 6 22
REMARK SMILES IDX 7 23 8 24 9 25 10 26 68 27 11 28 67 29 12 30 13 31 14 32
REMARK SMILES IDX 61 33 15 34 66 35 60 36 62 37 16 38 65 39 59 40 58 41 17 43
REMARK SMILES IDX 47 44 28 45 46 46 29 47 32 48 45 49 63 50 30 51 31 52 44 54
REMARK SMILES IDX 64 55 33 56 18 57 19 58 27 59 20 60 26 61 21 62 22 63 23 64
REMARK SMILES IDX 24 65 25 66 48 67 49 68 57 69 50 70 56 71 51 72 52 73 53 74
REMARK SMILES IDX 54 75 55 76 34 77 35 78 43 79 36 80 42 81 37 82 38 83 39 84
REMARK SMILES IDX 40 85 41 86
REMARK H PARENT 62 42 32 53
REMARK Flexibility Score: inf
ROOT
ATOM      1  C   UNL A   1      32.664  29.944  26.872  1.00  0.00     0.275 C 
ENDROOT
BRANCH   1   2
ATOM      2  C   UNL A   1      32.328  27.814  26.813  1.00  0.00     0.275 C 
BRANCH   2   3
ATOM      3  O   UNL A   1      32.561  26.874  25.589  1.00  0.00    -0.459 OA
BRANCH   3   4
ATOM      4  C   UNL A   1      32.565  25.574  25.910  1.00  0.00     0.338 C 
ATOM      5  O   UNL A   1      32.400  25.032  26.970  1.00  0.00    -0.246 OA
BRANCH   4   6
ATOM      6  C   UNL A   1      33.152  25.141  24.668  1.00  0.00     0.087 C 
ATOM      7  C   UNL A   1      34.574  24.772  24.857  1.00  0.00     0.029 C 
ATOM      8  C   UNL A   1      31.744  23.915  24.176  1.00  0.00     0.316 C 
ATOM      9  C   UNL A   1      35.182  23.055  24.807  1.00  0.00     0.037 A 
ATOM     10  O   UNL A   1      32.354  22.093  24.156  1.00  0.00    -0.474 OA
ATOM     11  C   UNL A   1      36.465  22.764  25.201  1.00  0.00     0.052 A 
ATOM     12  C   UNL A   1      34.095  21.716  24.540  1.00  0.00     0.148 A 
ATOM     13  Cl  UNL A   1      37.639  23.958  25.563  1.00  0.00    -0.084 Cl
ATOM     14  C   UNL A   1      36.762  21.398  25.363  1.00  0.00     0.023 A 
ATOM     15  C   UNL A   1      34.482  20.413  24.717  1.00  0.00     0.083 A 
ATOM     16  C   UNL A   1      35.830  20.296  25.138  1.00  0.00     0.026 A 
ATOM     17  Cl  UNL A   1      33.486  19.051  24.544  1.00  0.00    -0.080 Cl
BRANCH   8  18
ATOM     18  C   UNL A   1      30.996  24.791  23.115  1.00  0.00     0.430 C 
ATOM     19  F   UNL A   1      31.651  24.822  21.945  1.00  0.00    -0.167 F 
ATOM     20  F   UNL A   1      29.809  24.178  22.827  1.00  0.00    -0.167 F 
ATOM     21  F   UNL A   1      30.615  26.021  23.495  1.00  0.00    -0.167 F 
ENDBRANCH   8  18
ENDBRANCH   4   6
ENDBRANCH   3   4
ENDBRANCH   2   3
ENDBRANCH   1   2
BRANCH   1  22
ATOM     22  O   UNL A   1      33.762  30.769  27.887  1.00  0.00    -0.458 OA
BRANCH  22  23
ATOM     23  C   UNL A   1      34.965  31.425  27.916  1.00  0.00     0.338 C 
ATOM     24  O   UNL A   1      35.206  32.609  28.045  1.00  0.00    -0.246 OA
BRANCH  23  25
ATOM     25  C   UNL A   1      35.981  30.349  28.127  1.00  0.00     0.060 A 
ATOM     26  C   UNL A   1      36.995  30.184  27.169  1.00  0.00     0.016 A 
ATOM     27  C   UNL A   1      36.141  29.814  29.406  1.00  0.00     0.016 A 
ATOM     28  C   UNL A   1      38.256  29.702  27.567  1.00  0.00     0.010 A 
ATOM     29  C   UNL A   1      37.387  29.308  29.787  1.00  0.00     0.010 A 
ATOM     30  C   UNL A   1      38.476  29.319  28.897  1.00  0.00    -0.014 A 
BRANCH  30  31
ATOM     31  C   UNL A   1      39.757  28.701  29.331  1.00  0.00     0.031 A 
ATOM     32  C   UNL A   1      40.660  29.581  30.144  1.00  0.00     0.074 A 
ATOM     33  C   UNL A   1      40.165  27.469  28.959  1.00  0.00     0.049 A 
ATOM     34  N   UNL A   1      41.875  29.366  30.566  1.00  0.00    -0.248 NA
ATOM     35  C   UNL A   1      40.114  30.903  30.498  1.00  0.00     0.031 C 
ATOM     36  C   UNL A   1      39.394  26.504  28.171  1.00  0.00     0.029 A 
ATOM     37  N   UNL A   1      41.360  26.819  29.185  1.00  0.00    -0.354 N 
ATOM     38  C   UNL A   1      42.239  30.528  31.231  1.00  0.00     0.074 A 
ATOM     39  C   UNL A   1      41.142  31.460  31.109  1.00  0.00     0.031 C 
ATOM     40  C   UNL A   1      40.139  25.397  27.971  1.00  0.00     0.029 A 
ATOM     41  C   UNL A   1      41.450  25.572  28.597  1.00  0.00     0.049 A 
ATOM     42  H   UNL A   1      42.088  27.210  29.721  1.00  0.00     0.167 HD
ATOM     43  C   UNL A   1      43.379  30.802  31.902  1.00  0.00     0.031 A 
ATOM     44  C   UNL A   1      42.474  24.689  28.567  1.00  0.00     0.031 A 
ATOM     45  C   UNL A   1      44.489  29.902  31.990  1.00  0.00     0.049 A 
ATOM     46  C   UNL A   1      43.769  25.042  29.273  1.00  0.00     0.074 A 
ATOM     47  C   UNL A   1      45.694  30.084  32.640  1.00  0.00     0.029 A 
ATOM     48  N   UNL A   1      44.531  28.650  31.396  1.00  0.00    -0.354 N 
ATOM     49  N   UNL A   1      44.073  26.121  29.956  1.00  0.00    -0.248 NA
ATOM     50  C   UNL A   1      44.856  24.050  29.215  1.00  0.00     0.031 C 
ATOM     51  C   UNL A   1      46.485  28.955  32.402  1.00  0.00     0.029 A 
ATOM     52  C   UNL A   1      45.748  28.050  31.653  1.00  0.00     0.049 A 
ATOM     53  H   UNL A   1      43.802  28.249  30.869  1.00  0.00     0.167 HD
ATOM     54  C   UNL A   1      45.364  25.918  30.442  1.00  0.00     0.074 A 
ATOM     55  C   UNL A   1      45.782  24.612  29.981  1.00  0.00     0.031 C 
ATOM     56  C   UNL A   1      46.132  26.735  31.204  1.00  0.00     0.031 A 
BRANCH  43  57
ATOM     57  C   UNL A   1      43.454  32.150  32.558  1.00  0.00    -0.014 A 
ATOM     58  C   UNL A   1      42.802  32.384  33.785  1.00  0.00     0.010 A 
ATOM     59  C   UNL A   1      44.112  33.208  31.913  1.00  0.00     0.010 A 
ATOM     60  C   UNL A   1      42.753  33.670  34.321  1.00  0.00     0.020 A 
ATOM     61  C   UNL A   1      44.093  34.492  32.464  1.00  0.00     0.020 A 
ATOM     62  C   UNL A   1      43.392  34.717  33.651  1.00  0.00     0.054 A 
BRANCH  62  63
ATOM     63  S   UNL A   1      43.298  36.382  34.361  1.00  0.00     0.124 S 
ATOM     64  O   UNL A   1      44.609  36.515  34.990  1.00  0.00    -0.237 OA
ATOM     65  O   UNL A   1      43.079  37.220  33.185  1.00  0.00    -0.237 OA
ATOM     66  O   UNL A   1      42.168  36.301  35.284  1.00  0.00    -0.744 OA
ENDBRANCH  62  63
ENDBRANCH  43  57
BRANCH  44  67
ATOM     67  C   UNL A   1      42.354  23.373  27.859  1.00  0.00    -0.014 A 
ATOM     68  C   UNL A   1      41.671  22.297  28.462  1.00  0.00     0.010 A 
ATOM     69  C   UNL A   1      42.981  23.156  26.619  1.00  0.00     0.010 A 
ATOM     70  C   UNL A   1      41.644  21.033  27.859  1.00  0.00     0.020 A 
ATOM     71  C   UNL A   1      42.936  21.899  25.999  1.00  0.00     0.020 A 
ATOM     72  C   UNL A   1      42.279  20.840  26.630  1.00  0.00     0.054 A 
BRANCH  72  73
ATOM     73  S   UNL A   1      42.213  19.197  25.856  1.00  0.00     0.124 S 
ATOM     74  O   UNL A   1      42.748  18.340  26.908  1.00  0.00    -0.237 OA
ATOM     75  O   UNL A   1      40.789  19.037  25.575  1.00  0.00    -0.237 OA
ATOM     76  O   UNL A   1      43.061  19.340  24.674  1.00  0.00    -0.744 OA
ENDBRANCH  72  73
ENDBRANCH  44  67
BRANCH  56  77
ATOM     77  C   UNL A   1      47.482  26.234  31.648  1.00  0.00    -0.014 A 
ATOM     78  C   UNL A   1      47.661  25.612  32.895  1.00  0.00     0.010 A 
ATOM     79  C   UNL A   1      48.562  26.288  30.747  1.00  0.00     0.010 A 
ATOM     80  C   UNL A   1      48.901  25.065  33.238  1.00  0.00     0.020 A 
ATOM     81  C   UNL A   1      49.794  25.718  31.075  1.00  0.00     0.020 A 
ATOM     82  C   UNL A   1      49.957  25.116  32.323  1.00  0.00     0.054 A 
BRANCH  82  83
ATOM     83  S   UNL A   1      51.533  24.329  32.761  1.00  0.00     0.124 S 
ATOM     84  O   UNL A   1      51.547  24.463  34.215  1.00  0.00    -0.237 OA
ATOM     85  O   UNL A   1      51.362  22.968  32.256  1.00  0.00    -0.237 OA
ATOM     86  O   UNL A   1      52.529  25.129  32.051  1.00  0.00    -0.744 OA
ENDBRANCH  82  83
ENDBRANCH  56  77
ENDBRANCH  30  31
ENDBRANCH  23  25
ENDBRANCH  22  23
ENDBRANCH   1  22
TORSDOF 15
ENDMDL
MODEL 3
REMARK VINA RESULT:     -12.5      1.652      8.338
REMARK SMILES O=C(OCCOC(=O)c1ccc(-c2c3nc(c(-c4ccc(S(=O)(=O)[O-])cc4)c4ccc([nH]4)c(-c4ccc(S(=O)(=O)[O-])cc4)c4nc(c(-c5ccc(S(=O)(=O)[O-])cc5)c5ccc2[nH]5)C=C4)C=C3)cc1)C1=Cc2c(Cl)ccc(Cl)c2O[C@@H]1C(F)(F)F
REMARK SMILES IDX 5 1 4 2 3 3 2 4 1 5 69 6 70 7 80 8 71 9 79 10 72 11 78 12
REMARK SMILES IDX 73 13 74 14 76 15 75 16 77 17 81 18 82 19 83 20 84 21 6 22
REMARK SMILES IDX 7 23 8 24 9 25 10 26 68 27 11 28 67 29 12 30 13 31 14 32
REMARK SMILES IDX 61 33 15 34 66 35 60 36 62 37 16 38 65 39 59 40 58 41 17 43
REMARK SMILES IDX 47 44 28 45 46 46 29 47 32 48 45 49 63 50 30 51 31 52 44 54
REMARK SMILES IDX 64 55 33 56 18 57 19 58 27 59 20 60 26 61 21 62 22 63 23 64
REMARK SMILES IDX 24 65 25 66 48 67 49 68 57 69 50 70 56 71 51 72 52 73 53 74
REMARK SMILES IDX 54 75 55 76 34 77 35 78 43 79 36 80 42 81 37 82 38 83 39 84
REMARK SMILES IDX 40 85 41 86
REMARK H PARENT 62 42 32 53
REMARK Flexibility Score: inf
ROOT
ATOM      1  C   UNL A   1      38.897  23.269  26.250  1.00  0.00     0.275 C 
ENDROOT
BRANCH   1   2
ATOM      2  C   UNL A   1      37.090  23.671  25.142  1.00  0.00     0.275 C 
BRANCH   2   3
ATOM      3  O   UNL A   1      35.660  23.859  25.740  1.00  0.00    -0.459 OA
BRANCH   3   4
ATOM      4  C   UNL A   1      35.065  22.705  26.068  1.00  0.00     0.338 C 
ATOM      5  O   UNL A   1      35.510  21.590  26.134  1.00  0.00    -0.246 OA
BRANCH   4   6
ATOM      6  C   UNL A   1      33.725  23.222  25.966  1.00  0.00     0.087 C 
ATOM      7  C   UNL A   1      33.720  24.700  26.072  1.00  0.00     0.029 C 
ATOM      8  C   UNL A   1      33.223  22.222  24.394  1.00  0.00     0.316 C 
ATOM      9  C   UNL A   1      33.386  25.807  24.664  1.00  0.00     0.037 A 
ATOM     10  O   UNL A   1      32.905  23.368  22.886  1.00  0.00    -0.474 OA
ATOM     11  C   UNL A   1      33.608  27.158  24.779  1.00  0.00     0.052 A 
ATOM     12  C   UNL A   1      33.058  25.175  23.072  1.00  0.00     0.148 A 
ATOM     13  Cl  UNL A   1      34.002  27.931  26.256  1.00  0.00    -0.084 Cl
ATOM     14  C   UNL A   1      33.560  27.891  23.579  1.00  0.00     0.023 A 
ATOM     15  C   UNL A   1      33.024  25.975  21.959  1.00  0.00     0.083 A 
ATOM     16  C   UNL A   1      33.289  27.335  22.256  1.00  0.00     0.026 A 
ATOM     17  Cl  UNL A   1      32.778  25.448  20.366  1.00  0.00    -0.080 Cl
BRANCH   8  18
ATOM     18  C   UNL A   1      32.365  21.096  25.066  1.00  0.00     0.430 C 
ATOM     19  F   UNL A   1      31.288  21.596  25.688  1.00  0.00    -0.167 F 
ATOM     20  F   UNL A   1      31.852  20.310  24.072  1.00  0.00    -0.167 F 
ATOM     21  F   UNL A   1      33.013  20.214  25.842  1.00  0.00    -0.167 F 
ENDBRANCH   8  18
ENDBRANCH   4   6
ENDBRANCH   3   4
ENDBRANCH   2   3
ENDBRANCH   1   2
BRANCH   1  22
ATOM     22  O   UNL A   1      40.070  24.414  26.725  1.00  0.00    -0.458 OA
BRANCH  22  23
ATOM     23  C   UNL A   1      40.742  25.542  26.329  1.00  0.00     0.338 C 
ATOM     24  O   UNL A   1      41.328  25.778  25.291  1.00  0.00    -0.246 OA
BRANCH  23  25
ATOM     25  C   UNL A   1      40.307  26.601  27.290  1.00  0.00     0.060 A 
ATOM     26  C   UNL A   1      39.374  26.266  28.285  1.00  0.00     0.016 A 
ATOM     27  C   UNL A   1      41.094  27.745  27.434  1.00  0.00     0.016 A 
ATOM     28  C   UNL A   1      39.407  26.933  29.523  1.00  0.00     0.010 A 
ATOM     29  C   UNL A   1      41.101  28.424  28.656  1.00  0.00     0.010 A 
ATOM     30  C   UNL A   1      40.317  27.979  29.736  1.00  0.00    -0.014 A 
BRANCH  30  31
ATOM     31  C   UNL A   1      40.306  28.782  30.988  1.00  0.00     0.031 A 
ATOM     32  C   UNL A   1      39.308  29.901  31.032  1.00  0.00     0.074 A 
ATOM     33  C   UNL A   1      41.181  28.611  32.001  1.00  0.00     0.049 A 
ATOM     34  N   UNL A   1      39.139  30.832  31.929  1.00  0.00    -0.248 NA
ATOM     35  C   UNL A   1      38.398  29.992  29.876  1.00  0.00     0.031 C 
ATOM     36  C   UNL A   1      42.203  27.567  32.095  1.00  0.00     0.029 A 
ATOM     37  N   UNL A   1      41.362  29.344  33.156  1.00  0.00    -0.354 N 
ATOM     38  C   UNL A   1      38.106  31.621  31.443  1.00  0.00     0.074 A 
ATOM     39  C   UNL A   1      37.728  31.094  30.152  1.00  0.00     0.031 C 
ATOM     40  C   UNL A   1      42.907  27.735  33.233  1.00  0.00     0.029 A 
ATOM     41  C   UNL A   1      42.407  28.909  33.947  1.00  0.00     0.049 A 
ATOM     42  H   UNL A   1      40.795  30.113  33.395  1.00  0.00     0.167 HD
ATOM     43  C   UNL A   1      37.506  32.685  32.019  1.00  0.00     0.031 A 
ATOM     44  C   UNL A   1      42.896  29.409  35.105  1.00  0.00     0.031 A 
ATOM     45  C   UNL A   1      37.904  33.242  33.277  1.00  0.00     0.049 A 
ATOM     46  C   UNL A   1      42.249  30.643  35.704  1.00  0.00     0.074 A 
ATOM     47  C   UNL A   1      37.367  34.324  33.947  1.00  0.00     0.029 A 
ATOM     48  N   UNL A   1      38.951  32.763  34.049  1.00  0.00    -0.354 N 
ATOM     49  N   UNL A   1      41.227  31.339  35.263  1.00  0.00    -0.248 NA
ATOM     50  C   UNL A   1      42.815  31.152  36.965  1.00  0.00     0.031 C 
ATOM     51  C   UNL A   1      38.120  34.526  35.108  1.00  0.00     0.029 A 
ATOM     52  C   UNL A   1      39.087  33.534  35.186  1.00  0.00     0.049 A 
ATOM     53  H   UNL A   1      39.514  31.988  33.820  1.00  0.00     0.167 HD
ATOM     54  C   UNL A   1      41.003  32.336  36.212  1.00  0.00     0.074 A 
ATOM     55  C   UNL A   1      41.990  32.150  37.253  1.00  0.00     0.031 C 
ATOM     56  C   UNL A   1      40.063  33.314  36.224  1.00  0.00     0.031 A 
BRANCH  43  57
ATOM     57  C   UNL A   1      36.376  33.306  31.250  1.00  0.00    -0.014 A 
ATOM     58  C   UNL A   1      36.547  33.670  29.901  1.00  0.00     0.010 A 
ATOM     59  C   UNL A   1      35.165  33.596  31.897  1.00  0.00     0.010 A 
ATOM     60  C   UNL A   1      35.547  34.374  29.230  1.00  0.00     0.020 A 
ATOM     61  C   UNL A   1      34.147  34.271  31.218  1.00  0.00     0.020 A 
ATOM     62  C   UNL A   1      34.356  34.677  29.898  1.00  0.00     0.054 A 
BRANCH  62  63
ATOM     63  S   UNL A   1      33.080  35.607  29.009  1.00  0.00     0.124 S 
ATOM     64  O   UNL A   1      32.492  34.575  28.159  1.00  0.00    -0.237 OA
ATOM     65  O   UNL A   1      32.225  36.092  30.089  1.00  0.00    -0.237 OA
ATOM     66  O   UNL A   1      33.833  36.641  28.303  1.00  0.00    -0.744 OA
ENDBRANCH  62  63
ENDBRANCH  43  57
BRANCH  44  67
ATOM     67  C   UNL A   1      44.055  28.769  35.808  1.00  0.00    -0.014 A 
ATOM     68  C   UNL A   1      43.839  27.762  36.771  1.00  0.00     0.010 A 
ATOM     69  C   UNL A   1      45.373  29.207  35.582  1.00  0.00     0.010 A 
ATOM     70  C   UNL A   1      44.905  27.232  37.510  1.00  0.00     0.020 A 
ATOM     71  C   UNL A   1      46.447  28.661  36.302  1.00  0.00     0.020 A 
ATOM     72  C   UNL A   1      46.204  27.687  37.272  1.00  0.00     0.054 A 
BRANCH  72  73
ATOM     73  S   UNL A   1      47.574  26.970  38.229  1.00  0.00     0.124 S 
ATOM     74  O   UNL A   1      47.089  25.620  38.494  1.00  0.00    -0.237 OA
ATOM     75  O   UNL A   1      48.695  27.068  37.297  1.00  0.00    -0.237 OA
ATOM     76  O   UNL A   1      47.668  27.842  39.398  1.00  0.00    -0.744 OA
ENDBRANCH  72  73
ENDBRANCH  44  67
BRANCH  56  77
ATOM     77  C   UNL A   1      40.002  34.229  37.419  1.00  0.00    -0.014 A 
ATOM     78  C   UNL A   1      40.751  35.416  37.475  1.00  0.00     0.010 A 
ATOM     79  C   UNL A   1      39.088  33.944  38.452  1.00  0.00     0.010 A 
ATOM     80  C   UNL A   1      40.597  36.296  38.550  1.00  0.00     0.020 A 
ATOM     81  C   UNL A   1      38.912  34.834  39.514  1.00  0.00     0.020 A 
ATOM     82  C   UNL A   1      39.674  36.002  39.559  1.00  0.00     0.054 A 
BRANCH  82  83
ATOM     83  S   UNL A   1      39.436  37.198  40.903  1.00  0.00     0.124 S 
ATOM     84  O   UNL A   1      38.502  38.147  40.304  1.00  0.00    -0.237 OA
ATOM     85  O   UNL A   1      38.890  36.370  41.976  1.00  0.00    -0.237 OA
ATOM     86  O   UNL A   1      40.780  37.718  41.148  1.00  0.00    -0.744 OA
ENDBRANCH  82  83
ENDBRANCH  56  77
ENDBRANCH  30  31
ENDBRANCH  23  25
ENDBRANCH  22  23
ENDBRANCH   1  22
TORSDOF 15
ENDMDL
