MODEL 1
REMARK VINA RESULT:     -10.3      0.000      0.000
REMARK SMILES CC(C)(C[S@](=O)c1cccc(Cl)c1)C(=O)OCCOC(=O)c1ccc(-c2c3nc(c(-c4ccc(S(=O)(=O)[O-])cc4)c4ccc([nH]4)c(-c4ccc(S(=O)(=O)[O-])cc4)c4nc(c(-c5ccc(S(=O)(=O)[O-])cc5)c5ccc2[nH]5)C=C4)C=C3)cc1
REMARK SMILES IDX 17 1 16 2 14 3 15 4 2 5 1 6 3 7 4 8 5 9 6 10 7 11 8 12 13 13
REMARK SMILES IDX 9 14 11 15 10 16 12 17 18 18 19 19 20 20 21 21 22 22 23 23
REMARK SMILES IDX 81 24 24 25 80 26 25 27 26 28 27 29 74 30 28 31 79 32 73 33
REMARK SMILES IDX 75 34 29 35 78 36 72 37 71 38 30 40 60 41 41 42 59 43 42 44
REMARK SMILES IDX 45 45 58 46 76 47 43 48 44 49 57 51 77 52 46 53 31 54 32 55
REMARK SMILES IDX 40 56 33 57 39 58 34 59 35 60 36 61 37 62 38 63 61 64 62 65
REMARK SMILES IDX 70 66 63 67 69 68 64 69 65 70 66 71 67 72 68 73 47 74 48 75
REMARK SMILES IDX 56 76 49 77 55 78 50 79 51 80 52 81 53 82 54 83
REMARK H PARENT 75 39 45 50
REMARK Flexibility Score: inf
ROOT
ATOM      1  C   UNL A   1      33.244  29.014  27.090  1.00  0.00     0.274 C 
ENDROOT
BRANCH   1   2
ATOM      2  O   UNL A   1      33.843  27.983  26.274  1.00  0.00    -0.462 OA
BRANCH   2   3
ATOM      3  C   UNL A   1      33.349  27.861  25.007  1.00  0.00     0.312 C 
ATOM      4  O   UNL A   1      33.171  28.804  24.247  1.00  0.00    -0.252 OA
BRANCH   3   5
ATOM      5  C   UNL A   1      32.918  26.427  24.684  1.00  0.00     0.074 C 
ATOM      6  C   UNL A   1      33.650  25.929  23.423  1.00  0.00     0.024 C 
ATOM      7  C   UNL A   1      31.418  26.522  24.340  1.00  0.00     0.024 C 
BRANCH   5   8
ATOM      8  C   UNL A   1      33.080  25.452  25.870  1.00  0.00     0.128 C 
BRANCH   8   9
ATOM      9  S   UNL A   1      31.933  24.040  25.847  1.00  0.00     0.054 S 
ATOM     10  O   UNL A   1      31.430  23.835  27.246  1.00  0.00    -0.254 OA
BRANCH   9  11
ATOM     11  C   UNL A   1      33.043  22.632  25.562  1.00  0.00     0.040 A 
ATOM     12  C   UNL A   1      34.422  22.758  25.348  1.00  0.00     0.018 A 
ATOM     13  C   UNL A   1      32.466  21.355  25.489  1.00  0.00     0.038 A 
ATOM     14  C   UNL A   1      35.207  21.633  25.077  1.00  0.00     0.003 A 
ATOM     15  C   UNL A   1      33.251  20.238  25.206  1.00  0.00     0.042 A 
ATOM     16  C   UNL A   1      34.621  20.372  25.001  1.00  0.00     0.020 A 
ATOM     17  Cl  UNL A   1      32.528  18.682  25.089  1.00  0.00    -0.084 Cl
ENDBRANCH   9  11
ENDBRANCH   8   9
ENDBRANCH   5   8
ENDBRANCH   3   5
ENDBRANCH   2   3
ENDBRANCH   1   2
BRANCH   1  18
ATOM     18  C   UNL A   1      34.282  30.058  27.489  1.00  0.00     0.275 C 
BRANCH  18  19
ATOM     19  O   UNL A   1      35.245  29.448  28.360  1.00  0.00    -0.458 OA
BRANCH  19  20
ATOM     20  C   UNL A   1      35.998  30.294  29.103  1.00  0.00     0.338 C 
ATOM     21  O   UNL A   1      35.592  31.199  29.810  1.00  0.00    -0.246 OA
BRANCH  20  22
ATOM     22  C   UNL A   1      37.425  29.954  28.931  1.00  0.00     0.060 A 
ATOM     23  C   UNL A   1      37.974  29.821  27.655  1.00  0.00     0.016 A 
ATOM     24  C   UNL A   1      38.210  29.697  30.054  1.00  0.00     0.016 A 
ATOM     25  C   UNL A   1      39.285  29.377  27.492  1.00  0.00     0.010 A 
ATOM     26  C   UNL A   1      39.553  29.339  29.891  1.00  0.00     0.010 A 
ATOM     27  C   UNL A   1      40.100  29.154  28.609  1.00  0.00    -0.014 A 
BRANCH  27  28
ATOM     28  C   UNL A   1      41.514  28.716  28.447  1.00  0.00     0.031 A 
ATOM     29  C   UNL A   1      42.633  29.716  28.574  1.00  0.00     0.074 A 
ATOM     30  C   UNL A   1      41.802  27.429  28.160  1.00  0.00     0.049 A 
ATOM     31  N   UNL A   1      43.893  29.590  28.248  1.00  0.00    -0.248 NA
ATOM     32  C   UNL A   1      42.281  31.035  29.124  1.00  0.00     0.031 C 
ATOM     33  C   UNL A   1      40.828  26.340  28.053  1.00  0.00     0.029 A 
ATOM     34  N   UNL A   1      43.006  26.820  27.900  1.00  0.00    -0.354 N 
ATOM     35  C   UNL A   1      44.472  30.831  28.491  1.00  0.00     0.074 A 
ATOM     36  C   UNL A   1      43.424  31.694  28.996  1.00  0.00     0.031 C 
ATOM     37  C   UNL A   1      41.474  25.196  27.779  1.00  0.00     0.029 A 
ATOM     38  C   UNL A   1      42.894  25.482  27.604  1.00  0.00     0.049 A 
ATOM     39  H   UNL A   1      43.867  27.297  27.923  1.00  0.00     0.167 HD
ATOM     40  C   UNL A   1      45.756  31.217  28.301  1.00  0.00     0.031 A 
ATOM     41  C   UNL A   1      43.814  24.590  27.192  1.00  0.00     0.031 A 
ATOM     42  C   UNL A   1      46.805  30.343  27.844  1.00  0.00     0.049 A 
ATOM     43  C   UNL A   1      45.228  25.044  26.970  1.00  0.00     0.074 A 
ATOM     44  C   UNL A   1      48.142  30.637  27.636  1.00  0.00     0.029 A 
ATOM     45  N   UNL A   1      46.641  29.000  27.544  1.00  0.00    -0.354 N 
ATOM     46  N   UNL A   1      45.747  26.236  27.141  1.00  0.00    -0.248 NA
ATOM     47  C   UNL A   1      46.178  24.035  26.480  1.00  0.00     0.031 C 
ATOM     48  C   UNL A   1      48.778  29.478  27.175  1.00  0.00     0.029 A 
ATOM     49  C   UNL A   1      47.847  28.453  27.141  1.00  0.00     0.049 A 
ATOM     50  H   UNL A   1      45.791  28.507  27.607  1.00  0.00     0.167 HD
ATOM     51  C   UNL A   1      47.084  26.121  26.785  1.00  0.00     0.074 A 
ATOM     52  C   UNL A   1      47.302  24.738  26.410  1.00  0.00     0.031 C 
ATOM     53  C   UNL A   1      48.045  27.077  26.764  1.00  0.00     0.031 A 
BRANCH  40  54
ATOM     54  C   UNL A   1      46.092  32.665  28.544  1.00  0.00    -0.014 A 
ATOM     55  C   UNL A   1      46.624  33.103  29.770  1.00  0.00     0.010 A 
ATOM     56  C   UNL A   1      45.902  33.599  27.509  1.00  0.00     0.010 A 
ATOM     57  C   UNL A   1      46.924  34.454  29.968  1.00  0.00     0.020 A 
ATOM     58  C   UNL A   1      46.222  34.946  27.694  1.00  0.00     0.020 A 
ATOM     59  C   UNL A   1      46.715  35.368  28.929  1.00  0.00     0.054 A 
BRANCH  59  60
ATOM     60  S   UNL A   1      47.132  37.113  29.199  1.00  0.00     0.124 S 
ATOM     61  O   UNL A   1      45.945  37.790  28.682  1.00  0.00    -0.237 OA
ATOM     62  O   UNL A   1      47.314  37.184  30.647  1.00  0.00    -0.237 OA
ATOM     63  O   UNL A   1      48.349  37.305  28.415  1.00  0.00    -0.744 OA
ENDBRANCH  59  60
ENDBRANCH  40  54
BRANCH  41  64
ATOM     64  C   UNL A   1      43.407  23.187  26.911  1.00  0.00    -0.014 A 
ATOM     65  C   UNL A   1      43.596  22.630  25.635  1.00  0.00     0.010 A 
ATOM     66  C   UNL A   1      42.860  22.388  27.933  1.00  0.00     0.010 A 
ATOM     67  C   UNL A   1      43.244  21.300  25.385  1.00  0.00     0.020 A 
ATOM     68  C   UNL A   1      42.532  21.052  27.694  1.00  0.00     0.020 A 
ATOM     69  C   UNL A   1      42.718  20.518  26.418  1.00  0.00     0.054 A 
BRANCH  69  70
ATOM     70  S   UNL A   1      42.341  18.772  26.098  1.00  0.00     0.124 S 
ATOM     71  O   UNL A   1      40.925  18.826  25.751  1.00  0.00    -0.237 OA
ATOM     72  O   UNL A   1      43.250  18.444  25.002  1.00  0.00    -0.237 OA
ATOM     73  O   UNL A   1      42.653  18.119  27.369  1.00  0.00    -0.744 OA
ENDBRANCH  69  70
ENDBRANCH  41  64
BRANCH  53  74
ATOM     74  C   UNL A   1      49.425  26.653  26.342  1.00  0.00    -0.014 A 
ATOM     75  C   UNL A   1      50.281  25.984  27.233  1.00  0.00     0.010 A 
ATOM     76  C   UNL A   1      49.853  26.892  25.023  1.00  0.00     0.010 A 
ATOM     77  C   UNL A   1      51.556  25.589  26.823  1.00  0.00     0.020 A 
ATOM     78  C   UNL A   1      51.120  26.480  24.604  1.00  0.00     0.020 A 
ATOM     79  C   UNL A   1      51.970  25.844  25.511  1.00  0.00     0.054 A 
BRANCH  79  80
ATOM     80  S   UNL A   1      53.616  25.291  24.988  1.00  0.00     0.124 S 
ATOM     81  O   UNL A   1      54.491  26.131  25.802  1.00  0.00    -0.237 OA
ATOM     82  O   UNL A   1      53.608  23.872  25.333  1.00  0.00    -0.237 OA
ATOM     83  O   UNL A   1      53.637  25.576  23.554  1.00  0.00    -0.744 OA
ENDBRANCH  79  80
ENDBRANCH  53  74
ENDBRANCH  27  28
ENDBRANCH  20  22
ENDBRANCH  19  20
ENDBRANCH  18  19
ENDBRANCH   1  18
TORSDOF 17
ENDMDL
MODEL 2
REMARK VINA RESULT:     -10.3      2.570      3.381
REMARK SMILES CC(C)(C[S@](=O)c1cccc(Cl)c1)C(=O)OCCOC(=O)c1ccc(-c2c3nc(c(-c4ccc(S(=O)(=O)[O-])cc4)c4ccc([nH]4)c(-c4ccc(S(=O)(=O)[O-])cc4)c4nc(c(-c5ccc(S(=O)(=O)[O-])cc5)c5ccc2[nH]5)C=C4)C=C3)cc1
REMARK SMILES IDX 17 1 16 2 14 3 15 4 2 5 1 6 3 7 4 8 5 9 6 10 7 11 8 12 13 13
REMARK SMILES IDX 9 14 11 15 10 16 12 17 18 18 19 19 20 20 21 21 22 22 23 23
REMARK SMILES IDX 81 24 24 25 80 26 25 27 26 28 27 29 74 30 28 31 79 32 73 33
REMARK SMILES IDX 75 34 29 35 78 36 72 37 71 38 30 40 60 41 41 42 59 43 42 44
REMARK SMILES IDX 45 45 58 46 76 47 43 48 44 49 57 51 77 52 46 53 31 54 32 55
REMARK SMILES IDX 40 56 33 57 39 58 34 59 35 60 36 61 37 62 38 63 61 64 62 65
REMARK SMILES IDX 70 66 63 67 69 68 64 69 65 70 66 71 67 72 68 73 47 74 48 75
REMARK SMILES IDX 56 76 49 77 55 78 50 79 51 80 52 81 53 82 54 83
REMARK H PARENT 75 39 45 50
REMARK Flexibility Score: inf
ROOT
ATOM      1  C   UNL A   1      31.730  29.580  25.907  1.00  0.00     0.274 C 
ENDROOT
BRANCH   1   2
ATOM      2  O   UNL A   1      31.253  28.998  24.674  1.00  0.00    -0.462 OA
BRANCH   2   3
ATOM      3  C   UNL A   1      30.894  27.682  24.734  1.00  0.00     0.312 C 
ATOM      4  O   UNL A   1      31.027  26.980  25.728  1.00  0.00    -0.252 OA
BRANCH   3   5
ATOM      5  C   UNL A   1      30.422  27.143  23.380  1.00  0.00     0.074 C 
ATOM      6  C   UNL A   1      30.346  28.288  22.353  1.00  0.00     0.024 C 
ATOM      7  C   UNL A   1      28.983  26.643  23.623  1.00  0.00     0.024 C 
BRANCH   5   8
ATOM      8  C   UNL A   1      31.263  25.956  22.862  1.00  0.00     0.128 C 
BRANCH   8   9
ATOM      9  S   UNL A   1      33.062  26.194  22.992  1.00  0.00     0.054 S 
ATOM     10  O   UNL A   1      33.621  26.224  21.599  1.00  0.00    -0.254 OA
BRANCH   9  11
ATOM     11  C   UNL A   1      33.624  24.604  23.663  1.00  0.00     0.040 A 
ATOM     12  C   UNL A   1      34.933  24.122  23.532  1.00  0.00     0.018 A 
ATOM     13  C   UNL A   1      32.669  23.791  24.291  1.00  0.00     0.038 A 
ATOM     14  C   UNL A   1      35.281  22.860  24.025  1.00  0.00     0.003 A 
ATOM     15  C   UNL A   1      33.018  22.529  24.770  1.00  0.00     0.042 A 
ATOM     16  C   UNL A   1      34.322  22.060  24.640  1.00  0.00     0.020 A 
ATOM     17  Cl  UNL A   1      31.831  21.527  25.510  1.00  0.00    -0.084 Cl
ENDBRANCH   9  11
ENDBRANCH   8   9
ENDBRANCH   5   8
ENDBRANCH   3   5
ENDBRANCH   2   3
ENDBRANCH   1   2
BRANCH   1  18
ATOM     18  C   UNL A   1      33.254  29.529  25.974  1.00  0.00     0.275 C 
BRANCH  18  19
ATOM     19  O   UNL A   1      33.656  29.443  27.348  1.00  0.00    -0.458 OA
BRANCH  19  20
ATOM     20  C   UNL A   1      34.376  30.486  27.826  1.00  0.00     0.338 C 
ATOM     21  O   UNL A   1      33.984  31.629  27.986  1.00  0.00    -0.246 OA
BRANCH  20  22
ATOM     22  C   UNL A   1      35.747  30.031  28.134  1.00  0.00     0.060 A 
ATOM     23  C   UNL A   1      36.068  29.562  29.409  1.00  0.00     0.016 A 
ATOM     24  C   UNL A   1      36.741  30.136  27.163  1.00  0.00     0.016 A 
ATOM     25  C   UNL A   1      37.388  29.253  29.736  1.00  0.00     0.010 A 
ATOM     26  C   UNL A   1      38.048  29.739  27.466  1.00  0.00     0.010 A 
ATOM     27  C   UNL A   1      38.391  29.313  28.762  1.00  0.00    -0.014 A 
BRANCH  27  28
ATOM     28  C   UNL A   1      39.797  28.949  29.090  1.00  0.00     0.031 A 
ATOM     29  C   UNL A   1      40.705  29.960  29.740  1.00  0.00     0.074 A 
ATOM     30  C   UNL A   1      40.276  27.726  28.784  1.00  0.00     0.049 A 
ATOM     31  N   UNL A   1      42.003  29.924  29.896  1.00  0.00    -0.248 NA
ATOM     32  C   UNL A   1      40.067  31.178  30.268  1.00  0.00     0.031 C 
ATOM     33  C   UNL A   1      39.503  26.629  28.196  1.00  0.00     0.029 A 
ATOM     34  N   UNL A   1      41.539  27.201  28.924  1.00  0.00    -0.354 N 
ATOM     35  C   UNL A   1      42.347  31.139  30.479  1.00  0.00     0.074 A 
ATOM     36  C   UNL A   1      41.120  31.887  30.653  1.00  0.00     0.031 C 
ATOM     37  C   UNL A   1      40.298  25.557  28.053  1.00  0.00     0.029 A 
ATOM     38  C   UNL A   1      41.654  25.913  28.455  1.00  0.00     0.049 A 
ATOM     39  H   UNL A   1      42.288  27.699  29.321  1.00  0.00     0.167 HD
ATOM     40  C   UNL A   1      43.575  31.591  30.829  1.00  0.00     0.031 A 
ATOM     41  C   UNL A   1      42.732  25.119  28.316  1.00  0.00     0.031 A 
ATOM     42  C   UNL A   1      44.787  30.826  30.698  1.00  0.00     0.049 A 
ATOM     43  C   UNL A   1      44.087  25.648  28.692  1.00  0.00     0.074 A 
ATOM     44  C   UNL A   1      46.078  31.191  31.040  1.00  0.00     0.029 A 
ATOM     45  N   UNL A   1      44.857  29.532  30.205  1.00  0.00    -0.354 N 
ATOM     46  N   UNL A   1      44.405  26.821  29.181  1.00  0.00    -0.248 NA
ATOM     47  C   UNL A   1      45.230  24.749  28.479  1.00  0.00     0.031 C 
ATOM     48  C   UNL A   1      46.933  30.130  30.720  1.00  0.00     0.029 A 
ATOM     49  C   UNL A   1      46.168  29.088  30.222  1.00  0.00     0.049 A 
ATOM     50  H   UNL A   1      44.086  29.006  29.890  1.00  0.00     0.167 HD
ATOM     51  C   UNL A   1      45.784  26.803  29.339  1.00  0.00     0.074 A 
ATOM     52  C   UNL A   1      46.239  25.494  28.915  1.00  0.00     0.031 C 
ATOM     53  C   UNL A   1      46.604  27.785  29.790  1.00  0.00     0.031 A 
BRANCH  40  54
ATOM     54  C   UNL A   1      43.677  33.002  31.346  1.00  0.00    -0.014 A 
ATOM     55  C   UNL A   1      43.843  34.095  30.477  1.00  0.00     0.010 A 
ATOM     56  C   UNL A   1      43.569  33.238  32.729  1.00  0.00     0.010 A 
ATOM     57  C   UNL A   1      43.937  35.394  30.987  1.00  0.00     0.020 A 
ATOM     58  C   UNL A   1      43.639  34.537  33.240  1.00  0.00     0.020 A 
ATOM     59  C   UNL A   1      43.840  35.606  32.366  1.00  0.00     0.054 A 
BRANCH  59  60
ATOM     60  S   UNL A   1      43.942  37.301  33.004  1.00  0.00     0.124 S 
ATOM     61  O   UNL A   1      43.809  38.091  31.782  1.00  0.00    -0.237 OA
ATOM     62  O   UNL A   1      42.809  37.371  33.923  1.00  0.00    -0.237 OA
ATOM     63  O   UNL A   1      45.256  37.355  33.639  1.00  0.00    -0.744 OA
ENDBRANCH  59  60
ENDBRANCH  40  54
BRANCH  41  64
ATOM     64  C   UNL A   1      42.574  23.756  27.743  1.00  0.00    -0.014 A 
ATOM     65  C   UNL A   1      42.822  23.519  26.380  1.00  0.00     0.010 A 
ATOM     66  C   UNL A   1      42.209  22.676  28.570  1.00  0.00     0.010 A 
ATOM     67  C   UNL A   1      42.706  22.229  25.853  1.00  0.00     0.020 A 
ATOM     68  C   UNL A   1      42.118  21.381  28.052  1.00  0.00     0.020 A 
ATOM     69  C   UNL A   1      42.359  21.167  26.694  1.00  0.00     0.054 A 
BRANCH  69  70
ATOM     70  S   UNL A   1      42.291  19.487  26.011  1.00  0.00     0.124 S 
ATOM     71  O   UNL A   1      43.117  19.614  24.815  1.00  0.00    -0.237 OA
ATOM     72  O   UNL A   1      42.857  18.681  27.090  1.00  0.00    -0.237 OA
ATOM     73  O   UNL A   1      40.865  19.276  25.771  1.00  0.00    -0.744 OA
ENDBRANCH  69  70
ENDBRANCH  41  64
BRANCH  53  74
ATOM     74  C   UNL A   1      48.072  27.471  29.867  1.00  0.00    -0.014 A 
ATOM     75  C   UNL A   1      48.954  27.878  28.852  1.00  0.00     0.010 A 
ATOM     76  C   UNL A   1      48.580  26.793  30.990  1.00  0.00     0.010 A 
ATOM     77  C   UNL A   1      50.317  27.586  28.943  1.00  0.00     0.020 A 
ATOM     78  C   UNL A   1      49.946  26.517  31.094  1.00  0.00     0.020 A 
ATOM     79  C   UNL A   1      50.804  26.903  30.062  1.00  0.00     0.054 A 
BRANCH  79  80
ATOM     80  S   UNL A   1      52.582  26.565  30.178  1.00  0.00     0.124 S 
ATOM     81  O   UNL A   1      53.115  27.872  30.551  1.00  0.00    -0.237 OA
ATOM     82  O   UNL A   1      52.651  25.539  31.215  1.00  0.00    -0.237 OA
ATOM     83  O   UNL A   1      52.936  26.108  28.835  1.00  0.00    -0.744 OA
ENDBRANCH  79  80
ENDBRANCH  53  74
ENDBRANCH  27  28
ENDBRANCH  20  22
ENDBRANCH  19  20
ENDBRANCH  18  19
ENDBRANCH   1  18
TORSDOF 17
ENDMDL
MODEL 3
REMARK VINA RESULT:     -10.2      6.846     11.687
REMARK SMILES CC(C)(C[S@](=O)c1cccc(Cl)c1)C(=O)OCCOC(=O)c1ccc(-c2c3nc(c(-c4ccc(S(=O)(=O)[O-])cc4)c4ccc([nH]4)c(-c4ccc(S(=O)(=O)[O-])cc4)c4nc(c(-c5ccc(S(=O)(=O)[O-])cc5)c5ccc2[nH]5)C=C4)C=C3)cc1
REMARK SMILES IDX 17 1 16 2 14 3 15 4 2 5 1 6 3 7 4 8 5 9 6 10 7 11 8 12 13 13
REMARK SMILES IDX 9 14 11 15 10 16 12 17 18 18 19 19 20 20 21 21 22 22 23 23
REMARK SMILES IDX 81 24 24 25 80 26 25 27 26 28 27 29 74 30 28 31 79 32 73 33
REMARK SMILES IDX 75 34 29 35 78 36 72 37 71 38 30 40 60 41 41 42 59 43 42 44
REMARK SMILES IDX 45 45 58 46 76 47 43 48 44 49 57 51 77 52 46 53 31 54 32 55
REMARK SMILES IDX 40 56 33 57 39 58 34 59 35 60 36 61 37 62 38 63 61 64 62 65
REMARK SMILES IDX 70 66 63 67 69 68 64 69 65 70 66 71 67 72 68 73 47 74 48 75
REMARK SMILES IDX 56 76 49 77 55 78 50 79 51 80 52 81 53 82 54 83
REMARK H PARENT 75 39 45 50
REMARK Flexibility Score: inf
ROOT
ATOM      1  C   UNL A   1      40.171  21.948  26.166  1.00  0.00     0.274 C 
ENDROOT
BRANCH   1   2
ATOM      2  O   UNL A   1      38.764  22.235  26.322  1.00  0.00    -0.462 OA
BRANCH   2   3
ATOM      3  C   UNL A   1      37.916  21.517  25.529  1.00  0.00     0.312 C 
ATOM      4  O   UNL A   1      38.170  20.405  25.084  1.00  0.00    -0.252 OA
BRANCH   3   5
ATOM      5  C   UNL A   1      36.661  22.308  25.149  1.00  0.00     0.074 C 
ATOM      6  C   UNL A   1      36.595  22.492  23.621  1.00  0.00     0.024 C 
ATOM      7  C   UNL A   1      36.858  23.705  25.774  1.00  0.00     0.024 C 
BRANCH   5   8
ATOM      8  C   UNL A   1      35.357  21.707  25.715  1.00  0.00     0.128 C 
BRANCH   8   9
ATOM      9  S   UNL A   1      34.373  22.856  26.726  1.00  0.00     0.054 S 
ATOM     10  O   UNL A   1      33.750  22.068  27.840  1.00  0.00    -0.254 OA
BRANCH   9  11
ATOM     11  C   UNL A   1      32.981  23.255  25.631  1.00  0.00     0.040 A 
ATOM     12  C   UNL A   1      32.836  22.740  24.336  1.00  0.00     0.018 A 
ATOM     13  C   UNL A   1      32.038  24.185  26.094  1.00  0.00     0.038 A 
ATOM     14  C   UNL A   1      31.767  23.137  23.526  1.00  0.00     0.003 A 
ATOM     15  C   UNL A   1      30.981  24.587  25.278  1.00  0.00     0.042 A 
ATOM     16  C   UNL A   1      30.841  24.066  23.995  1.00  0.00     0.020 A 
ATOM     17  Cl  UNL A   1      29.848  25.751  25.845  1.00  0.00    -0.084 Cl
ENDBRANCH   9  11
ENDBRANCH   8   9
ENDBRANCH   5   8
ENDBRANCH   3   5
ENDBRANCH   2   3
ENDBRANCH   1   2
BRANCH   1  18
ATOM     18  C   UNL A   1      41.012  23.178  26.496  1.00  0.00     0.275 C 
BRANCH  18  19
ATOM     19  O   UNL A   1      40.181  24.345  26.420  1.00  0.00    -0.458 OA
BRANCH  19  20
ATOM     20  C   UNL A   1      40.824  25.526  26.261  1.00  0.00     0.338 C 
ATOM     21  O   UNL A   1      41.387  25.919  25.255  1.00  0.00    -0.246 OA
BRANCH  20  22
ATOM     22  C   UNL A   1      40.746  26.295  27.521  1.00  0.00     0.060 A 
ATOM     23  C   UNL A   1      39.795  25.973  28.490  1.00  0.00     0.016 A 
ATOM     24  C   UNL A   1      41.584  27.393  27.708  1.00  0.00     0.016 A 
ATOM     25  C   UNL A   1      39.638  26.776  29.619  1.00  0.00     0.010 A 
ATOM     26  C   UNL A   1      41.486  28.144  28.884  1.00  0.00     0.010 A 
ATOM     27  C   UNL A   1      40.498  27.858  29.843  1.00  0.00    -0.014 A 
BRANCH  27  28
ATOM     28  C   UNL A   1      40.363  28.700  31.064  1.00  0.00     0.031 A 
ATOM     29  C   UNL A   1      39.317  29.782  31.121  1.00  0.00     0.074 A 
ATOM     30  C   UNL A   1      41.190  28.519  32.114  1.00  0.00     0.049 A 
ATOM     31  N   UNL A   1      39.187  30.760  31.980  1.00  0.00    -0.248 NA
ATOM     32  C   UNL A   1      38.297  29.772  30.060  1.00  0.00     0.031 C 
ATOM     33  C   UNL A   1      42.218  27.482  32.222  1.00  0.00     0.029 A 
ATOM     34  N   UNL A   1      41.298  29.213  33.296  1.00  0.00    -0.354 N 
ATOM     35  C   UNL A   1      38.112  31.519  31.529  1.00  0.00     0.074 A 
ATOM     36  C   UNL A   1      37.624  30.884  30.323  1.00  0.00     0.031 C 
ATOM     37  C   UNL A   1      42.830  27.589  33.412  1.00  0.00     0.029 A 
ATOM     38  C   UNL A   1      42.302  28.753  34.114  1.00  0.00     0.049 A 
ATOM     39  H   UNL A   1      40.712  29.968  33.532  1.00  0.00     0.167 HD
ATOM     40  C   UNL A   1      37.587  32.645  32.068  1.00  0.00     0.031 A 
ATOM     41  C   UNL A   1      42.781  29.233  35.277  1.00  0.00     0.031 A 
ATOM     42  C   UNL A   1      38.045  33.246  33.293  1.00  0.00     0.049 A 
ATOM     43  C   UNL A   1      42.197  30.494  35.847  1.00  0.00     0.074 A 
ATOM     44  C   UNL A   1      37.566  34.379  33.929  1.00  0.00     0.029 A 
ATOM     45  N   UNL A   1      39.073  32.752  34.081  1.00  0.00    -0.354 N 
ATOM     46  N   UNL A   1      41.224  31.236  35.376  1.00  0.00    -0.248 NA
ATOM     47  C   UNL A   1      42.789  30.993  37.096  1.00  0.00     0.031 C 
ATOM     48  C   UNL A   1      38.330  34.589  35.083  1.00  0.00     0.029 A 
ATOM     49  C   UNL A   1      39.253  33.562  35.189  1.00  0.00     0.049 A 
ATOM     50  H   UNL A   1      39.599  31.943  33.881  1.00  0.00     0.167 HD
ATOM     51  C   UNL A   1      41.083  32.287  36.272  1.00  0.00     0.074 A 
ATOM     52  C   UNL A   1      42.055  32.075  37.326  1.00  0.00     0.031 C 
ATOM     53  C   UNL A   1      40.230  33.340  36.225  1.00  0.00     0.031 A 
BRANCH  40  54
ATOM     54  C   UNL A   1      36.483  33.332  31.308  1.00  0.00    -0.014 A 
ATOM     55  C   UNL A   1      35.182  33.436  31.831  1.00  0.00     0.010 A 
ATOM     56  C   UNL A   1      36.767  33.914  30.058  1.00  0.00     0.010 A 
ATOM     57  C   UNL A   1      34.176  34.077  31.101  1.00  0.00     0.020 A 
ATOM     58  C   UNL A   1      35.771  34.577  29.337  1.00  0.00     0.020 A 
ATOM     59  C   UNL A   1      34.476  34.639  29.855  1.00  0.00     0.054 A 
BRANCH  59  60
ATOM     60  S   UNL A   1      33.162  35.486  28.935  1.00  0.00     0.124 S 
ATOM     61  O   UNL A   1      32.541  34.380  28.210  1.00  0.00    -0.237 OA
ATOM     62  O   UNL A   1      32.351  36.076  29.996  1.00  0.00    -0.237 OA
ATOM     63  O   UNL A   1      33.884  36.446  28.104  1.00  0.00    -0.744 OA
ENDBRANCH  59  60
ENDBRANCH  40  54
BRANCH  41  64
ATOM     64  C   UNL A   1      43.913  28.542  35.950  1.00  0.00    -0.014 A 
ATOM     65  C   UNL A   1      45.241  28.910  35.673  1.00  0.00     0.010 A 
ATOM     66  C   UNL A   1      43.666  27.534  36.901  1.00  0.00     0.010 A 
ATOM     67  C   UNL A   1      46.301  28.281  36.333  1.00  0.00     0.020 A 
ATOM     68  C   UNL A   1      44.722  26.922  37.581  1.00  0.00     0.020 A 
ATOM     69  C   UNL A   1      46.035  27.294  37.287  1.00  0.00     0.054 A 
BRANCH  69  70
ATOM     70  S   UNL A   1      47.418  26.546  38.192  1.00  0.00     0.124 S 
ATOM     71  O   UNL A   1      48.311  26.151  37.107  1.00  0.00    -0.237 OA
ATOM     72  O   UNL A   1      47.886  27.647  39.029  1.00  0.00    -0.237 OA
ATOM     73  O   UNL A   1      46.790  25.445  38.921  1.00  0.00    -0.744 OA
ENDBRANCH  69  70
ENDBRANCH  41  64
BRANCH  53  74
ATOM     74  C   UNL A   1      40.295  34.327  37.356  1.00  0.00    -0.014 A 
ATOM     75  C   UNL A   1      41.074  35.493  37.256  1.00  0.00     0.010 A 
ATOM     76  C   UNL A   1      39.535  34.105  38.519  1.00  0.00     0.010 A 
ATOM     77  C   UNL A   1      41.117  36.405  38.312  1.00  0.00     0.020 A 
ATOM     78  C   UNL A   1      39.560  35.025  39.569  1.00  0.00     0.020 A 
ATOM     79  C   UNL A   1      40.363  36.163  39.465  1.00  0.00     0.054 A 
BRANCH  79  80
ATOM     80  S   UNL A   1      40.405  37.378  40.811  1.00  0.00     0.124 S 
ATOM     81  O   UNL A   1      41.522  36.896  41.620  1.00  0.00    -0.237 OA
ATOM     82  O   UNL A   1      40.637  38.636  40.107  1.00  0.00    -0.237 OA
ATOM     83  O   UNL A   1      39.087  37.253  41.432  1.00  0.00    -0.744 OA
ENDBRANCH  79  80
ENDBRANCH  53  74
ENDBRANCH  27  28
ENDBRANCH  20  22
ENDBRANCH  19  20
ENDBRANCH  18  19
ENDBRANCH   1  18
TORSDOF 17
ENDMDL
