MODEL 1
REMARK VINA RESULT:     -10.7      0.000      0.000
REMARK SMILES Cn1ccnc1[C@@H]1[C@@H](C(=O)OCCOC(=O)c2ccc(-c3c4nc(c(-c5ccc(S(=O)(=O)[O-])cc5)c5ccc([nH]5)c(-c5ccc(S(=O)(=O)[O-])cc5)c5nc(c(-c6ccc(S(=O)(=O)[O-])cc6)c6ccc3[nH]6)C=C5)C=C4)cc2)CC(=O)N1CCCOC1CCCCC1
REMARK SMILES IDX 12 1 11 2 9 3 10 4 8 5 7 6 80 7 77 8 78 9 79 10 6 11 1 12
REMARK SMILES IDX 2 13 3 14 4 15 5 16 81 17 82 18 83 19 84 20 85 21 86 22
REMARK SMILES IDX 90 23 87 24 89 25 88 26 13 27 14 28 15 29 16 30 17 31 18 32
REMARK SMILES IDX 76 33 19 34 75 35 20 36 21 37 22 38 69 39 23 40 74 41 68 42
REMARK SMILES IDX 70 43 24 44 73 45 67 46 66 47 25 49 55 50 36 51 54 52 37 53
REMARK SMILES IDX 40 54 53 55 71 56 38 57 39 58 52 60 72 61 41 62 26 63 27 64
REMARK SMILES IDX 35 65 28 66 34 67 29 68 30 69 31 70 32 71 33 72 56 73 57 74
REMARK SMILES IDX 65 75 58 76 64 77 59 78 60 79 61 80 62 81 63 82 42 83 43 84
REMARK SMILES IDX 51 85 44 86 50 87 45 88 46 89 47 90 48 91 49 92
REMARK H PARENT 70 48 40 59
REMARK Flexibility Score: inf
ROOT
ATOM      1  C   UNL A   1      37.248  23.920  26.000  1.00  0.00     0.274 C 
ENDROOT
BRANCH   1   2
ATOM      2  O   UNL A   1      36.445  22.744  25.801  1.00  0.00    -0.462 OA
BRANCH   2   3
ATOM      3  C   UNL A   1      36.109  22.513  24.513  1.00  0.00     0.312 C 
ATOM      4  O   UNL A   1      36.852  22.672  23.551  1.00  0.00    -0.252 OA
BRANCH   3   5
ATOM      5  C   UNL A   1      34.713  22.006  24.341  1.00  0.00     0.139 C 
ATOM      6  C   UNL A   1      33.724  22.965  24.972  1.00  0.00     0.166 C 
ATOM      7  N   UNL A   1      32.522  22.154  25.127  1.00  0.00    -0.331 N 
ATOM      8  C   UNL A   1      34.350  20.647  24.888  1.00  0.00     0.118 C 
ATOM      9  C   UNL A   1      32.866  20.786  25.081  1.00  0.00     0.224 C 
ATOM     10  O   UNL A   1      32.108  19.847  25.281  1.00  0.00    -0.275 OA
BRANCH   6  11
ATOM     11  C   UNL A   1      33.623  24.250  24.181  1.00  0.00     0.132 A 
ATOM     12  C   UNL A   1      33.057  23.505  21.770  1.00  0.00     0.151 C 
ATOM     13  N   UNL A   1      33.398  24.434  22.822  1.00  0.00    -0.336 N 
ATOM     14  C   UNL A   1      33.598  25.765  22.537  1.00  0.00     0.107 A 
ATOM     15  C   UNL A   1      33.950  26.344  23.723  1.00  0.00     0.131 A 
ATOM     16  N   UNL A   1      33.962  25.413  24.724  1.00  0.00    -0.239 NA
ENDBRANCH   6  11
BRANCH   7  17
ATOM     17  C   UNL A   1      31.310  22.453  25.899  1.00  0.00     0.122 C 
BRANCH  17  18
ATOM     18  C   UNL A   1      31.070  23.766  26.633  1.00  0.00     0.050 C 
BRANCH  18  19
ATOM     19  C   UNL A   1      30.481  24.991  25.941  1.00  0.00     0.162 C 
BRANCH  19  20
ATOM     20  O   UNL A   1      30.424  26.180  26.724  1.00  0.00    -0.378 OA
BRANCH  20  21
ATOM     21  C   UNL A   1      31.415  27.165  26.388  1.00  0.00     0.118 C 
ATOM     22  C   UNL A   1      30.969  27.857  25.104  1.00  0.00     0.032 C 
ATOM     23  C   UNL A   1      31.563  28.150  27.549  1.00  0.00     0.032 C 
ATOM     24  C   UNL A   1      31.640  29.174  24.768  1.00  0.00     0.003 C 
ATOM     25  C   UNL A   1      32.393  29.367  27.145  1.00  0.00     0.003 C 
ATOM     26  C   UNL A   1      31.751  30.091  25.967  1.00  0.00     0.000 C 
ENDBRANCH  20  21
ENDBRANCH  19  20
ENDBRANCH  18  19
ENDBRANCH  17  18
ENDBRANCH   7  17
ENDBRANCH   3   5
ENDBRANCH   2   3
ENDBRANCH   1   2
BRANCH   1  27
ATOM     27  C   UNL A   1      38.662  23.565  26.478  1.00  0.00     0.275 C 
BRANCH  27  28
ATOM     28  O   UNL A   1      39.107  24.369  27.592  1.00  0.00    -0.458 OA
BRANCH  28  29
ATOM     29  C   UNL A   1      39.756  25.513  27.260  1.00  0.00     0.338 C 
ATOM     30  O   UNL A   1      40.209  25.800  26.164  1.00  0.00    -0.246 OA
BRANCH  29  31
ATOM     31  C   UNL A   1      39.714  26.483  28.369  1.00  0.00     0.060 A 
ATOM     32  C   UNL A   1      40.593  27.568  28.319  1.00  0.00     0.016 A 
ATOM     33  C   UNL A   1      38.927  26.280  29.499  1.00  0.00     0.016 A 
ATOM     34  C   UNL A   1      40.700  28.453  29.384  1.00  0.00     0.010 A 
ATOM     35  C   UNL A   1      39.022  27.178  30.571  1.00  0.00     0.010 A 
ATOM     36  C   UNL A   1      39.915  28.266  30.523  1.00  0.00    -0.014 A 
BRANCH  36  37
ATOM     37  C   UNL A   1      40.071  29.190  31.672  1.00  0.00     0.031 A 
ATOM     38  C   UNL A   1      41.227  29.022  32.615  1.00  0.00     0.074 A 
ATOM     39  C   UNL A   1      39.193  30.196  31.850  1.00  0.00     0.049 A 
ATOM     40  N   UNL A   1      41.472  29.643  33.739  1.00  0.00    -0.248 NA
ATOM     41  C   UNL A   1      42.242  28.023  32.244  1.00  0.00     0.031 C 
ATOM     42  C   UNL A   1      38.071  30.508  30.961  1.00  0.00     0.029 A 
ATOM     43  N   UNL A   1      39.102  31.139  32.841  1.00  0.00    -0.354 N 
ATOM     44  C   UNL A   1      42.645  29.084  34.233  1.00  0.00     0.074 A 
ATOM     45  C   UNL A   1      43.062  28.072  33.285  1.00  0.00     0.031 C 
ATOM     46  C   UNL A   1      37.406  31.566  31.449  1.00  0.00     0.029 A 
ATOM     47  C   UNL A   1      38.012  31.965  32.715  1.00  0.00     0.049 A 
ATOM     48  H   UNL A   1      39.758  31.218  33.573  1.00  0.00     0.167 HD
ATOM     49  C   UNL A   1      43.305  29.383  35.377  1.00  0.00     0.031 A 
ATOM     50  C   UNL A   1      37.523  32.906  33.548  1.00  0.00     0.031 A 
ATOM     51  C   UNL A   1      42.884  30.397  36.309  1.00  0.00     0.049 A 
ATOM     52  C   UNL A   1      38.234  33.170  34.847  1.00  0.00     0.074 A 
ATOM     53  C   UNL A   1      43.489  30.782  37.493  1.00  0.00     0.029 A 
ATOM     54  N   UNL A   1      41.752  31.185  36.164  1.00  0.00    -0.354 N 
ATOM     55  N   UNL A   1      39.329  32.618  35.313  1.00  0.00    -0.248 NA
ATOM     56  C   UNL A   1      37.639  34.177  35.736  1.00  0.00     0.031 C 
ATOM     57  C   UNL A   1      42.693  31.764  38.090  1.00  0.00     0.029 A 
ATOM     58  C   UNL A   1      41.624  32.035  37.249  1.00  0.00     0.049 A 
ATOM     59  H   UNL A   1      41.131  31.145  35.401  1.00  0.00     0.167 HD
ATOM     60  C   UNL A   1      39.564  33.222  36.542  1.00  0.00     0.074 A 
ATOM     61  C   UNL A   1      38.507  34.195  36.737  1.00  0.00     0.031 C 
ATOM     62  C   UNL A   1      40.563  32.993  37.429  1.00  0.00     0.031 A 
BRANCH  49  63
ATOM     63  C   UNL A   1      44.521  28.559  35.714  1.00  0.00    -0.014 A 
ATOM     64  C   UNL A   1      45.809  28.943  35.303  1.00  0.00     0.010 A 
ATOM     65  C   UNL A   1      44.367  27.390  36.482  1.00  0.00     0.010 A 
ATOM     66  C   UNL A   1      46.916  28.149  35.618  1.00  0.00     0.020 A 
ATOM     67  C   UNL A   1      45.474  26.609  36.821  1.00  0.00     0.020 A 
ATOM     68  C   UNL A   1      46.741  26.984  36.371  1.00  0.00     0.054 A 
BRANCH  68  69
ATOM     69  S   UNL A   1      48.195  25.977  36.774  1.00  0.00     0.124 S 
ATOM     70  O   UNL A   1      47.727  25.225  37.937  1.00  0.00    -0.237 OA
ATOM     71  O   UNL A   1      48.390  25.193  35.557  1.00  0.00    -0.237 OA
ATOM     72  O   UNL A   1      49.236  26.964  37.050  1.00  0.00    -0.744 OA
ENDBRANCH  68  69
ENDBRANCH  49  63
BRANCH  50  73
ATOM     73  C   UNL A   1      36.267  33.623  33.199  1.00  0.00    -0.014 A 
ATOM     74  C   UNL A   1      36.297  34.962  32.774  1.00  0.00     0.010 A 
ATOM     75  C   UNL A   1      35.028  32.956  33.272  1.00  0.00     0.010 A 
ATOM     76  C   UNL A   1      35.112  35.623  32.434  1.00  0.00     0.020 A 
ATOM     77  C   UNL A   1      33.847  33.603  32.906  1.00  0.00     0.020 A 
ATOM     78  C   UNL A   1      33.895  34.937  32.498  1.00  0.00     0.054 A 
BRANCH  78  79
ATOM     79  S   UNL A   1      32.379  35.794  31.987  1.00  0.00     0.124 S 
ATOM     80  O   UNL A   1      32.327  35.493  30.561  1.00  0.00    -0.237 OA
ATOM     81  O   UNL A   1      31.360  35.147  32.810  1.00  0.00    -0.237 OA
ATOM     82  O   UNL A   1      32.646  37.190  32.324  1.00  0.00    -0.744 OA
ENDBRANCH  78  79
ENDBRANCH  50  73
BRANCH  62  83
ATOM     83  C   UNL A   1      40.579  33.828  38.682  1.00  0.00    -0.014 A 
ATOM     84  C   UNL A   1      39.920  33.403  39.850  1.00  0.00     0.010 A 
ATOM     85  C   UNL A   1      41.307  35.032  38.703  1.00  0.00     0.010 A 
ATOM     86  C   UNL A   1      39.966  34.182  41.009  1.00  0.00     0.020 A 
ATOM     87  C   UNL A   1      41.377  35.799  39.868  1.00  0.00     0.020 A 
ATOM     88  C   UNL A   1      40.695  35.375  41.010  1.00  0.00     0.054 A 
BRANCH  88  89
ATOM     89  S   UNL A   1      40.777  36.347  42.540  1.00  0.00     0.124 S 
ATOM     90  O   UNL A   1      41.415  35.410  43.461  1.00  0.00    -0.237 OA
ATOM     91  O   UNL A   1      41.589  37.496  42.148  1.00  0.00    -0.237 OA
ATOM     92  O   UNL A   1      39.378  36.652  42.832  1.00  0.00    -0.744 OA
ENDBRANCH  88  89
ENDBRANCH  62  83
ENDBRANCH  36  37
ENDBRANCH  29  31
ENDBRANCH  28  29
ENDBRANCH  27  28
ENDBRANCH   1  27
TORSDOF 20
ENDMDL
MODEL 2
REMARK VINA RESULT:     -10.6      4.552     10.481
REMARK SMILES Cn1ccnc1[C@@H]1[C@@H](C(=O)OCCOC(=O)c2ccc(-c3c4nc(c(-c5ccc(S(=O)(=O)[O-])cc5)c5ccc([nH]5)c(-c5ccc(S(=O)(=O)[O-])cc5)c5nc(c(-c6ccc(S(=O)(=O)[O-])cc6)c6ccc3[nH]6)C=C5)C=C4)cc2)CC(=O)N1CCCOC1CCCCC1
REMARK SMILES IDX 12 1 11 2 9 3 10 4 8 5 7 6 80 7 77 8 78 9 79 10 6 11 1 12
REMARK SMILES IDX 2 13 3 14 4 15 5 16 81 17 82 18 83 19 84 20 85 21 86 22
REMARK SMILES IDX 90 23 87 24 89 25 88 26 13 27 14 28 15 29 16 30 17 31 18 32
REMARK SMILES IDX 76 33 19 34 75 35 20 36 21 37 22 38 69 39 23 40 74 41 68 42
REMARK SMILES IDX 70 43 24 44 73 45 67 46 66 47 25 49 55 50 36 51 54 52 37 53
REMARK SMILES IDX 40 54 53 55 71 56 38 57 39 58 52 60 72 61 41 62 26 63 27 64
REMARK SMILES IDX 35 65 28 66 34 67 29 68 30 69 31 70 32 71 33 72 56 73 57 74
REMARK SMILES IDX 65 75 58 76 64 77 59 78 60 79 61 80 62 81 63 82 42 83 43 84
REMARK SMILES IDX 51 85 44 86 50 87 45 88 46 89 47 90 48 91 49 92
REMARK H PARENT 70 48 40 59
REMARK Flexibility Score: inf
ROOT
ATOM      1  C   UNL A   1      31.716  28.862  26.926  1.00  0.00     0.274 C 
ENDROOT
BRANCH   1   2
ATOM      2  O   UNL A   1      32.584  27.747  27.191  1.00  0.00    -0.462 OA
BRANCH   2   3
ATOM      3  C   UNL A   1      32.253  26.616  26.530  1.00  0.00     0.312 C 
ATOM      4  O   UNL A   1      31.227  25.969  26.710  1.00  0.00    -0.252 OA
BRANCH   3   5
ATOM      5  C   UNL A   1      33.261  26.205  25.506  1.00  0.00     0.139 C 
ATOM      6  C   UNL A   1      32.568  25.725  24.248  1.00  0.00     0.166 C 
ATOM      7  N   UNL A   1      33.605  24.964  23.561  1.00  0.00    -0.331 N 
ATOM      8  C   UNL A   1      34.257  25.122  25.846  1.00  0.00     0.118 C 
ATOM      9  C   UNL A   1      34.610  24.598  24.482  1.00  0.00     0.224 C 
ATOM     10  O   UNL A   1      35.566  23.870  24.252  1.00  0.00    -0.275 OA
BRANCH   6  11
ATOM     11  C   UNL A   1      31.914  26.872  23.508  1.00  0.00     0.132 A 
ATOM     12  C   UNL A   1      33.799  28.613  23.184  1.00  0.00     0.151 C 
ATOM     13  N   UNL A   1      32.451  28.097  23.129  1.00  0.00    -0.336 N 
ATOM     14  C   UNL A   1      31.422  28.885  22.670  1.00  0.00     0.107 A 
ATOM     15  C   UNL A   1      30.294  28.125  22.797  1.00  0.00     0.131 A 
ATOM     16  N   UNL A   1      30.602  26.895  23.309  1.00  0.00    -0.239 NA
ENDBRANCH   6  11
BRANCH   7  17
ATOM     17  C   UNL A   1      33.468  24.056  22.416  1.00  0.00     0.122 C 
BRANCH  17  18
ATOM     18  C   UNL A   1      32.423  22.951  22.326  1.00  0.00     0.050 C 
BRANCH  18  19
ATOM     19  C   UNL A   1      32.331  21.830  23.356  1.00  0.00     0.162 C 
BRANCH  19  20
ATOM     20  O   UNL A   1      31.977  20.546  22.850  1.00  0.00    -0.378 OA
BRANCH  20  21
ATOM     21  C   UNL A   1      32.412  19.443  23.660  1.00  0.00     0.118 C 
ATOM     22  C   UNL A   1      32.431  18.197  22.782  1.00  0.00     0.032 C 
ATOM     23  C   UNL A   1      33.793  19.755  24.242  1.00  0.00     0.032 C 
ATOM     24  C   UNL A   1      33.211  17.005  23.299  1.00  0.00     0.003 C 
ATOM     25  C   UNL A   1      34.421  18.518  24.881  1.00  0.00     0.003 C 
ATOM     26  C   UNL A   1      34.562  17.396  23.859  1.00  0.00     0.000 C 
ENDBRANCH  20  21
ENDBRANCH  19  20
ENDBRANCH  18  19
ENDBRANCH  17  18
ENDBRANCH   7  17
ENDBRANCH   3   5
ENDBRANCH   2   3
ENDBRANCH   1   2
BRANCH   1  27
ATOM     27  C   UNL A   1      32.511  30.146  26.655  1.00  0.00     0.275 C 
BRANCH  27  28
ATOM     28  O   UNL A   1      33.941  29.964  26.751  1.00  0.00    -0.458 OA
BRANCH  28  29
ATOM     29  C   UNL A   1      34.551  30.666  27.738  1.00  0.00     0.338 C 
ATOM     30  O   UNL A   1      34.054  31.553  28.412  1.00  0.00    -0.246 OA
BRANCH  29  31
ATOM     31  C   UNL A   1      35.885  30.114  28.030  1.00  0.00     0.060 A 
ATOM     32  C   UNL A   1      36.133  29.663  29.329  1.00  0.00     0.016 A 
ATOM     33  C   UNL A   1      36.918  30.145  27.098  1.00  0.00     0.016 A 
ATOM     34  C   UNL A   1      37.402  29.246  29.713  1.00  0.00     0.010 A 
ATOM     35  C   UNL A   1      38.197  29.714  27.477  1.00  0.00     0.010 A 
ATOM     36  C   UNL A   1      38.449  29.269  28.789  1.00  0.00    -0.014 A 
BRANCH  36  37
ATOM     37  C   UNL A   1      39.808  28.866  29.223  1.00  0.00     0.031 A 
ATOM     38  C   UNL A   1      40.663  29.829  29.995  1.00  0.00     0.074 A 
ATOM     39  C   UNL A   1      40.261  27.627  28.949  1.00  0.00     0.049 A 
ATOM     40  N   UNL A   1      41.914  29.714  30.356  1.00  0.00    -0.248 NA
ATOM     41  C   UNL A   1      40.026  31.087  30.416  1.00  0.00     0.031 C 
ATOM     42  C   UNL A   1      39.497  26.576  28.271  1.00  0.00     0.029 A 
ATOM     43  N   UNL A   1      41.475  27.042  29.204  1.00  0.00    -0.354 N 
ATOM     44  C   UNL A   1      42.229  30.899  31.010  1.00  0.00     0.074 A 
ATOM     45  C   UNL A   1      41.036  31.720  30.995  1.00  0.00     0.031 C 
ATOM     46  C   UNL A   1      40.262  25.479  28.163  1.00  0.00     0.029 A 
ATOM     47  C   UNL A   1      41.587  25.768  28.701  1.00  0.00     0.049 A 
ATOM     48  H   UNL A   1      42.198  27.493  29.700  1.00  0.00     0.167 HD
ATOM     49  C   UNL A   1      43.408  31.270  31.563  1.00  0.00     0.031 A 
ATOM     50  C   UNL A   1      42.650  24.942  28.636  1.00  0.00     0.031 A 
ATOM     51  C   UNL A   1      44.586  30.442  31.579  1.00  0.00     0.049 A 
ATOM     52  C   UNL A   1      43.969  25.404  29.193  1.00  0.00     0.074 A 
ATOM     53  C   UNL A   1      45.828  30.722  32.121  1.00  0.00     0.029 A 
ATOM     54  N   UNL A   1      44.670  29.173  31.025  1.00  0.00    -0.354 N 
ATOM     55  N   UNL A   1      44.259  26.536  29.788  1.00  0.00    -0.248 NA
ATOM     56  C   UNL A   1      45.104  24.480  29.063  1.00  0.00     0.031 C 
ATOM     57  C   UNL A   1      46.677  29.645  31.848  1.00  0.00     0.029 A 
ATOM     58  C   UNL A   1      45.948  28.668  31.187  1.00  0.00     0.049 A 
ATOM     59  H   UNL A   1      43.928  28.701  30.581  1.00  0.00     0.167 HD
ATOM     60  C   UNL A   1      45.606  26.455  30.118  1.00  0.00     0.074 A 
ATOM     61  C   UNL A   1      46.068  25.156  29.673  1.00  0.00     0.031 C 
ATOM     62  C   UNL A   1      46.392  27.374  30.733  1.00  0.00     0.031 A 
BRANCH  49  63
ATOM     63  C   UNL A   1      43.499  32.657  32.144  1.00  0.00    -0.014 A 
ATOM     64  C   UNL A   1      43.891  33.759  31.365  1.00  0.00     0.010 A 
ATOM     65  C   UNL A   1      43.156  32.860  33.494  1.00  0.00     0.010 A 
ATOM     66  C   UNL A   1      43.981  35.032  31.937  1.00  0.00     0.020 A 
ATOM     67  C   UNL A   1      43.220  34.135  34.062  1.00  0.00     0.020 A 
ATOM     68  C   UNL A   1      43.649  35.210  33.284  1.00  0.00     0.054 A 
BRANCH  68  69
ATOM     69  S   UNL A   1      43.765  36.873  33.999  1.00  0.00     0.124 S 
ATOM     70  O   UNL A   1      43.586  37.720  32.822  1.00  0.00    -0.237 OA
ATOM     71  O   UNL A   1      42.662  36.888  34.957  1.00  0.00    -0.237 OA
ATOM     72  O   UNL A   1      45.101  36.905  34.591  1.00  0.00    -0.744 OA
ENDBRANCH  68  69
ENDBRANCH  49  63
BRANCH  50  73
ATOM     73  C   UNL A   1      42.518  23.617  27.970  1.00  0.00    -0.014 A 
ATOM     74  C   UNL A   1      42.915  23.441  26.633  1.00  0.00     0.010 A 
ATOM     75  C   UNL A   1      42.010  22.515  28.683  1.00  0.00     0.010 A 
ATOM     76  C   UNL A   1      42.801  22.189  26.021  1.00  0.00     0.020 A 
ATOM     77  C   UNL A   1      41.922  21.257  28.085  1.00  0.00     0.020 A 
ATOM     78  C   UNL A   1      42.310  21.104  26.753  1.00  0.00     0.054 A 
BRANCH  78  79
ATOM     79  S   UNL A   1      42.234  19.473  25.959  1.00  0.00     0.124 S 
ATOM     80  O   UNL A   1      40.812  19.346  25.663  1.00  0.00    -0.237 OA
ATOM     81  O   UNL A   1      43.110  19.645  24.803  1.00  0.00    -0.237 OA
ATOM     82  O   UNL A   1      42.745  18.570  26.988  1.00  0.00    -0.744 OA
ENDBRANCH  78  79
ENDBRANCH  50  73
BRANCH  62  83
ATOM     83  C   UNL A   1      47.826  26.996  30.987  1.00  0.00    -0.014 A 
ATOM     84  C   UNL A   1      48.208  26.339  32.170  1.00  0.00     0.010 A 
ATOM     85  C   UNL A   1      48.797  27.259  30.003  1.00  0.00     0.010 A 
ATOM     86  C   UNL A   1      49.542  25.977  32.378  1.00  0.00     0.020 A 
ATOM     87  C   UNL A   1      50.126  26.874  30.194  1.00  0.00     0.020 A 
ATOM     88  C   UNL A   1      50.492  26.247  31.387  1.00  0.00     0.054 A 
BRANCH  88  89
ATOM     89  S   UNL A   1      52.209  25.727  31.660  1.00  0.00     0.124 S 
ATOM     90  O   UNL A   1      52.048  24.318  32.008  1.00  0.00    -0.237 OA
ATOM     91  O   UNL A   1      52.833  25.989  30.366  1.00  0.00    -0.237 OA
ATOM     92  O   UNL A   1      52.663  26.590  32.749  1.00  0.00    -0.744 OA
ENDBRANCH  88  89
ENDBRANCH  62  83
ENDBRANCH  36  37
ENDBRANCH  29  31
ENDBRANCH  28  29
ENDBRANCH  27  28
ENDBRANCH   1  27
TORSDOF 20
ENDMDL
MODEL 3
REMARK VINA RESULT:     -10.5      2.956      8.098
REMARK SMILES Cn1ccnc1[C@@H]1[C@@H](C(=O)OCCOC(=O)c2ccc(-c3c4nc(c(-c5ccc(S(=O)(=O)[O-])cc5)c5ccc([nH]5)c(-c5ccc(S(=O)(=O)[O-])cc5)c5nc(c(-c6ccc(S(=O)(=O)[O-])cc6)c6ccc3[nH]6)C=C5)C=C4)cc2)CC(=O)N1CCCOC1CCCCC1
REMARK SMILES IDX 12 1 11 2 9 3 10 4 8 5 7 6 80 7 77 8 78 9 79 10 6 11 1 12
REMARK SMILES IDX 2 13 3 14 4 15 5 16 81 17 82 18 83 19 84 20 85 21 86 22
REMARK SMILES IDX 90 23 87 24 89 25 88 26 13 27 14 28 15 29 16 30 17 31 18 32
REMARK SMILES IDX 76 33 19 34 75 35 20 36 21 37 22 38 69 39 23 40 74 41 68 42
REMARK SMILES IDX 70 43 24 44 73 45 67 46 66 47 25 49 55 50 36 51 54 52 37 53
REMARK SMILES IDX 40 54 53 55 71 56 38 57 39 58 52 60 72 61 41 62 26 63 27 64
REMARK SMILES IDX 35 65 28 66 34 67 29 68 30 69 31 70 32 71 33 72 56 73 57 74
REMARK SMILES IDX 65 75 58 76 64 77 59 78 60 79 61 80 62 81 63 82 42 83 43 84
REMARK SMILES IDX 51 85 44 86 50 87 45 88 46 89 47 90 48 91 49 92
REMARK H PARENT 70 48 40 59
REMARK Flexibility Score: inf
ROOT
ATOM      1  C   UNL A   1      32.422  28.264  27.455  1.00  0.00     0.274 C 
ENDROOT
BRANCH   1   2
ATOM      2  O   UNL A   1      31.218  27.638  26.978  1.00  0.00    -0.462 OA
BRANCH   2   3
ATOM      3  C   UNL A   1      31.392  26.381  26.515  1.00  0.00     0.312 C 
ATOM      4  O   UNL A   1      30.662  25.429  26.768  1.00  0.00    -0.252 OA
BRANCH   3   5
ATOM      5  C   UNL A   1      32.578  26.234  25.617  1.00  0.00     0.139 C 
ATOM      6  C   UNL A   1      32.135  25.860  24.217  1.00  0.00     0.166 C 
ATOM      7  N   UNL A   1      33.348  25.324  23.612  1.00  0.00    -0.331 N 
ATOM      8  C   UNL A   1      33.650  25.232  25.972  1.00  0.00     0.118 C 
ATOM      9  C   UNL A   1      34.255  24.947  24.625  1.00  0.00     0.224 C 
ATOM     10  O   UNL A   1      35.321  24.370  24.458  1.00  0.00    -0.275 OA
BRANCH   6  11
ATOM     11  C   UNL A   1      31.445  27.020  23.532  1.00  0.00     0.132 A 
ATOM     12  C   UNL A   1      33.244  28.872  23.388  1.00  0.00     0.151 C 
ATOM     13  N   UNL A   1      31.928  28.292  23.252  1.00  0.00    -0.336 N 
ATOM     14  C   UNL A   1      30.873  29.057  22.810  1.00  0.00     0.107 A 
ATOM     15  C   UNL A   1      29.784  28.233  22.847  1.00  0.00     0.131 A 
ATOM     16  N   UNL A   1      30.141  26.989  23.287  1.00  0.00    -0.239 NA
ENDBRANCH   6  11
BRANCH   7  17
ATOM     17  C   UNL A   1      33.491  24.577  22.357  1.00  0.00     0.122 C 
BRANCH  17  18
ATOM     18  C   UNL A   1      33.031  23.137  22.166  1.00  0.00     0.050 C 
BRANCH  18  19
ATOM     19  C   UNL A   1      32.231  22.389  23.227  1.00  0.00     0.162 C 
BRANCH  19  20
ATOM     20  O   UNL A   1      32.968  21.470  24.029  1.00  0.00    -0.378 OA
BRANCH  20  21
ATOM     21  C   UNL A   1      32.382  20.163  24.132  1.00  0.00     0.118 C 
ATOM     22  C   UNL A   1      32.498  19.491  22.768  1.00  0.00     0.032 C 
ATOM     23  C   UNL A   1      33.102  19.370  25.225  1.00  0.00     0.032 C 
ATOM     24  C   UNL A   1      32.305  17.988  22.726  1.00  0.00     0.003 C 
ATOM     25  C   UNL A   1      32.712  17.894  25.192  1.00  0.00     0.003 C 
ATOM     26  C   UNL A   1      33.045  17.277  23.839  1.00  0.00     0.000 C 
ENDBRANCH  20  21
ENDBRANCH  19  20
ENDBRANCH  18  19
ENDBRANCH  17  18
ENDBRANCH   7  17
ENDBRANCH   3   5
ENDBRANCH   2   3
ENDBRANCH   1   2
BRANCH   1  27
ATOM     27  C   UNL A   1      32.499  29.737  27.033  1.00  0.00     0.275 C 
BRANCH  27  28
ATOM     28  O   UNL A   1      33.847  30.188  26.775  1.00  0.00    -0.458 OA
BRANCH  28  29
ATOM     29  C   UNL A   1      34.286  31.191  27.575  1.00  0.00     0.338 C 
ATOM     30  O   UNL A   1      33.651  32.173  27.925  1.00  0.00    -0.246 OA
BRANCH  29  31
ATOM     31  C   UNL A   1      35.615  30.879  28.129  1.00  0.00     0.060 A 
ATOM     32  C   UNL A   1      35.783  29.647  28.765  1.00  0.00     0.016 A 
ATOM     33  C   UNL A   1      36.647  31.814  28.144  1.00  0.00     0.016 A 
ATOM     34  C   UNL A   1      36.968  29.333  29.420  1.00  0.00     0.010 A 
ATOM     35  C   UNL A   1      37.848  31.498  28.794  1.00  0.00     0.010 A 
ATOM     36  C   UNL A   1      38.014  30.259  29.442  1.00  0.00    -0.014 A 
BRANCH  36  37
ATOM     37  C   UNL A   1      39.255  29.932  30.183  1.00  0.00     0.031 A 
ATOM     38  C   UNL A   1      40.154  28.835  29.690  1.00  0.00     0.074 A 
ATOM     39  C   UNL A   1      39.588  30.639  31.280  1.00  0.00     0.049 A 
ATOM     40  N   UNL A   1      41.213  28.318  30.258  1.00  0.00    -0.248 NA
ATOM     41  C   UNL A   1      39.818  28.242  28.386  1.00  0.00     0.031 C 
ATOM     42  C   UNL A   1      38.836  31.776  31.816  1.00  0.00     0.029 A 
ATOM     43  N   UNL A   1      40.645  30.504  32.145  1.00  0.00    -0.354 N 
ATOM     44  C   UNL A   1      41.646  27.312  29.403  1.00  0.00     0.074 A 
ATOM     45  C   UNL A   1      40.735  27.290  28.279  1.00  0.00     0.031 C 
ATOM     46  C   UNL A   1      39.454  32.231  32.917  1.00  0.00     0.029 A 
ATOM     47  C   UNL A   1      40.605  31.381  33.202  1.00  0.00     0.049 A 
ATOM     48  H   UNL A   1      41.364  29.842  32.019  1.00  0.00     0.167 HD
ATOM     49  C   UNL A   1      42.702  26.477  29.551  1.00  0.00     0.031 A 
ATOM     50  C   UNL A   1      41.377  31.461  34.304  1.00  0.00     0.031 A 
ATOM     51  C   UNL A   1      43.606  26.512  30.672  1.00  0.00     0.049 A 
ATOM     52  C   UNL A   1      42.500  30.477  34.481  1.00  0.00     0.074 A 
ATOM     53  C   UNL A   1      44.712  25.715  30.911  1.00  0.00     0.029 A 
ATOM     54  N   UNL A   1      43.508  27.389  31.741  1.00  0.00    -0.354 N 
ATOM     55  N   UNL A   1      42.886  29.515  33.677  1.00  0.00    -0.248 NA
ATOM     56  C   UNL A   1      43.287  30.584  35.717  1.00  0.00     0.031 C 
ATOM     57  C   UNL A   1      45.250  26.074  32.151  1.00  0.00     0.029 A 
ATOM     58  C   UNL A   1      44.515  27.136  32.657  1.00  0.00     0.049 A 
ATOM     59  H   UNL A   1      42.823  28.090  31.836  1.00  0.00     0.167 HD
ATOM     60  C   UNL A   1      43.970  28.912  34.301  1.00  0.00     0.074 A 
ATOM     61  C   UNL A   1      44.191  29.630  35.541  1.00  0.00     0.031 C 
ATOM     62  C   UNL A   1      44.717  27.858  33.888  1.00  0.00     0.031 A 
BRANCH  49  63
ATOM     63  C   UNL A   1      42.901  25.413  28.503  1.00  0.00    -0.014 A 
ATOM     64  C   UNL A   1      42.271  24.160  28.594  1.00  0.00     0.010 A 
ATOM     65  C   UNL A   1      43.716  25.690  27.389  1.00  0.00     0.010 A 
ATOM     66  C   UNL A   1      42.488  23.188  27.613  1.00  0.00     0.020 A 
ATOM     67  C   UNL A   1      43.913  24.731  26.394  1.00  0.00     0.020 A 
ATOM     68  C   UNL A   1      43.312  23.478  26.521  1.00  0.00     0.054 A 
BRANCH  68  69
ATOM     69  S   UNL A   1      43.568  22.202  25.258  1.00  0.00     0.124 S 
ATOM     70  O   UNL A   1      44.898  21.702  25.601  1.00  0.00    -0.237 OA
ATOM     71  O   UNL A   1      42.466  21.277  25.507  1.00  0.00    -0.237 OA
ATOM     72  O   UNL A   1      43.486  22.939  23.999  1.00  0.00    -0.744 OA
ENDBRANCH  68  69
ENDBRANCH  49  63
BRANCH  50  73
ATOM     73  C   UNL A   1      41.074  32.479  35.347  1.00  0.00    -0.014 A 
ATOM     74  C   UNL A   1      41.612  33.774  35.267  1.00  0.00     0.010 A 
ATOM     75  C   UNL A   1      40.224  32.157  36.423  1.00  0.00     0.010 A 
ATOM     76  C   UNL A   1      41.309  34.728  36.244  1.00  0.00     0.020 A 
ATOM     77  C   UNL A   1      39.896  33.114  37.384  1.00  0.00     0.020 A 
ATOM     78  C   UNL A   1      40.450  34.392  37.294  1.00  0.00     0.054 A 
BRANCH  78  79
ATOM     79  S   UNL A   1      40.017  35.665  38.514  1.00  0.00     0.124 S 
ATOM     80  O   UNL A   1      39.771  36.826  37.665  1.00  0.00    -0.237 OA
ATOM     81  O   UNL A   1      38.841  35.092  39.163  1.00  0.00    -0.237 OA
ATOM     82  O   UNL A   1      41.207  35.746  39.358  1.00  0.00    -0.744 OA
ENDBRANCH  78  79
ENDBRANCH  50  73
BRANCH  62  83
ATOM     83  C   UNL A   1      45.861  27.434  34.769  1.00  0.00    -0.014 A 
ATOM     84  C   UNL A   1      47.134  28.016  34.641  1.00  0.00     0.010 A 
ATOM     85  C   UNL A   1      45.642  26.474  35.775  1.00  0.00     0.010 A 
ATOM     86  C   UNL A   1      48.178  27.624  35.483  1.00  0.00     0.020 A 
ATOM     87  C   UNL A   1      46.676  26.100  36.637  1.00  0.00     0.020 A 
ATOM     88  C   UNL A   1      47.941  26.668  36.477  1.00  0.00     0.054 A 
BRANCH  88  89
ATOM     89  S   UNL A   1      49.299  26.209  37.588  1.00  0.00     0.124 S 
ATOM     90  O   UNL A   1      48.701  26.419  38.903  1.00  0.00    -0.237 OA
ATOM     91  O   UNL A   1      49.552  24.816  37.227  1.00  0.00    -0.237 OA
ATOM     92  O   UNL A   1      50.367  27.141  37.233  1.00  0.00    -0.744 OA
ENDBRANCH  88  89
ENDBRANCH  62  83
ENDBRANCH  36  37
ENDBRANCH  29  31
ENDBRANCH  28  29
ENDBRANCH  27  28
ENDBRANCH   1  27
TORSDOF 20
ENDMDL
