MODEL 1
REMARK VINA RESULT:      -9.3      0.000      0.000
REMARK SMILES Cc1ccc(F)c(O[C@H]2CC[C@]([NH2+]C(C)C)(C(=O)OCCOC(=O)c3ccc(-c4c5nc(c(-c6ccc(S(=O)(=O)[O-])cc6)c6ccc([nH]6)c(-c6ccc(S(=O)(=O)[O-])cc6)c6nc(c(-c7ccc(S(=O)(=O)[O-])cc7)c7ccc4[nH]7)C=C6)C=C5)cc3)C2)c1
REMARK SMILES IDX 21 1 20 2 19 3 17 4 18 5 12 6 9 7 10 8 85 9 11 10 8 11 7 12
REMARK SMILES IDX 1 13 2 14 3 15 86 16 4 17 5 18 6 19 13 20 14 23 15 24 16 25
REMARK SMILES IDX 22 26 23 27 24 28 25 29 26 30 84 31 27 32 83 33 28 34 29 35
REMARK SMILES IDX 30 36 77 37 31 38 82 39 76 40 78 41 32 42 81 43 75 44 74 45
REMARK SMILES IDX 33 47 63 48 44 49 62 50 45 51 48 52 61 53 79 54 46 55 47 56
REMARK SMILES IDX 60 58 80 59 49 60 34 61 35 62 43 63 36 64 42 65 37 66 38 67
REMARK SMILES IDX 39 68 40 69 41 70 64 71 65 72 73 73 66 74 72 75 67 76 68 77
REMARK SMILES IDX 69 78 70 79 71 80 50 81 51 82 59 83 52 84 58 85 53 86 54 87
REMARK SMILES IDX 55 88 56 89 57 90
REMARK H PARENT 13 21 13 22 78 46 48 57
REMARK Flexibility Score: inf
ROOT
ATOM      1  C   UNL A   1      39.728  20.948  25.961  1.00  0.00     0.275 C 
ENDROOT
BRANCH   1   2
ATOM      2  C   UNL A   1      41.121  20.405  26.295  1.00  0.00     0.274 C 
BRANCH   2   3
ATOM      3  O   UNL A   1      42.124  21.042  25.479  1.00  0.00    -0.457 OA
BRANCH   3   4
ATOM      4  C   UNL A   1      43.426  20.704  25.719  1.00  0.00     0.368 C 
ATOM      5  O   UNL A   1      43.788  19.547  25.905  1.00  0.00    -0.245 OA
BRANCH   4   6
ATOM      6  C   UNL A   1      44.345  21.956  25.845  1.00  0.00     0.198 C 
ATOM      7  C   UNL A   1      45.010  23.967  24.626  1.00  0.00     0.180 C 
ATOM      8  C   UNL A   1      46.014  22.893  24.235  1.00  0.00     0.052 C 
ATOM      9  C   UNL A   1      43.792  23.108  24.976  1.00  0.00     0.126 C 
ATOM     10  C   UNL A   1      45.766  21.741  25.216  1.00  0.00     0.085 C 
BRANCH   7  11
ATOM     11  O   UNL A   1      45.408  24.674  25.806  1.00  0.00    -0.487 OA
BRANCH  11  12
ATOM     12  C   UNL A   1      45.812  25.977  25.709  1.00  0.00     0.155 A 
ATOM     13  C   UNL A   1      44.249  29.256  26.900  1.00  0.00     0.044 C 
ATOM     14  C   UNL A   1      45.198  28.274  26.275  1.00  0.00    -0.047 A 
ATOM     15  C   UNL A   1      46.377  28.729  25.675  1.00  0.00     0.007 A 
ATOM     16  C   UNL A   1      44.924  26.898  26.284  1.00  0.00     0.053 A 
ATOM     17  C   UNL A   1      47.262  27.822  25.096  1.00  0.00     0.043 A 
ATOM     18  C   UNL A   1      46.978  26.458  25.114  1.00  0.00     0.165 A 
ATOM     19  F   UNL A   1      47.869  25.635  24.543  1.00  0.00    -0.203 F 
ENDBRANCH  11  12
ENDBRANCH   7  11
BRANCH   6  20
ATOM     20  N   UNL A   1      44.615  22.348  27.263  1.00  0.00    -0.330 N 
ATOM     21  H   UNL A   1      45.120  23.234  27.225  1.00  0.00     0.347 HD
ATOM     22  H   UNL A   1      45.094  21.527  27.631  1.00  0.00     0.347 HD
BRANCH  20  23
ATOM     23  C   UNL A   1      43.523  22.535  28.230  1.00  0.00     0.176 C 
ATOM     24  C   UNL A   1      44.162  22.934  29.571  1.00  0.00     0.075 C 
ATOM     25  C   UNL A   1      42.496  23.601  27.855  1.00  0.00     0.075 C 
ENDBRANCH  20  23
ENDBRANCH   6  20
ENDBRANCH   4   6
ENDBRANCH   3   4
ENDBRANCH   2   3
ENDBRANCH   1   2
BRANCH   1  26
ATOM     26  O   UNL A   1      39.400  22.078  26.790  1.00  0.00    -0.458 OA
BRANCH  26  27
ATOM     27  C   UNL A   1      38.840  23.129  26.138  1.00  0.00     0.338 C 
ATOM     28  O   UNL A   1      38.022  23.078  25.237  1.00  0.00    -0.246 OA
BRANCH  27  29
ATOM     29  C   UNL A   1      39.253  24.388  26.789  1.00  0.00     0.060 A 
ATOM     30  C   UNL A   1      38.849  24.589  28.107  1.00  0.00     0.016 A 
ATOM     31  C   UNL A   1      40.011  25.360  26.131  1.00  0.00     0.016 A 
ATOM     32  C   UNL A   1      39.243  25.733  28.796  1.00  0.00     0.010 A 
ATOM     33  C   UNL A   1      40.397  26.517  26.821  1.00  0.00     0.010 A 
ATOM     34  C   UNL A   1      40.036  26.697  28.167  1.00  0.00    -0.014 A 
BRANCH  34  35
ATOM     35  C   UNL A   1      40.466  27.888  28.933  1.00  0.00     0.031 A 
ATOM     36  C   UNL A   1      41.843  27.940  29.520  1.00  0.00     0.074 A 
ATOM     37  C   UNL A   1      39.647  28.952  29.041  1.00  0.00     0.049 A 
ATOM     38  N   UNL A   1      42.403  28.885  30.231  1.00  0.00    -0.248 NA
ATOM     39  C   UNL A   1      42.711  26.782  29.258  1.00  0.00     0.031 C 
ATOM     40  C   UNL A   1      38.329  29.069  28.416  1.00  0.00     0.029 A 
ATOM     41  N   UNL A   1      39.814  30.145  29.700  1.00  0.00    -0.354 N 
ATOM     42  C   UNL A   1      43.688  28.437  30.506  1.00  0.00     0.074 A 
ATOM     43  C   UNL A   1      43.822  27.133  29.888  1.00  0.00     0.031 C 
ATOM     44  C   UNL A   1      37.809  30.270  28.720  1.00  0.00     0.029 A 
ATOM     45  C   UNL A   1      38.730  30.986  29.600  1.00  0.00     0.049 A 
ATOM     46  H   UNL A   1      40.631  30.376  30.198  1.00  0.00     0.167 HD
ATOM     47  C   UNL A   1      44.661  29.050  31.223  1.00  0.00     0.031 A 
ATOM     48  C   UNL A   1      38.496  32.182  30.177  1.00  0.00     0.031 A 
ATOM     49  C   UNL A   1      44.503  30.318  31.884  1.00  0.00     0.049 A 
ATOM     50  C   UNL A   1      39.536  32.770  31.097  1.00  0.00     0.074 A 
ATOM     51  C   UNL A   1      45.418  30.998  32.670  1.00  0.00     0.029 A 
ATOM     52  N   UNL A   1      43.349  31.086  31.860  1.00  0.00    -0.354 N 
ATOM     53  N   UNL A   1      40.742  32.330  31.367  1.00  0.00    -0.248 NA
ATOM     54  C   UNL A   1      39.175  34.006  31.805  1.00  0.00     0.031 C 
ATOM     55  C   UNL A   1      44.792  32.144  33.176  1.00  0.00     0.029 A 
ATOM     56  C   UNL A   1      43.510  32.212  32.651  1.00  0.00     0.049 A 
ATOM     57  H   UNL A   1      42.535  30.865  31.352  1.00  0.00     0.167 HD
ATOM     58  C   UNL A   1      41.286  33.238  32.270  1.00  0.00     0.074 A 
ATOM     59  C   UNL A   1      40.286  34.265  32.481  1.00  0.00     0.031 C 
ATOM     60  C   UNL A   1      42.502  33.221  32.871  1.00  0.00     0.031 A 
BRANCH  47  61
ATOM     61  C   UNL A   1      45.953  28.297  31.394  1.00  0.00    -0.014 A 
ATOM     62  C   UNL A   1      46.998  28.410  30.460  1.00  0.00     0.010 A 
ATOM     63  C   UNL A   1      46.112  27.446  32.503  1.00  0.00     0.010 A 
ATOM     64  C   UNL A   1      48.157  27.642  30.603  1.00  0.00     0.020 A 
ATOM     65  C   UNL A   1      47.279  26.696  32.663  1.00  0.00     0.020 A 
ATOM     66  C   UNL A   1      48.284  26.781  31.698  1.00  0.00     0.054 A 
BRANCH  66  67
ATOM     67  S   UNL A   1      49.784  25.773  31.844  1.00  0.00     0.124 S 
ATOM     68  O   UNL A   1      50.726  26.720  32.437  1.00  0.00    -0.237 OA
ATOM     69  O   UNL A   1      49.356  24.683  32.717  1.00  0.00    -0.237 OA
ATOM     70  O   UNL A   1      50.078  25.384  30.466  1.00  0.00    -0.744 OA
ENDBRANCH  66  67
ENDBRANCH  47  61
BRANCH  48  71
ATOM     71  C   UNL A   1      37.199  32.880  29.953  1.00  0.00    -0.014 A 
ATOM     72  C   UNL A   1      37.062  33.833  28.928  1.00  0.00     0.010 A 
ATOM     73  C   UNL A   1      36.089  32.595  30.772  1.00  0.00     0.010 A 
ATOM     74  C   UNL A   1      35.843  34.490  28.730  1.00  0.00     0.020 A 
ATOM     75  C   UNL A   1      34.862  33.230  30.559  1.00  0.00     0.020 A 
ATOM     76  C   UNL A   1      34.749  34.181  29.544  1.00  0.00     0.054 A 
BRANCH  76  77
ATOM     77  S   UNL A   1      33.163  35.004  29.231  1.00  0.00     0.124 S 
ATOM     78  O   UNL A   1      32.553  34.125  28.238  1.00  0.00    -0.237 OA
ATOM     79  O   UNL A   1      32.537  34.996  30.552  1.00  0.00    -0.237 OA
ATOM     80  O   UNL A   1      33.553  36.325  28.743  1.00  0.00    -0.744 OA
ENDBRANCH  76  77
ENDBRANCH  48  71
BRANCH  60  81
ATOM     81  C   UNL A   1      42.830  34.345  33.819  1.00  0.00    -0.014 A 
ATOM     82  C   UNL A   1      42.725  34.174  35.211  1.00  0.00     0.010 A 
ATOM     83  C   UNL A   1      43.321  35.564  33.316  1.00  0.00     0.010 A 
ATOM     84  C   UNL A   1      43.090  35.205  36.082  1.00  0.00     0.020 A 
ATOM     85  C   UNL A   1      43.713  36.589  34.184  1.00  0.00     0.020 A 
ATOM     86  C   UNL A   1      43.585  36.405  35.562  1.00  0.00     0.054 A 
BRANCH  86  87
ATOM     87  S   UNL A   1      44.115  37.702  36.715  1.00  0.00     0.124 S 
ATOM     88  O   UNL A   1      45.394  37.184  37.192  1.00  0.00    -0.237 OA
ATOM     89  O   UNL A   1      44.195  38.881  35.855  1.00  0.00    -0.237 OA
ATOM     90  O   UNL A   1      43.047  37.739  37.712  1.00  0.00    -0.744 OA
ENDBRANCH  86  87
ENDBRANCH  60  81
ENDBRANCH  34  35
ENDBRANCH  27  29
ENDBRANCH  26  27
ENDBRANCH   1  26
TORSDOF 18
ENDMDL
MODEL 2
REMARK VINA RESULT:      -9.3      4.155     10.736
REMARK SMILES Cc1ccc(F)c(O[C@H]2CC[C@]([NH2+]C(C)C)(C(=O)OCCOC(=O)c3ccc(-c4c5nc(c(-c6ccc(S(=O)(=O)[O-])cc6)c6ccc([nH]6)c(-c6ccc(S(=O)(=O)[O-])cc6)c6nc(c(-c7ccc(S(=O)(=O)[O-])cc7)c7ccc4[nH]7)C=C6)C=C5)cc3)C2)c1
REMARK SMILES IDX 21 1 20 2 19 3 17 4 18 5 12 6 9 7 10 8 85 9 11 10 8 11 7 12
REMARK SMILES IDX 1 13 2 14 3 15 86 16 4 17 5 18 6 19 13 20 14 23 15 24 16 25
REMARK SMILES IDX 22 26 23 27 24 28 25 29 26 30 84 31 27 32 83 33 28 34 29 35
REMARK SMILES IDX 30 36 77 37 31 38 82 39 76 40 78 41 32 42 81 43 75 44 74 45
REMARK SMILES IDX 33 47 63 48 44 49 62 50 45 51 48 52 61 53 79 54 46 55 47 56
REMARK SMILES IDX 60 58 80 59 49 60 34 61 35 62 43 63 36 64 42 65 37 66 38 67
REMARK SMILES IDX 39 68 40 69 41 70 64 71 65 72 73 73 66 74 72 75 67 76 68 77
REMARK SMILES IDX 69 78 70 79 71 80 50 81 51 82 59 83 52 84 58 85 53 86 54 87
REMARK SMILES IDX 55 88 56 89 57 90
REMARK H PARENT 13 21 13 22 78 46 48 57
REMARK Flexibility Score: inf
ROOT
ATOM      1  C   UNL A   1      32.224  29.691  26.770  1.00  0.00     0.275 C 
ENDROOT
BRANCH   1   2
ATOM      2  C   UNL A   1      31.412  28.402  26.612  1.00  0.00     0.274 C 
BRANCH   2   3
ATOM      3  O   UNL A   1      32.083  27.484  25.725  1.00  0.00    -0.457 OA
BRANCH   3   4
ATOM      4  C   UNL A   1      31.293  26.668  24.964  1.00  0.00     0.368 C 
ATOM      5  O   UNL A   1      30.106  26.895  24.760  1.00  0.00    -0.245 OA
BRANCH   4   6
ATOM      6  C   UNL A   1      32.047  25.384  24.504  1.00  0.00     0.198 C 
ATOM      7  C   UNL A   1      34.220  24.641  23.668  1.00  0.00     0.180 C 
ATOM      8  C   UNL A   1      33.388  24.962  22.435  1.00  0.00     0.052 C 
ATOM      9  C   UNL A   1      33.570  25.564  24.701  1.00  0.00     0.126 C 
ATOM     10  C   UNL A   1      31.957  25.140  22.957  1.00  0.00     0.085 C 
BRANCH   7  11
ATOM     11  O   UNL A   1      34.040  23.289  24.104  1.00  0.00    -0.487 OA
BRANCH  11  12
ATOM     12  C   UNL A   1      35.114  22.579  24.563  1.00  0.00     0.155 A 
ATOM     13  C   UNL A   1      38.485  23.651  26.012  1.00  0.00     0.044 C 
ATOM     14  C   UNL A   1      37.351  22.796  25.523  1.00  0.00    -0.047 A 
ATOM     15  C   UNL A   1      37.456  21.403  25.576  1.00  0.00     0.007 A 
ATOM     16  C   UNL A   1      36.178  23.373  25.012  1.00  0.00     0.053 A 
ATOM     17  C   UNL A   1      36.406  20.604  25.127  1.00  0.00     0.043 A 
ATOM     18  C   UNL A   1      35.246  21.192  24.624  1.00  0.00     0.165 A 
ATOM     19  F   UNL A   1      34.270  20.371  24.209  1.00  0.00    -0.203 F 
ENDBRANCH  11  12
ENDBRANCH   7  11
BRANCH   6  20
ATOM     20  N   UNL A   1      31.504  24.132  25.116  1.00  0.00    -0.330 N 
ATOM     21  H   UNL A   1      32.077  23.367  24.760  1.00  0.00     0.347 HD
ATOM     22  H   UNL A   1      30.519  24.169  24.855  1.00  0.00     0.347 HD
BRANCH  20  23
ATOM     23  C   UNL A   1      31.438  23.956  26.575  1.00  0.00     0.176 C 
ATOM     24  C   UNL A   1      30.100  23.267  26.893  1.00  0.00     0.075 C 
ATOM     25  C   UNL A   1      32.562  23.118  27.181  1.00  0.00     0.075 C 
ENDBRANCH  20  23
ENDBRANCH   6  20
ENDBRANCH   4   6
ENDBRANCH   3   4
ENDBRANCH   2   3
ENDBRANCH   1   2
BRANCH   1  26
ATOM     26  O   UNL A   1      33.550  29.411  27.255  1.00  0.00    -0.458 OA
BRANCH  26  27
ATOM     27  C   UNL A   1      34.192  30.465  27.821  1.00  0.00     0.338 C 
ATOM     28  O   UNL A   1      33.709  31.543  28.117  1.00  0.00    -0.246 OA
BRANCH  27  29
ATOM     29  C   UNL A   1      35.567  30.067  28.182  1.00  0.00     0.060 A 
ATOM     30  C   UNL A   1      36.523  30.077  27.168  1.00  0.00     0.016 A 
ATOM     31  C   UNL A   1      35.922  29.682  29.477  1.00  0.00     0.016 A 
ATOM     32  C   UNL A   1      37.849  29.758  27.449  1.00  0.00     0.010 A 
ATOM     33  C   UNL A   1      37.254  29.347  29.757  1.00  0.00     0.010 A 
ATOM     34  C   UNL A   1      38.229  29.410  28.748  1.00  0.00    -0.014 A 
BRANCH  34  35
ATOM     35  C   UNL A   1      39.652  29.105  29.024  1.00  0.00     0.031 A 
ATOM     36  C   UNL A   1      40.519  30.131  29.687  1.00  0.00     0.074 A 
ATOM     37  C   UNL A   1      40.146  27.883  28.747  1.00  0.00     0.049 A 
ATOM     38  N   UNL A   1      41.787  30.062  30.002  1.00  0.00    -0.248 NA
ATOM     39  C   UNL A   1      39.869  31.397  30.058  1.00  0.00     0.031 C 
ATOM     40  C   UNL A   1      39.373  26.763  28.209  1.00  0.00     0.029 A 
ATOM     41  N   UNL A   1      41.413  27.376  28.897  1.00  0.00    -0.354 N 
ATOM     42  C   UNL A   1      42.091  31.274  30.606  1.00  0.00     0.074 A 
ATOM     43  C   UNL A   1      40.874  32.061  30.609  1.00  0.00     0.031 C 
ATOM     44  C   UNL A   1      40.183  25.699  28.078  1.00  0.00     0.029 A 
ATOM     45  C   UNL A   1      41.540  26.074  28.473  1.00  0.00     0.049 A 
ATOM     46  H   UNL A   1      42.160  27.896  29.272  1.00  0.00     0.167 HD
ATOM     47  C   UNL A   1      43.280  31.698  31.099  1.00  0.00     0.031 A 
ATOM     48  C   UNL A   1      42.630  25.286  28.384  1.00  0.00     0.031 A 
ATOM     49  C   UNL A   1      44.499  30.936  31.041  1.00  0.00     0.049 A 
ATOM     50  C   UNL A   1      43.971  25.838  28.795  1.00  0.00     0.074 A 
ATOM     51  C   UNL A   1      45.763  31.300  31.474  1.00  0.00     0.029 A 
ATOM     52  N   UNL A   1      44.614  29.666  30.496  1.00  0.00    -0.354 N 
ATOM     53  N   UNL A   1      44.253  26.994  29.349  1.00  0.00    -0.248 NA
ATOM     54  C   UNL A   1      45.144  24.987  28.552  1.00  0.00     0.031 C 
ATOM     55  C   UNL A   1      46.654  30.277  31.128  1.00  0.00     0.029 A 
ATOM     56  C   UNL A   1      45.934  29.248  30.540  1.00  0.00     0.049 A 
ATOM     57  H   UNL A   1      43.867  29.138  30.132  1.00  0.00     0.167 HD
ATOM     58  C   UNL A   1      45.633  27.006  29.526  1.00  0.00     0.074 A 
ATOM     59  C   UNL A   1      46.126  25.732  29.043  1.00  0.00     0.031 C 
ATOM     60  C   UNL A   1      46.420  27.984  30.039  1.00  0.00     0.031 A 
BRANCH  47  61
ATOM     61  C   UNL A   1      43.321  33.093  31.663  1.00  0.00    -0.014 A 
ATOM     62  C   UNL A   1      43.580  34.207  30.845  1.00  0.00     0.010 A 
ATOM     63  C   UNL A   1      43.115  33.285  33.040  1.00  0.00     0.010 A 
ATOM     64  C   UNL A   1      43.688  35.483  31.405  1.00  0.00     0.020 A 
ATOM     65  C   UNL A   1      43.196  34.563  33.601  1.00  0.00     0.020 A 
ATOM     66  C   UNL A   1      43.507  35.649  32.782  1.00  0.00     0.054 A 
BRANCH  66  67
ATOM     67  S   UNL A   1      43.682  37.310  33.490  1.00  0.00     0.124 S 
ATOM     68  O   UNL A   1      44.889  37.165  34.301  1.00  0.00    -0.237 OA
ATOM     69  O   UNL A   1      43.820  38.152  32.304  1.00  0.00    -0.237 OA
ATOM     70  O   UNL A   1      42.445  37.500  34.244  1.00  0.00    -0.744 OA
ENDBRANCH  66  67
ENDBRANCH  47  61
BRANCH  48  71
ATOM     71  C   UNL A   1      42.514  23.908  27.829  1.00  0.00    -0.014 A 
ATOM     72  C   UNL A   1      42.634  23.675  26.448  1.00  0.00     0.010 A 
ATOM     73  C   UNL A   1      42.276  22.816  28.686  1.00  0.00     0.010 A 
ATOM     74  C   UNL A   1      42.514  22.380  25.934  1.00  0.00     0.020 A 
ATOM     75  C   UNL A   1      42.184  21.517  28.179  1.00  0.00     0.020 A 
ATOM     76  C   UNL A   1      42.295  21.307  26.804  1.00  0.00     0.054 A 
BRANCH  76  77
ATOM     77  S   UNL A   1      42.201  19.629  26.121  1.00  0.00     0.124 S 
ATOM     78  O   UNL A   1      42.630  18.814  27.253  1.00  0.00    -0.237 OA
ATOM     79  O   UNL A   1      40.791  19.515  25.756  1.00  0.00    -0.237 OA
ATOM     80  O   UNL A   1      43.127  19.667  24.991  1.00  0.00    -0.744 OA
ENDBRANCH  76  77
ENDBRANCH  48  71
BRANCH  60  81
ATOM     81  C   UNL A   1      47.902  27.725  30.110  1.00  0.00    -0.014 A 
ATOM     82  C   UNL A   1      48.465  27.026  31.193  1.00  0.00     0.010 A 
ATOM     83  C   UNL A   1      48.733  28.116  29.044  1.00  0.00     0.010 A 
ATOM     84  C   UNL A   1      49.834  26.739  31.218  1.00  0.00     0.020 A 
ATOM     85  C   UNL A   1      50.097  27.808  29.051  1.00  0.00     0.020 A 
ATOM     86  C   UNL A   1      50.640  27.129  30.144  1.00  0.00     0.054 A 
BRANCH  86  87
ATOM     87  S   UNL A   1      52.399  26.685  30.168  1.00  0.00     0.124 S 
ATOM     88  O   UNL A   1      52.613  26.205  28.805  1.00  0.00    -0.237 OA
ATOM     89  O   UNL A   1      53.045  27.954  30.495  1.00  0.00    -0.237 OA
ATOM     90  O   UNL A   1      52.486  25.663  31.209  1.00  0.00    -0.744 OA
ENDBRANCH  86  87
ENDBRANCH  60  81
ENDBRANCH  34  35
ENDBRANCH  27  29
ENDBRANCH  26  27
ENDBRANCH   1  26
TORSDOF 18
ENDMDL
MODEL 3
REMARK VINA RESULT:      -9.3      4.395     11.076
REMARK SMILES Cc1ccc(F)c(O[C@H]2CC[C@]([NH2+]C(C)C)(C(=O)OCCOC(=O)c3ccc(-c4c5nc(c(-c6ccc(S(=O)(=O)[O-])cc6)c6ccc([nH]6)c(-c6ccc(S(=O)(=O)[O-])cc6)c6nc(c(-c7ccc(S(=O)(=O)[O-])cc7)c7ccc4[nH]7)C=C6)C=C5)cc3)C2)c1
REMARK SMILES IDX 21 1 20 2 19 3 17 4 18 5 12 6 9 7 10 8 85 9 11 10 8 11 7 12
REMARK SMILES IDX 1 13 2 14 3 15 86 16 4 17 5 18 6 19 13 20 14 23 15 24 16 25
REMARK SMILES IDX 22 26 23 27 24 28 25 29 26 30 84 31 27 32 83 33 28 34 29 35
REMARK SMILES IDX 30 36 77 37 31 38 82 39 76 40 78 41 32 42 81 43 75 44 74 45
REMARK SMILES IDX 33 47 63 48 44 49 62 50 45 51 48 52 61 53 79 54 46 55 47 56
REMARK SMILES IDX 60 58 80 59 49 60 34 61 35 62 43 63 36 64 42 65 37 66 38 67
REMARK SMILES IDX 39 68 40 69 41 70 64 71 65 72 73 73 66 74 72 75 67 76 68 77
REMARK SMILES IDX 69 78 70 79 71 80 50 81 51 82 59 83 52 84 58 85 53 86 54 87
REMARK SMILES IDX 55 88 56 89 57 90
REMARK H PARENT 13 21 13 22 78 46 48 57
REMARK Flexibility Score: inf
ROOT
ATOM      1  C   UNL A   1      33.003  29.184  26.521  1.00  0.00     0.275 C 
ENDROOT
BRANCH   1   2
ATOM      2  C   UNL A   1      33.884  28.643  25.391  1.00  0.00     0.274 C 
BRANCH   2   3
ATOM      3  O   UNL A   1      33.900  27.202  25.406  1.00  0.00    -0.457 OA
BRANCH   3   4
ATOM      4  C   UNL A   1      33.782  26.567  24.201  1.00  0.00     0.368 C 
ATOM      5  O   UNL A   1      33.695  27.172  23.138  1.00  0.00    -0.245 OA
BRANCH   4   6
ATOM      6  C   UNL A   1      33.651  25.023  24.360  1.00  0.00     0.198 C 
ATOM      7  C   UNL A   1      35.000  23.022  24.746  1.00  0.00     0.180 C 
ATOM      8  C   UNL A   1      34.913  23.179  23.235  1.00  0.00     0.052 C 
ATOM      9  C   UNL A   1      34.830  24.475  25.196  1.00  0.00     0.126 C 
ATOM     10  C   UNL A   1      33.837  24.248  23.009  1.00  0.00     0.085 C 
BRANCH   7  11
ATOM     11  O   UNL A   1      33.907  22.262  25.274  1.00  0.00    -0.487 OA
BRANCH  11  12
ATOM     12  C   UNL A   1      33.535  21.098  24.662  1.00  0.00     0.155 A 
ATOM     13  C   UNL A   1      35.055  17.590  24.653  1.00  0.00     0.044 C 
ATOM     14  C   UNL A   1      34.142  18.749  24.370  1.00  0.00    -0.047 A 
ATOM     15  C   UNL A   1      33.023  18.569  23.550  1.00  0.00     0.007 A 
ATOM     16  C   UNL A   1      34.390  20.016  24.917  1.00  0.00     0.053 A 
ATOM     17  C   UNL A   1      32.170  19.639  23.285  1.00  0.00     0.043 A 
ATOM     18  C   UNL A   1      32.429  20.892  23.838  1.00  0.00     0.165 A 
ATOM     19  F   UNL A   1      31.571  21.882  23.549  1.00  0.00    -0.203 F 
ENDBRANCH  11  12
ENDBRANCH   7  11
BRANCH   6  20
ATOM     20  N   UNL A   1      32.308  24.594  24.860  1.00  0.00    -0.330 N 
ATOM     21  H   UNL A   1      32.424  24.385  25.852  1.00  0.00     0.347 HD
ATOM     22  H   UNL A   1      32.069  23.834  24.224  1.00  0.00     0.347 HD
BRANCH  20  23
ATOM     23  C   UNL A   1      31.133  25.473  24.757  1.00  0.00     0.176 C 
ATOM     24  C   UNL A   1      30.358  25.055  23.496  1.00  0.00     0.075 C 
ATOM     25  C   UNL A   1      30.175  25.421  25.945  1.00  0.00     0.075 C 
ENDBRANCH  20  23
ENDBRANCH   6  20
ENDBRANCH   4   6
ENDBRANCH   3   4
ENDBRANCH   2   3
ENDBRANCH   1   2
BRANCH   1  26
ATOM     26  O   UNL A   1      33.730  29.243  27.762  1.00  0.00    -0.458 OA
BRANCH  26  27
ATOM     27  C   UNL A   1      34.529  30.330  27.912  1.00  0.00     0.338 C 
ATOM     28  O   UNL A   1      34.185  31.498  27.897  1.00  0.00    -0.246 OA
BRANCH  27  29
ATOM     29  C   UNL A   1      35.895  29.892  28.257  1.00  0.00     0.060 A 
ATOM     30  C   UNL A   1      36.865  29.973  27.259  1.00  0.00     0.016 A 
ATOM     31  C   UNL A   1      36.230  29.403  29.522  1.00  0.00     0.016 A 
ATOM     32  C   UNL A   1      38.184  29.619  27.530  1.00  0.00     0.010 A 
ATOM     33  C   UNL A   1      37.556  29.035  29.791  1.00  0.00     0.010 A 
ATOM     34  C   UNL A   1      38.545  29.167  28.803  1.00  0.00    -0.014 A 
BRANCH  34  35
ATOM     35  C   UNL A   1      39.961  28.829  29.072  1.00  0.00     0.031 A 
ATOM     36  C   UNL A   1      40.851  29.826  29.749  1.00  0.00     0.074 A 
ATOM     37  C   UNL A   1      40.429  27.601  28.774  1.00  0.00     0.049 A 
ATOM     38  N   UNL A   1      42.117  29.724  30.060  1.00  0.00    -0.248 NA
ATOM     39  C   UNL A   1      40.228  31.099  30.141  1.00  0.00     0.031 C 
ATOM     40  C   UNL A   1      39.632  26.507  28.219  1.00  0.00     0.029 A 
ATOM     41  N   UNL A   1      41.685  27.065  28.914  1.00  0.00    -0.354 N 
ATOM     42  C   UNL A   1      42.447  30.920  30.684  1.00  0.00     0.074 A 
ATOM     43  C   UNL A   1      41.248  31.733  30.701  1.00  0.00     0.031 C 
ATOM     44  C   UNL A   1      40.419  25.428  28.070  1.00  0.00     0.029 A 
ATOM     45  C   UNL A   1      41.784  25.768  28.469  1.00  0.00     0.049 A 
ATOM     46  H   UNL A   1      42.444  27.563  29.296  1.00  0.00     0.167 HD
ATOM     47  C   UNL A   1      43.646  31.311  31.181  1.00  0.00     0.031 A 
ATOM     48  C   UNL A   1      42.857  24.959  28.365  1.00  0.00     0.031 A 
ATOM     49  C   UNL A   1      44.848  30.524  31.109  1.00  0.00     0.049 A 
ATOM     50  C   UNL A   1      44.210  25.476  28.783  1.00  0.00     0.074 A 
ATOM     51  C   UNL A   1      46.120  30.855  31.545  1.00  0.00     0.029 A 
ATOM     52  N   UNL A   1      44.936  29.262  30.543  1.00  0.00    -0.354 N 
ATOM     53  N   UNL A   1      44.517  26.616  29.355  1.00  0.00    -0.248 NA
ATOM     54  C   UNL A   1      45.365  24.604  28.524  1.00  0.00     0.031 C 
ATOM     55  C   UNL A   1      46.989  29.819  31.181  1.00  0.00     0.029 A 
ATOM     56  C   UNL A   1      46.247  28.816  30.578  1.00  0.00     0.049 A 
ATOM     57  H   UNL A   1      44.178  28.755  30.172  1.00  0.00     0.167 HD
ATOM     58  C   UNL A   1      45.897  26.596  29.530  1.00  0.00     0.074 A 
ATOM     59  C   UNL A   1      46.363  25.320  29.025  1.00  0.00     0.031 C 
ATOM     60  C   UNL A   1      46.705  27.550  30.057  1.00  0.00     0.031 A 
BRANCH  47  61
ATOM     61  C   UNL A   1      43.717  32.696  31.766  1.00  0.00    -0.014 A 
ATOM     62  C   UNL A   1      44.033  33.813  30.973  1.00  0.00     0.010 A 
ATOM     63  C   UNL A   1      43.481  32.875  33.141  1.00  0.00     0.010 A 
ATOM     64  C   UNL A   1      44.167  35.076  31.555  1.00  0.00     0.020 A 
ATOM     65  C   UNL A   1      43.589  34.141  33.723  1.00  0.00     0.020 A 
ATOM     66  C   UNL A   1      43.956  35.228  32.929  1.00  0.00     0.054 A 
BRANCH  66  67
ATOM     67  S   UNL A   1      44.166  36.873  33.666  1.00  0.00     0.124 S 
ATOM     68  O   UNL A   1      43.712  37.745  32.587  1.00  0.00    -0.237 OA
ATOM     69  O   UNL A   1      43.293  36.815  34.837  1.00  0.00    -0.237 OA
ATOM     70  O   UNL A   1      45.595  36.941  33.963  1.00  0.00    -0.744 OA
ENDBRANCH  66  67
ENDBRANCH  47  61
BRANCH  48  71
ATOM     71  C   UNL A   1      42.711  23.592  27.789  1.00  0.00    -0.014 A 
ATOM     72  C   UNL A   1      42.277  22.517  28.585  1.00  0.00     0.010 A 
ATOM     73  C   UNL A   1      43.014  23.358  26.434  1.00  0.00     0.010 A 
ATOM     74  C   UNL A   1      42.152  21.236  28.038  1.00  0.00     0.020 A 
ATOM     75  C   UNL A   1      42.863  22.085  25.878  1.00  0.00     0.020 A 
ATOM     76  C   UNL A   1      42.441  21.028  26.685  1.00  0.00     0.054 A 
BRANCH  76  77
ATOM     77  S   UNL A   1      42.215  19.371  25.985  1.00  0.00     0.124 S 
ATOM     78  O   UNL A   1      40.770  19.313  25.794  1.00  0.00    -0.237 OA
ATOM     79  O   UNL A   1      43.013  19.433  24.762  1.00  0.00    -0.237 OA
ATOM     80  O   UNL A   1      42.746  18.486  27.020  1.00  0.00    -0.744 OA
ENDBRANCH  76  77
ENDBRANCH  48  71
BRANCH  60  81
ATOM     81  C   UNL A   1      48.182  27.258  30.121  1.00  0.00    -0.014 A 
ATOM     82  C   UNL A   1      49.040  27.627  29.068  1.00  0.00     0.010 A 
ATOM     83  C   UNL A   1      48.731  26.677  31.278  1.00  0.00     0.010 A 
ATOM     84  C   UNL A   1      50.417  27.404  29.166  1.00  0.00     0.020 A 
ATOM     85  C   UNL A   1      50.111  26.478  31.392  1.00  0.00     0.020 A 
ATOM     86  C   UNL A   1      50.944  26.835  30.329  1.00  0.00     0.054 A 
BRANCH  86  87
ATOM     87  S   UNL A   1      52.741  26.619  30.459  1.00  0.00     0.124 S 
ATOM     88  O   UNL A   1      52.850  25.533  31.429  1.00  0.00    -0.237 OA
ATOM     89  O   UNL A   1      53.122  26.280  29.090  1.00  0.00    -0.237 OA
ATOM     90  O   UNL A   1      53.215  27.921  30.926  1.00  0.00    -0.744 OA
ENDBRANCH  86  87
ENDBRANCH  60  81
ENDBRANCH  34  35
ENDBRANCH  27  29
ENDBRANCH  26  27
ENDBRANCH   1  26
TORSDOF 18
ENDMDL
