MODEL 1
REMARK VINA RESULT:     -10.9      0.000      0.000
REMARK SMILES CC[C@@](C)(NC(=O)Nc1c(C)cccc1Cl)C(=O)OCCOC(=O)c1ccc(-c2c3nc(c(-c4ccc(S(=O)(=O)[O-])cc4)c4ccc([nH]4)c(-c4ccc(S(=O)(=O)[O-])cc4)c4nc(c(-c5ccc(S(=O)(=O)[O-])cc5)c5ccc2[nH]5)C=C4)C=C3)cc1
REMARK SMILES IDX 21 1 20 2 19 3 17 4 18 5 3 6 4 7 2 8 1 9 5 10 6 11 7 13 8 14
REMARK SMILES IDX 9 16 10 17 15 18 11 19 12 20 14 21 16 22 13 23 22 24 23 25
REMARK SMILES IDX 24 26 25 27 26 28 84 29 27 30 83 31 28 32 29 33 30 34 77 35
REMARK SMILES IDX 31 36 82 37 76 38 78 39 32 40 81 41 75 42 74 43 33 45 63 46
REMARK SMILES IDX 44 47 62 48 45 49 48 50 61 51 79 52 46 53 47 54 60 56 80 57
REMARK SMILES IDX 49 58 34 59 35 60 43 61 36 62 42 63 37 64 38 65 39 66 40 67
REMARK SMILES IDX 41 68 64 69 65 70 73 71 66 72 72 73 67 74 68 75 69 76 70 77
REMARK SMILES IDX 71 78 50 79 51 80 59 81 52 82 58 83 53 84 54 85 55 86 56 87
REMARK SMILES IDX 57 88
REMARK H PARENT 5 12 8 15 78 44 48 55
REMARK Flexibility Score: inf
ROOT
ATOM      1  C   UNL A   1      36.783  23.014  23.613  1.00  0.00     0.275 C 
ENDROOT
BRANCH   1   2
ATOM      2  C   UNL A   1      35.151  22.865  23.176  1.00  0.00     0.274 C 
BRANCH   2   3
ATOM      3  O   UNL A   1      34.142  24.030  22.776  1.00  0.00    -0.460 OA
BRANCH   3   4
ATOM      4  C   UNL A   1      33.231  24.916  23.507  1.00  0.00     0.331 C 
ATOM      5  O   UNL A   1      33.566  25.554  24.508  1.00  0.00    -0.249 OA
BRANCH   4   6
ATOM      6  C   UNL A   1      31.675  24.655  23.254  1.00  0.00     0.136 C 
ATOM      7  C   UNL A   1      31.448  23.201  23.699  1.00  0.00     0.047 C 
BRANCH   6   8
ATOM      8  C   UNL A   1      30.312  25.405  23.458  1.00  0.00     0.037 C 
ATOM      9  C   UNL A   1      29.844  25.926  24.785  1.00  0.00     0.007 C 
ENDBRANCH   6   8
BRANCH   6  10
ATOM     10  N   UNL A   1      31.818  24.807  21.878  1.00  0.00    -0.322 N 
ATOM     11  C   UNL A   1      31.763  25.998  21.310  1.00  0.00     0.320 C 
ATOM     12  H   UNL A   1      31.963  24.010  21.318  1.00  0.00     0.166 HD
ATOM     13  O   UNL A   1      31.673  25.790  20.092  1.00  0.00    -0.248 OA
ATOM     14  N   UNL A   1      31.775  27.268  21.901  1.00  0.00    -0.306 N 
ATOM     15  H   UNL A   1      31.450  27.835  21.166  1.00  0.00     0.171 HD
BRANCH  14  16
ATOM     16  C   UNL A   1      31.988  28.270  22.986  1.00  0.00     0.064 A 
ATOM     17  C   UNL A   1      33.092  28.657  23.800  1.00  0.00    -0.026 A 
ATOM     18  C   UNL A   1      30.835  29.090  23.257  1.00  0.00     0.064 A 
ATOM     19  C   UNL A   1      34.484  29.151  23.338  1.00  0.00     0.046 C 
ATOM     20  C   UNL A   1      32.856  29.342  25.043  1.00  0.00     0.005 A 
ATOM     21  C   UNL A   1      30.659  29.876  24.405  1.00  0.00     0.023 A 
ATOM     22  Cl  UNL A   1      29.561  29.372  22.125  1.00  0.00    -0.082 Cl
ATOM     23  C   UNL A   1      31.645  29.930  25.354  1.00  0.00     0.002 A 
ENDBRANCH  14  16
ENDBRANCH   6  10
ENDBRANCH   4   6
ENDBRANCH   3   4
ENDBRANCH   2   3
ENDBRANCH   1   2
BRANCH   1  24
ATOM     24  O   UNL A   1      37.145  23.501  25.020  1.00  0.00    -0.458 OA
BRANCH  24  25
ATOM     25  C   UNL A   1      38.284  23.100  25.738  1.00  0.00     0.338 C 
ATOM     26  O   UNL A   1      38.720  21.962  25.700  1.00  0.00    -0.246 OA
BRANCH  25  27
ATOM     27  C   UNL A   1      38.962  24.234  26.622  1.00  0.00     0.060 A 
ATOM     28  C   UNL A   1      38.686  24.453  27.990  1.00  0.00     0.016 A 
ATOM     29  C   UNL A   1      39.864  25.161  26.092  1.00  0.00     0.016 A 
ATOM     30  C   UNL A   1      39.280  25.411  28.823  1.00  0.00     0.010 A 
ATOM     31  C   UNL A   1      40.449  26.188  26.912  1.00  0.00     0.010 A 
ATOM     32  C   UNL A   1      40.154  26.329  28.289  1.00  0.00    -0.014 A 
BRANCH  32  33
ATOM     33  C   UNL A   1      40.442  27.555  29.106  1.00  0.00     0.031 A 
ATOM     34  C   UNL A   1      41.784  27.625  29.796  1.00  0.00     0.074 A 
ATOM     35  C   UNL A   1      39.677  28.671  29.119  1.00  0.00     0.049 A 
ATOM     36  N   UNL A   1      42.222  28.467  30.696  1.00  0.00    -0.248 NA
ATOM     37  C   UNL A   1      42.769  26.606  29.396  1.00  0.00     0.031 C 
ATOM     38  C   UNL A   1      38.464  28.897  28.331  1.00  0.00     0.029 A 
ATOM     39  N   UNL A   1      39.820  29.845  29.834  1.00  0.00    -0.354 N 
ATOM     40  C   UNL A   1      43.498  28.027  31.030  1.00  0.00     0.074 A 
ATOM     41  C   UNL A   1      43.769  26.859  30.223  1.00  0.00     0.031 C 
ATOM     42  C   UNL A   1      37.965  30.114  28.627  1.00  0.00     0.029 A 
ATOM     43  C   UNL A   1      38.777  30.733  29.675  1.00  0.00     0.049 A 
ATOM     44  H   UNL A   1      40.599  30.032  30.407  1.00  0.00     0.167 HD
ATOM     45  C   UNL A   1      44.363  28.538  31.938  1.00  0.00     0.031 A 
ATOM     46  C   UNL A   1      38.477  31.878  30.330  1.00  0.00     0.031 A 
ATOM     47  C   UNL A   1      44.118  29.722  32.715  1.00  0.00     0.049 A 
ATOM     48  C   UNL A   1      39.382  32.363  31.442  1.00  0.00     0.074 A 
ATOM     49  C   UNL A   1      44.918  30.292  33.689  1.00  0.00     0.029 A 
ATOM     50  N   UNL A   1      42.997  30.527  32.597  1.00  0.00    -0.354 N 
ATOM     51  N   UNL A   1      40.529  31.871  31.847  1.00  0.00    -0.248 NA
ATOM     52  C   UNL A   1      38.941  33.548  32.198  1.00  0.00     0.031 C 
ATOM     53  C   UNL A   1      44.253  31.409  34.203  1.00  0.00     0.029 A 
ATOM     54  C   UNL A   1      43.071  31.575  33.500  1.00  0.00     0.049 A 
ATOM     55  H   UNL A   1      42.257  30.377  31.965  1.00  0.00     0.167 HD
ATOM     56  C   UNL A   1      40.955  32.699  32.885  1.00  0.00     0.074 A 
ATOM     57  C   UNL A   1      39.953  33.732  33.035  1.00  0.00     0.031 C 
ATOM     58  C   UNL A   1      42.076  32.608  33.644  1.00  0.00     0.031 A 
BRANCH  45  59
ATOM     59  C   UNL A   1      45.619  27.753  32.205  1.00  0.00    -0.014 A 
ATOM     60  C   UNL A   1      46.806  27.974  31.484  1.00  0.00     0.010 A 
ATOM     61  C   UNL A   1      45.602  26.773  33.215  1.00  0.00     0.010 A 
ATOM     62  C   UNL A   1      47.939  27.196  31.740  1.00  0.00     0.020 A 
ATOM     63  C   UNL A   1      46.741  26.017  33.496  1.00  0.00     0.020 A 
ATOM     64  C   UNL A   1      47.898  26.221  32.743  1.00  0.00     0.054 A 
BRANCH  64  65
ATOM     65  S   UNL A   1      49.386  25.237  33.065  1.00  0.00     0.124 S 
ATOM     66  O   UNL A   1      50.203  26.168  33.838  1.00  0.00    -0.237 OA
ATOM     67  O   UNL A   1      48.859  24.095  33.810  1.00  0.00    -0.237 OA
ATOM     68  O   UNL A   1      49.892  24.924  31.731  1.00  0.00    -0.744 OA
ENDBRANCH  64  65
ENDBRANCH  45  59
BRANCH  46  69
ATOM     69  C   UNL A   1      37.210  32.617  30.031  1.00  0.00    -0.014 A 
ATOM     70  C   UNL A   1      35.998  32.278  30.662  1.00  0.00     0.010 A 
ATOM     71  C   UNL A   1      37.203  33.645  29.067  1.00  0.00     0.010 A 
ATOM     72  C   UNL A   1      34.811  32.947  30.335  1.00  0.00     0.020 A 
ATOM     73  C   UNL A   1      36.027  34.337  28.761  1.00  0.00     0.020 A 
ATOM     74  C   UNL A   1      34.835  33.979  29.392  1.00  0.00     0.054 A 
BRANCH  74  75
ATOM     75  S   UNL A   1      33.300  34.881  29.033  1.00  0.00     0.124 S 
ATOM     76  O   UNL A   1      32.674  34.033  28.023  1.00  0.00    -0.237 OA
ATOM     77  O   UNL A   1      32.639  34.907  30.335  1.00  0.00    -0.237 OA
ATOM     78  O   UNL A   1      33.770  36.180  28.557  1.00  0.00    -0.744 OA
ENDBRANCH  74  75
ENDBRANCH  46  69
BRANCH  58  79
ATOM     79  C   UNL A   1      42.318  33.673  34.683  1.00  0.00    -0.014 A 
ATOM     80  C   UNL A   1      41.808  33.556  35.988  1.00  0.00     0.010 A 
ATOM     81  C   UNL A   1      43.132  34.777  34.366  1.00  0.00     0.010 A 
ATOM     82  C   UNL A   1      42.084  34.537  36.947  1.00  0.00     0.020 A 
ATOM     83  C   UNL A   1      43.434  35.744  35.329  1.00  0.00     0.020 A 
ATOM     84  C   UNL A   1      42.897  35.625  36.611  1.00  0.00     0.054 A 
BRANCH  84  85
ATOM     85  S   UNL A   1      43.276  36.859  37.886  1.00  0.00     0.124 S 
ATOM     86  O   UNL A   1      44.328  36.193  38.652  1.00  0.00    -0.237 OA
ATOM     87  O   UNL A   1      43.706  38.012  37.100  1.00  0.00    -0.237 OA
ATOM     88  O   UNL A   1      42.008  37.031  38.592  1.00  0.00    -0.744 OA
ENDBRANCH  84  85
ENDBRANCH  58  79
ENDBRANCH  32  33
ENDBRANCH  25  27
ENDBRANCH  24  25
ENDBRANCH   1  24
TORSDOF 17
ENDMDL
MODEL 2
REMARK VINA RESULT:     -10.8      3.285      4.008
REMARK SMILES CC[C@@](C)(NC(=O)Nc1c(C)cccc1Cl)C(=O)OCCOC(=O)c1ccc(-c2c3nc(c(-c4ccc(S(=O)(=O)[O-])cc4)c4ccc([nH]4)c(-c4ccc(S(=O)(=O)[O-])cc4)c4nc(c(-c5ccc(S(=O)(=O)[O-])cc5)c5ccc2[nH]5)C=C4)C=C3)cc1
REMARK SMILES IDX 21 1 20 2 19 3 17 4 18 5 3 6 4 7 2 8 1 9 5 10 6 11 7 13 8 14
REMARK SMILES IDX 9 16 10 17 15 18 11 19 12 20 14 21 16 22 13 23 22 24 23 25
REMARK SMILES IDX 24 26 25 27 26 28 84 29 27 30 83 31 28 32 29 33 30 34 77 35
REMARK SMILES IDX 31 36 82 37 76 38 78 39 32 40 81 41 75 42 74 43 33 45 63 46
REMARK SMILES IDX 44 47 62 48 45 49 48 50 61 51 79 52 46 53 47 54 60 56 80 57
REMARK SMILES IDX 49 58 34 59 35 60 43 61 36 62 42 63 37 64 38 65 39 66 40 67
REMARK SMILES IDX 41 68 64 69 65 70 73 71 66 72 72 73 67 74 68 75 69 76 70 77
REMARK SMILES IDX 71 78 50 79 51 80 59 81 52 82 58 83 53 84 54 85 55 86 56 87
REMARK SMILES IDX 57 88
REMARK H PARENT 5 12 8 15 78 44 48 55
REMARK Flexibility Score: inf
ROOT
ATOM      1  C   UNL A   1      37.397  20.610  24.992  1.00  0.00     0.275 C 
ENDROOT
BRANCH   1   2
ATOM      2  C   UNL A   1      35.702  20.573  24.947  1.00  0.00     0.274 C 
BRANCH   2   3
ATOM      3  O   UNL A   1      34.704  21.812  24.917  1.00  0.00    -0.460 OA
BRANCH   3   4
ATOM      4  C   UNL A   1      34.685  23.150  25.518  1.00  0.00     0.331 C 
ATOM      5  O   UNL A   1      35.327  23.446  26.528  1.00  0.00    -0.249 OA
BRANCH   4   6
ATOM      6  C   UNL A   1      33.441  24.066  25.108  1.00  0.00     0.136 C 
ATOM      7  C   UNL A   1      33.880  25.496  25.459  1.00  0.00     0.047 C 
BRANCH   6   8
ATOM      8  C   UNL A   1      32.414  24.187  23.928  1.00  0.00     0.037 C 
ATOM      9  C   UNL A   1      31.787  23.004  23.251  1.00  0.00     0.007 C 
ENDBRANCH   6   8
BRANCH   6  10
ATOM     10  N   UNL A   1      32.623  23.476  26.067  1.00  0.00    -0.322 N 
ATOM     11  C   UNL A   1      31.669  24.162  26.671  1.00  0.00     0.320 C 
ATOM     12  H   UNL A   1      32.758  22.529  26.301  1.00  0.00     0.166 HD
ATOM     13  O   UNL A   1      31.293  23.461  27.620  1.00  0.00    -0.248 OA
ATOM     14  N   UNL A   1      31.158  25.432  26.369  1.00  0.00    -0.306 N 
ATOM     15  H   UNL A   1      30.683  25.659  27.200  1.00  0.00     0.171 HD
BRANCH  14  16
ATOM     16  C   UNL A   1      30.908  26.642  25.535  1.00  0.00     0.064 A 
ATOM     17  C   UNL A   1      30.255  26.895  24.293  1.00  0.00    -0.026 A 
ATOM     18  C   UNL A   1      31.379  27.867  26.128  1.00  0.00     0.064 A 
ATOM     19  C   UNL A   1      28.795  26.565  23.903  1.00  0.00     0.046 C 
ATOM     20  C   UNL A   1      30.569  28.088  23.552  1.00  0.00     0.005 A 
ATOM     21  C   UNL A   1      31.553  29.079  25.441  1.00  0.00     0.023 A 
ATOM     22  Cl  UNL A   1      31.640  28.084  27.821  1.00  0.00    -0.082 Cl
ATOM     23  C   UNL A   1      31.229  29.164  24.114  1.00  0.00     0.002 A 
ENDBRANCH  14  16
ENDBRANCH   6  10
ENDBRANCH   4   6
ENDBRANCH   3   4
ENDBRANCH   2   3
ENDBRANCH   1   2
BRANCH   1  24
ATOM     24  O   UNL A   1      38.110  21.865  25.508  1.00  0.00    -0.458 OA
BRANCH  24  25
ATOM     25  C   UNL A   1      39.348  21.867  26.171  1.00  0.00     0.338 C 
ATOM     26  O   UNL A   1      40.073  20.887  26.216  1.00  0.00    -0.246 OA
BRANCH  25  27
ATOM     27  C   UNL A   1      39.736  23.237  26.878  1.00  0.00     0.060 A 
ATOM     28  C   UNL A   1      39.213  24.498  26.518  1.00  0.00     0.016 A 
ATOM     29  C   UNL A   1      40.688  23.312  27.899  1.00  0.00     0.016 A 
ATOM     30  C   UNL A   1      39.492  25.728  27.129  1.00  0.00     0.010 A 
ATOM     31  C   UNL A   1      41.033  24.568  28.508  1.00  0.00     0.010 A 
ATOM     32  C   UNL A   1      40.442  25.795  28.121  1.00  0.00    -0.014 A 
BRANCH  32  33
ATOM     33  C   UNL A   1      40.989  27.153  28.454  1.00  0.00     0.031 A 
ATOM     34  C   UNL A   1      42.462  27.382  28.212  1.00  0.00     0.074 A 
ATOM     35  C   UNL A   1      40.236  28.231  28.776  1.00  0.00     0.049 A 
ATOM     36  N   UNL A   1      43.226  28.381  28.572  1.00  0.00    -0.248 NA
ATOM     37  C   UNL A   1      43.159  26.339  27.441  1.00  0.00     0.031 C 
ATOM     38  C   UNL A   1      38.773  28.280  28.827  1.00  0.00     0.029 A 
ATOM     39  N   UNL A   1      40.614  29.516  29.118  1.00  0.00    -0.354 N 
ATOM     40  C   UNL A   1      44.506  28.045  28.145  1.00  0.00     0.074 A 
ATOM     41  C   UNL A   1      44.411  26.763  27.485  1.00  0.00     0.031 C 
ATOM     42  C   UNL A   1      38.385  29.515  29.206  1.00  0.00     0.029 A 
ATOM     43  C   UNL A   1      39.566  30.330  29.492  1.00  0.00     0.049 A 
ATOM     44  H   UNL A   1      41.549  29.822  29.097  1.00  0.00     0.167 HD
ATOM     45  C   UNL A   1      45.662  28.731  28.302  1.00  0.00     0.031 A 
ATOM     46  C   UNL A   1      39.554  31.562  30.050  1.00  0.00     0.031 A 
ATOM     47  C   UNL A   1      45.760  30.025  28.921  1.00  0.00     0.049 A 
ATOM     48  C   UNL A   1      40.863  32.260  30.351  1.00  0.00     0.074 A 
ATOM     49  C   UNL A   1      46.895  30.780  29.161  1.00  0.00     0.029 A 
ATOM     50  N   UNL A   1      44.683  30.763  29.383  1.00  0.00    -0.354 N 
ATOM     51  N   UNL A   1      42.085  31.881  30.063  1.00  0.00    -0.248 NA
ATOM     52  C   UNL A   1      40.790  33.546  31.067  1.00  0.00     0.031 C 
ATOM     53  C   UNL A   1      46.510  31.949  29.824  1.00  0.00     0.029 A 
ATOM     54  C   UNL A   1      45.129  31.954  29.933  1.00  0.00     0.049 A 
ATOM     55  H   UNL A   1      43.741  30.483  29.330  1.00  0.00     0.167 HD
ATOM     56  C   UNL A   1      42.921  32.890  30.542  1.00  0.00     0.074 A 
ATOM     57  C   UNL A   1      42.066  33.903  31.121  1.00  0.00     0.031 C 
ATOM     58  C   UNL A   1      44.275  32.966  30.504  1.00  0.00     0.031 A 
BRANCH  45  59
ATOM     59  C   UNL A   1      46.931  28.043  27.876  1.00  0.00    -0.014 A 
ATOM     60  C   UNL A   1      47.408  28.102  26.555  1.00  0.00     0.010 A 
ATOM     61  C   UNL A   1      47.666  27.324  28.839  1.00  0.00     0.010 A 
ATOM     62  C   UNL A   1      48.571  27.417  26.195  1.00  0.00     0.020 A 
ATOM     63  C   UNL A   1      48.846  26.667  28.491  1.00  0.00     0.020 A 
ATOM     64  C   UNL A   1      49.282  26.701  27.165  1.00  0.00     0.054 A 
BRANCH  64  65
ATOM     65  S   UNL A   1      50.797  25.835  26.675  1.00  0.00     0.124 S 
ATOM     66  O   UNL A   1      51.823  26.595  27.383  1.00  0.00    -0.237 OA
ATOM     67  O   UNL A   1      50.564  24.480  27.172  1.00  0.00    -0.237 OA
ATOM     68  O   UNL A   1      50.818  25.965  25.221  1.00  0.00    -0.744 OA
ENDBRANCH  64  65
ENDBRANCH  45  59
BRANCH  46  69
ATOM     69  C   UNL A   1      38.264  32.200  30.462  1.00  0.00    -0.014 A 
ATOM     70  C   UNL A   1      37.528  33.005  29.573  1.00  0.00     0.010 A 
ATOM     71  C   UNL A   1      37.787  32.041  31.778  1.00  0.00     0.010 A 
ATOM     72  C   UNL A   1      36.348  33.635  29.989  1.00  0.00     0.020 A 
ATOM     73  C   UNL A   1      36.592  32.642  32.189  1.00  0.00     0.020 A 
ATOM     74  C   UNL A   1      35.882  33.443  31.293  1.00  0.00     0.054 A 
BRANCH  74  75
ATOM     75  S   UNL A   1      34.315  34.211  31.793  1.00  0.00     0.124 S 
ATOM     76  O   UNL A   1      33.636  34.385  30.512  1.00  0.00    -0.237 OA
ATOM     77  O   UNL A   1      33.741  33.205  32.682  1.00  0.00    -0.237 OA
ATOM     78  O   UNL A   1      34.734  35.446  32.453  1.00  0.00    -0.744 OA
ENDBRANCH  74  75
ENDBRANCH  46  69
BRANCH  58  79
ATOM     79  C   UNL A   1      44.932  34.203  31.062  1.00  0.00    -0.014 A 
ATOM     80  C   UNL A   1      45.371  34.263  32.396  1.00  0.00     0.010 A 
ATOM     81  C   UNL A   1      45.180  35.298  30.213  1.00  0.00     0.010 A 
ATOM     82  C   UNL A   1      46.018  35.407  32.878  1.00  0.00     0.020 A 
ATOM     83  C   UNL A   1      45.852  36.431  30.682  1.00  0.00     0.020 A 
ATOM     84  C   UNL A   1      46.256  36.483  32.017  1.00  0.00     0.054 A 
BRANCH  84  85
ATOM     85  S   UNL A   1      47.137  37.935  32.655  1.00  0.00     0.124 S 
ATOM     86  O   UNL A   1      48.301  37.998  31.773  1.00  0.00    -0.237 OA
ATOM     87  O   UNL A   1      46.160  39.006  32.481  1.00  0.00    -0.237 OA
ATOM     88  O   UNL A   1      47.428  37.584  34.043  1.00  0.00    -0.744 OA
ENDBRANCH  84  85
ENDBRANCH  58  79
ENDBRANCH  32  33
ENDBRANCH  25  27
ENDBRANCH  24  25
ENDBRANCH   1  24
TORSDOF 17
ENDMDL
MODEL 3
REMARK VINA RESULT:     -10.7      3.043      7.305
REMARK SMILES CC[C@@](C)(NC(=O)Nc1c(C)cccc1Cl)C(=O)OCCOC(=O)c1ccc(-c2c3nc(c(-c4ccc(S(=O)(=O)[O-])cc4)c4ccc([nH]4)c(-c4ccc(S(=O)(=O)[O-])cc4)c4nc(c(-c5ccc(S(=O)(=O)[O-])cc5)c5ccc2[nH]5)C=C4)C=C3)cc1
REMARK SMILES IDX 21 1 20 2 19 3 17 4 18 5 3 6 4 7 2 8 1 9 5 10 6 11 7 13 8 14
REMARK SMILES IDX 9 16 10 17 15 18 11 19 12 20 14 21 16 22 13 23 22 24 23 25
REMARK SMILES IDX 24 26 25 27 26 28 84 29 27 30 83 31 28 32 29 33 30 34 77 35
REMARK SMILES IDX 31 36 82 37 76 38 78 39 32 40 81 41 75 42 74 43 33 45 63 46
REMARK SMILES IDX 44 47 62 48 45 49 48 50 61 51 79 52 46 53 47 54 60 56 80 57
REMARK SMILES IDX 49 58 34 59 35 60 43 61 36 62 42 63 37 64 38 65 39 66 40 67
REMARK SMILES IDX 41 68 64 69 65 70 73 71 66 72 72 73 67 74 68 75 69 76 70 77
REMARK SMILES IDX 71 78 50 79 51 80 59 81 52 82 58 83 53 84 54 85 55 86 56 87
REMARK SMILES IDX 57 88
REMARK H PARENT 5 12 8 15 78 44 48 55
REMARK Flexibility Score: inf
ROOT
ATOM      1  C   UNL A   1      32.107  29.950  26.634  1.00  0.00     0.275 C 
ENDROOT
BRANCH   1   2
ATOM      2  C   UNL A   1      31.304  29.989  25.141  1.00  0.00     0.274 C 
BRANCH   2   3
ATOM      3  O   UNL A   1      30.992  28.764  24.174  1.00  0.00    -0.460 OA
BRANCH   3   4
ATOM      4  C   UNL A   1      31.570  28.245  22.930  1.00  0.00     0.331 C 
ATOM      5  O   UNL A   1      30.891  27.901  21.960  1.00  0.00    -0.249 OA
BRANCH   4   6
ATOM      6  C   UNL A   1      33.065  27.692  23.050  1.00  0.00     0.136 C 
ATOM      7  C   UNL A   1      33.942  28.953  23.107  1.00  0.00     0.047 C 
BRANCH   6   8
ATOM      8  C   UNL A   1      33.840  26.570  23.826  1.00  0.00     0.037 C 
ATOM      9  C   UNL A   1      33.930  26.508  25.322  1.00  0.00     0.007 C 
ENDBRANCH   6   8
BRANCH   6  10
ATOM     10  N   UNL A   1      33.006  27.104  21.791  1.00  0.00    -0.322 N 
ATOM     11  C   UNL A   1      32.615  25.851  21.635  1.00  0.00     0.320 C 
ATOM     12  H   UNL A   1      33.261  27.632  20.999  1.00  0.00     0.166 HD
ATOM     13  O   UNL A   1      32.901  25.547  20.469  1.00  0.00    -0.248 OA
ATOM     14  N   UNL A   1      32.019  24.984  22.559  1.00  0.00    -0.306 N 
ATOM     15  H   UNL A   1      32.148  24.110  22.126  1.00  0.00     0.171 HD
BRANCH  14  16
ATOM     16  C   UNL A   1      31.304  24.600  23.811  1.00  0.00     0.064 A 
ATOM     17  C   UNL A   1      30.420  25.263  24.712  1.00  0.00    -0.026 A 
ATOM     18  C   UNL A   1      31.491  23.223  24.192  1.00  0.00     0.064 A 
ATOM     19  C   UNL A   1      29.074  25.951  24.386  1.00  0.00     0.046 C 
ATOM     20  C   UNL A   1      30.258  24.760  26.050  1.00  0.00     0.005 A 
ATOM     21  C   UNL A   1      31.200  22.692  25.457  1.00  0.00     0.023 A 
ATOM     22  Cl  UNL A   1      31.941  21.969  23.093  1.00  0.00    -0.082 Cl
ATOM     23  C   UNL A   1      30.661  23.494  26.427  1.00  0.00     0.002 A 
ENDBRANCH  14  16
ENDBRANCH   6  10
ENDBRANCH   4   6
ENDBRANCH   3   4
ENDBRANCH   2   3
ENDBRANCH   1   2
BRANCH   1  24
ATOM     24  O   UNL A   1      33.592  30.322  26.701  1.00  0.00    -0.458 OA
BRANCH  24  25
ATOM     25  C   UNL A   1      34.137  31.295  27.555  1.00  0.00     0.338 C 
ATOM     26  O   UNL A   1      33.574  32.349  27.796  1.00  0.00    -0.246 OA
BRANCH  25  27
ATOM     27  C   UNL A   1      35.555  30.935  28.177  1.00  0.00     0.060 A 
ATOM     28  C   UNL A   1      35.861  29.711  28.812  1.00  0.00     0.016 A 
ATOM     29  C   UNL A   1      36.619  31.840  28.195  1.00  0.00     0.016 A 
ATOM     30  C   UNL A   1      37.100  29.328  29.343  1.00  0.00     0.010 A 
ATOM     31  C   UNL A   1      37.886  31.493  28.782  1.00  0.00     0.010 A 
ATOM     32  C   UNL A   1      38.137  30.231  29.372  1.00  0.00    -0.014 A 
BRANCH  32  33
ATOM     33  C   UNL A   1      39.283  29.928  30.291  1.00  0.00     0.031 A 
ATOM     34  C   UNL A   1      40.314  28.936  29.806  1.00  0.00     0.074 A 
ATOM     35  C   UNL A   1      39.561  30.606  31.429  1.00  0.00     0.049 A 
ATOM     36  N   UNL A   1      41.294  28.359  30.453  1.00  0.00    -0.248 NA
ATOM     37  C   UNL A   1      40.226  28.558  28.386  1.00  0.00     0.031 C 
ATOM     38  C   UNL A   1      38.825  31.761  31.949  1.00  0.00     0.029 A 
ATOM     39  N   UNL A   1      40.563  30.416  32.363  1.00  0.00    -0.354 N 
ATOM     40  C   UNL A   1      41.883  27.490  29.542  1.00  0.00     0.074 A 
ATOM     41  C   UNL A   1      41.164  27.630  28.295  1.00  0.00     0.031 C 
ATOM     42  C   UNL A   1      39.382  32.152  33.113  1.00  0.00     0.029 A 
ATOM     43  C   UNL A   1      40.471  31.241  33.464  1.00  0.00     0.049 A 
ATOM     44  H   UNL A   1      41.280  29.751  32.250  1.00  0.00     0.167 HD
ATOM     45  C   UNL A   1      42.920  26.639  29.726  1.00  0.00     0.031 A 
ATOM     46  C   UNL A   1      41.141  31.231  34.639  1.00  0.00     0.031 A 
ATOM     47  C   UNL A   1      43.666  26.523  30.949  1.00  0.00     0.049 A 
ATOM     48  C   UNL A   1      42.203  30.181  34.886  1.00  0.00     0.074 A 
ATOM     49  C   UNL A   1      44.706  25.659  31.243  1.00  0.00     0.029 A 
ATOM     50  N   UNL A   1      43.464  27.303  32.076  1.00  0.00    -0.354 N 
ATOM     51  N   UNL A   1      42.671  29.271  34.065  1.00  0.00    -0.248 NA
ATOM     52  C   UNL A   1      42.813  30.146  36.227  1.00  0.00     0.031 C 
ATOM     53  C   UNL A   1      45.094  25.876  32.569  1.00  0.00     0.029 A 
ATOM     54  C   UNL A   1      44.342  26.923  33.077  1.00  0.00     0.049 A 
ATOM     55  H   UNL A   1      42.795  28.022  32.153  1.00  0.00     0.167 HD
ATOM     56  C   UNL A   1      43.644  28.575  34.781  1.00  0.00     0.074 A 
ATOM     57  C   UNL A   1      43.710  29.178  36.095  1.00  0.00     0.031 C 
ATOM     58  C   UNL A   1      44.411  27.529  34.383  1.00  0.00     0.031 A 
BRANCH  45  59
ATOM     59  C   UNL A   1      43.242  25.696  28.599  1.00  0.00    -0.014 A 
ATOM     60  C   UNL A   1      42.662  24.418  28.503  1.00  0.00     0.010 A 
ATOM     61  C   UNL A   1      44.148  26.113  27.605  1.00  0.00     0.010 A 
ATOM     62  C   UNL A   1      43.018  23.561  27.459  1.00  0.00     0.020 A 
ATOM     63  C   UNL A   1      44.481  25.272  26.543  1.00  0.00     0.020 A 
ATOM     64  C   UNL A   1      43.927  23.992  26.486  1.00  0.00     0.054 A 
BRANCH  64  65
ATOM     65  S   UNL A   1      44.360  22.866  25.134  1.00  0.00     0.124 S 
ATOM     66  O   UNL A   1      43.045  22.486  24.625  1.00  0.00    -0.237 OA
ATOM     67  O   UNL A   1      45.154  23.717  24.251  1.00  0.00    -0.237 OA
ATOM     68  O   UNL A   1      45.104  21.797  25.796  1.00  0.00    -0.744 OA
ENDBRANCH  64  65
ENDBRANCH  45  59
BRANCH  46  69
ATOM     69  C   UNL A   1      40.777  32.187  35.732  1.00  0.00    -0.014 A 
ATOM     70  C   UNL A   1      39.713  31.920  36.613  1.00  0.00     0.010 A 
ATOM     71  C   UNL A   1      41.473  33.404  35.865  1.00  0.00     0.010 A 
ATOM     72  C   UNL A   1      39.352  32.848  37.600  1.00  0.00     0.020 A 
ATOM     73  C   UNL A   1      41.138  34.319  36.869  1.00  0.00     0.020 A 
ATOM     74  C   UNL A   1      40.073  34.039  37.727  1.00  0.00     0.054 A 
BRANCH  74  75
ATOM     75  S   UNL A   1      39.636  35.196  39.056  1.00  0.00     0.124 S 
ATOM     76  O   UNL A   1      39.281  36.400  38.311  1.00  0.00    -0.237 OA
ATOM     77  O   UNL A   1      38.529  34.511  39.718  1.00  0.00    -0.237 OA
ATOM     78  O   UNL A   1      40.861  35.287  39.848  1.00  0.00    -0.744 OA
ENDBRANCH  74  75
ENDBRANCH  46  69
BRANCH  58  79
ATOM     79  C   UNL A   1      45.429  26.985  35.354  1.00  0.00    -0.014 A 
ATOM     80  C   UNL A   1      45.132  25.900  36.198  1.00  0.00     0.010 A 
ATOM     81  C   UNL A   1      46.729  27.525  35.369  1.00  0.00     0.010 A 
ATOM     82  C   UNL A   1      46.108  25.385  37.059  1.00  0.00     0.020 A 
ATOM     83  C   UNL A   1      47.715  26.995  36.207  1.00  0.00     0.020 A 
ATOM     84  C   UNL A   1      47.394  25.935  37.056  1.00  0.00     0.054 A 
BRANCH  84  85
ATOM     85  S   UNL A   1      48.653  25.220  38.150  1.00  0.00     0.124 S 
ATOM     86  O   UNL A   1      48.737  23.846  37.660  1.00  0.00    -0.237 OA
ATOM     87  O   UNL A   1      49.822  26.054  37.883  1.00  0.00    -0.237 OA
ATOM     88  O   UNL A   1      48.080  25.370  39.486  1.00  0.00    -0.744 OA
ENDBRANCH  84  85
ENDBRANCH  58  79
ENDBRANCH  32  33
ENDBRANCH  25  27
ENDBRANCH  24  25
ENDBRANCH   1  24
TORSDOF 17
ENDMDL
