MODEL 1
REMARK VINA RESULT:     -11.2      0.000      0.000
REMARK SMILES O=C(OCCOC(=O)[C@H]1C[C@H]2CCCC[C@@H]2[N@@H+]1Cc1ccno1)c1ccc(-c2c3nc(c(-c4ccc(S(=O)(=O)[O-])cc4)c4ccc([nH]4)c(-c4ccc(S(=O)(=O)[O-])cc4)c4nc(c(-c5ccc(S(=O)(=O)[O-])cc5)c5ccc2[nH]5)C=C4)C=C3)cc1
REMARK SMILES IDX 4 1 3 2 2 3 1 4 24 5 25 6 83 7 26 8 82 9 27 10 28 11 29 12
REMARK SMILES IDX 76 13 30 14 81 15 75 16 77 17 31 18 80 19 74 20 73 21 32 23
REMARK SMILES IDX 62 24 43 25 61 26 44 27 47 28 60 29 78 30 45 31 46 32 59 34
REMARK SMILES IDX 79 35 48 36 33 37 34 38 42 39 35 40 41 41 36 42 37 43 38 44
REMARK SMILES IDX 39 45 40 46 63 47 64 48 72 49 65 50 71 51 66 52 67 53 68 54
REMARK SMILES IDX 69 55 70 56 49 57 50 58 58 59 51 60 57 61 52 62 53 63 54 64
REMARK SMILES IDX 55 65 56 66 5 67 6 68 7 69 8 70 9 71 10 72 17 73 11 74 16 75
REMARK SMILES IDX 12 77 15 78 13 79 14 80 18 81 19 82 20 83 23 84 21 85 22 86
REMARK H PARENT 77 22 47 33 17 76
REMARK Flexibility Score: inf
ROOT
ATOM      1  C   UNL A   1      33.938  28.944  26.188  1.00  0.00     0.275 C 
ENDROOT
BRANCH   1   2
ATOM      2  O   UNL A   1      33.589  29.920  27.181  1.00  0.00    -0.458 OA
BRANCH   2   3
ATOM      3  C   UNL A   1      34.418  30.682  27.936  1.00  0.00     0.338 C 
ATOM      4  O   UNL A   1      34.108  31.857  28.134  1.00  0.00    -0.246 OA
BRANCH   3   5
ATOM      5  C   UNL A   1      35.781  30.230  28.375  1.00  0.00     0.060 A 
ATOM      6  C   UNL A   1      36.135  29.648  29.597  1.00  0.00     0.016 A 
ATOM      7  C   UNL A   1      36.789  30.356  27.413  1.00  0.00     0.016 A 
ATOM      8  C   UNL A   1      37.405  29.091  29.803  1.00  0.00     0.010 A 
ATOM      9  C   UNL A   1      38.038  29.762  27.596  1.00  0.00     0.010 A 
ATOM     10  C   UNL A   1      38.362  29.125  28.794  1.00  0.00    -0.014 A 
BRANCH  10  11
ATOM     11  C   UNL A   1      39.758  28.692  29.035  1.00  0.00     0.031 A 
ATOM     12  C   UNL A   1      40.679  29.668  29.719  1.00  0.00     0.074 A 
ATOM     13  C   UNL A   1      40.194  27.475  28.647  1.00  0.00     0.049 A 
ATOM     14  N   UNL A   1      41.937  29.532  30.040  1.00  0.00    -0.248 NA
ATOM     15  C   UNL A   1      40.115  30.987  30.063  1.00  0.00     0.031 C 
ATOM     16  C   UNL A   1      39.399  26.466  27.942  1.00  0.00     0.029 A 
ATOM     17  N   UNL A   1      41.420  26.877  28.795  1.00  0.00    -0.354 N 
ATOM     18  C   UNL A   1      42.306  30.751  30.599  1.00  0.00     0.074 A 
ATOM     19  C   UNL A   1      41.183  31.643  30.480  1.00  0.00     0.031 C 
ATOM     20  C   UNL A   1      40.153  25.369  27.737  1.00  0.00     0.029 A 
ATOM     21  C   UNL A   1      41.485  25.598  28.289  1.00  0.00     0.049 A 
ATOM     22  H   UNL A   1      42.186  27.322  29.225  1.00  0.00     0.167 HD
ATOM     23  C   UNL A   1      43.458  31.082  31.222  1.00  0.00     0.031 A 
ATOM     24  C   UNL A   1      42.503  24.712  28.293  1.00  0.00     0.031 A 
ATOM     25  C   UNL A   1      44.551  30.170  31.379  1.00  0.00     0.049 A 
ATOM     26  C   UNL A   1      43.786  25.106  28.987  1.00  0.00     0.074 A 
ATOM     27  C   UNL A   1      45.747  30.365  32.040  1.00  0.00     0.029 A 
ATOM     28  N   UNL A   1      44.567  28.880  30.870  1.00  0.00    -0.354 N 
ATOM     29  N   UNL A   1      44.082  26.231  29.597  1.00  0.00    -0.248 NA
ATOM     30  C   UNL A   1      44.859  24.102  29.025  1.00  0.00     0.031 C 
ATOM     31  C   UNL A   1      46.508  29.203  31.892  1.00  0.00     0.029 A 
ATOM     32  C   UNL A   1      45.760  28.267  31.192  1.00  0.00     0.049 A 
ATOM     33  H   UNL A   1      43.836  28.465  30.358  1.00  0.00     0.167 HD
ATOM     34  C   UNL A   1      45.356  26.053  30.129  1.00  0.00     0.074 A 
ATOM     35  C   UNL A   1      45.767  24.709  29.777  1.00  0.00     0.031 C 
ATOM     36  C   UNL A   1      46.118  26.916  30.843  1.00  0.00     0.031 A 
BRANCH  23  37
ATOM     37  C   UNL A   1      43.555  32.469  31.793  1.00  0.00    -0.014 A 
ATOM     38  C   UNL A   1      43.257  32.716  33.147  1.00  0.00     0.010 A 
ATOM     39  C   UNL A   1      43.932  33.543  30.969  1.00  0.00     0.010 A 
ATOM     40  C   UNL A   1      43.288  34.016  33.655  1.00  0.00     0.020 A 
ATOM     41  C   UNL A   1      43.999  34.841  31.482  1.00  0.00     0.020 A 
ATOM     42  C   UNL A   1      43.661  35.071  32.818  1.00  0.00     0.054 A 
BRANCH  42  43
ATOM     43  S   UNL A   1      43.731  36.743  33.515  1.00  0.00     0.124 S 
ATOM     44  O   UNL A   1      43.846  37.567  32.315  1.00  0.00    -0.237 OA
ATOM     45  O   UNL A   1      42.459  36.844  34.226  1.00  0.00    -0.237 OA
ATOM     46  O   UNL A   1      44.917  36.715  34.368  1.00  0.00    -0.744 OA
ENDBRANCH  42  43
ENDBRANCH  23  37
BRANCH  24  47
ATOM     47  C   UNL A   1      42.358  23.363  27.670  1.00  0.00    -0.014 A 
ATOM     48  C   UNL A   1      41.698  22.321  28.349  1.00  0.00     0.010 A 
ATOM     49  C   UNL A   1      42.919  23.094  26.407  1.00  0.00     0.010 A 
ATOM     50  C   UNL A   1      41.641  21.033  27.801  1.00  0.00     0.020 A 
ATOM     51  C   UNL A   1      42.840  21.814  25.843  1.00  0.00     0.020 A 
ATOM     52  C   UNL A   1      42.217  20.787  26.552  1.00  0.00     0.054 A 
BRANCH  52  53
ATOM     53  S   UNL A   1      42.125  19.109  25.860  1.00  0.00     0.124 S 
ATOM     54  O   UNL A   1      42.983  19.217  24.684  1.00  0.00    -0.237 OA
ATOM     55  O   UNL A   1      42.647  18.291  26.952  1.00  0.00    -0.237 OA
ATOM     56  O   UNL A   1      40.702  18.932  25.583  1.00  0.00    -0.744 OA
ENDBRANCH  52  53
ENDBRANCH  24  47
BRANCH  36  57
ATOM     57  C   UNL A   1      47.448  26.421  31.342  1.00  0.00    -0.014 A 
ATOM     58  C   UNL A   1      47.569  25.799  32.596  1.00  0.00     0.010 A 
ATOM     59  C   UNL A   1      48.567  26.492  30.493  1.00  0.00     0.010 A 
ATOM     60  C   UNL A   1      48.798  25.276  33.003  1.00  0.00     0.020 A 
ATOM     61  C   UNL A   1      49.788  25.941  30.883  1.00  0.00     0.020 A 
ATOM     62  C   UNL A   1      49.898  25.347  32.141  1.00  0.00     0.054 A 
BRANCH  62  63
ATOM     63  S   UNL A   1      51.464  24.601  32.667  1.00  0.00     0.124 S 
ATOM     64  O   UNL A   1      52.439  25.372  31.899  1.00  0.00    -0.237 OA
ATOM     65  O   UNL A   1      51.465  24.843  34.108  1.00  0.00    -0.237 OA
ATOM     66  O   UNL A   1      51.330  23.201  32.277  1.00  0.00    -0.744 OA
ENDBRANCH  62  63
ENDBRANCH  36  57
ENDBRANCH  10  11
ENDBRANCH   3   5
ENDBRANCH   2   3
ENDBRANCH   1   2
BRANCH   1  67
ATOM     67  C   UNL A   1      33.394  27.541  26.484  1.00  0.00     0.274 C 
BRANCH  67  68
ATOM     68  O   UNL A   1      32.664  26.998  25.370  1.00  0.00    -0.458 OA
BRANCH  68  69
ATOM     69  C   UNL A   1      33.404  26.428  24.375  1.00  0.00     0.365 C 
ATOM     70  O   UNL A   1      33.984  27.071  23.501  1.00  0.00    -0.245 OA
BRANCH  69  71
ATOM     71  C   UNL A   1      33.405  24.883  24.486  1.00  0.00     0.296 C 
ATOM     72  C   UNL A   1      34.167  24.270  23.288  1.00  0.00     0.087 C 
ATOM     73  N   UNL A   1      34.174  24.495  25.704  1.00  0.00    -0.314 N 
ATOM     74  C   UNL A   1      35.166  23.341  23.961  1.00  0.00     0.054 C 
ATOM     75  C   UNL A   1      35.494  24.112  25.232  1.00  0.00     0.188 C 
ATOM     76  H   UNL A   1      34.252  25.294  26.333  1.00  0.00     0.349 HD
ATOM     77  C   UNL A   1      36.417  22.924  23.214  1.00  0.00     0.010 C 
ATOM     78  C   UNL A   1      36.458  23.425  26.186  1.00  0.00     0.065 C 
ATOM     79  C   UNL A   1      37.337  22.147  24.170  1.00  0.00     0.001 C 
ATOM     80  C   UNL A   1      37.694  22.952  25.425  1.00  0.00     0.006 C 
BRANCH  73  81
ATOM     81  C   UNL A   1      33.519  23.680  26.733  1.00  0.00     0.342 C 
BRANCH  81  82
ATOM     82  C   UNL A   1      32.068  23.312  26.626  1.00  0.00     0.190 A 
ATOM     83  C   UNL A   1      31.316  22.285  26.093  1.00  0.00     0.075 A 
ATOM     84  O   UNL A   1      31.219  24.095  27.358  1.00  0.00    -0.355 OA
ATOM     85  C   UNL A   1      29.986  22.590  26.425  1.00  0.00     0.158 A 
ATOM     86  N   UNL A   1      29.913  23.670  27.198  1.00  0.00    -0.088 NA
ENDBRANCH  81  82
ENDBRANCH  73  81
ENDBRANCH  69  71
ENDBRANCH  68  69
ENDBRANCH  67  68
ENDBRANCH   1  67
TORSDOF 16
ENDMDL
MODEL 2
REMARK VINA RESULT:     -10.9      3.782     10.701
REMARK SMILES O=C(OCCOC(=O)[C@H]1C[C@H]2CCCC[C@@H]2[N@@H+]1Cc1ccno1)c1ccc(-c2c3nc(c(-c4ccc(S(=O)(=O)[O-])cc4)c4ccc([nH]4)c(-c4ccc(S(=O)(=O)[O-])cc4)c4nc(c(-c5ccc(S(=O)(=O)[O-])cc5)c5ccc2[nH]5)C=C4)C=C3)cc1
REMARK SMILES IDX 4 1 3 2 2 3 1 4 24 5 25 6 83 7 26 8 82 9 27 10 28 11 29 12
REMARK SMILES IDX 76 13 30 14 81 15 75 16 77 17 31 18 80 19 74 20 73 21 32 23
REMARK SMILES IDX 62 24 43 25 61 26 44 27 47 28 60 29 78 30 45 31 46 32 59 34
REMARK SMILES IDX 79 35 48 36 33 37 34 38 42 39 35 40 41 41 36 42 37 43 38 44
REMARK SMILES IDX 39 45 40 46 63 47 64 48 72 49 65 50 71 51 66 52 67 53 68 54
REMARK SMILES IDX 69 55 70 56 49 57 50 58 58 59 51 60 57 61 52 62 53 63 54 64
REMARK SMILES IDX 55 65 56 66 5 67 6 68 7 69 8 70 9 71 10 72 17 73 11 74 16 75
REMARK SMILES IDX 12 77 15 78 13 79 14 80 18 81 19 82 20 83 23 84 21 85 22 86
REMARK H PARENT 77 22 47 33 17 76
REMARK Flexibility Score: inf
ROOT
ATOM      1  C   UNL A   1      40.026  20.798  26.420  1.00  0.00     0.275 C 
ENDROOT
BRANCH   1   2
ATOM      2  O   UNL A   1      39.580  21.992  25.760  1.00  0.00    -0.458 OA
BRANCH   2   3
ATOM      3  C   UNL A   1      38.648  22.884  26.178  1.00  0.00     0.338 C 
ATOM      4  O   UNL A   1      37.486  22.727  25.804  1.00  0.00    -0.246 OA
BRANCH   3   5
ATOM      5  C   UNL A   1      38.990  24.153  26.903  1.00  0.00     0.060 A 
ATOM      6  C   UNL A   1      38.819  24.430  28.264  1.00  0.00     0.016 A 
ATOM      7  C   UNL A   1      39.606  25.138  26.125  1.00  0.00     0.016 A 
ATOM      8  C   UNL A   1      39.363  25.583  28.851  1.00  0.00     0.010 A 
ATOM      9  C   UNL A   1      40.189  26.261  26.711  1.00  0.00     0.010 A 
ATOM     10  C   UNL A   1      40.072  26.499  28.081  1.00  0.00    -0.014 A 
BRANCH  10  11
ATOM     11  C   UNL A   1      40.517  27.797  28.637  1.00  0.00     0.031 A 
ATOM     12  C   UNL A   1      41.971  27.932  29.007  1.00  0.00     0.074 A 
ATOM     13  C   UNL A   1      39.653  28.818  28.818  1.00  0.00     0.049 A 
ATOM     14  N   UNL A   1      42.604  28.956  29.511  1.00  0.00    -0.248 NA
ATOM     15  C   UNL A   1      42.822  26.743  28.809  1.00  0.00     0.031 C 
ATOM     16  C   UNL A   1      38.216  28.785  28.531  1.00  0.00     0.029 A 
ATOM     17  N   UNL A   1      39.860  30.091  29.288  1.00  0.00    -0.354 N 
ATOM     18  C   UNL A   1      43.910  28.519  29.704  1.00  0.00     0.074 A 
ATOM     19  C   UNL A   1      43.957  27.121  29.367  1.00  0.00     0.031 C 
ATOM     20  C   UNL A   1      37.679  29.986  28.813  1.00  0.00     0.029 A 
ATOM     21  C   UNL A   1      38.728  30.874  29.306  1.00  0.00     0.049 A 
ATOM     22  H   UNL A   1      40.742  30.416  29.584  1.00  0.00     0.167 HD
ATOM     23  C   UNL A   1      44.997  29.235  30.066  1.00  0.00     0.031 A 
ATOM     24  C   UNL A   1      38.570  32.165  29.664  1.00  0.00     0.031 A 
ATOM     25  C   UNL A   1      44.949  30.637  30.351  1.00  0.00     0.049 A 
ATOM     26  C   UNL A   1      39.797  32.946  30.074  1.00  0.00     0.074 A 
ATOM     27  C   UNL A   1      45.989  31.487  30.670  1.00  0.00     0.029 A 
ATOM     28  N   UNL A   1      43.788  31.394  30.337  1.00  0.00    -0.354 N 
ATOM     29  N   UNL A   1      41.043  32.539  30.157  1.00  0.00    -0.248 NA
ATOM     30  C   UNL A   1      39.605  34.364  30.405  1.00  0.00     0.031 C 
ATOM     31  C   UNL A   1      45.447  32.756  30.895  1.00  0.00     0.029 A 
ATOM     32  C   UNL A   1      44.081  32.705  30.656  1.00  0.00     0.049 A 
ATOM     33  H   UNL A   1      42.889  31.049  30.131  1.00  0.00     0.167 HD
ATOM     34  C   UNL A   1      41.788  33.662  30.504  1.00  0.00     0.074 A 
ATOM     35  C   UNL A   1      40.853  34.764  30.605  1.00  0.00     0.031 C 
ATOM     36  C   UNL A   1      43.121  33.777  30.720  1.00  0.00     0.031 A 
BRANCH  23  37
ATOM     37  C   UNL A   1      46.310  28.504  30.133  1.00  0.00    -0.014 A 
ATOM     38  C   UNL A   1      46.728  27.878  31.322  1.00  0.00     0.010 A 
ATOM     39  C   UNL A   1      47.143  28.454  29.003  1.00  0.00     0.010 A 
ATOM     40  C   UNL A   1      47.976  27.255  31.395  1.00  0.00     0.020 A 
ATOM     41  C   UNL A   1      48.378  27.801  29.061  1.00  0.00     0.020 A 
ATOM     42  C   UNL A   1      48.792  27.220  30.262  1.00  0.00     0.054 A 
BRANCH  42  43
ATOM     43  S   UNL A   1      50.390  26.370  30.375  1.00  0.00     0.124 S 
ATOM     44  O   UNL A   1      50.014  24.983  30.111  1.00  0.00    -0.237 OA
ATOM     45  O   UNL A   1      51.170  27.018  29.324  1.00  0.00    -0.237 OA
ATOM     46  O   UNL A   1      50.835  26.646  31.738  1.00  0.00    -0.744 OA
ENDBRANCH  42  43
ENDBRANCH  23  37
BRANCH  24  47
ATOM     47  C   UNL A   1      37.230  32.823  29.617  1.00  0.00    -0.014 A 
ATOM     48  C   UNL A   1      36.730  33.358  28.414  1.00  0.00     0.010 A 
ATOM     49  C   UNL A   1      36.459  32.961  30.786  1.00  0.00     0.010 A 
ATOM     50  C   UNL A   1      35.514  34.053  28.389  1.00  0.00     0.020 A 
ATOM     51  C   UNL A   1      35.229  33.631  30.761  1.00  0.00     0.020 A 
ATOM     52  C   UNL A   1      34.773  34.189  29.565  1.00  0.00     0.054 A 
BRANCH  52  53
ATOM     53  S   UNL A   1      33.196  35.089  29.508  1.00  0.00     0.124 S 
ATOM     54  O   UNL A   1      33.627  36.437  29.151  1.00  0.00    -0.237 OA
ATOM     55  O   UNL A   1      32.459  34.365  28.475  1.00  0.00    -0.237 OA
ATOM     56  O   UNL A   1      32.667  34.939  30.862  1.00  0.00    -0.744 OA
ENDBRANCH  52  53
ENDBRANCH  24  47
BRANCH  36  57
ATOM     57  C   UNL A   1      43.660  35.146  31.030  1.00  0.00    -0.014 A 
ATOM     58  C   UNL A   1      44.063  36.018  30.006  1.00  0.00     0.010 A 
ATOM     59  C   UNL A   1      43.664  35.594  32.364  1.00  0.00     0.010 A 
ATOM     60  C   UNL A   1      44.485  37.313  30.314  1.00  0.00     0.020 A 
ATOM     61  C   UNL A   1      44.053  36.898  32.672  1.00  0.00     0.020 A 
ATOM     62  C   UNL A   1      44.472  37.746  31.644  1.00  0.00     0.054 A 
BRANCH  62  63
ATOM     63  S   UNL A   1      44.961  39.452  32.009  1.00  0.00     0.124 S 
ATOM     64  O   UNL A   1      45.008  40.045  30.675  1.00  0.00    -0.237 OA
ATOM     65  O   UNL A   1      43.873  39.920  32.866  1.00  0.00    -0.237 OA
ATOM     66  O   UNL A   1      46.253  39.309  32.674  1.00  0.00    -0.744 OA
ENDBRANCH  62  63
ENDBRANCH  36  57
ENDBRANCH  10  11
ENDBRANCH   3   5
ENDBRANCH   2   3
ENDBRANCH   1   2
BRANCH   1  67
ATOM     67  C   UNL A   1      41.089  21.049  27.496  1.00  0.00     0.274 C 
BRANCH  67  68
ATOM     68  O   UNL A   1      42.342  21.476  26.930  1.00  0.00    -0.458 OA
BRANCH  68  69
ATOM     69  C   UNL A   1      42.588  22.818  26.935  1.00  0.00     0.365 C 
ATOM     70  O   UNL A   1      42.323  23.558  27.881  1.00  0.00    -0.245 OA
BRANCH  69  71
ATOM     71  C   UNL A   1      43.225  23.279  25.601  1.00  0.00     0.296 C 
ATOM     72  C   UNL A   1      43.123  24.817  25.473  1.00  0.00     0.087 C 
ATOM     73  N   UNL A   1      44.683  22.967  25.637  1.00  0.00    -0.314 N 
ATOM     74  C   UNL A   1      44.556  25.228  25.167  1.00  0.00     0.054 C 
ATOM     75  C   UNL A   1      45.346  24.213  25.980  1.00  0.00     0.188 C 
ATOM     76  H   UNL A   1      44.869  22.268  26.356  1.00  0.00     0.349 HD
ATOM     77  C   UNL A   1      45.001  26.649  25.450  1.00  0.00     0.010 C 
ATOM     78  C   UNL A   1      46.859  24.312  25.861  1.00  0.00     0.065 C 
ATOM     79  C   UNL A   1      46.519  26.752  25.230  1.00  0.00     0.001 C 
ATOM     80  C   UNL A   1      47.305  25.754  26.087  1.00  0.00     0.006 C 
BRANCH  73  81
ATOM     81  C   UNL A   1      45.257  22.116  24.588  1.00  0.00     0.342 C 
BRANCH  81  82
ATOM     82  C   UNL A   1      45.347  20.628  24.756  1.00  0.00     0.190 A 
ATOM     83  C   UNL A   1      46.292  19.706  25.158  1.00  0.00     0.075 A 
ATOM     84  O   UNL A   1      44.161  19.960  24.628  1.00  0.00    -0.355 OA
ATOM     85  C   UNL A   1      45.638  18.464  25.114  1.00  0.00     0.158 A 
ATOM     86  N   UNL A   1      44.351  18.602  24.808  1.00  0.00    -0.088 NA
ENDBRANCH  81  82
ENDBRANCH  73  81
ENDBRANCH  69  71
ENDBRANCH  68  69
ENDBRANCH  67  68
ENDBRANCH   1  67
TORSDOF 16
ENDMDL
MODEL 3
REMARK VINA RESULT:     -10.5      1.627      8.760
REMARK SMILES O=C(OCCOC(=O)[C@H]1C[C@H]2CCCC[C@@H]2[N@@H+]1Cc1ccno1)c1ccc(-c2c3nc(c(-c4ccc(S(=O)(=O)[O-])cc4)c4ccc([nH]4)c(-c4ccc(S(=O)(=O)[O-])cc4)c4nc(c(-c5ccc(S(=O)(=O)[O-])cc5)c5ccc2[nH]5)C=C4)C=C3)cc1
REMARK SMILES IDX 4 1 3 2 2 3 1 4 24 5 25 6 83 7 26 8 82 9 27 10 28 11 29 12
REMARK SMILES IDX 76 13 30 14 81 15 75 16 77 17 31 18 80 19 74 20 73 21 32 23
REMARK SMILES IDX 62 24 43 25 61 26 44 27 47 28 60 29 78 30 45 31 46 32 59 34
REMARK SMILES IDX 79 35 48 36 33 37 34 38 42 39 35 40 41 41 36 42 37 43 38 44
REMARK SMILES IDX 39 45 40 46 63 47 64 48 72 49 65 50 71 51 66 52 67 53 68 54
REMARK SMILES IDX 69 55 70 56 49 57 50 58 58 59 51 60 57 61 52 62 53 63 54 64
REMARK SMILES IDX 55 65 56 66 5 67 6 68 7 69 8 70 9 71 10 72 17 73 11 74 16 75
REMARK SMILES IDX 12 77 15 78 13 79 14 80 18 81 19 82 20 83 23 84 21 85 22 86
REMARK H PARENT 77 22 47 33 17 76
REMARK Flexibility Score: inf
ROOT
ATOM      1  C   UNL A   1      32.119  28.964  26.807  1.00  0.00     0.275 C 
ENDROOT
BRANCH   1   2
ATOM      2  O   UNL A   1      33.475  28.942  27.279  1.00  0.00    -0.458 OA
BRANCH   2   3
ATOM      3  C   UNL A   1      34.200  29.965  27.796  1.00  0.00     0.338 C 
ATOM      4  O   UNL A   1      33.736  31.102  27.720  1.00  0.00    -0.246 OA
BRANCH   3   5
ATOM      5  C   UNL A   1      35.615  29.811  28.275  1.00  0.00     0.060 A 
ATOM      6  C   UNL A   1      36.047  29.408  29.543  1.00  0.00     0.016 A 
ATOM      7  C   UNL A   1      36.600  30.041  27.309  1.00  0.00     0.016 A 
ATOM      8  C   UNL A   1      37.395  29.115  29.800  1.00  0.00     0.010 A 
ATOM      9  C   UNL A   1      37.933  29.706  27.545  1.00  0.00     0.010 A 
ATOM     10  C   UNL A   1      38.347  29.242  28.793  1.00  0.00    -0.014 A 
BRANCH  10  11
ATOM     11  C   UNL A   1      39.794  29.096  29.074  1.00  0.00     0.031 A 
ATOM     12  C   UNL A   1      40.436  27.775  28.740  1.00  0.00     0.074 A 
ATOM     13  C   UNL A   1      40.510  30.101  29.620  1.00  0.00     0.049 A 
ATOM     14  N   UNL A   1      41.676  27.396  28.892  1.00  0.00    -0.248 NA
ATOM     15  C   UNL A   1      39.556  26.727  28.187  1.00  0.00     0.031 C 
ATOM     16  C   UNL A   1      39.982  31.409  30.019  1.00  0.00     0.029 A 
ATOM     17  N   UNL A   1      41.844  30.181  29.932  1.00  0.00    -0.354 N 
ATOM     18  C   UNL A   1      41.707  26.071  28.472  1.00  0.00     0.074 A 
ATOM     19  C   UNL A   1      40.357  25.678  28.163  1.00  0.00     0.031 C 
ATOM     20  C   UNL A   1      40.986  32.164  30.504  1.00  0.00     0.029 A 
ATOM     21  C   UNL A   1      42.226  31.395  30.458  1.00  0.00     0.049 A 
ATOM     22  H   UNL A   1      42.473  29.436  29.792  1.00  0.00     0.167 HD
ATOM     23  C   UNL A   1      42.777  25.265  28.293  1.00  0.00     0.031 A 
ATOM     24  C   UNL A   1      43.445  31.833  30.837  1.00  0.00     0.031 A 
ATOM     25  C   UNL A   1      44.121  25.681  28.556  1.00  0.00     0.049 A 
ATOM     26  C   UNL A   1      44.626  30.913  30.636  1.00  0.00     0.074 A 
ATOM     27  C   UNL A   1      45.294  24.980  28.360  1.00  0.00     0.029 A 
ATOM     28  N   UNL A   1      44.464  26.924  29.066  1.00  0.00    -0.354 N 
ATOM     29  N   UNL A   1      44.649  29.695  30.145  1.00  0.00    -0.248 NA
ATOM     30  C   UNL A   1      45.949  31.436  31.005  1.00  0.00     0.031 C 
ATOM     31  C   UNL A   1      46.349  25.787  28.795  1.00  0.00     0.029 A 
ATOM     32  C   UNL A   1      45.835  27.009  29.205  1.00  0.00     0.049 A 
ATOM     33  H   UNL A   1      43.826  27.638  29.295  1.00  0.00     0.167 HD
ATOM     34  C   UNL A   1      45.989  29.324  30.106  1.00  0.00     0.074 A 
ATOM     35  C   UNL A   1      46.746  30.452  30.612  1.00  0.00     0.031 C 
ATOM     36  C   UNL A   1      46.549  28.162  29.689  1.00  0.00     0.031 A 
BRANCH  23  37
ATOM     37  C   UNL A   1      42.514  23.883  27.761  1.00  0.00    -0.014 A 
ATOM     38  C   UNL A   1      42.214  22.818  28.633  1.00  0.00     0.010 A 
ATOM     39  C   UNL A   1      42.581  23.638  26.379  1.00  0.00     0.010 A 
ATOM     40  C   UNL A   1      42.034  21.526  28.137  1.00  0.00     0.020 A 
ATOM     41  C   UNL A   1      42.366  22.353  25.876  1.00  0.00     0.020 A 
ATOM     42  C   UNL A   1      42.109  21.302  26.760  1.00  0.00     0.054 A 
BRANCH  42  43
ATOM     43  S   UNL A   1      41.830  19.620  26.142  1.00  0.00     0.124 S 
ATOM     44  O   UNL A   1      42.712  19.575  24.978  1.00  0.00    -0.237 OA
ATOM     45  O   UNL A   1      42.244  18.794  27.273  1.00  0.00    -0.237 OA
ATOM     46  O   UNL A   1      40.401  19.592  25.843  1.00  0.00    -0.744 OA
ENDBRANCH  42  43
ENDBRANCH  23  37
BRANCH  24  47
ATOM     47  C   UNL A   1      43.634  33.204  31.399  1.00  0.00    -0.014 A 
ATOM     48  C   UNL A   1      43.593  33.426  32.788  1.00  0.00     0.010 A 
ATOM     49  C   UNL A   1      43.814  34.309  30.546  1.00  0.00     0.010 A 
ATOM     50  C   UNL A   1      43.682  34.724  33.309  1.00  0.00     0.020 A 
ATOM     51  C   UNL A   1      43.932  35.605  31.063  1.00  0.00     0.020 A 
ATOM     52  C   UNL A   1      43.847  35.806  32.442  1.00  0.00     0.054 A 
BRANCH  52  53
ATOM     53  S   UNL A   1      43.965  37.479  33.141  1.00  0.00     0.124 S 
ATOM     54  O   UNL A   1      42.844  37.500  34.074  1.00  0.00    -0.237 OA
ATOM     55  O   UNL A   1      45.294  37.471  33.748  1.00  0.00    -0.237 OA
ATOM     56  O   UNL A   1      43.826  38.347  31.974  1.00  0.00    -0.744 OA
ENDBRANCH  52  53
ENDBRANCH  24  47
BRANCH  36  57
ATOM     57  C   UNL A   1      48.050  28.067  29.708  1.00  0.00    -0.014 A 
ATOM     58  C   UNL A   1      48.735  27.594  30.839  1.00  0.00     0.010 A 
ATOM     59  C   UNL A   1      48.769  28.363  28.536  1.00  0.00     0.010 A 
ATOM     60  C   UNL A   1      50.122  27.439  30.805  1.00  0.00     0.020 A 
ATOM     61  C   UNL A   1      50.151  28.178  28.487  1.00  0.00     0.020 A 
ATOM     62  C   UNL A   1      50.820  27.728  29.627  1.00  0.00     0.054 A 
BRANCH  62  63
ATOM     63  S   UNL A   1      52.611  27.455  29.588  1.00  0.00     0.124 S 
ATOM     64  O   UNL A   1      52.751  26.522  28.473  1.00  0.00    -0.237 OA
ATOM     65  O   UNL A   1      53.134  28.799  29.353  1.00  0.00    -0.237 OA
ATOM     66  O   UNL A   1      52.906  26.900  30.906  1.00  0.00    -0.744 OA
ENDBRANCH  62  63
ENDBRANCH  36  57
ENDBRANCH  10  11
ENDBRANCH   3   5
ENDBRANCH   2   3
ENDBRANCH   1   2
BRANCH   1  67
ATOM     67  C   UNL A   1      31.673  27.652  26.153  1.00  0.00     0.274 C 
BRANCH  67  68
ATOM     68  O   UNL A   1      32.635  26.598  26.341  1.00  0.00    -0.458 OA
BRANCH  68  69
ATOM     69  C   UNL A   1      32.136  25.338  26.502  1.00  0.00     0.365 C 
ATOM     70  O   UNL A   1      30.982  25.100  26.855  1.00  0.00    -0.245 OA
BRANCH  69  71
ATOM     71  C   UNL A   1      33.210  24.264  26.198  1.00  0.00     0.296 C 
ATOM     72  C   UNL A   1      32.669  22.862  26.565  1.00  0.00     0.087 C 
ATOM     73  N   UNL A   1      33.452  24.238  24.727  1.00  0.00    -0.314 N 
ATOM     74  C   UNL A   1      32.915  22.060  25.295  1.00  0.00     0.054 C 
ATOM     75  C   UNL A   1      32.686  23.112  24.219  1.00  0.00     0.188 C 
ATOM     76  H   UNL A   1      33.114  25.103  24.305  1.00  0.00     0.349 HD
ATOM     77  C   UNL A   1      32.108  20.804  25.039  1.00  0.00     0.010 C 
ATOM     78  C   UNL A   1      32.901  22.645  22.789  1.00  0.00     0.065 C 
ATOM     79  C   UNL A   1      32.413  20.292  23.622  1.00  0.00     0.001 C 
ATOM     80  C   UNL A   1      32.135  21.347  22.545  1.00  0.00     0.006 C 
BRANCH  73  81
ATOM     81  C   UNL A   1      34.812  24.461  24.223  1.00  0.00     0.342 C 
BRANCH  81  82
ATOM     82  C   UNL A   1      35.911  23.474  24.489  1.00  0.00     0.190 A 
ATOM     83  C   UNL A   1      36.620  22.526  23.780  1.00  0.00     0.075 A 
ATOM     84  O   UNL A   1      36.513  23.597  25.710  1.00  0.00    -0.355 OA
ATOM     85  C   UNL A   1      37.556  22.008  24.689  1.00  0.00     0.158 A 
ATOM     86  N   UNL A   1      37.513  22.652  25.852  1.00  0.00    -0.088 NA
ENDBRANCH  81  82
ENDBRANCH  73  81
ENDBRANCH  69  71
ENDBRANCH  68  69
ENDBRANCH  67  68
ENDBRANCH   1  67
TORSDOF 16
ENDMDL
