MODEL 1
REMARK VINA RESULT:     -14.3      0.000      0.000
REMARK SMILES Cc1ccc(C)c(S(=O)(=O)N[C@H](CC2=c3ccccc3=NC2)C(=O)OCCOC(=O)c2ccc(-c3c4nc(c(-c5ccc(S(=O)(=O)[O-])cc5)c5ccc([nH]5)c(-c5ccc(S(=O)(=O)[O-])cc5)c5nc(c(-c6ccc(S(=O)(=O)[O-])cc6)c6ccc3[nH]6)C=C5)C=C4)cc2)c1
REMARK SMILES IDX 26 1 25 2 23 3 24 4 12 5 11 6 8 8 9 9 10 10 7 11 1 12 2 13
REMARK SMILES IDX 3 14 91 15 4 16 5 17 6 18 13 19 14 20 15 21 22 22 16 23
REMARK SMILES IDX 20 24 21 25 17 26 19 27 18 28 27 29 28 30 29 31 30 32 31 33
REMARK SMILES IDX 32 34 90 35 33 36 89 37 34 38 35 39 36 40 83 41 37 42 88 43
REMARK SMILES IDX 82 44 84 45 38 46 87 47 81 48 80 49 39 51 69 52 50 53 68 54
REMARK SMILES IDX 51 55 54 56 67 57 85 58 52 59 53 60 66 62 86 63 55 64 40 65
REMARK SMILES IDX 41 66 49 67 42 68 48 69 43 70 44 71 45 72 46 73 47 74 70 75
REMARK SMILES IDX 71 76 79 77 72 78 78 79 73 80 74 81 75 82 76 83 77 84 56 85
REMARK SMILES IDX 57 86 65 87 58 88 64 89 59 90 60 91 61 92 62 93 63 94
REMARK H PARENT 11 7 84 50 54 61
REMARK Flexibility Score: inf
ROOT
ATOM      1  C   UNL A   1      38.777  23.855  27.060  1.00  0.00     0.274 C 
ENDROOT
BRANCH   1   2
ATOM      2  O   UNL A   1      38.310  23.899  25.707  1.00  0.00    -0.461 OA
BRANCH   2   3
ATOM      3  C   UNL A   1      36.985  23.333  25.469  1.00  0.00     0.324 C 
ATOM      4  O   UNL A   1      37.232  22.138  25.160  1.00  0.00    -0.250 OA
BRANCH   3   5
ATOM      5  C   UNL A   1      35.116  24.459  25.767  1.00  0.00     0.183 C 
BRANCH   5   6
ATOM      6  N   UNL A   1      33.681  24.144  26.590  1.00  0.00    -0.197 NA
ATOM      7  H   UNL A   1      33.799  24.584  27.503  1.00  0.00     0.142 HD
BRANCH   6   8
ATOM      8  S   UNL A   1      32.990  22.591  26.931  1.00  0.00     0.241 S 
ATOM      9  O   UNL A   1      31.630  22.815  27.367  1.00  0.00    -0.207 OA
ATOM     10  O   UNL A   1      33.967  21.980  27.814  1.00  0.00    -0.207 OA
BRANCH   8  11
ATOM     11  C   UNL A   1      32.832  21.341  25.592  1.00  0.00     0.085 A 
ATOM     12  C   UNL A   1      33.752  17.727  24.611  1.00  0.00     0.044 C 
ATOM     13  C   UNL A   1      33.220  19.134  24.572  1.00  0.00    -0.050 A 
ATOM     14  C   UNL A   1      32.658  19.562  23.367  1.00  0.00     0.004 A 
ATOM     15  C   UNL A   1      33.272  20.014  25.691  1.00  0.00     0.025 A 
ATOM     16  C   UNL A   1      32.146  20.843  23.269  1.00  0.00     0.005 A 
ATOM     17  C   UNL A   1      32.216  21.741  24.361  1.00  0.00    -0.031 A 
ATOM     18  C   UNL A   1      31.572  23.078  24.083  1.00  0.00     0.046 C 
ENDBRANCH   8  11
ENDBRANCH   6   8
ENDBRANCH   5   6
BRANCH   5  19
ATOM     19  C   UNL A   1      34.262  25.722  24.635  1.00  0.00     0.065 C 
BRANCH  19  20
ATOM     20  C   UNL A   1      33.008  26.621  24.812  1.00  0.00    -0.037 C 
ATOM     21  C   UNL A   1      32.784  27.620  25.682  1.00  0.00     0.001 A 
ATOM     22  C   UNL A   1      31.896  26.607  23.789  1.00  0.00     0.174 C 
ATOM     23  C   UNL A   1      33.373  28.116  26.888  1.00  0.00     0.010 A 
ATOM     24  C   UNL A   1      31.818  28.461  24.932  1.00  0.00     0.065 A 
ATOM     25  N   UNL A   1      31.288  27.959  23.858  1.00  0.00    -0.280 NA
ATOM     26  C   UNL A   1      33.072  29.360  27.308  1.00  0.00     0.001 A 
ATOM     27  C   UNL A   1      31.651  29.865  25.381  1.00  0.00     0.028 A 
ATOM     28  C   UNL A   1      32.263  30.261  26.508  1.00  0.00     0.002 A 
ENDBRANCH  19  20
ENDBRANCH   5  19
ENDBRANCH   3   5
ENDBRANCH   2   3
ENDBRANCH   1   2
BRANCH   1  29
ATOM     29  C   UNL A   1      39.962  22.882  27.218  1.00  0.00     0.275 C 
BRANCH  29  30
ATOM     30  O   UNL A   1      40.660  22.444  26.008  1.00  0.00    -0.458 OA
BRANCH  30  31
ATOM     31  C   UNL A   1      42.004  22.367  25.806  1.00  0.00     0.338 C 
ATOM     32  O   UNL A   1      42.611  21.341  25.542  1.00  0.00    -0.246 OA
BRANCH  31  33
ATOM     33  C   UNL A   1      42.747  23.574  26.172  1.00  0.00     0.060 A 
ATOM     34  C   UNL A   1      43.426  23.673  27.852  1.00  0.00     0.016 A 
ATOM     35  C   UNL A   1      42.272  25.100  25.332  1.00  0.00     0.016 A 
ATOM     36  C   UNL A   1      43.436  25.294  28.690  1.00  0.00     0.010 A 
ATOM     37  C   UNL A   1      42.416  26.702  26.156  1.00  0.00     0.010 A 
ATOM     38  C   UNL A   1      42.780  26.763  27.893  1.00  0.00    -0.014 A 
BRANCH  38  39
ATOM     39  C   UNL A   1      41.896  27.899  28.592  1.00  0.00     0.031 A 
ATOM     40  C   UNL A   1      42.695  29.104  28.335  1.00  0.00     0.074 A 
ATOM     41  C   UNL A   1      40.632  28.131  29.151  1.00  0.00     0.049 A 
ATOM     42  N   UNL A   1      43.774  29.344  28.999  1.00  0.00    -0.248 NA
ATOM     43  C   UNL A   1      42.589  29.841  27.065  1.00  0.00     0.031 C 
ATOM     44  C   UNL A   1      39.481  27.238  29.411  1.00  0.00     0.029 A 
ATOM     45  N   UNL A   1      40.069  29.346  29.641  1.00  0.00    -0.354 N 
ATOM     46  C   UNL A   1      44.273  30.487  28.429  1.00  0.00     0.074 A 
ATOM     47  C   UNL A   1      43.753  30.503  27.087  1.00  0.00     0.031 C 
ATOM     48  C   UNL A   1      38.365  27.931  29.807  1.00  0.00     0.029 A 
ATOM     49  C   UNL A   1      38.660  29.359  29.945  1.00  0.00     0.049 A 
ATOM     50  H   UNL A   1      40.625  30.149  29.768  1.00  0.00     0.167 HD
ATOM     51  C   UNL A   1      44.705  31.504  29.220  1.00  0.00     0.031 A 
ATOM     52  C   UNL A   1      37.862  30.292  30.619  1.00  0.00     0.031 A 
ATOM     53  C   UNL A   1      44.651  31.122  30.617  1.00  0.00     0.049 A 
ATOM     54  C   UNL A   1      38.788  31.116  31.417  1.00  0.00     0.074 A 
ATOM     55  C   UNL A   1      45.244  30.156  31.402  1.00  0.00     0.029 A 
ATOM     56  N   UNL A   1      43.499  31.502  31.261  1.00  0.00    -0.354 N 
ATOM     57  N   UNL A   1      39.426  30.673  32.455  1.00  0.00    -0.248 NA
ATOM     58  C   UNL A   1      39.335  32.287  30.764  1.00  0.00     0.031 C 
ATOM     59  C   UNL A   1      44.244  29.749  32.333  1.00  0.00     0.029 A 
ATOM     60  C   UNL A   1      43.120  30.560  32.178  1.00  0.00     0.049 A 
ATOM     61  H   UNL A   1      43.012  32.341  31.087  1.00  0.00     0.167 HD
ATOM     62  C   UNL A   1      40.705  31.161  32.267  1.00  0.00     0.074 A 
ATOM     63  C   UNL A   1      40.571  32.213  31.255  1.00  0.00     0.031 C 
ATOM     64  C   UNL A   1      41.776  30.444  32.712  1.00  0.00     0.031 A 
BRANCH  51  65
ATOM     65  C   UNL A   1      44.748  32.939  28.789  1.00  0.00    -0.014 A 
ATOM     66  C   UNL A   1      45.901  33.600  28.319  1.00  0.00     0.010 A 
ATOM     67  C   UNL A   1      43.531  33.638  28.711  1.00  0.00     0.010 A 
ATOM     68  C   UNL A   1      45.868  34.927  27.895  1.00  0.00     0.020 A 
ATOM     69  C   UNL A   1      43.478  34.956  28.249  1.00  0.00     0.020 A 
ATOM     70  C   UNL A   1      44.656  35.604  27.881  1.00  0.00     0.054 A 
BRANCH  70  71
ATOM     71  S   UNL A   1      44.654  37.346  27.409  1.00  0.00     0.124 S 
ATOM     72  O   UNL A   1      44.761  38.007  28.708  1.00  0.00    -0.237 OA
ATOM     73  O   UNL A   1      45.834  37.441  26.555  1.00  0.00    -0.237 OA
ATOM     74  O   UNL A   1      43.374  37.516  26.728  1.00  0.00    -0.744 OA
ENDBRANCH  70  71
ENDBRANCH  51  65
BRANCH  52  75
ATOM     75  C   UNL A   1      36.523  31.003  30.294  1.00  0.00    -0.014 A 
ATOM     76  C   UNL A   1      36.135  31.201  28.963  1.00  0.00     0.010 A 
ATOM     77  C   UNL A   1      35.815  31.804  31.259  1.00  0.00     0.010 A 
ATOM     78  C   UNL A   1      35.192  32.194  28.592  1.00  0.00     0.020 A 
ATOM     79  C   UNL A   1      34.859  32.800  30.894  1.00  0.00     0.020 A 
ATOM     80  C   UNL A   1      34.591  33.019  29.546  1.00  0.00     0.054 A 
BRANCH  80  81
ATOM     81  S   UNL A   1      33.553  34.415  28.964  1.00  0.00     0.124 S 
ATOM     82  O   UNL A   1      32.922  34.865  30.202  1.00  0.00    -0.237 OA
ATOM     83  O   UNL A   1      34.540  35.333  28.401  1.00  0.00    -0.237 OA
ATOM     84  O   UNL A   1      32.648  33.810  27.989  1.00  0.00    -0.744 OA
ENDBRANCH  80  81
ENDBRANCH  52  75
BRANCH  64  85
ATOM     85  C   UNL A   1      41.542  29.340  33.730  1.00  0.00    -0.014 A 
ATOM     86  C   UNL A   1      41.864  29.658  35.062  1.00  0.00     0.010 A 
ATOM     87  C   UNL A   1      41.206  28.004  33.428  1.00  0.00     0.010 A 
ATOM     88  C   UNL A   1      41.927  28.674  36.047  1.00  0.00     0.020 A 
ATOM     89  C   UNL A   1      41.234  27.010  34.428  1.00  0.00     0.020 A 
ATOM     90  C   UNL A   1      41.627  27.351  35.725  1.00  0.00     0.054 A 
BRANCH  90  91
ATOM     91  S   UNL A   1      41.791  26.109  37.037  1.00  0.00     0.124 S 
ATOM     92  O   UNL A   1      42.141  24.906  36.284  1.00  0.00    -0.237 OA
ATOM     93  O   UNL A   1      42.866  26.657  37.864  1.00  0.00    -0.237 OA
ATOM     94  O   UNL A   1      40.476  26.084  37.672  1.00  0.00    -0.744 OA
ENDBRANCH  90  91
ENDBRANCH  64  85
ENDBRANCH  38  39
ENDBRANCH  31  33
ENDBRANCH  30  31
ENDBRANCH  29  30
ENDBRANCH   1  29
TORSDOF 19
ENDMDL
MODEL 2
REMARK VINA RESULT:     -13.5      2.736      9.700
REMARK SMILES Cc1ccc(C)c(S(=O)(=O)N[C@H](CC2=c3ccccc3=NC2)C(=O)OCCOC(=O)c2ccc(-c3c4nc(c(-c5ccc(S(=O)(=O)[O-])cc5)c5ccc([nH]5)c(-c5ccc(S(=O)(=O)[O-])cc5)c5nc(c(-c6ccc(S(=O)(=O)[O-])cc6)c6ccc3[nH]6)C=C5)C=C4)cc2)c1
REMARK SMILES IDX 26 1 25 2 23 3 24 4 12 5 11 6 8 8 9 9 10 10 7 11 1 12 2 13
REMARK SMILES IDX 3 14 91 15 4 16 5 17 6 18 13 19 14 20 15 21 22 22 16 23
REMARK SMILES IDX 20 24 21 25 17 26 19 27 18 28 27 29 28 30 29 31 30 32 31 33
REMARK SMILES IDX 32 34 90 35 33 36 89 37 34 38 35 39 36 40 83 41 37 42 88 43
REMARK SMILES IDX 82 44 84 45 38 46 87 47 81 48 80 49 39 51 69 52 50 53 68 54
REMARK SMILES IDX 51 55 54 56 67 57 85 58 52 59 53 60 66 62 86 63 55 64 40 65
REMARK SMILES IDX 41 66 49 67 42 68 48 69 43 70 44 71 45 72 46 73 47 74 70 75
REMARK SMILES IDX 71 76 79 77 72 78 78 79 73 80 74 81 75 82 76 83 77 84 56 85
REMARK SMILES IDX 57 86 65 87 58 88 64 89 59 90 60 91 61 92 62 93 63 94
REMARK H PARENT 11 7 84 50 54 61
REMARK Flexibility Score: inf
ROOT
ATOM      1  C   UNL A   1      32.911  30.754  27.104  1.00  0.00     0.274 C 
ENDROOT
BRANCH   1   2
ATOM      2  O   UNL A   1      33.623  29.515  27.201  1.00  0.00    -0.461 OA
BRANCH   2   3
ATOM      3  C   UNL A   1      32.842  28.307  26.950  1.00  0.00     0.324 C 
ATOM      4  O   UNL A   1      31.739  28.555  27.505  1.00  0.00    -0.250 OA
BRANCH   3   5
ATOM      5  C   UNL A   1      33.578  26.617  25.745  1.00  0.00     0.183 C 
BRANCH   5   6
ATOM      6  N   UNL A   1      34.070  26.450  24.143  1.00  0.00    -0.197 NA
ATOM      7  H   UNL A   1      34.781  27.168  24.010  1.00  0.00     0.142 HD
BRANCH   6   8
ATOM      8  S   UNL A   1      33.072  26.544  22.729  1.00  0.00     0.241 S 
ATOM      9  O   UNL A   1      32.848  25.190  22.274  1.00  0.00    -0.207 OA
ATOM     10  O   UNL A   1      33.767  27.508  21.895  1.00  0.00    -0.207 OA
BRANCH   8  11
ATOM     11  C   UNL A   1      31.384  27.265  22.840  1.00  0.00     0.085 A 
ATOM     12  C   UNL A   1      29.348  30.481  22.219  1.00  0.00     0.044 C 
ATOM     13  C   UNL A   1      29.738  29.082  22.615  1.00  0.00    -0.050 A 
ATOM     14  C   UNL A   1      28.753  28.303  23.227  1.00  0.00     0.004 A 
ATOM     15  C   UNL A   1      31.039  28.548  22.391  1.00  0.00     0.025 A 
ATOM     16  C   UNL A   1      29.049  27.007  23.609  1.00  0.00     0.005 A 
ATOM     17  C   UNL A   1      30.344  26.468  23.422  1.00  0.00    -0.031 A 
ATOM     18  C   UNL A   1      30.468  25.030  23.862  1.00  0.00     0.046 C 
ENDBRANCH   8  11
ENDBRANCH   6   8
ENDBRANCH   5   6
BRANCH   5  19
ATOM     19  C   UNL A   1      33.191  24.763  25.885  1.00  0.00     0.065 C 
BRANCH  19  20
ATOM     20  C   UNL A   1      33.767  23.508  25.174  1.00  0.00    -0.037 C 
ATOM     21  C   UNL A   1      35.044  23.136  24.988  1.00  0.00     0.001 A 
ATOM     22  C   UNL A   1      32.864  22.364  24.775  1.00  0.00     0.174 C 
ATOM     23  C   UNL A   1      36.338  23.739  25.082  1.00  0.00     0.010 A 
ATOM     24  C   UNL A   1      34.920  21.659  24.917  1.00  0.00     0.065 A 
ATOM     25  N   UNL A   1      33.728  21.158  24.804  1.00  0.00    -0.280 NA
ATOM     26  C   UNL A   1      37.430  22.954  25.145  1.00  0.00     0.001 A 
ATOM     27  C   UNL A   1      36.154  20.865  25.135  1.00  0.00     0.028 A 
ATOM     28  C   UNL A   1      37.327  21.509  25.245  1.00  0.00     0.002 A 
ENDBRANCH  19  20
ENDBRANCH   5  19
ENDBRANCH   3   5
ENDBRANCH   2   3
ENDBRANCH   1   2
BRANCH   1  29
ATOM     29  C   UNL A   1      33.752  31.932  27.631  1.00  0.00     0.275 C 
BRANCH  29  30
ATOM     30  O   UNL A   1      34.636  31.693  28.773  1.00  0.00    -0.458 OA
BRANCH  30  31
ATOM     31  C   UNL A   1      34.735  32.428  29.915  1.00  0.00     0.338 C 
ATOM     32  O   UNL A   1      34.086  33.435  30.153  1.00  0.00    -0.246 OA
BRANCH  31  33
ATOM     33  C   UNL A   1      35.869  32.078  30.771  1.00  0.00     0.060 A 
ATOM     34  C   UNL A   1      37.407  33.019  30.566  1.00  0.00     0.016 A 
ATOM     35  C   UNL A   1      35.965  30.361  31.322  1.00  0.00     0.016 A 
ATOM     36  C   UNL A   1      38.995  32.140  30.753  1.00  0.00     0.010 A 
ATOM     37  C   UNL A   1      37.559  29.564  31.618  1.00  0.00     0.010 A 
ATOM     38  C   UNL A   1      39.054  30.383  31.118  1.00  0.00    -0.014 A 
BRANCH  38  39
ATOM     39  C   UNL A   1      40.065  29.321  30.477  1.00  0.00     0.031 A 
ATOM     40  C   UNL A   1      40.775  28.827  31.663  1.00  0.00     0.074 A 
ATOM     41  C   UNL A   1      40.338  28.630  29.288  1.00  0.00     0.049 A 
ATOM     42  N   UNL A   1      41.679  29.541  32.245  1.00  0.00    -0.248 NA
ATOM     43  C   UNL A   1      40.221  27.752  32.501  1.00  0.00     0.031 C 
ATOM     44  C   UNL A   1      39.734  28.696  27.939  1.00  0.00     0.029 A 
ATOM     45  N   UNL A   1      41.312  27.620  29.033  1.00  0.00    -0.354 N 
ATOM     46  C   UNL A   1      42.043  28.796  33.338  1.00  0.00     0.074 A 
ATOM     47  C   UNL A   1      40.904  27.967  33.632  1.00  0.00     0.031 C 
ATOM     48  C   UNL A   1      40.194  27.700  27.115  1.00  0.00     0.029 A 
ATOM     49  C   UNL A   1      41.225  26.903  27.785  1.00  0.00     0.049 A 
ATOM     50  H   UNL A   1      42.019  27.419  29.688  1.00  0.00     0.167 HD
ATOM     51  C   UNL A   1      43.359  28.624  33.630  1.00  0.00     0.031 A 
ATOM     52  C   UNL A   1      42.115  26.028  27.151  1.00  0.00     0.031 A 
ATOM     53  C   UNL A   1      44.188  29.400  32.729  1.00  0.00     0.049 A 
ATOM     54  C   UNL A   1      43.434  26.285  27.754  1.00  0.00     0.074 A 
ATOM     55  C   UNL A   1      44.348  30.738  32.438  1.00  0.00     0.029 A 
ATOM     56  N   UNL A   1      44.642  28.702  31.637  1.00  0.00    -0.354 N 
ATOM     57  N   UNL A   1      44.113  27.371  27.555  1.00  0.00    -0.248 NA
ATOM     58  C   UNL A   1      43.764  25.516  28.937  1.00  0.00     0.031 C 
ATOM     59  C   UNL A   1      44.585  30.802  31.034  1.00  0.00     0.029 A 
ATOM     60  C   UNL A   1      44.690  29.505  30.530  1.00  0.00     0.049 A 
ATOM     61  H   UNL A   1      44.898  27.751  31.649  1.00  0.00     0.167 HD
ATOM     62  C   UNL A   1      44.558  27.698  28.822  1.00  0.00     0.074 A 
ATOM     63  C   UNL A   1      44.383  26.479  29.618  1.00  0.00     0.031 C 
ATOM     64  C   UNL A   1      44.718  29.007  29.168  1.00  0.00     0.031 A 
BRANCH  51  65
ATOM     65  C   UNL A   1      43.900  27.457  34.400  1.00  0.00    -0.014 A 
ATOM     66  C   UNL A   1      44.329  27.513  35.741  1.00  0.00     0.010 A 
ATOM     67  C   UNL A   1      43.844  26.189  33.796  1.00  0.00     0.010 A 
ATOM     68  C   UNL A   1      44.785  26.383  36.417  1.00  0.00     0.020 A 
ATOM     69  C   UNL A   1      44.261  25.041  34.477  1.00  0.00     0.020 A 
ATOM     70  C   UNL A   1      44.766  25.154  35.771  1.00  0.00     0.054 A 
BRANCH  70  71
ATOM     71  S   UNL A   1      45.441  23.721  36.637  1.00  0.00     0.124 S 
ATOM     72  O   UNL A   1      44.720  22.621  36.000  1.00  0.00    -0.237 OA
ATOM     73  O   UNL A   1      46.864  23.807  36.322  1.00  0.00    -0.237 OA
ATOM     74  O   UNL A   1      45.093  23.968  38.033  1.00  0.00    -0.744 OA
ENDBRANCH  70  71
ENDBRANCH  51  65
BRANCH  52  75
ATOM     75  C   UNL A   1      41.981  24.612  26.533  1.00  0.00    -0.014 A 
ATOM     76  C   UNL A   1      40.773  23.910  26.634  1.00  0.00     0.010 A 
ATOM     77  C   UNL A   1      43.122  23.810  26.176  1.00  0.00     0.010 A 
ATOM     78  C   UNL A   1      40.708  22.499  26.500  1.00  0.00     0.020 A 
ATOM     79  C   UNL A   1      43.063  22.390  26.031  1.00  0.00     0.020 A 
ATOM     80  C   UNL A   1      41.852  21.739  26.244  1.00  0.00     0.054 A 
BRANCH  80  81
ATOM     81  S   UNL A   1      41.715  19.910  26.301  1.00  0.00     0.124 S 
ATOM     82  O   UNL A   1      40.284  19.704  26.091  1.00  0.00    -0.237 OA
ATOM     83  O   UNL A   1      42.572  19.492  25.194  1.00  0.00    -0.237 OA
ATOM     84  O   UNL A   1      42.207  19.553  27.630  1.00  0.00    -0.744 OA
ENDBRANCH  80  81
ENDBRANCH  52  75
BRANCH  64  85
ATOM     85  C   UNL A   1      44.782  30.050  28.064  1.00  0.00    -0.014 A 
ATOM     86  C   UNL A   1      46.037  30.653  27.864  1.00  0.00     0.010 A 
ATOM     87  C   UNL A   1      43.674  30.573  27.366  1.00  0.00     0.010 A 
ATOM     88  C   UNL A   1      46.178  31.782  27.060  1.00  0.00     0.020 A 
ATOM     89  C   UNL A   1      43.817  31.695  26.525  1.00  0.00     0.020 A 
ATOM     90  C   UNL A   1      45.066  32.310  26.405  1.00  0.00     0.054 A 
BRANCH  90  91
ATOM     91  S   UNL A   1      45.305  33.819  25.426  1.00  0.00     0.124 S 
ATOM     92  O   UNL A   1      44.578  34.816  26.210  1.00  0.00    -0.237 OA
ATOM     93  O   UNL A   1      46.760  33.972  25.425  1.00  0.00    -0.237 OA
ATOM     94  O   UNL A   1      44.717  33.501  24.128  1.00  0.00    -0.744 OA
ENDBRANCH  90  91
ENDBRANCH  64  85
ENDBRANCH  38  39
ENDBRANCH  31  33
ENDBRANCH  30  31
ENDBRANCH  29  30
ENDBRANCH   1  29
TORSDOF 19
ENDMDL
MODEL 3
REMARK VINA RESULT:     -13.3      2.840      9.574
REMARK SMILES Cc1ccc(C)c(S(=O)(=O)N[C@H](CC2=c3ccccc3=NC2)C(=O)OCCOC(=O)c2ccc(-c3c4nc(c(-c5ccc(S(=O)(=O)[O-])cc5)c5ccc([nH]5)c(-c5ccc(S(=O)(=O)[O-])cc5)c5nc(c(-c6ccc(S(=O)(=O)[O-])cc6)c6ccc3[nH]6)C=C5)C=C4)cc2)c1
REMARK SMILES IDX 26 1 25 2 23 3 24 4 12 5 11 6 8 8 9 9 10 10 7 11 1 12 2 13
REMARK SMILES IDX 3 14 91 15 4 16 5 17 6 18 13 19 14 20 15 21 22 22 16 23
REMARK SMILES IDX 20 24 21 25 17 26 19 27 18 28 27 29 28 30 29 31 30 32 31 33
REMARK SMILES IDX 32 34 90 35 33 36 89 37 34 38 35 39 36 40 83 41 37 42 88 43
REMARK SMILES IDX 82 44 84 45 38 46 87 47 81 48 80 49 39 51 69 52 50 53 68 54
REMARK SMILES IDX 51 55 54 56 67 57 85 58 52 59 53 60 66 62 86 63 55 64 40 65
REMARK SMILES IDX 41 66 49 67 42 68 48 69 43 70 44 71 45 72 46 73 47 74 70 75
REMARK SMILES IDX 71 76 79 77 72 78 78 79 73 80 74 81 75 82 76 83 77 84 56 85
REMARK SMILES IDX 57 86 65 87 58 88 64 89 59 90 60 91 61 92 62 93 63 94
REMARK H PARENT 11 7 84 50 54 61
REMARK Flexibility Score: inf
ROOT
ATOM      1  C   UNL A   1      31.766  32.626  26.890  1.00  0.00     0.274 C 
ENDROOT
BRANCH   1   2
ATOM      2  O   UNL A   1      32.129  31.248  26.745  1.00  0.00    -0.461 OA
BRANCH   2   3
ATOM      3  C   UNL A   1      31.396  30.498  25.729  1.00  0.00     0.324 C 
ATOM      4  O   UNL A   1      30.723  31.387  25.142  1.00  0.00    -0.250 OA
BRANCH   3   5
ATOM      5  C   UNL A   1      31.658  28.337  25.394  1.00  0.00     0.183 C 
BRANCH   5   6
ATOM      6  N   UNL A   1      31.244  27.290  24.142  1.00  0.00    -0.197 NA
ATOM      7  H   UNL A   1      30.862  26.465  24.605  1.00  0.00     0.142 HD
BRANCH   6   8
ATOM      8  S   UNL A   1      32.295  26.664  22.914  1.00  0.00     0.241 S 
ATOM      9  O   UNL A   1      33.468  27.507  22.885  1.00  0.00    -0.207 OA
ATOM     10  O   UNL A   1      31.425  26.554  21.757  1.00  0.00    -0.207 OA
BRANCH   8  11
ATOM     11  C   UNL A   1      32.971  24.960  23.062  1.00  0.00     0.085 A 
ATOM     12  C   UNL A   1      36.248  22.928  23.122  1.00  0.00     0.044 C 
ATOM     13  C   UNL A   1      34.790  23.302  23.128  1.00  0.00    -0.050 A 
ATOM     14  C   UNL A   1      33.870  22.251  23.130  1.00  0.00     0.004 A 
ATOM     15  C   UNL A   1      34.337  24.652  23.130  1.00  0.00     0.025 A 
ATOM     16  C   UNL A   1      32.515  22.531  23.140  1.00  0.00     0.005 A 
ATOM     17  C   UNL A   1      32.046  23.866  23.113  1.00  0.00    -0.031 A 
ATOM     18  C   UNL A   1      30.541  23.977  23.170  1.00  0.00     0.046 C 
ENDBRANCH   8  11
ENDBRANCH   6   8
ENDBRANCH   5   6
BRANCH   5  19
ATOM     19  C   UNL A   1      31.728  26.911  26.647  1.00  0.00     0.065 C 
BRANCH  19  20
ATOM     20  C   UNL A   1      31.610  25.370  26.500  1.00  0.00    -0.037 C 
ATOM     21  C   UNL A   1      32.570  24.431  26.495  1.00  0.00     0.001 A 
ATOM     22  C   UNL A   1      30.263  24.688  26.572  1.00  0.00     0.174 C 
ATOM     23  C   UNL A   1      33.994  24.385  26.362  1.00  0.00     0.010 A 
ATOM     24  C   UNL A   1      31.838  23.248  27.012  1.00  0.00     0.065 A 
ATOM     25  N   UNL A   1      30.544  23.326  27.089  1.00  0.00    -0.280 NA
ATOM     26  C   UNL A   1      34.659  23.279  26.747  1.00  0.00     0.001 A 
ATOM     27  C   UNL A   1      32.651  22.128  27.546  1.00  0.00     0.028 A 
ATOM     28  C   UNL A   1      33.986  22.175  27.409  1.00  0.00     0.002 A 
ENDBRANCH  19  20
ENDBRANCH   5  19
ENDBRANCH   3   5
ENDBRANCH   2   3
ENDBRANCH   1   2
BRANCH   1  29
ATOM     29  C   UNL A   1      32.857  33.422  27.633  1.00  0.00     0.275 C 
BRANCH  29  30
ATOM     30  O   UNL A   1      33.935  32.674  28.283  1.00  0.00    -0.458 OA
BRANCH  30  31
ATOM     31  C   UNL A   1      35.272  32.915  28.212  1.00  0.00     0.338 C 
ATOM     32  O   UNL A   1      35.839  33.423  27.257  1.00  0.00    -0.246 OA
BRANCH  31  33
ATOM     33  C   UNL A   1      36.063  32.294  29.277  1.00  0.00     0.060 A 
ATOM     34  C   UNL A   1      37.560  33.156  29.830  1.00  0.00     0.016 A 
ATOM     35  C   UNL A   1      36.005  30.493  29.379  1.00  0.00     0.016 A 
ATOM     36  C   UNL A   1      39.013  32.157  30.302  1.00  0.00     0.010 A 
ATOM     37  C   UNL A   1      37.426  29.546  29.972  1.00  0.00     0.010 A 
ATOM     38  C   UNL A   1      38.984  30.364  30.213  1.00  0.00    -0.014 A 
BRANCH  38  39
ATOM     39  C   UNL A   1      40.172  29.427  29.694  1.00  0.00     0.031 A 
ATOM     40  C   UNL A   1      40.757  28.955  30.956  1.00  0.00     0.074 A 
ATOM     41  C   UNL A   1      40.675  28.812  28.539  1.00  0.00     0.049 A 
ATOM     42  N   UNL A   1      41.496  29.726  31.679  1.00  0.00    -0.248 NA
ATOM     43  C   UNL A   1      40.199  27.801  31.679  1.00  0.00     0.031 C 
ATOM     44  C   UNL A   1      40.260  28.875  27.120  1.00  0.00     0.029 A 
ATOM     45  N   UNL A   1      41.768  27.908  28.399  1.00  0.00    -0.354 N 
ATOM     46  C   UNL A   1      41.777  28.976  32.792  1.00  0.00     0.074 A 
ATOM     47  C   UNL A   1      40.694  28.033  32.900  1.00  0.00     0.031 C 
ATOM     48  C   UNL A   1      40.925  27.959  26.344  1.00  0.00     0.029 A 
ATOM     49  C   UNL A   1      41.926  27.236  27.132  1.00  0.00     0.049 A 
ATOM     50  H   UNL A   1      42.394  27.747  29.141  1.00  0.00     0.167 HD
ATOM     51  C   UNL A   1      43.050  28.915  33.264  1.00  0.00     0.031 A 
ATOM     52  C   UNL A   1      42.976  26.472  26.608  1.00  0.00     0.031 A 
ATOM     53  C   UNL A   1      43.916  29.800  32.510  1.00  0.00     0.049 A 
ATOM     54  C   UNL A   1      44.168  26.827  27.400  1.00  0.00     0.074 A 
ATOM     55  C   UNL A   1      43.983  31.158  32.279  1.00  0.00     0.029 A 
ATOM     56  N   UNL A   1      44.583  29.191  31.475  1.00  0.00    -0.354 N 
ATOM     57  N   UNL A   1      44.758  27.979  27.327  1.00  0.00    -0.248 NA
ATOM     58  C   UNL A   1      44.403  26.047  28.597  1.00  0.00     0.031 C 
ATOM     59  C   UNL A   1      44.405  31.299  30.925  1.00  0.00     0.029 A 
ATOM     60  C   UNL A   1      44.706  30.038  30.408  1.00  0.00     0.049 A 
ATOM     61  H   UNL A   1      44.927  28.268  31.499  1.00  0.00     0.167 HD
ATOM     62  C   UNL A   1      44.989  28.296  28.652  1.00  0.00     0.074 A 
ATOM     63  C   UNL A   1      44.825  27.036  29.383  1.00  0.00     0.031 C 
ATOM     64  C   UNL A   1      44.970  29.599  29.051  1.00  0.00     0.031 A 
BRANCH  51  65
ATOM     65  C   UNL A   1      43.590  27.774  34.072  1.00  0.00    -0.014 A 
ATOM     66  C   UNL A   1      43.834  26.481  33.567  1.00  0.00     0.010 A 
ATOM     67  C   UNL A   1      44.017  28.043  35.384  1.00  0.00     0.010 A 
ATOM     68  C   UNL A   1      44.376  25.471  34.361  1.00  0.00     0.020 A 
ATOM     69  C   UNL A   1      44.598  27.049  36.177  1.00  0.00     0.020 A 
ATOM     70  C   UNL A   1      44.737  25.759  35.670  1.00  0.00     0.054 A 
BRANCH  70  71
ATOM     71  S   UNL A   1      45.356  24.413  36.702  1.00  0.00     0.124 S 
ATOM     72  O   UNL A   1      46.802  24.591  36.589  1.00  0.00    -0.237 OA
ATOM     73  O   UNL A   1      44.783  24.729  38.006  1.00  0.00    -0.237 OA
ATOM     74  O   UNL A   1      44.825  23.215  36.058  1.00  0.00    -0.744 OA
ENDBRANCH  70  71
ENDBRANCH  51  65
BRANCH  52  75
ATOM     75  C   UNL A   1      43.068  25.076  25.941  1.00  0.00    -0.014 A 
ATOM     76  C   UNL A   1      42.550  23.948  26.591  1.00  0.00     0.010 A 
ATOM     77  C   UNL A   1      43.975  24.791  24.860  1.00  0.00     0.010 A 
ATOM     78  C   UNL A   1      42.975  22.633  26.272  1.00  0.00     0.020 A 
ATOM     79  C   UNL A   1      44.402  23.469  24.527  1.00  0.00     0.020 A 
ATOM     80  C   UNL A   1      43.927  22.397  25.277  1.00  0.00     0.054 A 
BRANCH  80  81
ATOM     81  S   UNL A   1      44.578  20.693  25.079  1.00  0.00     0.124 S 
ATOM     82  O   UNL A   1      45.906  20.802  25.677  1.00  0.00    -0.237 OA
ATOM     83  O   UNL A   1      43.619  19.895  25.838  1.00  0.00    -0.237 OA
ATOM     84  O   UNL A   1      44.562  20.467  23.636  1.00  0.00    -0.744 OA
ENDBRANCH  80  81
ENDBRANCH  52  75
BRANCH  64  85
ATOM     85  C   UNL A   1      45.085  30.687  27.995  1.00  0.00    -0.014 A 
ATOM     86  C   UNL A   1      46.368  31.235  27.817  1.00  0.00     0.010 A 
ATOM     87  C   UNL A   1      44.003  31.295  27.325  1.00  0.00     0.010 A 
ATOM     88  C   UNL A   1      46.564  32.391  27.064  1.00  0.00     0.020 A 
ATOM     89  C   UNL A   1      44.200  32.446  26.535  1.00  0.00     0.020 A 
ATOM     90  C   UNL A   1      45.479  33.002  26.438  1.00  0.00     0.054 A 
BRANCH  90  91
ATOM     91  S   UNL A   1      45.791  34.540  25.527  1.00  0.00     0.124 S 
ATOM     92  O   UNL A   1      47.243  34.514  25.363  1.00  0.00    -0.237 OA
ATOM     93  O   UNL A   1      45.024  34.346  24.298  1.00  0.00    -0.237 OA
ATOM     94  O   UNL A   1      45.286  35.587  26.411  1.00  0.00    -0.744 OA
ENDBRANCH  90  91
ENDBRANCH  64  85
ENDBRANCH  38  39
ENDBRANCH  31  33
ENDBRANCH  30  31
ENDBRANCH  29  30
ENDBRANCH   1  29
TORSDOF 19
ENDMDL
