MODEL 1
REMARK VINA RESULT:     -10.8      0.000      0.000
REMARK SMILES COc1cc2c(cc1OC)[C@H](C(=O)OCCOC(=O)c1ccc(-c3c4nc(c(-c5ccc(S(=O)(=O)[O-])cc5)c5ccc([nH]5)c(-c5ccc(S(=O)(=O)[O-])cc5)c5nc(c(-c6ccc(S(=O)(=O)[O-])cc6)c6ccc3[nH]6)C=C5)C=C4)cc1)[C@@H](c1ccc(SC)cc1)N(C)C2=O
REMARK SMILES IDX 16 1 15 2 14 3 12 4 13 5 11 6 3 7 4 8 8 9 5 10 7 11 6 12
REMARK SMILES IDX 91 13 89 14 92 15 80 16 90 17 2 18 1 19 9 20 10 21 81 22
REMARK SMILES IDX 82 23 88 24 83 25 87 26 84 27 85 28 86 29 17 30 18 31 19 32
REMARK SMILES IDX 20 33 21 34 79 35 22 36 78 37 23 38 24 39 25 40 72 41 26 42
REMARK SMILES IDX 77 43 71 44 73 45 27 46 76 47 70 48 69 49 28 51 58 52 39 53
REMARK SMILES IDX 57 54 40 55 43 56 56 57 74 58 41 59 42 60 55 62 75 63 44 64
REMARK SMILES IDX 29 65 30 66 38 67 31 68 37 69 32 70 33 71 34 72 35 73 36 74
REMARK SMILES IDX 59 75 60 76 68 77 61 78 67 79 62 80 63 81 64 82 65 83 66 84
REMARK SMILES IDX 45 85 46 86 54 87 47 88 53 89 48 90 49 91 50 92 51 93 52 94
REMARK H PARENT 73 50 43 61
REMARK Flexibility Score: inf
ROOT
ATOM      1  C   UNL A   1      32.355  29.202  27.566  1.00  0.00     0.275 C 
ENDROOT
BRANCH   1   2
ATOM      2  C   UNL A   1      31.822  28.331  26.423  1.00  0.00     0.274 C 
BRANCH   2   3
ATOM      3  O   UNL A   1      32.847  27.360  26.203  1.00  0.00    -0.462 OA
BRANCH   3   4
ATOM      4  C   UNL A   1      32.572  26.080  25.862  1.00  0.00     0.316 C 
ATOM      5  O   UNL A   1      31.921  25.310  26.547  1.00  0.00    -0.251 OA
BRANCH   4   6
ATOM      6  C   UNL A   1      33.121  25.840  24.446  1.00  0.00     0.157 C 
ATOM      7  C   UNL A   1      35.999  22.558  24.376  1.00  0.00     0.161 A 
ATOM      8  C   UNL A   1      35.040  22.695  23.363  1.00  0.00     0.064 A 
ATOM      9  C   UNL A   1      36.095  23.528  25.367  1.00  0.00     0.161 A 
ATOM     10  C   UNL A   1      34.145  23.781  23.352  1.00  0.00     0.048 A 
ATOM     11  C   UNL A   1      35.200  24.603  25.333  1.00  0.00     0.056 A 
ATOM     12  C   UNL A   1      34.150  24.707  24.397  1.00  0.00    -0.015 A 
ATOM     13  C   UNL A   1      33.346  24.040  22.126  1.00  0.00     0.254 C 
ATOM     14  N   UNL A   1      32.520  25.164  22.136  1.00  0.00    -0.333 N 
ATOM     15  O   UNL A   1      33.517  23.332  21.138  1.00  0.00    -0.269 OA
ATOM     16  C   UNL A   1      31.952  25.648  23.429  1.00  0.00     0.134 C 
ATOM     17  C   UNL A   1      32.075  25.663  20.842  1.00  0.00     0.147 C 
BRANCH   7  18
ATOM     18  O   UNL A   1      36.810  21.456  24.376  1.00  0.00    -0.493 OA
ATOM     19  C   UNL A   1      36.164  20.343  24.993  1.00  0.00     0.278 C 
ENDBRANCH   7  18
BRANCH   9  20
ATOM     20  O   UNL A   1      36.993  23.625  26.395  1.00  0.00    -0.493 OA
ATOM     21  C   UNL A   1      38.318  24.026  26.094  1.00  0.00     0.278 C 
ENDBRANCH   9  20
BRANCH  16  22
ATOM     22  C   UNL A   1      30.962  26.827  23.277  1.00  0.00    -0.024 A 
ATOM     23  C   UNL A   1      29.581  26.713  23.483  1.00  0.00     0.007 A 
ATOM     24  C   UNL A   1      31.430  28.092  22.869  1.00  0.00     0.007 A 
ATOM     25  C   UNL A   1      28.722  27.810  23.328  1.00  0.00     0.015 A 
ATOM     26  C   UNL A   1      30.573  29.201  22.744  1.00  0.00     0.015 A 
ATOM     27  C   UNL A   1      29.206  29.072  22.975  1.00  0.00     0.007 A 
BRANCH  27  28
ATOM     28  S   UNL A   1      27.991  30.367  22.794  1.00  0.00    -0.130 SA
ATOM     29  C   UNL A   1      28.089  30.815  21.041  1.00  0.00     0.091 C 
ENDBRANCH  27  28
ENDBRANCH  16  22
ENDBRANCH   4   6
ENDBRANCH   3   4
ENDBRANCH   2   3
ENDBRANCH   1   2
BRANCH   1  30
ATOM     30  O   UNL A   1      33.801  29.141  27.617  1.00  0.00    -0.458 OA
BRANCH  30  31
ATOM     31  C   UNL A   1      34.462  30.317  27.762  1.00  0.00     0.338 C 
ATOM     32  O   UNL A   1      34.001  31.446  27.678  1.00  0.00    -0.246 OA
BRANCH  31  33
ATOM     33  C   UNL A   1      35.845  30.039  28.192  1.00  0.00     0.060 A 
ATOM     34  C   UNL A   1      36.877  30.099  27.249  1.00  0.00     0.016 A 
ATOM     35  C   UNL A   1      36.126  29.723  29.522  1.00  0.00     0.016 A 
ATOM     36  C   UNL A   1      38.201  29.937  27.648  1.00  0.00     0.010 A 
ATOM     37  C   UNL A   1      37.450  29.507  29.913  1.00  0.00     0.010 A 
ATOM     38  C   UNL A   1      38.494  29.632  28.982  1.00  0.00    -0.014 A 
BRANCH  38  39
ATOM     39  C   UNL A   1      39.894  29.376  29.381  1.00  0.00     0.031 A 
ATOM     40  C   UNL A   1      40.518  28.052  29.056  1.00  0.00     0.074 A 
ATOM     41  C   UNL A   1      40.604  30.336  29.999  1.00  0.00     0.049 A 
ATOM     42  N   UNL A   1      41.714  27.614  29.345  1.00  0.00    -0.248 NA
ATOM     43  C   UNL A   1      39.686  27.102  28.300  1.00  0.00     0.031 C 
ATOM     44  C   UNL A   1      40.120  31.684  30.297  1.00  0.00     0.029 A 
ATOM     45  N   UNL A   1      41.887  30.326  30.482  1.00  0.00    -0.354 N 
ATOM     46  C   UNL A   1      41.782  26.334  28.809  1.00  0.00     0.074 A 
ATOM     47  C   UNL A   1      40.503  26.064  28.187  1.00  0.00     0.031 C 
ATOM     48  C   UNL A   1      41.096  32.373  30.914  1.00  0.00     0.029 A 
ATOM     49  C   UNL A   1      42.254  31.502  31.092  1.00  0.00     0.049 A 
ATOM     50  H   UNL A   1      42.489  29.551  30.400  1.00  0.00     0.167 HD
ATOM     51  C   UNL A   1      42.816  25.461  28.844  1.00  0.00     0.031 A 
ATOM     52  C   UNL A   1      43.388  31.827  31.743  1.00  0.00     0.031 A 
ATOM     53  C   UNL A   1      44.069  25.721  29.499  1.00  0.00     0.049 A 
ATOM     54  C   UNL A   1      44.488  30.803  31.849  1.00  0.00     0.074 A 
ATOM     55  C   UNL A   1      45.168  24.889  29.620  1.00  0.00     0.029 A 
ATOM     56  N   UNL A   1      44.386  26.902  30.156  1.00  0.00    -0.354 N 
ATOM     57  N   UNL A   1      44.536  29.592  31.347  1.00  0.00    -0.248 NA
ATOM     58  C   UNL A   1      45.683  31.188  32.613  1.00  0.00     0.031 C 
ATOM     59  C   UNL A   1      46.131  25.549  30.392  1.00  0.00     0.029 A 
ATOM     60  C   UNL A   1      45.653  26.813  30.705  1.00  0.00     0.049 A 
ATOM     61  H   UNL A   1      43.796  27.688  30.220  1.00  0.00     0.167 HD
ATOM     62  C   UNL A   1      45.775  29.077  31.716  1.00  0.00     0.074 A 
ATOM     63  C   UNL A   1      46.449  30.113  32.472  1.00  0.00     0.031 C 
ATOM     64  C   UNL A   1      46.306  27.857  31.455  1.00  0.00     0.031 A 
BRANCH  51  65
ATOM     65  C   UNL A   1      42.599  24.118  28.202  1.00  0.00    -0.014 A 
ATOM     66  C   UNL A   1      42.133  23.020  28.948  1.00  0.00     0.010 A 
ATOM     67  C   UNL A   1      42.860  23.956  26.830  1.00  0.00     0.010 A 
ATOM     68  C   UNL A   1      41.973  21.773  28.339  1.00  0.00     0.020 A 
ATOM     69  C   UNL A   1      42.682  22.715  26.214  1.00  0.00     0.020 A 
ATOM     70  C   UNL A   1      42.257  21.626  26.978  1.00  0.00     0.054 A 
BRANCH  70  71
ATOM     71  S   UNL A   1      42.047  19.995  26.212  1.00  0.00     0.124 S 
ATOM     72  O   UNL A   1      43.004  20.055  25.110  1.00  0.00    -0.237 OA
ATOM     73  O   UNL A   1      42.395  19.082  27.297  1.00  0.00    -0.237 OA
ATOM     74  O   UNL A   1      40.641  19.977  25.814  1.00  0.00    -0.744 OA
ENDBRANCH  70  71
ENDBRANCH  51  65
BRANCH  52  75
ATOM     75  C   UNL A   1      43.527  33.167  32.378  1.00  0.00    -0.014 A 
ATOM     76  C   UNL A   1      44.085  34.245  31.671  1.00  0.00     0.010 A 
ATOM     77  C   UNL A   1      43.098  33.368  33.704  1.00  0.00     0.010 A 
ATOM     78  C   UNL A   1      44.228  35.495  32.284  1.00  0.00     0.020 A 
ATOM     79  C   UNL A   1      43.214  34.622  34.310  1.00  0.00     0.020 A 
ATOM     80  C   UNL A   1      43.791  35.676  33.599  1.00  0.00     0.054 A 
BRANCH  80  81
ATOM     81  S   UNL A   1      43.944  37.316  34.360  1.00  0.00     0.124 S 
ATOM     82  O   UNL A   1      45.171  37.819  33.751  1.00  0.00    -0.237 OA
ATOM     83  O   UNL A   1      42.711  37.978  33.939  1.00  0.00    -0.237 OA
ATOM     84  O   UNL A   1      44.028  37.023  35.789  1.00  0.00    -0.744 OA
ENDBRANCH  80  81
ENDBRANCH  52  75
BRANCH  64  85
ATOM     85  C   UNL A   1      47.696  27.583  31.964  1.00  0.00    -0.014 A 
ATOM     86  C   UNL A   1      47.906  26.980  33.216  1.00  0.00     0.010 A 
ATOM     87  C   UNL A   1      48.803  27.874  31.146  1.00  0.00     0.010 A 
ATOM     88  C   UNL A   1      49.202  26.696  33.653  1.00  0.00     0.020 A 
ATOM     89  C   UNL A   1      50.098  27.571  31.569  1.00  0.00     0.020 A 
ATOM     90  C   UNL A   1      50.291  26.994  32.826  1.00  0.00     0.054 A 
BRANCH  90  91
ATOM     91  S   UNL A   1      51.961  26.568  33.392  1.00  0.00     0.124 S 
ATOM     92  O   UNL A   1      51.732  26.236  34.795  1.00  0.00    -0.237 OA
ATOM     93  O   UNL A   1      52.317  25.443  32.530  1.00  0.00    -0.237 OA
ATOM     94  O   UNL A   1      52.727  27.790  33.157  1.00  0.00    -0.744 OA
ENDBRANCH  90  91
ENDBRANCH  64  85
ENDBRANCH  38  39
ENDBRANCH  31  33
ENDBRANCH  30  31
ENDBRANCH   1  30
TORSDOF 18
ENDMDL
MODEL 2
REMARK VINA RESULT:     -10.8      0.698      7.937
REMARK SMILES COc1cc2c(cc1OC)[C@H](C(=O)OCCOC(=O)c1ccc(-c3c4nc(c(-c5ccc(S(=O)(=O)[O-])cc5)c5ccc([nH]5)c(-c5ccc(S(=O)(=O)[O-])cc5)c5nc(c(-c6ccc(S(=O)(=O)[O-])cc6)c6ccc3[nH]6)C=C5)C=C4)cc1)[C@@H](c1ccc(SC)cc1)N(C)C2=O
REMARK SMILES IDX 16 1 15 2 14 3 12 4 13 5 11 6 3 7 4 8 8 9 5 10 7 11 6 12
REMARK SMILES IDX 91 13 89 14 92 15 80 16 90 17 2 18 1 19 9 20 10 21 81 22
REMARK SMILES IDX 82 23 88 24 83 25 87 26 84 27 85 28 86 29 17 30 18 31 19 32
REMARK SMILES IDX 20 33 21 34 79 35 22 36 78 37 23 38 24 39 25 40 72 41 26 42
REMARK SMILES IDX 77 43 71 44 73 45 27 46 76 47 70 48 69 49 28 51 58 52 39 53
REMARK SMILES IDX 57 54 40 55 43 56 56 57 74 58 41 59 42 60 55 62 75 63 44 64
REMARK SMILES IDX 29 65 30 66 38 67 31 68 37 69 32 70 33 71 34 72 35 73 36 74
REMARK SMILES IDX 59 75 60 76 68 77 61 78 67 79 62 80 63 81 64 82 65 83 66 84
REMARK SMILES IDX 45 85 46 86 54 87 47 88 53 89 48 90 49 91 50 92 51 93 52 94
REMARK H PARENT 73 50 43 61
REMARK Flexibility Score: inf
ROOT
ATOM      1  C   UNL A   1      33.079  29.380  26.423  1.00  0.00     0.275 C 
ENDROOT
BRANCH   1   2
ATOM      2  C   UNL A   1      33.117  28.141  25.522  1.00  0.00     0.274 C 
BRANCH   2   3
ATOM      3  O   UNL A   1      32.618  27.084  26.344  1.00  0.00    -0.462 OA
BRANCH   3   4
ATOM      4  C   UNL A   1      32.250  25.884  25.840  1.00  0.00     0.316 C 
ATOM      5  O   UNL A   1      31.478  25.115  26.386  1.00  0.00    -0.251 OA
BRANCH   4   6
ATOM      6  C   UNL A   1      32.882  25.744  24.444  1.00  0.00     0.157 C 
ATOM      7  C   UNL A   1      35.911  22.601  24.362  1.00  0.00     0.161 A 
ATOM      8  C   UNL A   1      34.999  22.749  23.307  1.00  0.00     0.064 A 
ATOM      9  C   UNL A   1      35.911  23.520  25.405  1.00  0.00     0.161 A 
ATOM     10  C   UNL A   1      34.056  23.794  23.304  1.00  0.00     0.048 A 
ATOM     11  C   UNL A   1      34.968  24.554  25.377  1.00  0.00     0.056 A 
ATOM     12  C   UNL A   1      33.964  24.662  24.393  1.00  0.00    -0.015 A 
ATOM     13  C   UNL A   1      33.309  24.082  22.052  1.00  0.00     0.254 C 
ATOM     14  N   UNL A   1      32.431  25.165  22.075  1.00  0.00    -0.333 N 
ATOM     15  O   UNL A   1      33.564  23.435  21.039  1.00  0.00    -0.269 OA
ATOM     16  C   UNL A   1      31.776  25.555  23.359  1.00  0.00     0.134 C 
ATOM     17  C   UNL A   1      32.030  25.713  20.786  1.00  0.00     0.147 C 
BRANCH   7  18
ATOM     18  O   UNL A   1      36.771  21.537  24.349  1.00  0.00    -0.493 OA
ATOM     19  C   UNL A   1      36.197  20.405  25.001  1.00  0.00     0.278 C 
ENDBRANCH   7  18
BRANCH   9  20
ATOM     20  O   UNL A   1      36.749  23.603  26.482  1.00  0.00    -0.493 OA
ATOM     21  C   UNL A   1      38.090  24.000  26.261  1.00  0.00     0.278 C 
ENDBRANCH   9  20
BRANCH  16  22
ATOM     22  C   UNL A   1      30.741  26.695  23.213  1.00  0.00    -0.024 A 
ATOM     23  C   UNL A   1      31.036  27.944  22.652  1.00  0.00     0.007 A 
ATOM     24  C   UNL A   1      29.428  26.522  23.697  1.00  0.00     0.007 A 
ATOM     25  C   UNL A   1      30.064  28.950  22.546  1.00  0.00     0.015 A 
ATOM     26  C   UNL A   1      28.445  27.519  23.562  1.00  0.00     0.015 A 
ATOM     27  C   UNL A   1      28.753  28.746  22.980  1.00  0.00     0.007 A 
BRANCH  27  28
ATOM     28  S   UNL A   1      27.633  30.125  22.800  1.00  0.00    -0.130 SA
ATOM     29  C   UNL A   1      28.445  31.468  23.705  1.00  0.00     0.091 C 
ENDBRANCH  27  28
ENDBRANCH  16  22
ENDBRANCH   4   6
ENDBRANCH   3   4
ENDBRANCH   2   3
ENDBRANCH   1   2
BRANCH   1  30
ATOM     30  O   UNL A   1      34.404  29.949  26.558  1.00  0.00    -0.458 OA
BRANCH  30  31
ATOM     31  C   UNL A   1      34.692  30.569  27.729  1.00  0.00     0.338 C 
ATOM     32  O   UNL A   1      33.955  31.282  28.395  1.00  0.00    -0.246 OA
BRANCH  31  33
ATOM     33  C   UNL A   1      36.026  30.136  28.185  1.00  0.00     0.060 A 
ATOM     34  C   UNL A   1      37.094  30.152  27.281  1.00  0.00     0.016 A 
ATOM     35  C   UNL A   1      36.226  29.719  29.502  1.00  0.00     0.016 A 
ATOM     36  C   UNL A   1      38.381  29.842  27.711  1.00  0.00     0.010 A 
ATOM     37  C   UNL A   1      37.509  29.356  29.921  1.00  0.00     0.010 A 
ATOM     38  C   UNL A   1      38.594  29.434  29.032  1.00  0.00    -0.014 A 
BRANCH  38  39
ATOM     39  C   UNL A   1      39.948  29.024  29.459  1.00  0.00     0.031 A 
ATOM     40  C   UNL A   1      40.767  29.961  30.295  1.00  0.00     0.074 A 
ATOM     41  C   UNL A   1      40.421  27.810  29.126  1.00  0.00     0.049 A 
ATOM     42  N   UNL A   1      41.985  29.812  30.744  1.00  0.00    -0.248 NA
ATOM     43  C   UNL A   1      40.126  31.228  30.682  1.00  0.00     0.031 C 
ATOM     44  C   UNL A   1      39.682  26.793  28.379  1.00  0.00     0.029 A 
ATOM     45  N   UNL A   1      41.636  27.226  29.377  1.00  0.00    -0.354 N 
ATOM     46  C   UNL A   1      42.261  30.967  31.465  1.00  0.00     0.074 A 
ATOM     47  C   UNL A   1      41.087  31.810  31.385  1.00  0.00     0.031 C 
ATOM     48  C   UNL A   1      40.460  25.707  28.232  1.00  0.00     0.029 A 
ATOM     49  C   UNL A   1      41.764  25.970  28.835  1.00  0.00     0.049 A 
ATOM     50  H   UNL A   1      42.349  27.664  29.896  1.00  0.00     0.167 HD
ATOM     51  C   UNL A   1      43.396  31.296  32.126  1.00  0.00     0.031 A 
ATOM     52  C   UNL A   1      42.824  25.138  28.807  1.00  0.00     0.031 A 
ATOM     53  C   UNL A   1      44.572  30.470  32.167  1.00  0.00     0.049 A 
ATOM     54  C   UNL A   1      44.107  25.569  29.468  1.00  0.00     0.074 A 
ATOM     55  C   UNL A   1      45.785  30.728  32.780  1.00  0.00     0.029 A 
ATOM     56  N   UNL A   1      44.686  29.228  31.559  1.00  0.00    -0.354 N 
ATOM     57  N   UNL A   1      44.359  26.668  30.139  1.00  0.00    -0.248 NA
ATOM     58  C   UNL A   1      45.249  24.650  29.366  1.00  0.00     0.031 C 
ATOM     59  C   UNL A   1      46.649  29.663  32.501  1.00  0.00     0.029 A 
ATOM     60  C   UNL A   1      45.956  28.717  31.761  1.00  0.00     0.049 A 
ATOM     61  H   UNL A   1      43.968  28.777  31.058  1.00  0.00     0.167 HD
ATOM     62  C   UNL A   1      45.682  26.564  30.556  1.00  0.00     0.074 A 
ATOM     63  C   UNL A   1      46.172  25.289  30.073  1.00  0.00     0.031 C 
ATOM     64  C   UNL A   1      46.424  27.444  31.272  1.00  0.00     0.031 A 
BRANCH  51  65
ATOM     65  C   UNL A   1      43.429  32.639  32.802  1.00  0.00    -0.014 A 
ATOM     66  C   UNL A   1      43.001  32.797  34.132  1.00  0.00     0.010 A 
ATOM     67  C   UNL A   1      43.900  33.759  32.094  1.00  0.00     0.010 A 
ATOM     68  C   UNL A   1      43.006  34.060  34.729  1.00  0.00     0.020 A 
ATOM     69  C   UNL A   1      43.926  35.020  32.694  1.00  0.00     0.020 A 
ATOM     70  C   UNL A   1      43.460  35.166  34.002  1.00  0.00     0.054 A 
BRANCH  70  71
ATOM     71  S   UNL A   1      43.452  36.797  34.796  1.00  0.00     0.124 S 
ATOM     72  O   UNL A   1      42.995  37.658  33.708  1.00  0.00    -0.237 OA
ATOM     73  O   UNL A   1      42.505  36.616  35.894  1.00  0.00    -0.237 OA
ATOM     74  O   UNL A   1      44.842  36.992  35.203  1.00  0.00    -0.744 OA
ENDBRANCH  70  71
ENDBRANCH  51  65
BRANCH  52  75
ATOM     75  C   UNL A   1      42.731  23.832  28.097  1.00  0.00    -0.014 A 
ATOM     76  C   UNL A   1      43.084  23.722  26.741  1.00  0.00     0.010 A 
ATOM     77  C   UNL A   1      42.282  22.687  28.781  1.00  0.00     0.010 A 
ATOM     78  C   UNL A   1      42.974  22.494  26.079  1.00  0.00     0.020 A 
ATOM     79  C   UNL A   1      42.197  21.453  28.130  1.00  0.00     0.020 A 
ATOM     80  C   UNL A   1      42.532  21.368  26.778  1.00  0.00     0.054 A 
BRANCH  80  81
ATOM     81  S   UNL A   1      42.440  19.776  25.911  1.00  0.00     0.124 S 
ATOM     82  O   UNL A   1      42.768  18.832  26.973  1.00  0.00    -0.237 OA
ATOM     83  O   UNL A   1      41.056  19.748  25.444  1.00  0.00    -0.237 OA
ATOM     84  O   UNL A   1      43.443  19.904  24.855  1.00  0.00    -0.744 OA
ENDBRANCH  80  81
ENDBRANCH  52  75
BRANCH  64  85
ATOM     85  C   UNL A   1      47.838  27.048  31.604  1.00  0.00    -0.014 A 
ATOM     86  C   UNL A   1      48.123  26.222  32.705  1.00  0.00     0.010 A 
ATOM     87  C   UNL A   1      48.888  27.458  30.762  1.00  0.00     0.010 A 
ATOM     88  C   UNL A   1      49.437  25.832  32.973  1.00  0.00     0.020 A 
ATOM     89  C   UNL A   1      50.200  27.050  31.013  1.00  0.00     0.020 A 
ATOM     90  C   UNL A   1      50.468  26.249  32.124  1.00  0.00     0.054 A 
BRANCH  90  91
ATOM     91  S   UNL A   1      52.160  25.687  32.461  1.00  0.00     0.124 S 
ATOM     92  O   UNL A   1      52.691  26.784  33.265  1.00  0.00    -0.237 OA
ATOM     93  O   UNL A   1      51.947  24.430  33.174  1.00  0.00    -0.237 OA
ATOM     94  O   UNL A   1      52.749  25.548  31.130  1.00  0.00    -0.744 OA
ENDBRANCH  90  91
ENDBRANCH  64  85
ENDBRANCH  38  39
ENDBRANCH  31  33
ENDBRANCH  30  31
ENDBRANCH   1  30
TORSDOF 18
ENDMDL
MODEL 3
REMARK VINA RESULT:     -10.6      2.142      2.643
REMARK SMILES COc1cc2c(cc1OC)[C@H](C(=O)OCCOC(=O)c1ccc(-c3c4nc(c(-c5ccc(S(=O)(=O)[O-])cc5)c5ccc([nH]5)c(-c5ccc(S(=O)(=O)[O-])cc5)c5nc(c(-c6ccc(S(=O)(=O)[O-])cc6)c6ccc3[nH]6)C=C5)C=C4)cc1)[C@@H](c1ccc(SC)cc1)N(C)C2=O
REMARK SMILES IDX 16 1 15 2 14 3 12 4 13 5 11 6 3 7 4 8 8 9 5 10 7 11 6 12
REMARK SMILES IDX 91 13 89 14 92 15 80 16 90 17 2 18 1 19 9 20 10 21 81 22
REMARK SMILES IDX 82 23 88 24 83 25 87 26 84 27 85 28 86 29 17 30 18 31 19 32
REMARK SMILES IDX 20 33 21 34 79 35 22 36 78 37 23 38 24 39 25 40 72 41 26 42
REMARK SMILES IDX 77 43 71 44 73 45 27 46 76 47 70 48 69 49 28 51 58 52 39 53
REMARK SMILES IDX 57 54 40 55 43 56 56 57 74 58 41 59 42 60 55 62 75 63 44 64
REMARK SMILES IDX 29 65 30 66 38 67 31 68 37 69 32 70 33 71 34 72 35 73 36 74
REMARK SMILES IDX 59 75 60 76 68 77 61 78 67 79 62 80 63 81 64 82 65 83 66 84
REMARK SMILES IDX 45 85 46 86 54 87 47 88 53 89 48 90 49 91 50 92 51 93 52 94
REMARK H PARENT 73 50 43 61
REMARK Flexibility Score: inf
ROOT
ATOM      1  C   UNL A   1      32.990  29.687  26.391  1.00  0.00     0.275 C 
ENDROOT
BRANCH   1   2
ATOM      2  C   UNL A   1      33.465  28.440  25.637  1.00  0.00     0.274 C 
BRANCH   2   3
ATOM      3  O   UNL A   1      33.053  27.345  26.459  1.00  0.00    -0.462 OA
BRANCH   3   4
ATOM      4  C   UNL A   1      32.463  26.239  25.952  1.00  0.00     0.316 C 
ATOM      5  O   UNL A   1      31.583  25.609  26.513  1.00  0.00    -0.251 OA
BRANCH   4   6
ATOM      6  C   UNL A   1      33.019  26.014  24.535  1.00  0.00     0.157 C 
ATOM      7  C   UNL A   1      35.972  22.799  24.463  1.00  0.00     0.161 A 
ATOM      8  C   UNL A   1      35.010  22.915  23.449  1.00  0.00     0.064 A 
ATOM      9  C   UNL A   1      36.045  23.769  25.456  1.00  0.00     0.161 A 
ATOM     10  C   UNL A   1      34.091  23.981  23.440  1.00  0.00     0.048 A 
ATOM     11  C   UNL A   1      35.125  24.823  25.423  1.00  0.00     0.056 A 
ATOM     12  C   UNL A   1      34.074  24.904  24.485  1.00  0.00    -0.015 A 
ATOM     13  C   UNL A   1      33.287  24.223  22.213  1.00  0.00     0.254 C 
ATOM     14  N   UNL A   1      32.435  25.327  22.224  1.00  0.00    -0.333 N 
ATOM     15  O   UNL A   1      33.476  23.521  21.224  1.00  0.00    -0.269 OA
ATOM     16  C   UNL A   1      31.855  25.796  23.518  1.00  0.00     0.134 C 
ATOM     17  C   UNL A   1      31.980  25.819  20.930  1.00  0.00     0.147 C 
BRANCH   7  18
ATOM     18  O   UNL A   1      36.807  21.715  24.462  1.00  0.00    -0.493 OA
ATOM     19  C   UNL A   1      36.194  20.593  25.095  1.00  0.00     0.278 C 
ENDBRANCH   7  18
BRANCH   9  20
ATOM     20  O   UNL A   1      36.938  23.885  26.484  1.00  0.00    -0.493 OA
ATOM     21  C   UNL A   1      38.302  24.106  26.168  1.00  0.00     0.278 C 
ENDBRANCH   9  20
BRANCH  16  22
ATOM     22  C   UNL A   1      30.839  26.952  23.366  1.00  0.00    -0.024 A 
ATOM     23  C   UNL A   1      29.463  26.812  23.591  1.00  0.00     0.007 A 
ATOM     24  C   UNL A   1      31.274  28.224  22.940  1.00  0.00     0.007 A 
ATOM     25  C   UNL A   1      28.579  27.889  23.435  1.00  0.00     0.015 A 
ATOM     26  C   UNL A   1      30.392  29.313  22.815  1.00  0.00     0.015 A 
ATOM     27  C   UNL A   1      29.032  29.157  23.065  1.00  0.00     0.007 A 
BRANCH  27  28
ATOM     28  S   UNL A   1      27.787  30.424  22.886  1.00  0.00    -0.130 SA
ATOM     29  C   UNL A   1      28.218  31.242  21.328  1.00  0.00     0.091 C 
ENDBRANCH  27  28
ENDBRANCH  16  22
ENDBRANCH   4   6
ENDBRANCH   3   4
ENDBRANCH   2   3
ENDBRANCH   1   2
BRANCH   1  30
ATOM     30  O   UNL A   1      33.767  29.876  27.598  1.00  0.00    -0.458 OA
BRANCH  30  31
ATOM     31  C   UNL A   1      34.568  30.970  27.650  1.00  0.00     0.338 C 
ATOM     32  O   UNL A   1      34.301  32.107  27.287  1.00  0.00    -0.246 OA
BRANCH  31  33
ATOM     33  C   UNL A   1      35.810  30.620  28.362  1.00  0.00     0.060 A 
ATOM     34  C   UNL A   1      36.973  31.356  28.108  1.00  0.00     0.016 A 
ATOM     35  C   UNL A   1      35.830  29.572  29.285  1.00  0.00     0.016 A 
ATOM     36  C   UNL A   1      38.133  31.109  28.838  1.00  0.00     0.010 A 
ATOM     37  C   UNL A   1      37.009  29.289  29.980  1.00  0.00     0.010 A 
ATOM     38  C   UNL A   1      38.158  30.068  29.772  1.00  0.00    -0.014 A 
BRANCH  38  39
ATOM     39  C   UNL A   1      39.417  29.757  30.482  1.00  0.00     0.031 A 
ATOM     40  C   UNL A   1      40.297  28.659  29.965  1.00  0.00     0.074 A 
ATOM     41  C   UNL A   1      39.778  30.477  31.559  1.00  0.00     0.049 A 
ATOM     42  N   UNL A   1      41.420  28.205  30.455  1.00  0.00    -0.248 NA
ATOM     43  C   UNL A   1      39.857  27.992  28.729  1.00  0.00     0.031 C 
ATOM     44  C   UNL A   1      39.035  31.613  32.103  1.00  0.00     0.029 A 
ATOM     45  N   UNL A   1      40.867  30.360  32.386  1.00  0.00    -0.354 N 
ATOM     46  C   UNL A   1      41.823  27.195  29.591  1.00  0.00     0.074 A 
ATOM     47  C   UNL A   1      40.819  27.097  28.552  1.00  0.00     0.031 C 
ATOM     48  C   UNL A   1      39.690  32.090  33.176  1.00  0.00     0.029 A 
ATOM     49  C   UNL A   1      40.872  31.268  33.418  1.00  0.00     0.049 A 
ATOM     50  H   UNL A   1      41.577  29.691  32.253  1.00  0.00     0.167 HD
ATOM     51  C   UNL A   1      42.926  26.414  29.665  1.00  0.00     0.031 A 
ATOM     52  C   UNL A   1      41.722  31.400  34.456  1.00  0.00     0.031 A 
ATOM     53  C   UNL A   1      43.898  26.490  30.722  1.00  0.00     0.049 A 
ATOM     54  C   UNL A   1      42.890  30.456  34.567  1.00  0.00     0.074 A 
ATOM     55  C   UNL A   1      45.033  25.721  30.907  1.00  0.00     0.029 A 
ATOM     56  N   UNL A   1      43.841  27.384  31.783  1.00  0.00    -0.354 N 
ATOM     57  N   UNL A   1      43.256  29.498  33.748  1.00  0.00    -0.248 NA
ATOM     58  C   UNL A   1      43.759  30.609  35.742  1.00  0.00     0.031 C 
ATOM     59  C   UNL A   1      45.637  26.118  32.106  1.00  0.00     0.029 A 
ATOM     60  C   UNL A   1      44.908  27.170  32.638  1.00  0.00     0.049 A 
ATOM     61  H   UNL A   1      43.146  28.070  31.906  1.00  0.00     0.167 HD
ATOM     62  C   UNL A   1      44.407  28.947  34.299  1.00  0.00     0.074 A 
ATOM     63  C   UNL A   1      44.685  29.687  35.513  1.00  0.00     0.031 C 
ATOM     64  C   UNL A   1      45.166  27.919  33.842  1.00  0.00     0.031 A 
BRANCH  51  65
ATOM     65  C   UNL A   1      43.097  25.369  28.598  1.00  0.00    -0.014 A 
ATOM     66  C   UNL A   1      43.887  25.609  27.460  1.00  0.00     0.010 A 
ATOM     67  C   UNL A   1      42.459  24.123  28.740  1.00  0.00     0.010 A 
ATOM     68  C   UNL A   1      44.002  24.637  26.463  1.00  0.00     0.020 A 
ATOM     69  C   UNL A   1      42.588  23.141  27.755  1.00  0.00     0.020 A 
ATOM     70  C   UNL A   1      43.344  23.412  26.613  1.00  0.00     0.054 A 
BRANCH  70  71
ATOM     71  S   UNL A   1      43.504  22.167  25.303  1.00  0.00     0.124 S 
ATOM     72  O   UNL A   1      43.352  22.978  24.098  1.00  0.00    -0.237 OA
ATOM     73  O   UNL A   1      44.842  21.628  25.533  1.00  0.00    -0.237 OA
ATOM     74  O   UNL A   1      42.408  21.238  25.571  1.00  0.00    -0.744 OA
ENDBRANCH  70  71
ENDBRANCH  51  65
BRANCH  52  75
ATOM     75  C   UNL A   1      41.479  32.442  35.492  1.00  0.00    -0.014 A 
ATOM     76  C   UNL A   1      41.997  33.740  35.345  1.00  0.00     0.010 A 
ATOM     77  C   UNL A   1      40.723  32.135  36.639  1.00  0.00     0.010 A 
ATOM     78  C   UNL A   1      41.779  34.706  36.333  1.00  0.00     0.020 A 
ATOM     79  C   UNL A   1      40.479  33.104  37.615  1.00  0.00     0.020 A 
ATOM     80  C   UNL A   1      41.020  34.382  37.462  1.00  0.00     0.054 A 
BRANCH  80  81
ATOM     81  S   UNL A   1      40.711  35.662  38.710  1.00  0.00     0.124 S 
ATOM     82  O   UNL A   1      41.389  36.818  38.134  1.00  0.00    -0.237 OA
ATOM     83  O   UNL A   1      39.252  35.732  38.739  1.00  0.00    -0.237 OA
ATOM     84  O   UNL A   1      41.324  35.115  39.919  1.00  0.00    -0.744 OA
ENDBRANCH  80  81
ENDBRANCH  52  75
BRANCH  64  85
ATOM     85  C   UNL A   1      46.388  27.552  34.642  1.00  0.00    -0.014 A 
ATOM     86  C   UNL A   1      47.623  28.183  34.415  1.00  0.00     0.010 A 
ATOM     87  C   UNL A   1      46.278  26.607  35.679  1.00  0.00     0.010 A 
ATOM     88  C   UNL A   1      48.735  27.857  35.195  1.00  0.00     0.020 A 
ATOM     89  C   UNL A   1      47.382  26.297  36.477  1.00  0.00     0.020 A 
ATOM     90  C   UNL A   1      48.607  26.915  36.222  1.00  0.00     0.054 A 
BRANCH  90  91
ATOM     91  S   UNL A   1      50.051  26.547  37.257  1.00  0.00     0.124 S 
ATOM     92  O   UNL A   1      49.828  25.146  37.602  1.00  0.00    -0.237 OA
ATOM     93  O   UNL A   1      51.169  26.803  36.353  1.00  0.00    -0.237 OA
ATOM     94  O   UNL A   1      49.929  27.490  38.367  1.00  0.00    -0.744 OA
ENDBRANCH  90  91
ENDBRANCH  64  85
ENDBRANCH  38  39
ENDBRANCH  31  33
ENDBRANCH  30  31
ENDBRANCH   1  30
TORSDOF 18
ENDMDL
