MODEL 1
REMARK VINA RESULT:     -12.6      0.000      0.000
REMARK SMILES C[C@H](C(=O)OCCOC(=O)c1ccc(-c2c3nc(c(-c4ccc(S(=O)(=O)[O-])cc4)c4ccc([nH]4)c(-c4ccc(S(=O)(=O)[O-])cc4)c4nc(c(-c5ccc(S(=O)(=O)[O-])cc5)c5ccc2[nH]5)C=C4)C=C3)cc1)c1ccc2c3cc(Cl)ccc3n(C(=O)c3ccc(Cl)cc3)c2c1
REMARK SMILES IDX 6 1 5 2 3 3 4 4 2 5 1 6 71 7 72 8 93 9 73 10 92 11 74 12
REMARK SMILES IDX 82 13 75 14 81 15 76 16 80 17 77 18 79 19 78 20 83 21 84 22
REMARK SMILES IDX 85 23 86 24 91 25 87 26 90 27 88 28 89 29 7 30 8 31 9 32
REMARK SMILES IDX 10 33 11 34 12 35 70 36 13 37 69 38 14 39 15 40 16 41 63 42
REMARK SMILES IDX 17 43 68 44 62 45 64 46 18 47 67 48 61 49 60 50 19 52 49 53
REMARK SMILES IDX 30 54 48 55 31 56 34 57 47 58 65 59 32 60 33 61 46 63 66 64
REMARK SMILES IDX 35 65 20 66 21 67 29 68 22 69 28 70 23 71 24 72 25 73 26 74
REMARK SMILES IDX 27 75 50 76 51 77 59 78 52 79 58 80 53 81 54 82 55 83 56 84
REMARK SMILES IDX 57 85 36 86 37 87 45 88 38 89 44 90 39 91 40 92 41 93 42 94
REMARK SMILES IDX 43 95
REMARK H PARENT 64 51 34 62
REMARK Flexibility Score: inf
ROOT
ATOM      1  C   UNL A   1      40.543  22.517  27.277  1.00  0.00     0.274 C 
ENDROOT
BRANCH   1   2
ATOM      2  O   UNL A   1      39.382  22.191  26.486  1.00  0.00    -0.462 OA
BRANCH   2   3
ATOM      3  C   UNL A   1      39.323  20.960  25.921  1.00  0.00     0.313 C 
ATOM      4  O   UNL A   1      40.125  20.060  26.156  1.00  0.00    -0.252 OA
BRANCH   3   5
ATOM      5  C   UNL A   1      38.141  20.761  24.972  1.00  0.00     0.126 C 
ATOM      6  C   UNL A   1      37.716  19.294  24.911  1.00  0.00     0.025 C 
BRANCH   5   7
ATOM      7  C   UNL A   1      36.908  21.623  25.197  1.00  0.00    -0.032 A 
ATOM      8  C   UNL A   1      37.036  22.808  25.926  1.00  0.00     0.005 A 
ATOM      9  C   UNL A   1      35.671  21.306  24.613  1.00  0.00     0.032 A 
ATOM     10  C   UNL A   1      35.956  23.681  26.077  1.00  0.00     0.011 A 
ATOM     11  C   UNL A   1      34.565  22.148  24.835  1.00  0.00     0.057 A 
ATOM     12  C   UNL A   1      34.705  23.348  25.522  1.00  0.00     0.008 A 
ATOM     13  N   UNL A   1      33.230  22.021  24.430  1.00  0.00    -0.276 N 
ATOM     14  C   UNL A   1      33.443  24.000  25.501  1.00  0.00     0.009 A 
ATOM     15  C   UNL A   1      32.524  23.147  24.876  1.00  0.00     0.057 A 
ATOM     16  C   UNL A   1      33.012  25.242  26.015  1.00  0.00     0.031 A 
ATOM     17  C   UNL A   1      31.153  23.472  24.857  1.00  0.00     0.029 A 
ATOM     18  C   UNL A   1      31.666  25.586  25.932  1.00  0.00     0.041 A 
ATOM     19  C   UNL A   1      30.745  24.708  25.376  1.00  0.00     0.023 A 
ATOM     20  Cl  UNL A   1      31.139  27.099  26.560  1.00  0.00    -0.084 Cl
BRANCH  13  21
ATOM     21  C   UNL A   1      32.726  20.873  23.764  1.00  0.00     0.262 C 
ATOM     22  O   UNL A   1      32.151  21.082  22.695  1.00  0.00    -0.268 OA
BRANCH  21  23
ATOM     23  C   UNL A   1      32.807  19.451  24.211  1.00  0.00     0.040 A 
ATOM     24  C   UNL A   1      33.043  18.472  23.226  1.00  0.00     0.015 A 
ATOM     25  C   UNL A   1      32.567  19.036  25.524  1.00  0.00     0.015 A 
ATOM     26  C   UNL A   1      33.092  17.116  23.555  1.00  0.00     0.021 A 
ATOM     27  C   UNL A   1      32.648  17.676  25.860  1.00  0.00     0.021 A 
ATOM     28  C   UNL A   1      32.914  16.725  24.877  1.00  0.00     0.041 A 
ATOM     29  Cl  UNL A   1      33.010  15.059  25.296  1.00  0.00    -0.084 Cl
ENDBRANCH  21  23
ENDBRANCH  13  21
ENDBRANCH   5   7
ENDBRANCH   3   5
ENDBRANCH   2   3
ENDBRANCH   1   2
BRANCH   1  30
ATOM     30  C   UNL A   1      41.384  23.578  26.573  1.00  0.00     0.275 C 
BRANCH  30  31
ATOM     31  O   UNL A   1      40.522  24.650  26.157  1.00  0.00    -0.458 OA
BRANCH  31  32
ATOM     32  C   UNL A   1      41.109  25.851  25.973  1.00  0.00     0.338 C 
ATOM     33  O   UNL A   1      41.775  26.221  25.017  1.00  0.00    -0.246 OA
BRANCH  32  34
ATOM     34  C   UNL A   1      40.811  26.712  27.127  1.00  0.00     0.060 A 
ATOM     35  C   UNL A   1      41.492  27.918  27.270  1.00  0.00     0.016 A 
ATOM     36  C   UNL A   1      39.942  26.274  28.123  1.00  0.00     0.016 A 
ATOM     37  C   UNL A   1      41.392  28.643  28.453  1.00  0.00     0.010 A 
ATOM     38  C   UNL A   1      39.759  27.059  29.266  1.00  0.00     0.010 A 
ATOM     39  C   UNL A   1      40.512  28.232  29.462  1.00  0.00    -0.014 A 
BRANCH  39  40
ATOM     40  C   UNL A   1      40.403  29.005  30.728  1.00  0.00     0.031 A 
ATOM     41  C   UNL A   1      39.344  30.067  30.874  1.00  0.00     0.074 A 
ATOM     42  C   UNL A   1      41.241  28.755  31.755  1.00  0.00     0.049 A 
ATOM     43  N   UNL A   1      39.202  30.970  31.811  1.00  0.00    -0.248 NA
ATOM     44  C   UNL A   1      38.316  30.131  29.821  1.00  0.00     0.031 C 
ATOM     45  C   UNL A   1      42.278  27.720  31.773  1.00  0.00     0.029 A 
ATOM     46  N   UNL A   1      41.348  29.351  32.986  1.00  0.00    -0.354 N 
ATOM     47  C   UNL A   1      38.111  31.743  31.432  1.00  0.00     0.074 A 
ATOM     48  C   UNL A   1      37.625  31.203  30.180  1.00  0.00     0.031 C 
ATOM     49  C   UNL A   1      42.890  27.730  32.967  1.00  0.00     0.029 A 
ATOM     50  C   UNL A   1      42.352  28.825  33.765  1.00  0.00     0.049 A 
ATOM     51  H   UNL A   1      40.762  30.084  33.284  1.00  0.00     0.167 HD
ATOM     52  C   UNL A   1      37.570  32.812  32.065  1.00  0.00     0.031 A 
ATOM     53  C   UNL A   1      42.824  29.206  34.968  1.00  0.00     0.031 A 
ATOM     54  C   UNL A   1      38.036  33.323  33.327  1.00  0.00     0.049 A 
ATOM     55  C   UNL A   1      42.225  30.406  35.642  1.00  0.00     0.074 A 
ATOM     56  C   UNL A   1      37.563  34.408  34.046  1.00  0.00     0.029 A 
ATOM     57  N   UNL A   1      39.070  32.772  34.069  1.00  0.00    -0.354 N 
ATOM     58  N   UNL A   1      41.244  31.174  35.231  1.00  0.00    -0.248 NA
ATOM     59  C   UNL A   1      42.807  30.802  36.930  1.00  0.00     0.031 C 
ATOM     60  C   UNL A   1      38.331  34.529  35.210  1.00  0.00     0.029 A 
ATOM     61  C   UNL A   1      39.253  33.496  35.234  1.00  0.00     0.049 A 
ATOM     62  H   UNL A   1      39.595  31.982  33.805  1.00  0.00     0.167 HD
ATOM     63  C   UNL A   1      41.093  32.147  36.211  1.00  0.00     0.074 A 
ATOM     64  C   UNL A   1      42.065  31.854  37.246  1.00  0.00     0.031 C 
ATOM     65  C   UNL A   1      40.232  33.192  36.247  1.00  0.00     0.031 A 
BRANCH  52  66
ATOM     66  C   UNL A   1      36.442  33.529  31.372  1.00  0.00    -0.014 A 
ATOM     67  C   UNL A   1      35.274  33.899  32.061  1.00  0.00     0.010 A 
ATOM     68  C   UNL A   1      36.565  33.853  30.008  1.00  0.00     0.010 A 
ATOM     69  C   UNL A   1      34.232  34.544  31.388  1.00  0.00     0.020 A 
ATOM     70  C   UNL A   1      35.535  34.518  29.338  1.00  0.00     0.020 A 
ATOM     71  C   UNL A   1      34.366  34.841  30.028  1.00  0.00     0.054 A 
BRANCH  71  72
ATOM     72  S   UNL A   1      33.004  35.685  29.176  1.00  0.00     0.124 S 
ATOM     73  O   UNL A   1      32.136  36.054  30.292  1.00  0.00    -0.237 OA
ATOM     74  O   UNL A   1      33.676  36.797  28.510  1.00  0.00    -0.237 OA
ATOM     75  O   UNL A   1      32.468  34.661  28.282  1.00  0.00    -0.744 OA
ENDBRANCH  71  72
ENDBRANCH  52  66
BRANCH  53  76
ATOM     76  C   UNL A   1      43.963  28.469  35.576  1.00  0.00    -0.014 A 
ATOM     77  C   UNL A   1      43.735  27.376  36.429  1.00  0.00     0.010 A 
ATOM     78  C   UNL A   1      45.287  28.831  35.264  1.00  0.00     0.010 A 
ATOM     79  C   UNL A   1      44.811  26.657  36.959  1.00  0.00     0.020 A 
ATOM     80  C   UNL A   1      46.364  28.099  35.770  1.00  0.00     0.020 A 
ATOM     81  C   UNL A   1      46.119  27.020  36.622  1.00  0.00     0.054 A 
BRANCH  81  82
ATOM     82  S   UNL A   1      47.502  26.024  37.247  1.00  0.00     0.124 S 
ATOM     83  O   UNL A   1      46.868  25.265  38.319  1.00  0.00    -0.237 OA
ATOM     84  O   UNL A   1      47.898  25.251  36.072  1.00  0.00    -0.237 OA
ATOM     85  O   UNL A   1      48.474  27.028  37.676  1.00  0.00    -0.744 OA
ENDBRANCH  81  82
ENDBRANCH  53  76
BRANCH  65  86
ATOM     86  C   UNL A   1      40.294  34.086  37.453  1.00  0.00    -0.014 A 
ATOM     87  C   UNL A   1      41.142  35.206  37.478  1.00  0.00     0.010 A 
ATOM     88  C   UNL A   1      39.466  33.822  38.558  1.00  0.00     0.010 A 
ATOM     89  C   UNL A   1      41.183  36.033  38.603  1.00  0.00     0.020 A 
ATOM     90  C   UNL A   1      39.491  34.657  39.677  1.00  0.00     0.020 A 
ATOM     91  C   UNL A   1      40.360  35.751  39.697  1.00  0.00     0.054 A 
BRANCH  91  92
ATOM     92  S   UNL A   1      40.400  36.857  41.134  1.00  0.00     0.124 S 
ATOM     93  O   UNL A   1      41.282  36.135  42.048  1.00  0.00    -0.237 OA
ATOM     94  O   UNL A   1      40.948  38.092  40.578  1.00  0.00    -0.237 OA
ATOM     95  O   UNL A   1      39.002  36.935  41.548  1.00  0.00    -0.744 OA
ENDBRANCH  91  92
ENDBRANCH  65  86
ENDBRANCH  39  40
ENDBRANCH  32  34
ENDBRANCH  31  32
ENDBRANCH  30  31
ENDBRANCH   1  30
TORSDOF 17
ENDMDL
MODEL 2
REMARK VINA RESULT:     -12.5      1.179      7.892
REMARK SMILES C[C@H](C(=O)OCCOC(=O)c1ccc(-c2c3nc(c(-c4ccc(S(=O)(=O)[O-])cc4)c4ccc([nH]4)c(-c4ccc(S(=O)(=O)[O-])cc4)c4nc(c(-c5ccc(S(=O)(=O)[O-])cc5)c5ccc2[nH]5)C=C4)C=C3)cc1)c1ccc2c3cc(Cl)ccc3n(C(=O)c3ccc(Cl)cc3)c2c1
REMARK SMILES IDX 6 1 5 2 3 3 4 4 2 5 1 6 71 7 72 8 93 9 73 10 92 11 74 12
REMARK SMILES IDX 82 13 75 14 81 15 76 16 80 17 77 18 79 19 78 20 83 21 84 22
REMARK SMILES IDX 85 23 86 24 91 25 87 26 90 27 88 28 89 29 7 30 8 31 9 32
REMARK SMILES IDX 10 33 11 34 12 35 70 36 13 37 69 38 14 39 15 40 16 41 63 42
REMARK SMILES IDX 17 43 68 44 62 45 64 46 18 47 67 48 61 49 60 50 19 52 49 53
REMARK SMILES IDX 30 54 48 55 31 56 34 57 47 58 65 59 32 60 33 61 46 63 66 64
REMARK SMILES IDX 35 65 20 66 21 67 29 68 22 69 28 70 23 71 24 72 25 73 26 74
REMARK SMILES IDX 27 75 50 76 51 77 59 78 52 79 58 80 53 81 54 82 55 83 56 84
REMARK SMILES IDX 57 85 36 86 37 87 45 88 38 89 44 90 39 91 40 92 41 93 42 94
REMARK SMILES IDX 43 95
REMARK H PARENT 64 51 34 62
REMARK Flexibility Score: inf
ROOT
ATOM      1  C   UNL A   1      40.248  22.860  27.361  1.00  0.00     0.274 C 
ENDROOT
BRANCH   1   2
ATOM      2  O   UNL A   1      39.059  22.305  26.762  1.00  0.00    -0.462 OA
BRANCH   2   3
ATOM      3  C   UNL A   1      39.207  21.266  25.903  1.00  0.00     0.313 C 
ATOM      4  O   UNL A   1      40.167  20.501  25.913  1.00  0.00    -0.252 OA
BRANCH   3   5
ATOM      5  C   UNL A   1      38.050  21.097  24.918  1.00  0.00     0.126 C 
ATOM      6  C   UNL A   1      37.639  19.630  24.788  1.00  0.00     0.025 C 
BRANCH   5   7
ATOM      7  C   UNL A   1      36.804  21.939  25.149  1.00  0.00    -0.032 A 
ATOM      8  C   UNL A   1      36.905  23.097  25.925  1.00  0.00     0.005 A 
ATOM      9  C   UNL A   1      35.583  21.634  24.525  1.00  0.00     0.032 A 
ATOM     10  C   UNL A   1      35.814  23.953  26.086  1.00  0.00     0.011 A 
ATOM     11  C   UNL A   1      34.464  22.458  24.755  1.00  0.00     0.057 A 
ATOM     12  C   UNL A   1      34.578  23.631  25.490  1.00  0.00     0.008 A 
ATOM     13  N   UNL A   1      33.140  22.335  24.315  1.00  0.00    -0.276 N 
ATOM     14  C   UNL A   1      33.311  24.273  25.466  1.00  0.00     0.009 A 
ATOM     15  C   UNL A   1      32.414  23.437  24.789  1.00  0.00     0.057 A 
ATOM     16  C   UNL A   1      32.858  25.491  26.018  1.00  0.00     0.031 A 
ATOM     17  C   UNL A   1      31.041  23.751  24.752  1.00  0.00     0.029 A 
ATOM     18  C   UNL A   1      31.510  25.826  25.918  1.00  0.00     0.041 A 
ATOM     19  C   UNL A   1      30.610  24.963  25.308  1.00  0.00     0.023 A 
ATOM     20  Cl  UNL A   1      30.956  27.310  26.592  1.00  0.00    -0.084 Cl
BRANCH  13  21
ATOM     21  C   UNL A   1      32.661  21.210  23.595  1.00  0.00     0.262 C 
ATOM     22  O   UNL A   1      32.155  21.450  22.499  1.00  0.00    -0.268 OA
BRANCH  21  23
ATOM     23  C   UNL A   1      32.695  19.777  24.015  1.00  0.00     0.040 A 
ATOM     24  C   UNL A   1      32.695  19.504  25.397  1.00  0.00     0.015 A 
ATOM     25  C   UNL A   1      32.824  18.710  23.121  1.00  0.00     0.015 A 
ATOM     26  C   UNL A   1      32.767  18.193  25.872  1.00  0.00     0.021 A 
ATOM     27  C   UNL A   1      32.863  17.391  23.598  1.00  0.00     0.021 A 
ATOM     28  C   UNL A   1      32.831  17.139  24.969  1.00  0.00     0.041 A 
ATOM     29  Cl  UNL A   1      32.881  15.520  25.546  1.00  0.00    -0.084 Cl
ENDBRANCH  21  23
ENDBRANCH  13  21
ENDBRANCH   5   7
ENDBRANCH   3   5
ENDBRANCH   2   3
ENDBRANCH   1   2
BRANCH   1  30
ATOM     30  C   UNL A   1      40.754  24.043  26.541  1.00  0.00     0.275 C 
BRANCH  30  31
ATOM     31  O   UNL A   1      39.967  25.201  26.866  1.00  0.00    -0.458 OA
BRANCH  31  32
ATOM     32  C   UNL A   1      40.530  26.398  26.600  1.00  0.00     0.338 C 
ATOM     33  O   UNL A   1      41.091  26.751  25.573  1.00  0.00    -0.246 OA
BRANCH  32  34
ATOM     34  C   UNL A   1      40.353  27.280  27.763  1.00  0.00     0.060 A 
ATOM     35  C   UNL A   1      40.847  28.581  27.713  1.00  0.00     0.016 A 
ATOM     36  C   UNL A   1      39.801  26.785  28.942  1.00  0.00     0.016 A 
ATOM     37  C   UNL A   1      40.890  29.360  28.864  1.00  0.00     0.010 A 
ATOM     38  C   UNL A   1      39.745  27.608  30.071  1.00  0.00     0.010 A 
ATOM     39  C   UNL A   1      40.325  28.891  30.056  1.00  0.00    -0.014 A 
BRANCH  39  40
ATOM     40  C   UNL A   1      40.369  29.721  31.290  1.00  0.00     0.031 A 
ATOM     41  C   UNL A   1      41.521  29.582  32.251  1.00  0.00     0.074 A 
ATOM     42  C   UNL A   1      39.387  30.607  31.551  1.00  0.00     0.049 A 
ATOM     43  N   UNL A   1      41.653  30.069  33.459  1.00  0.00    -0.248 NA
ATOM     44  C   UNL A   1      42.671  28.781  31.800  1.00  0.00     0.031 C 
ATOM     45  C   UNL A   1      38.239  30.885  30.683  1.00  0.00     0.029 A 
ATOM     46  N   UNL A   1      39.200  31.444  32.622  1.00  0.00    -0.354 N 
ATOM     47  C   UNL A   1      42.867  29.586  33.933  1.00  0.00     0.074 A 
ATOM     48  C   UNL A   1      43.436  28.770  32.882  1.00  0.00     0.031 C 
ATOM     49  C   UNL A   1      37.490  31.850  31.238  1.00  0.00     0.029 A 
ATOM     50  C   UNL A   1      38.052  32.196  32.538  1.00  0.00     0.049 A 
ATOM     51  H   UNL A   1      39.828  31.502  33.378  1.00  0.00     0.167 HD
ATOM     52  C   UNL A   1      43.450  29.797  35.139  1.00  0.00     0.031 A 
ATOM     53  C   UNL A   1      37.484  33.038  33.423  1.00  0.00     0.031 A 
ATOM     54  C   UNL A   1      42.896  30.638  36.166  1.00  0.00     0.049 A 
ATOM     55  C   UNL A   1      38.135  33.241  34.761  1.00  0.00     0.074 A 
ATOM     56  C   UNL A   1      43.403  30.908  37.426  1.00  0.00     0.029 A 
ATOM     57  N   UNL A   1      41.720  31.363  36.045  1.00  0.00    -0.354 N 
ATOM     58  N   UNL A   1      39.243  32.713  35.223  1.00  0.00    -0.248 NA
ATOM     59  C   UNL A   1      37.449  34.134  35.703  1.00  0.00     0.031 C 
ATOM     60  C   UNL A   1      42.517  31.775  38.078  1.00  0.00     0.029 A 
ATOM     61  C   UNL A   1      41.482  32.075  37.207  1.00  0.00     0.049 A 
ATOM     62  H   UNL A   1      41.141  31.369  35.248  1.00  0.00     0.167 HD
ATOM     63  C   UNL A   1      39.388  33.210  36.512  1.00  0.00     0.074 A 
ATOM     64  C   UNL A   1      38.267  34.100  36.746  1.00  0.00     0.031 C 
ATOM     65  C   UNL A   1      40.357  32.948  37.422  1.00  0.00     0.031 A 
BRANCH  52  66
ATOM     66  C   UNL A   1      44.733  29.063  35.425  1.00  0.00    -0.014 A 
ATOM     67  C   UNL A   1      44.732  27.773  35.983  1.00  0.00     0.010 A 
ATOM     68  C   UNL A   1      45.961  29.672  35.109  1.00  0.00     0.010 A 
ATOM     69  C   UNL A   1      45.938  27.122  36.259  1.00  0.00     0.020 A 
ATOM     70  C   UNL A   1      47.169  29.016  35.363  1.00  0.00     0.020 A 
ATOM     71  C   UNL A   1      47.150  27.753  35.955  1.00  0.00     0.054 A 
BRANCH  71  72
ATOM     72  S   UNL A   1      48.704  26.887  36.315  1.00  0.00     0.124 S 
ATOM     73  O   UNL A   1      48.348  26.116  37.504  1.00  0.00    -0.237 OA
ATOM     74  O   UNL A   1      48.928  26.104  35.104  1.00  0.00    -0.237 OA
ATOM     75  O   UNL A   1      49.658  27.970  36.538  1.00  0.00    -0.744 OA
ENDBRANCH  71  72
ENDBRANCH  52  66
BRANCH  53  76
ATOM     76  C   UNL A   1      36.199  33.703  33.082  1.00  0.00    -0.014 A 
ATOM     77  C   UNL A   1      34.972  33.085  33.378  1.00  0.00     0.010 A 
ATOM     78  C   UNL A   1      36.199  34.985  32.500  1.00  0.00     0.010 A 
ATOM     79  C   UNL A   1      33.767  33.738  33.099  1.00  0.00     0.020 A 
ATOM     80  C   UNL A   1      34.997  35.650  32.244  1.00  0.00     0.020 A 
ATOM     81  C   UNL A   1      33.788  35.019  32.538  1.00  0.00     0.054 A 
BRANCH  81  82
ATOM     82  S   UNL A   1      32.219  35.888  32.261  1.00  0.00     0.124 S 
ATOM     83  O   UNL A   1      32.371  37.065  33.111  1.00  0.00    -0.237 OA
ATOM     84  O   UNL A   1      32.240  36.140  30.822  1.00  0.00    -0.237 OA
ATOM     85  O   UNL A   1      31.215  34.921  32.701  1.00  0.00    -0.744 OA
ENDBRANCH  81  82
ENDBRANCH  53  76
BRANCH  65  86
ATOM     86  C   UNL A   1      40.253  33.646  38.748  1.00  0.00    -0.014 A 
ATOM     87  C   UNL A   1      39.608  33.035  39.836  1.00  0.00     0.010 A 
ATOM     88  C   UNL A   1      40.841  34.913  38.916  1.00  0.00     0.010 A 
ATOM     89  C   UNL A   1      39.527  33.693  41.067  1.00  0.00     0.020 A 
ATOM     90  C   UNL A   1      40.779  35.564  40.149  1.00  0.00     0.020 A 
ATOM     91  C   UNL A   1      40.109  34.956  41.214  1.00  0.00     0.054 A 
BRANCH  91  92
ATOM     92  S   UNL A   1      40.026  35.778  42.829  1.00  0.00     0.124 S 
ATOM     93  O   UNL A   1      41.351  35.502  43.378  1.00  0.00    -0.237 OA
ATOM     94  O   UNL A   1      39.772  37.171  42.471  1.00  0.00    -0.237 OA
ATOM     95  O   UNL A   1      38.918  35.103  43.501  1.00  0.00    -0.744 OA
ENDBRANCH  91  92
ENDBRANCH  65  86
ENDBRANCH  39  40
ENDBRANCH  32  34
ENDBRANCH  31  32
ENDBRANCH  30  31
ENDBRANCH   1  30
TORSDOF 17
ENDMDL
MODEL 3
REMARK VINA RESULT:     -12.3      6.419      8.480
REMARK SMILES C[C@H](C(=O)OCCOC(=O)c1ccc(-c2c3nc(c(-c4ccc(S(=O)(=O)[O-])cc4)c4ccc([nH]4)c(-c4ccc(S(=O)(=O)[O-])cc4)c4nc(c(-c5ccc(S(=O)(=O)[O-])cc5)c5ccc2[nH]5)C=C4)C=C3)cc1)c1ccc2c3cc(Cl)ccc3n(C(=O)c3ccc(Cl)cc3)c2c1
REMARK SMILES IDX 6 1 5 2 3 3 4 4 2 5 1 6 71 7 72 8 93 9 73 10 92 11 74 12
REMARK SMILES IDX 82 13 75 14 81 15 76 16 80 17 77 18 79 19 78 20 83 21 84 22
REMARK SMILES IDX 85 23 86 24 91 25 87 26 90 27 88 28 89 29 7 30 8 31 9 32
REMARK SMILES IDX 10 33 11 34 12 35 70 36 13 37 69 38 14 39 15 40 16 41 63 42
REMARK SMILES IDX 17 43 68 44 62 45 64 46 18 47 67 48 61 49 60 50 19 52 49 53
REMARK SMILES IDX 30 54 48 55 31 56 34 57 47 58 65 59 32 60 33 61 46 63 66 64
REMARK SMILES IDX 35 65 20 66 21 67 29 68 22 69 28 70 23 71 24 72 25 73 26 74
REMARK SMILES IDX 27 75 50 76 51 77 59 78 52 79 58 80 53 81 54 82 55 83 56 84
REMARK SMILES IDX 57 85 36 86 37 87 45 88 38 89 44 90 39 91 40 92 41 93 42 94
REMARK SMILES IDX 43 95
REMARK H PARENT 64 51 34 62
REMARK Flexibility Score: inf
ROOT
ATOM      1  C   UNL A   1      41.111  20.008  26.879  1.00  0.00     0.274 C 
ENDROOT
BRANCH   1   2
ATOM      2  O   UNL A   1      39.881  19.910  26.132  1.00  0.00    -0.462 OA
BRANCH   2   3
ATOM      3  C   UNL A   1      39.229  21.060  25.829  1.00  0.00     0.313 C 
ATOM      4  O   UNL A   1      39.567  22.167  26.239  1.00  0.00    -0.252 OA
BRANCH   3   5
ATOM      5  C   UNL A   1      38.034  20.875  24.894  1.00  0.00     0.126 C 
ATOM      6  C   UNL A   1      37.610  19.408  24.815  1.00  0.00     0.025 C 
BRANCH   5   7
ATOM      7  C   UNL A   1      36.803  21.731  25.150  1.00  0.00    -0.032 A 
ATOM      8  C   UNL A   1      36.928  22.870  25.951  1.00  0.00     0.005 A 
ATOM      9  C   UNL A   1      35.574  21.459  24.529  1.00  0.00     0.032 A 
ATOM     10  C   UNL A   1      35.851  23.740  26.136  1.00  0.00     0.011 A 
ATOM     11  C   UNL A   1      34.470  22.295  24.783  1.00  0.00     0.057 A 
ATOM     12  C   UNL A   1      34.607  23.450  25.543  1.00  0.00     0.008 A 
ATOM     13  N   UNL A   1      33.141  22.202  24.350  1.00  0.00    -0.276 N 
ATOM     14  C   UNL A   1      33.350  24.112  25.540  1.00  0.00     0.009 A 
ATOM     15  C   UNL A   1      32.435  23.305  24.851  1.00  0.00     0.057 A 
ATOM     16  C   UNL A   1      32.919  25.325  26.121  1.00  0.00     0.031 A 
ATOM     17  C   UNL A   1      31.067  23.641  24.830  1.00  0.00     0.029 A 
ATOM     18  C   UNL A   1      31.576  25.683  26.037  1.00  0.00     0.041 A 
ATOM     19  C   UNL A   1      30.659  24.847  25.415  1.00  0.00     0.023 A 
ATOM     20  Cl  UNL A   1      31.049  27.160  26.746  1.00  0.00    -0.084 Cl
BRANCH  13  21
ATOM     21  C   UNL A   1      32.640  21.100  23.609  1.00  0.00     0.262 C 
ATOM     22  O   UNL A   1      32.100  21.375  22.537  1.00  0.00    -0.268 OA
BRANCH  21  23
ATOM     23  C   UNL A   1      32.687  19.655  23.981  1.00  0.00     0.040 A 
ATOM     24  C   UNL A   1      32.662  19.335  25.353  1.00  0.00     0.015 A 
ATOM     25  C   UNL A   1      32.852  18.620  23.055  1.00  0.00     0.015 A 
ATOM     26  C   UNL A   1      32.744  18.009  25.785  1.00  0.00     0.021 A 
ATOM     27  C   UNL A   1      32.902  17.287  23.488  1.00  0.00     0.021 A 
ATOM     28  C   UNL A   1      32.844  16.988  24.849  1.00  0.00     0.041 A 
ATOM     29  Cl  UNL A   1      32.907  15.351  25.372  1.00  0.00    -0.084 Cl
ENDBRANCH  21  23
ENDBRANCH  13  21
ENDBRANCH   5   7
ENDBRANCH   3   5
ENDBRANCH   2   3
ENDBRANCH   1   2
BRANCH   1  30
ATOM     30  C   UNL A   1      42.179  19.110  26.263  1.00  0.00     0.275 C 
BRANCH  30  31
ATOM     31  O   UNL A   1      42.582  19.668  25.001  1.00  0.00    -0.458 OA
BRANCH  31  32
ATOM     32  C   UNL A   1      43.884  20.002  24.884  1.00  0.00     0.338 C 
ATOM     33  O   UNL A   1      44.795  19.321  24.436  1.00  0.00    -0.246 OA
BRANCH  32  34
ATOM     34  C   UNL A   1      44.073  21.375  25.375  1.00  0.00     0.060 A 
ATOM     35  C   UNL A   1      43.916  22.442  24.493  1.00  0.00     0.016 A 
ATOM     36  C   UNL A   1      44.514  21.600  26.676  1.00  0.00     0.016 A 
ATOM     37  C   UNL A   1      44.299  23.724  24.870  1.00  0.00     0.010 A 
ATOM     38  C   UNL A   1      44.796  22.907  27.088  1.00  0.00     0.010 A 
ATOM     39  C   UNL A   1      44.730  23.979  26.177  1.00  0.00    -0.014 A 
BRANCH  39  40
ATOM     40  C   UNL A   1      45.140  25.349  26.583  1.00  0.00     0.031 A 
ATOM     41  C   UNL A   1      44.121  26.306  27.145  1.00  0.00     0.074 A 
ATOM     42  C   UNL A   1      46.425  25.741  26.461  1.00  0.00     0.049 A 
ATOM     43  N   UNL A   1      44.232  27.589  27.380  1.00  0.00    -0.248 NA
ATOM     44  C   UNL A   1      42.797  25.750  27.474  1.00  0.00     0.031 C 
ATOM     45  C   UNL A   1      47.528  24.903  25.984  1.00  0.00     0.029 A 
ATOM     46  N   UNL A   1      47.021  26.946  26.736  1.00  0.00    -0.354 N 
ATOM     47  C   UNL A   1      42.983  28.004  27.825  1.00  0.00     0.074 A 
ATOM     48  C   UNL A   1      42.127  26.837  27.832  1.00  0.00     0.031 C 
ATOM     49  C   UNL A   1      48.669  25.606  26.034  1.00  0.00     0.029 A 
ATOM     50  C   UNL A   1      48.368  26.968  26.460  1.00  0.00     0.049 A 
ATOM     51  H   UNL A   1      46.533  27.721  27.097  1.00  0.00     0.167 HD
ATOM     52  C   UNL A   1      42.583  29.247  28.188  1.00  0.00     0.031 A 
ATOM     53  C   UNL A   1      49.259  27.978  26.499  1.00  0.00     0.031 A 
ATOM     54  C   UNL A   1      43.447  30.397  28.214  1.00  0.00     0.049 A 
ATOM     55  C   UNL A   1      48.791  29.351  26.882  1.00  0.00     0.074 A 
ATOM     56  C   UNL A   1      43.136  31.703  28.555  1.00  0.00     0.029 A 
ATOM     57  N   UNL A   1      44.799  30.376  27.905  1.00  0.00    -0.354 N 
ATOM     58  N   UNL A   1      47.586  29.742  27.224  1.00  0.00    -0.248 NA
ATOM     59  C   UNL A   1      49.795  30.423  26.865  1.00  0.00     0.031 C 
ATOM     60  C   UNL A   1      44.295  32.477  28.425  1.00  0.00     0.029 A 
ATOM     61  C   UNL A   1      45.335  31.644  28.043  1.00  0.00     0.049 A 
ATOM     62  H   UNL A   1      45.302  29.576  27.630  1.00  0.00     0.167 HD
ATOM     63  C   UNL A   1      47.687  31.107  27.463  1.00  0.00     0.074 A 
ATOM     64  C   UNL A   1      49.075  31.468  27.250  1.00  0.00     0.031 C 
ATOM     65  C   UNL A   1      46.717  31.983  27.818  1.00  0.00     0.031 A 
BRANCH  52  66
ATOM     66  C   UNL A   1      41.131  29.432  28.539  1.00  0.00    -0.014 A 
ATOM     67  C   UNL A   1      40.718  29.657  29.863  1.00  0.00     0.010 A 
ATOM     68  C   UNL A   1      40.164  29.398  27.516  1.00  0.00     0.010 A 
ATOM     69  C   UNL A   1      39.360  29.804  30.165  1.00  0.00     0.020 A 
ATOM     70  C   UNL A   1      38.809  29.566  27.811  1.00  0.00     0.020 A 
ATOM     71  C   UNL A   1      38.414  29.748  29.137  1.00  0.00     0.054 A 
BRANCH  71  72
ATOM     72  S   UNL A   1      36.657  29.948  29.549  1.00  0.00     0.124 S 
ATOM     73  O   UNL A   1      36.007  29.328  28.397  1.00  0.00    -0.237 OA
ATOM     74  O   UNL A   1      36.534  29.216  30.807  1.00  0.00    -0.237 OA
ATOM     75  O   UNL A   1      36.491  31.395  29.655  1.00  0.00    -0.744 OA
ENDBRANCH  71  72
ENDBRANCH  52  66
BRANCH  53  76
ATOM     76  C   UNL A   1      50.671  27.726  26.107  1.00  0.00    -0.014 A 
ATOM     77  C   UNL A   1      51.086  27.892  24.775  1.00  0.00     0.010 A 
ATOM     78  C   UNL A   1      51.620  27.361  27.081  1.00  0.00     0.010 A 
ATOM     79  C   UNL A   1      52.425  27.701  24.423  1.00  0.00     0.020 A 
ATOM     80  C   UNL A   1      52.964  27.195  26.738  1.00  0.00     0.020 A 
ATOM     81  C   UNL A   1      53.357  27.358  25.408  1.00  0.00     0.054 A 
BRANCH  81  82
ATOM     82  S   UNL A   1      55.107  27.198  24.953  1.00  0.00     0.124 S 
ATOM     83  O   UNL A   1      55.331  28.415  24.180  1.00  0.00    -0.237 OA
ATOM     84  O   UNL A   1      55.773  27.140  26.252  1.00  0.00    -0.237 OA
ATOM     85  O   UNL A   1      55.144  25.952  24.188  1.00  0.00    -0.744 OA
ENDBRANCH  81  82
ENDBRANCH  53  76
BRANCH  65  86
ATOM     86  C   UNL A   1      47.130  33.414  28.014  1.00  0.00    -0.014 A 
ATOM     87  C   UNL A   1      47.579  33.871  29.265  1.00  0.00     0.010 A 
ATOM     88  C   UNL A   1      47.103  34.302  26.924  1.00  0.00     0.010 A 
ATOM     89  C   UNL A   1      47.969  35.203  29.429  1.00  0.00     0.020 A 
ATOM     90  C   UNL A   1      47.509  35.628  27.080  1.00  0.00     0.020 A 
ATOM     91  C   UNL A   1      47.927  36.074  28.336  1.00  0.00     0.054 A 
BRANCH  91  92
ATOM     92  S   UNL A   1      48.470  37.790  28.561  1.00  0.00     0.124 S 
ATOM     93  O   UNL A   1      49.865  37.616  28.959  1.00  0.00    -0.237 OA
ATOM     94  O   UNL A   1      48.262  38.373  27.238  1.00  0.00    -0.237 OA
ATOM     95  O   UNL A   1      47.583  38.298  29.604  1.00  0.00    -0.744 OA
ENDBRANCH  91  92
ENDBRANCH  65  86
ENDBRANCH  39  40
ENDBRANCH  32  34
ENDBRANCH  31  32
ENDBRANCH  30  31
ENDBRANCH   1  30
TORSDOF 17
ENDMDL
