MODEL 1
REMARK VINA RESULT:     -11.0      0.000      0.000
REMARK SMILES CS(=O)(=O)c1ccc(N2N=C(C(=O)OCCOC(=O)c3ccc(-c4c5nc(c(-c6ccc(S(=O)(=O)[O-])cc6)c6ccc([nH]6)c(-c6ccc(S(=O)(=O)[O-])cc6)c6nc(c(-c7ccc(S(=O)(=O)[O-])cc7)c7ccc4[nH]7)C=C6)C=C5)cc3)C[C@H]2c2ccco2)cc1
REMARK SMILES IDX 16 1 15 2 14 3 12 4 13 5 11 6 9 7 10 8 81 9 80 10 8 11 5 12
REMARK SMILES IDX 6 13 88 14 7 15 87 16 2 17 1 18 3 19 4 20 82 21 83 22 86 23
REMARK SMILES IDX 84 24 85 25 17 26 18 27 19 28 20 29 21 30 79 31 22 32 78 33
REMARK SMILES IDX 23 34 24 35 25 36 72 37 26 38 77 39 71 40 73 41 27 42 76 43
REMARK SMILES IDX 70 44 69 45 28 47 58 48 39 49 57 50 40 51 43 52 56 53 74 54
REMARK SMILES IDX 41 55 42 56 55 58 75 59 44 60 29 61 30 62 38 63 31 64 37 65
REMARK SMILES IDX 32 66 33 67 34 68 35 69 36 70 59 71 60 72 68 73 61 74 67 75
REMARK SMILES IDX 62 76 63 77 64 78 65 79 66 80 45 81 46 82 54 83 47 84 53 85
REMARK SMILES IDX 48 86 49 87 50 88 51 89 52 90
REMARK H PARENT 73 46 43 57
REMARK Flexibility Score: inf
ROOT
ATOM      1  C   UNL A   1      39.680  20.041  25.832  1.00  0.00     0.275 C 
ENDROOT
BRANCH   1   2
ATOM      2  C   UNL A   1      39.317  21.489  26.175  1.00  0.00     0.275 C 
BRANCH   2   3
ATOM      3  O   UNL A   1      38.039  21.814  25.606  1.00  0.00    -0.458 OA
BRANCH   3   4
ATOM      4  C   UNL A   1      37.661  23.095  25.764  1.00  0.00     0.354 C 
ATOM      5  O   UNL A   1      38.148  23.936  26.492  1.00  0.00    -0.245 OA
BRANCH   4   6
ATOM      6  C   UNL A   1      36.437  23.355  24.934  1.00  0.00     0.148 C 
ATOM      7  N   UNL A   1      34.584  24.129  24.278  1.00  0.00    -0.254 N 
ATOM      8  N   UNL A   1      35.598  24.318  25.167  1.00  0.00    -0.169 NA
ATOM      9  C   UNL A   1      34.730  22.923  23.455  1.00  0.00     0.180 C 
ATOM     10  C   UNL A   1      36.186  22.524  23.723  1.00  0.00     0.101 C 
BRANCH   7  11
ATOM     11  C   UNL A   1      33.618  25.100  24.049  1.00  0.00     0.060 A 
ATOM     12  C   UNL A   1      31.580  26.988  23.574  1.00  0.00     0.067 A 
ATOM     13  C   UNL A   1      32.323  26.486  22.504  1.00  0.00     0.022 A 
ATOM     14  C   UNL A   1      31.858  26.575  24.877  1.00  0.00     0.022 A 
ATOM     15  C   UNL A   1      33.346  25.561  22.751  1.00  0.00     0.029 A 
ATOM     16  C   UNL A   1      32.865  25.634  25.104  1.00  0.00     0.029 A 
BRANCH  12  17
ATOM     17  S   UNL A   1      30.247  28.131  23.293  1.00  0.00     0.175 S 
ATOM     18  C   UNL A   1      30.647  29.579  24.234  1.00  0.00     0.163 C 
ATOM     19  O   UNL A   1      29.054  27.546  23.879  1.00  0.00    -0.224 OA
ATOM     20  O   UNL A   1      30.289  28.461  21.882  1.00  0.00    -0.224 OA
ENDBRANCH  12  17
ENDBRANCH   7  11
BRANCH   9  21
ATOM     21  C   UNL A   1      33.794  21.795  23.756  1.00  0.00     0.128 A 
ATOM     22  C   UNL A   1      32.551  21.447  23.263  1.00  0.00     0.048 A 
ATOM     23  O   UNL A   1      34.181  20.894  24.707  1.00  0.00    -0.467 OA
ATOM     24  C   UNL A   1      32.157  20.280  23.961  1.00  0.00     0.042 A 
ATOM     25  C   UNL A   1      33.182  19.985  24.828  1.00  0.00     0.195 A 
ENDBRANCH   9  21
ENDBRANCH   4   6
ENDBRANCH   3   4
ENDBRANCH   2   3
ENDBRANCH   1   2
BRANCH   1  26
ATOM     26  O   UNL A   1      40.757  19.592  26.672  1.00  0.00    -0.458 OA
BRANCH  26  27
ATOM     27  C   UNL A   1      41.993  19.710  26.124  1.00  0.00     0.338 C 
ATOM     28  O   UNL A   1      42.557  18.920  25.387  1.00  0.00    -0.246 OA
BRANCH  27  29
ATOM     29  C   UNL A   1      42.502  21.056  26.424  1.00  0.00     0.060 A 
ATOM     30  C   UNL A   1      42.868  21.869  25.349  1.00  0.00     0.016 A 
ATOM     31  C   UNL A   1      42.626  21.513  27.738  1.00  0.00     0.016 A 
ATOM     32  C   UNL A   1      43.356  23.153  25.579  1.00  0.00     0.010 A 
ATOM     33  C   UNL A   1      43.130  22.796  27.970  1.00  0.00     0.010 A 
ATOM     34  C   UNL A   1      43.500  23.618  26.892  1.00  0.00    -0.014 A 
BRANCH  34  35
ATOM     35  C   UNL A   1      44.058  24.965  27.137  1.00  0.00     0.031 A 
ATOM     36  C   UNL A   1      43.168  26.069  27.619  1.00  0.00     0.074 A 
ATOM     37  C   UNL A   1      45.370  25.190  26.944  1.00  0.00     0.049 A 
ATOM     38  N   UNL A   1      43.461  27.325  27.839  1.00  0.00    -0.248 NA
ATOM     39  C   UNL A   1      41.768  25.713  27.900  1.00  0.00     0.031 C 
ATOM     40  C   UNL A   1      46.349  24.185  26.530  1.00  0.00     0.029 A 
ATOM     41  N   UNL A   1      46.103  26.340  27.084  1.00  0.00    -0.354 N 
ATOM     42  C   UNL A   1      42.282  27.916  28.269  1.00  0.00     0.074 A 
ATOM     43  C   UNL A   1      41.269  26.879  28.290  1.00  0.00     0.031 C 
ATOM     44  C   UNL A   1      47.561  24.763  26.456  1.00  0.00     0.029 A 
ATOM     45  C   UNL A   1      47.434  26.180  26.790  1.00  0.00     0.049 A 
ATOM     46  H   UNL A   1      45.713  27.198  27.366  1.00  0.00     0.167 HD
ATOM     47  C   UNL A   1      42.058  29.208  28.609  1.00  0.00     0.031 A 
ATOM     48  C   UNL A   1      48.436  27.078  26.772  1.00  0.00     0.031 A 
ATOM     49  C   UNL A   1      43.052  30.245  28.584  1.00  0.00     0.049 A 
ATOM     50  C   UNL A   1      48.151  28.517  27.082  1.00  0.00     0.074 A 
ATOM     51  C   UNL A   1      42.915  31.583  28.909  1.00  0.00     0.029 A 
ATOM     52  N   UNL A   1      44.372  30.058  28.205  1.00  0.00    -0.354 N 
ATOM     53  N   UNL A   1      47.021  29.067  27.454  1.00  0.00    -0.248 NA
ATOM     54  C   UNL A   1      49.270  29.459  26.942  1.00  0.00     0.031 C 
ATOM     55  C   UNL A   1      44.152  32.210  28.707  1.00  0.00     0.029 A 
ATOM     56  C   UNL A   1      45.058  31.258  28.269  1.00  0.00     0.049 A 
ATOM     57  H   UNL A   1      44.765  29.198  27.931  1.00  0.00     0.167 HD
ATOM     58  C   UNL A   1      47.287  30.425  27.577  1.00  0.00     0.074 A 
ATOM     59  C   UNL A   1      48.689  30.610  27.256  1.00  0.00     0.031 C 
ATOM     60  C   UNL A   1      46.444  31.429  27.920  1.00  0.00     0.031 A 
BRANCH  47  61
ATOM     61  C   UNL A   1      40.656  29.559  29.005  1.00  0.00    -0.014 A 
ATOM     62  C   UNL A   1      40.301  29.662  30.361  1.00  0.00     0.010 A 
ATOM     63  C   UNL A   1      39.679  29.757  28.015  1.00  0.00     0.010 A 
ATOM     64  C   UNL A   1      38.976  29.917  30.723  1.00  0.00     0.020 A 
ATOM     65  C   UNL A   1      38.354  30.016  28.373  1.00  0.00     0.020 A 
ATOM     66  C   UNL A   1      38.008  30.071  29.726  1.00  0.00     0.054 A 
BRANCH  66  67
ATOM     67  S   UNL A   1      36.281  30.368  30.197  1.00  0.00     0.124 S 
ATOM     68  O   UNL A   1      36.210  29.705  31.496  1.00  0.00    -0.237 OA
ATOM     69  O   UNL A   1      36.192  31.826  30.233  1.00  0.00    -0.237 OA
ATOM     70  O   UNL A   1      35.523  29.729  29.126  1.00  0.00    -0.744 OA
ENDBRANCH  66  67
ENDBRANCH  47  61
BRANCH  48  71
ATOM     71  C   UNL A   1      49.801  26.633  26.401  1.00  0.00    -0.014 A 
ATOM     72  C   UNL A   1      50.635  26.036  27.360  1.00  0.00     0.010 A 
ATOM     73  C   UNL A   1      50.248  26.757  25.074  1.00  0.00     0.010 A 
ATOM     74  C   UNL A   1      51.897  25.559  26.996  1.00  0.00     0.020 A 
ATOM     75  C   UNL A   1      51.506  26.275  24.706  1.00  0.00     0.020 A 
ATOM     76  C   UNL A   1      52.324  25.680  25.670  1.00  0.00     0.054 A 
BRANCH  76  77
ATOM     77  S   UNL A   1      53.922  24.983  25.166  1.00  0.00     0.124 S 
ATOM     78  O   UNL A   1      53.623  23.556  25.105  1.00  0.00    -0.237 OA
ATOM     79  O   UNL A   1      54.178  25.629  23.881  1.00  0.00    -0.237 OA
ATOM     80  O   UNL A   1      54.813  25.396  26.248  1.00  0.00    -0.744 OA
ENDBRANCH  76  77
ENDBRANCH  48  71
BRANCH  60  81
ATOM     81  C   UNL A   1      47.010  32.817  27.931  1.00  0.00    -0.014 A 
ATOM     82  C   UNL A   1      47.631  33.314  29.090  1.00  0.00     0.010 A 
ATOM     83  C   UNL A   1      46.954  33.617  26.778  1.00  0.00     0.010 A 
ATOM     84  C   UNL A   1      48.174  34.600  29.103  1.00  0.00     0.020 A 
ATOM     85  C   UNL A   1      47.500  34.903  26.786  1.00  0.00     0.020 A 
ATOM     86  C   UNL A   1      48.097  35.391  27.953  1.00  0.00     0.054 A 
BRANCH  86  87
ATOM     87  S   UNL A   1      48.837  37.049  27.958  1.00  0.00     0.124 S 
ATOM     88  O   UNL A   1      48.184  37.667  29.107  1.00  0.00    -0.237 OA
ATOM     89  O   UNL A   1      50.264  36.776  28.118  1.00  0.00    -0.237 OA
ATOM     90  O   UNL A   1      48.459  37.590  26.655  1.00  0.00    -0.744 OA
ENDBRANCH  86  87
ENDBRANCH  60  81
ENDBRANCH  34  35
ENDBRANCH  27  29
ENDBRANCH  26  27
ENDBRANCH   1  26
TORSDOF 17
ENDMDL
MODEL 2
REMARK VINA RESULT:     -10.9      6.189      8.494
REMARK SMILES CS(=O)(=O)c1ccc(N2N=C(C(=O)OCCOC(=O)c3ccc(-c4c5nc(c(-c6ccc(S(=O)(=O)[O-])cc6)c6ccc([nH]6)c(-c6ccc(S(=O)(=O)[O-])cc6)c6nc(c(-c7ccc(S(=O)(=O)[O-])cc7)c7ccc4[nH]7)C=C6)C=C5)cc3)C[C@H]2c2ccco2)cc1
REMARK SMILES IDX 16 1 15 2 14 3 12 4 13 5 11 6 9 7 10 8 81 9 80 10 8 11 5 12
REMARK SMILES IDX 6 13 88 14 7 15 87 16 2 17 1 18 3 19 4 20 82 21 83 22 86 23
REMARK SMILES IDX 84 24 85 25 17 26 18 27 19 28 20 29 21 30 79 31 22 32 78 33
REMARK SMILES IDX 23 34 24 35 25 36 72 37 26 38 77 39 71 40 73 41 27 42 76 43
REMARK SMILES IDX 70 44 69 45 28 47 58 48 39 49 57 50 40 51 43 52 56 53 74 54
REMARK SMILES IDX 41 55 42 56 55 58 75 59 44 60 29 61 30 62 38 63 31 64 37 65
REMARK SMILES IDX 32 66 33 67 34 68 35 69 36 70 59 71 60 72 68 73 61 74 67 75
REMARK SMILES IDX 62 76 63 77 64 78 65 79 66 80 45 81 46 82 54 83 47 84 53 85
REMARK SMILES IDX 48 86 49 87 50 88 51 89 52 90
REMARK H PARENT 73 46 43 57
REMARK Flexibility Score: inf
ROOT
ATOM      1  C   UNL A   1      41.687  23.128  26.129  1.00  0.00     0.275 C 
ENDROOT
BRANCH   1   2
ATOM      2  C   UNL A   1      40.630  22.549  27.074  1.00  0.00     0.275 C 
BRANCH   2   3
ATOM      3  O   UNL A   1      39.319  22.856  26.577  1.00  0.00    -0.458 OA
BRANCH   3   4
ATOM      4  C   UNL A   1      38.709  21.845  25.933  1.00  0.00     0.354 C 
ATOM      5  O   UNL A   1      39.143  20.737  25.696  1.00  0.00    -0.245 OA
BRANCH   4   6
ATOM      6  C   UNL A   1      37.366  22.308  25.445  1.00  0.00     0.148 C 
ATOM      7  N   UNL A   1      35.456  23.209  25.378  1.00  0.00    -0.254 N 
ATOM      8  N   UNL A   1      36.620  23.158  26.082  1.00  0.00    -0.169 NA
ATOM      9  C   UNL A   1      35.405  22.278  24.244  1.00  0.00     0.180 C 
ATOM     10  C   UNL A   1      36.870  21.840  24.120  1.00  0.00     0.101 C 
BRANCH   7  11
ATOM     11  C   UNL A   1      34.502  24.193  25.605  1.00  0.00     0.060 A 
ATOM     12  C   UNL A   1      32.513  26.154  25.970  1.00  0.00     0.067 A 
ATOM     13  C   UNL A   1      33.669  26.465  25.252  1.00  0.00     0.022 A 
ATOM     14  C   UNL A   1      32.350  24.885  26.525  1.00  0.00     0.022 A 
ATOM     15  C   UNL A   1      34.661  25.488  25.090  1.00  0.00     0.029 A 
ATOM     16  C   UNL A   1      33.338  23.915  26.333  1.00  0.00     0.029 A 
BRANCH  12  17
ATOM     17  S   UNL A   1      31.215  27.355  26.159  1.00  0.00     0.175 S 
ATOM     18  C   UNL A   1      31.928  28.913  25.703  1.00  0.00     0.163 C 
ATOM     19  O   UNL A   1      30.897  27.419  27.575  1.00  0.00    -0.224 OA
ATOM     20  O   UNL A   1      30.196  27.003  25.190  1.00  0.00    -0.224 OA
ENDBRANCH  12  17
ENDBRANCH   7  11
BRANCH   9  21
ATOM     21  C   UNL A   1      34.496  21.099  24.392  1.00  0.00     0.128 A 
ATOM     22  C   UNL A   1      34.697  19.806  24.835  1.00  0.00     0.048 A 
ATOM     23  O   UNL A   1      33.190  21.263  24.028  1.00  0.00    -0.467 OA
ATOM     24  C   UNL A   1      33.450  19.146  24.721  1.00  0.00     0.042 A 
ATOM     25  C   UNL A   1      32.567  20.074  24.225  1.00  0.00     0.195 A 
ENDBRANCH   9  21
ENDBRANCH   4   6
ENDBRANCH   3   4
ENDBRANCH   2   3
ENDBRANCH   1   2
BRANCH   1  26
ATOM     26  O   UNL A   1      42.377  24.215  26.769  1.00  0.00    -0.458 OA
BRANCH  26  27
ATOM     27  C   UNL A   1      42.016  25.450  26.338  1.00  0.00     0.338 C 
ATOM     28  O   UNL A   1      41.736  25.786  25.200  1.00  0.00    -0.246 OA
BRANCH  27  29
ATOM     29  C   UNL A   1      41.843  26.316  27.513  1.00  0.00     0.060 A 
ATOM     30  C   UNL A   1      40.810  26.009  28.401  1.00  0.00     0.016 A 
ATOM     31  C   UNL A   1      42.675  27.415  27.739  1.00  0.00     0.016 A 
ATOM     32  C   UNL A   1      40.603  26.796  29.531  1.00  0.00     0.010 A 
ATOM     33  C   UNL A   1      42.458  28.215  28.864  1.00  0.00     0.010 A 
ATOM     34  C   UNL A   1      41.420  27.911  29.761  1.00  0.00    -0.014 A 
BRANCH  34  35
ATOM     35  C   UNL A   1      41.172  28.772  30.937  1.00  0.00     0.031 A 
ATOM     36  C   UNL A   1      40.061  29.777  30.911  1.00  0.00     0.074 A 
ATOM     37  C   UNL A   1      41.934  28.636  32.037  1.00  0.00     0.049 A 
ATOM     38  N   UNL A   1      39.723  30.653  31.821  1.00  0.00    -0.248 NA
ATOM     39  C   UNL A   1      39.213  29.790  29.709  1.00  0.00     0.031 C 
ATOM     40  C   UNL A   1      43.009  27.658  32.206  1.00  0.00     0.029 A 
ATOM     41  N   UNL A   1      41.909  29.321  33.224  1.00  0.00    -0.354 N 
ATOM     42  C   UNL A   1      38.635  31.336  31.299  1.00  0.00     0.074 A 
ATOM     43  C   UNL A   1      38.360  30.765  29.995  1.00  0.00     0.031 C 
ATOM     44  C   UNL A   1      43.538  27.801  33.434  1.00  0.00     0.029 A 
ATOM     45  C   UNL A   1      42.857  28.897  34.121  1.00  0.00     0.049 A 
ATOM     46  H   UNL A   1      41.273  30.048  33.416  1.00  0.00     0.167 HD
ATOM     47  C   UNL A   1      37.931  32.354  31.850  1.00  0.00     0.031 A 
ATOM     48  C   UNL A   1      43.158  29.352  35.352  1.00  0.00     0.031 A 
ATOM     49  C   UNL A   1      38.200  32.932  33.138  1.00  0.00     0.049 A 
ATOM     50  C   UNL A   1      42.413  30.526  35.912  1.00  0.00     0.074 A 
ATOM     51  C   UNL A   1      37.540  33.968  33.776  1.00  0.00     0.029 A 
ATOM     52  N   UNL A   1      39.219  32.525  33.983  1.00  0.00    -0.354 N 
ATOM     53  N   UNL A   1      41.407  31.184  35.391  1.00  0.00    -0.248 NA
ATOM     54  C   UNL A   1      42.863  31.035  37.216  1.00  0.00     0.031 C 
ATOM     55  C   UNL A   1      38.176  34.200  35.003  1.00  0.00     0.029 A 
ATOM     56  C   UNL A   1      39.222  33.300  35.130  1.00  0.00     0.049 A 
ATOM     57  H   UNL A   1      39.850  31.793  33.796  1.00  0.00     0.167 HD
ATOM     58  C   UNL A   1      41.112  32.197  36.294  1.00  0.00     0.074 A 
ATOM     59  C   UNL A   1      42.035  32.055  37.403  1.00  0.00     0.031 C 
ATOM     60  C   UNL A   1      40.164  33.162  36.209  1.00  0.00     0.031 A 
BRANCH  47  61
ATOM     61  C   UNL A   1      36.816  32.918  31.022  1.00  0.00    -0.014 A 
ATOM     62  C   UNL A   1      37.091  33.781  29.947  1.00  0.00     0.010 A 
ATOM     63  C   UNL A   1      35.483  32.609  31.342  1.00  0.00     0.010 A 
ATOM     64  C   UNL A   1      36.044  34.362  29.228  1.00  0.00     0.020 A 
ATOM     65  C   UNL A   1      34.434  33.184  30.621  1.00  0.00     0.020 A 
ATOM     66  C   UNL A   1      34.722  34.075  29.583  1.00  0.00     0.054 A 
BRANCH  66  67
ATOM     67  S   UNL A   1      33.362  34.856  28.670  1.00  0.00     0.124 S 
ATOM     68  O   UNL A   1      32.925  33.766  27.802  1.00  0.00    -0.237 OA
ATOM     69  O   UNL A   1      32.425  35.230  29.726  1.00  0.00    -0.237 OA
ATOM     70  O   UNL A   1      34.009  35.975  27.992  1.00  0.00    -0.744 OA
ENDBRANCH  66  67
ENDBRANCH  47  61
BRANCH  48  71
ATOM     71  C   UNL A   1      44.255  28.709  36.114  1.00  0.00    -0.014 A 
ATOM     72  C   UNL A   1      44.004  27.562  36.883  1.00  0.00     0.010 A 
ATOM     73  C   UNL A   1      45.565  29.213  36.026  1.00  0.00     0.010 A 
ATOM     74  C   UNL A   1      45.050  26.919  37.551  1.00  0.00     0.020 A 
ATOM     75  C   UNL A   1      46.613  28.569  36.687  1.00  0.00     0.020 A 
ATOM     76  C   UNL A   1      46.349  27.426  37.447  1.00  0.00     0.054 A 
BRANCH  76  77
ATOM     77  S   UNL A   1      47.729  26.548  38.233  1.00  0.00     0.124 S 
ATOM     78  O   UNL A   1      47.434  25.160  37.898  1.00  0.00    -0.237 OA
ATOM     79  O   UNL A   1      48.904  27.119  37.578  1.00  0.00    -0.237 OA
ATOM     80  O   UNL A   1      47.580  26.904  39.642  1.00  0.00    -0.744 OA
ENDBRANCH  76  77
ENDBRANCH  48  71
BRANCH  60  81
ATOM     81  C   UNL A   1      40.105  34.156  37.330  1.00  0.00    -0.014 A 
ATOM     82  C   UNL A   1      40.896  35.318  37.284  1.00  0.00     0.010 A 
ATOM     83  C   UNL A   1      39.239  33.951  38.417  1.00  0.00     0.010 A 
ATOM     84  C   UNL A   1      40.834  36.253  38.318  1.00  0.00     0.020 A 
ATOM     85  C   UNL A   1      39.171  34.888  39.451  1.00  0.00     0.020 A 
ATOM     86  C   UNL A   1      39.978  36.029  39.401  1.00  0.00     0.054 A 
BRANCH  86  87
ATOM     87  S   UNL A   1      39.870  37.265  40.725  1.00  0.00     0.124 S 
ATOM     88  O   UNL A   1      40.975  38.160  40.394  1.00  0.00    -0.237 OA
ATOM     89  O   UNL A   1      38.533  37.827  40.549  1.00  0.00    -0.237 OA
ATOM     90  O   UNL A   1      40.048  36.473  41.940  1.00  0.00    -0.744 OA
ENDBRANCH  86  87
ENDBRANCH  60  81
ENDBRANCH  34  35
ENDBRANCH  27  29
ENDBRANCH  26  27
ENDBRANCH   1  26
TORSDOF 17
ENDMDL
MODEL 3
REMARK VINA RESULT:     -10.8      2.283      8.833
REMARK SMILES CS(=O)(=O)c1ccc(N2N=C(C(=O)OCCOC(=O)c3ccc(-c4c5nc(c(-c6ccc(S(=O)(=O)[O-])cc6)c6ccc([nH]6)c(-c6ccc(S(=O)(=O)[O-])cc6)c6nc(c(-c7ccc(S(=O)(=O)[O-])cc7)c7ccc4[nH]7)C=C6)C=C5)cc3)C[C@H]2c2ccco2)cc1
REMARK SMILES IDX 16 1 15 2 14 3 12 4 13 5 11 6 9 7 10 8 81 9 80 10 8 11 5 12
REMARK SMILES IDX 6 13 88 14 7 15 87 16 2 17 1 18 3 19 4 20 82 21 83 22 86 23
REMARK SMILES IDX 84 24 85 25 17 26 18 27 19 28 20 29 21 30 79 31 22 32 78 33
REMARK SMILES IDX 23 34 24 35 25 36 72 37 26 38 77 39 71 40 73 41 27 42 76 43
REMARK SMILES IDX 70 44 69 45 28 47 58 48 39 49 57 50 40 51 43 52 56 53 74 54
REMARK SMILES IDX 41 55 42 56 55 58 75 59 44 60 29 61 30 62 38 63 31 64 37 65
REMARK SMILES IDX 32 66 33 67 34 68 35 69 36 70 59 71 60 72 68 73 61 74 67 75
REMARK SMILES IDX 62 76 63 77 64 78 65 79 66 80 45 81 46 82 54 83 47 84 53 85
REMARK SMILES IDX 48 86 49 87 50 88 51 89 52 90
REMARK H PARENT 73 46 43 57
REMARK Flexibility Score: inf
ROOT
ATOM      1  C   UNL A   1      34.804  32.074  29.534  1.00  0.00     0.275 C 
ENDROOT
BRANCH   1   2
ATOM      2  C   UNL A   1      34.526  32.046  28.028  1.00  0.00     0.275 C 
BRANCH   2   3
ATOM      3  O   UNL A   1      33.772  30.869  27.699  1.00  0.00    -0.458 OA
BRANCH   3   4
ATOM      4  C   UNL A   1      34.510  29.825  27.279  1.00  0.00     0.354 C 
ATOM      5  O   UNL A   1      35.719  29.731  27.239  1.00  0.00    -0.245 OA
BRANCH   4   6
ATOM      6  C   UNL A   1      33.597  28.750  26.763  1.00  0.00     0.148 C 
ATOM      7  N   UNL A   1      32.899  26.964  25.875  1.00  0.00    -0.254 N 
ATOM      8  N   UNL A   1      34.005  27.580  26.380  1.00  0.00    -0.169 NA
ATOM      9  C   UNL A   1      31.701  27.812  25.860  1.00  0.00     0.180 C 
ATOM     10  C   UNL A   1      32.125  28.986  26.751  1.00  0.00     0.101 C 
BRANCH   7  11
ATOM     11  C   UNL A   1      32.879  25.604  25.594  1.00  0.00     0.060 A 
ATOM     12  C   UNL A   1      32.816  22.871  24.915  1.00  0.00     0.067 A 
ATOM     13  C   UNL A   1      31.650  23.505  25.345  1.00  0.00     0.022 A 
ATOM     14  C   UNL A   1      34.016  23.580  24.841  1.00  0.00     0.022 A 
ATOM     15  C   UNL A   1      31.694  24.860  25.697  1.00  0.00     0.029 A 
ATOM     16  C   UNL A   1      34.037  24.937  25.173  1.00  0.00     0.029 A 
BRANCH  12  17
ATOM     17  S   UNL A   1      32.789  21.163  24.419  1.00  0.00     0.175 S 
ATOM     18  C   UNL A   1      32.222  21.158  22.738  1.00  0.00     0.163 C 
ATOM     19  O   UNL A   1      31.775  20.503  25.223  1.00  0.00    -0.224 OA
ATOM     20  O   UNL A   1      34.166  20.712  24.451  1.00  0.00    -0.224 OA
ENDBRANCH  12  17
ENDBRANCH   7  11
BRANCH   9  21
ATOM     21  C   UNL A   1      31.241  28.287  24.518  1.00  0.00     0.128 A 
ATOM     22  C   UNL A   1      31.909  28.779  23.413  1.00  0.00     0.048 A 
ATOM     23  O   UNL A   1      29.898  28.262  24.270  1.00  0.00    -0.467 OA
ATOM     24  C   UNL A   1      30.919  29.082  22.449  1.00  0.00     0.042 A 
ATOM     25  C   UNL A   1      29.712  28.751  23.018  1.00  0.00     0.195 A 
ENDBRANCH   9  21
ENDBRANCH   4   6
ENDBRANCH   3   4
ENDBRANCH   2   3
ENDBRANCH   1   2
BRANCH   1  26
ATOM     26  O   UNL A   1      36.219  31.985  29.775  1.00  0.00    -0.458 OA
BRANCH  26  27
ATOM     27  C   UNL A   1      36.586  31.021  30.657  1.00  0.00     0.338 C 
ATOM     28  O   UNL A   1      35.908  30.531  31.545  1.00  0.00    -0.246 OA
BRANCH  27  29
ATOM     29  C   UNL A   1      37.909  30.516  30.264  1.00  0.00     0.060 A 
ATOM     30  C   UNL A   1      38.757  30.058  31.274  1.00  0.00     0.016 A 
ATOM     31  C   UNL A   1      38.315  30.497  28.928  1.00  0.00     0.016 A 
ATOM     32  C   UNL A   1      40.022  29.570  30.956  1.00  0.00     0.010 A 
ATOM     33  C   UNL A   1      39.590  30.022  28.610  1.00  0.00     0.010 A 
ATOM     34  C   UNL A   1      40.449  29.560  29.622  1.00  0.00    -0.014 A 
BRANCH  34  35
ATOM     35  C   UNL A   1      41.807  29.081  29.289  1.00  0.00     0.031 A 
ATOM     36  C   UNL A   1      42.986  29.991  29.459  1.00  0.00     0.074 A 
ATOM     37  C   UNL A   1      41.984  27.821  28.853  1.00  0.00     0.049 A 
ATOM     38  N   UNL A   1      44.243  29.771  29.173  1.00  0.00    -0.248 NA
ATOM     39  C   UNL A   1      42.717  31.317  30.037  1.00  0.00     0.031 C 
ATOM     40  C   UNL A   1      40.925  26.824  28.698  1.00  0.00     0.029 A 
ATOM     41  N   UNL A   1      43.126  27.167  28.469  1.00  0.00    -0.354 N 
ATOM     42  C   UNL A   1      44.916  30.933  29.518  1.00  0.00     0.074 A 
ATOM     43  C   UNL A   1      43.930  31.855  30.046  1.00  0.00     0.031 C 
ATOM     44  C   UNL A   1      41.470  25.676  28.258  1.00  0.00     0.029 A 
ATOM     45  C   UNL A   1      42.907  25.871  28.075  1.00  0.00     0.049 A 
ATOM     46  H   UNL A   1      44.016  27.585  28.475  1.00  0.00     0.167 HD
ATOM     47  C   UNL A   1      46.236  31.214  29.398  1.00  0.00     0.031 A 
ATOM     48  C   UNL A   1      43.765  24.948  27.600  1.00  0.00     0.031 A 
ATOM     49  C   UNL A   1      47.220  30.311  28.869  1.00  0.00     0.049 A 
ATOM     50  C   UNL A   1      45.208  25.305  27.409  1.00  0.00     0.074 A 
ATOM     51  C   UNL A   1      48.580  30.511  28.708  1.00  0.00     0.029 A 
ATOM     52  N   UNL A   1      46.945  29.034  28.407  1.00  0.00    -0.354 N 
ATOM     53  N   UNL A   1      45.824  26.422  27.708  1.00  0.00    -0.248 NA
ATOM     54  C   UNL A   1      46.066  24.284  26.790  1.00  0.00     0.031 C 
ATOM     55  C   UNL A   1      49.125  29.357  28.128  1.00  0.00     0.029 A 
ATOM     56  C   UNL A   1      48.104  28.438  27.942  1.00  0.00     0.049 A 
ATOM     57  H   UNL A   1      46.056  28.611  28.409  1.00  0.00     0.167 HD
ATOM     58  C   UNL A   1      47.140  26.247  27.299  1.00  0.00     0.074 A 
ATOM     59  C   UNL A   1      47.235  24.910  26.746  1.00  0.00     0.031 C 
ATOM     60  C   UNL A   1      48.175  27.119  27.370  1.00  0.00     0.031 A 
BRANCH  47  61
ATOM     61  C   UNL A   1      46.667  32.583  29.828  1.00  0.00    -0.014 A 
ATOM     62  C   UNL A   1      46.681  33.649  28.912  1.00  0.00     0.010 A 
ATOM     63  C   UNL A   1      47.093  32.799  31.150  1.00  0.00     0.010 A 
ATOM     64  C   UNL A   1      47.155  34.904  29.301  1.00  0.00     0.020 A 
ATOM     65  C   UNL A   1      47.564  34.054  31.543  1.00  0.00     0.020 A 
ATOM     66  C   UNL A   1      47.612  35.092  30.609  1.00  0.00     0.054 A 
BRANCH  66  67
ATOM     67  S   UNL A   1      48.259  36.713  31.104  1.00  0.00     0.124 S 
ATOM     68  O   UNL A   1      47.040  37.408  31.506  1.00  0.00    -0.237 OA
ATOM     69  O   UNL A   1      49.181  36.385  32.189  1.00  0.00    -0.237 OA
ATOM     70  O   UNL A   1      48.892  37.211  29.886  1.00  0.00    -0.744 OA
ENDBRANCH  66  67
ENDBRANCH  47  61
BRANCH  48  71
ATOM     71  C   UNL A   1      43.255  23.606  27.232  1.00  0.00    -0.014 A 
ATOM     72  C   UNL A   1      43.214  23.210  25.886  1.00  0.00     0.010 A 
ATOM     73  C   UNL A   1      42.862  22.701  28.234  1.00  0.00     0.010 A 
ATOM     74  C   UNL A   1      42.794  21.922  25.543  1.00  0.00     0.020 A 
ATOM     75  C   UNL A   1      42.448  21.411  27.895  1.00  0.00     0.020 A 
ATOM     76  C   UNL A   1      42.415  21.029  26.550  1.00  0.00     0.054 A 
BRANCH  76  77
ATOM     77  S   UNL A   1      41.955  19.326  26.126  1.00  0.00     0.124 S 
ATOM     78  O   UNL A   1      42.699  19.112  24.889  1.00  0.00    -0.237 OA
ATOM     79  O   UNL A   1      42.417  18.558  27.280  1.00  0.00    -0.237 OA
ATOM     80  O   UNL A   1      40.503  19.407  25.984  1.00  0.00    -0.744 OA
ENDBRANCH  76  77
ENDBRANCH  48  71
BRANCH  60  81
ATOM     81  C   UNL A   1      49.487  26.662  26.806  1.00  0.00    -0.014 A 
ATOM     82  C   UNL A   1      50.386  25.940  27.611  1.00  0.00     0.010 A 
ATOM     83  C   UNL A   1      49.814  26.924  25.465  1.00  0.00     0.010 A 
ATOM     84  C   UNL A   1      51.602  25.499  27.087  1.00  0.00     0.020 A 
ATOM     85  C   UNL A   1      51.029  26.479  24.937  1.00  0.00     0.020 A 
ATOM     86  C   UNL A   1      51.921  25.779  25.755  1.00  0.00     0.054 A 
BRANCH  86  87
ATOM     87  S   UNL A   1      53.486  25.172  25.064  1.00  0.00     0.124 S 
ATOM     88  O   UNL A   1      53.360  23.730  25.254  1.00  0.00    -0.237 OA
ATOM     89  O   UNL A   1      53.439  25.630  23.677  1.00  0.00    -0.237 OA
ATOM     90  O   UNL A   1      54.496  25.827  25.893  1.00  0.00    -0.744 OA
ENDBRANCH  86  87
ENDBRANCH  60  81
ENDBRANCH  34  35
ENDBRANCH  27  29
ENDBRANCH  26  27
ENDBRANCH   1  26
TORSDOF 17
ENDMDL
