MODEL 1
REMARK VINA RESULT:     -13.2      0.000      0.000
REMARK SMILES O=C(OCCOC(=O)[C@H]1Cc2c([nH]c3ccccc23)[C@H](c2c[nH]c3ccccc23)[NH2+]1)c1ccc(-c2c3nc(c(-c4ccc(S(=O)(=O)[O-])cc4)c4ccc([nH]4)c(-c4ccc(S(=O)(=O)[O-])cc4)c4nc(c(-c5ccc(S(=O)(=O)[O-])cc5)c5ccc2[nH]5)C=C4)C=C3)cc1
REMARK SMILES IDX 4 1 3 2 2 3 1 4 31 5 32 6 90 7 33 8 89 9 34 10 35 11 36 12
REMARK SMILES IDX 83 13 37 14 88 15 82 16 84 17 38 18 87 19 81 20 80 21 39 23
REMARK SMILES IDX 69 24 50 25 68 26 51 27 54 28 67 29 85 30 52 31 53 32 66 34
REMARK SMILES IDX 86 35 55 36 40 37 41 38 49 39 42 40 48 41 43 42 44 43 45 44
REMARK SMILES IDX 46 45 47 46 70 47 71 48 79 49 72 50 78 51 73 52 74 53 75 54
REMARK SMILES IDX 76 55 77 56 56 57 57 58 65 59 58 60 64 61 59 62 60 63 61 64
REMARK SMILES IDX 62 65 63 66 5 67 6 68 7 69 8 70 9 71 10 72 30 73 11 74 20 75
REMARK SMILES IDX 12 78 19 79 13 80 14 81 18 82 15 84 17 85 16 86 21 87 22 88
REMARK SMILES IDX 29 89 23 90 24 91 28 92 25 94 27 95 26 96
REMARK H PARENT 84 22 54 33 30 76 30 77 13 83 23 93
REMARK Flexibility Score: inf
ROOT
ATOM      1  C   UNL A   1      41.000  20.836  25.993  1.00  0.00     0.275 C 
ENDROOT
BRANCH   1   2
ATOM      2  O   UNL A   1      41.887  21.868  25.532  1.00  0.00    -0.458 OA
BRANCH   2   3
ATOM      3  C   UNL A   1      42.367  22.956  26.188  1.00  0.00     0.338 C 
ATOM      4  O   UNL A   1      43.553  22.980  26.509  1.00  0.00    -0.246 OA
BRANCH   3   5
ATOM      5  C   UNL A   1      41.480  24.054  26.685  1.00  0.00     0.060 A 
ATOM      6  C   UNL A   1      40.917  24.151  27.961  1.00  0.00     0.016 A 
ATOM      7  C   UNL A   1      41.230  25.092  25.784  1.00  0.00     0.016 A 
ATOM      8  C   UNL A   1      40.377  25.367  28.421  1.00  0.00     0.010 A 
ATOM      9  C   UNL A   1      40.718  26.309  26.240  1.00  0.00     0.010 A 
ATOM     10  C   UNL A   1      40.437  26.514  27.611  1.00  0.00    -0.014 A 
BRANCH  10  11
ATOM     11  C   UNL A   1      40.346  28.163  28.202  1.00  0.00     0.031 A 
ATOM     12  C   UNL A   1      42.207  28.262  28.300  1.00  0.00     0.074 A 
ATOM     13  C   UNL A   1      38.974  29.347  28.724  1.00  0.00     0.049 A 
ATOM     14  N   UNL A   1      42.947  29.298  28.662  1.00  0.00    -0.248 NA
ATOM     15  C   UNL A   1      43.118  27.123  28.009  1.00  0.00     0.031 C 
ATOM     16  C   UNL A   1      37.281  29.447  28.712  1.00  0.00     0.029 A 
ATOM     17  N   UNL A   1      38.949  30.723  29.421  1.00  0.00    -0.354 N 
ATOM     18  C   UNL A   1      44.265  29.013  28.631  1.00  0.00     0.074 A 
ATOM     19  C   UNL A   1      44.329  27.613  28.295  1.00  0.00     0.031 C 
ATOM     20  C   UNL A   1      36.791  30.634  29.131  1.00  0.00     0.029 A 
ATOM     21  C   UNL A   1      37.861  31.504  29.488  1.00  0.00     0.049 A 
ATOM     22  H   UNL A   1      39.778  31.045  29.842  1.00  0.00     0.167 HD
ATOM     23  C   UNL A   1      45.250  29.925  28.819  1.00  0.00     0.031 A 
ATOM     24  C   UNL A   1      37.905  32.799  29.858  1.00  0.00     0.031 A 
ATOM     25  C   UNL A   1      45.010  31.338  29.114  1.00  0.00     0.049 A 
ATOM     26  C   UNL A   1      39.275  33.515  29.940  1.00  0.00     0.074 A 
ATOM     27  C   UNL A   1      45.906  32.389  29.111  1.00  0.00     0.029 A 
ATOM     28  N   UNL A   1      43.781  31.906  29.488  1.00  0.00    -0.354 N 
ATOM     29  N   UNL A   1      40.515  33.043  29.853  1.00  0.00    -0.248 NA
ATOM     30  C   UNL A   1      39.217  34.967  30.097  1.00  0.00     0.031 C 
ATOM     31  C   UNL A   1      45.202  33.568  29.420  1.00  0.00     0.029 A 
ATOM     32  C   UNL A   1      43.840  33.293  29.576  1.00  0.00     0.049 A 
ATOM     33  H   UNL A   1      42.969  31.381  29.669  1.00  0.00     0.167 HD
ATOM     34  C   UNL A   1      41.390  34.141  29.890  1.00  0.00     0.074 A 
ATOM     35  C   UNL A   1      40.501  35.300  30.023  1.00  0.00     0.031 C 
ATOM     36  C   UNL A   1      42.759  34.273  29.804  1.00  0.00     0.031 A 
BRANCH  23  37
ATOM     37  C   UNL A   1      46.636  29.407  28.591  1.00  0.00    -0.014 A 
ATOM     38  C   UNL A   1      47.150  29.340  27.280  1.00  0.00     0.010 A 
ATOM     39  C   UNL A   1      47.412  28.931  29.657  1.00  0.00     0.010 A 
ATOM     40  C   UNL A   1      48.373  28.722  27.028  1.00  0.00     0.020 A 
ATOM     41  C   UNL A   1      48.656  28.337  29.412  1.00  0.00     0.020 A 
ATOM     42  C   UNL A   1      49.112  28.209  28.096  1.00  0.00     0.054 A 
BRANCH  42  43
ATOM     43  S   UNL A   1      50.675  27.367  27.730  1.00  0.00     0.124 S 
ATOM     44  O   UNL A   1      50.680  27.366  26.269  1.00  0.00    -0.237 OA
ATOM     45  O   UNL A   1      51.662  28.240  28.360  1.00  0.00    -0.237 OA
ATOM     46  O   UNL A   1      50.515  26.056  28.354  1.00  0.00    -0.744 OA
ENDBRANCH  42  43
ENDBRANCH  23  37
BRANCH  24  47
ATOM     47  C   UNL A   1      36.611  33.467  30.119  1.00  0.00    -0.014 A 
ATOM     48  C   UNL A   1      36.158  33.748  31.417  1.00  0.00     0.010 A 
ATOM     49  C   UNL A   1      35.871  33.936  29.016  1.00  0.00     0.010 A 
ATOM     50  C   UNL A   1      34.986  34.491  31.605  1.00  0.00     0.020 A 
ATOM     51  C   UNL A   1      34.715  34.696  29.200  1.00  0.00     0.020 A 
ATOM     52  C   UNL A   1      34.279  34.968  30.495  1.00  0.00     0.054 A 
BRANCH  52  53
ATOM     53  S   UNL A   1      32.822  36.016  30.761  1.00  0.00     0.124 S 
ATOM     54  O   UNL A   1      32.008  35.188  31.643  1.00  0.00    -0.237 OA
ATOM     55  O   UNL A   1      33.403  37.212  31.370  1.00  0.00    -0.237 OA
ATOM     56  O   UNL A   1      32.290  36.211  29.414  1.00  0.00    -0.744 OA
ENDBRANCH  52  53
ENDBRANCH  24  47
BRANCH  36  57
ATOM     57  C   UNL A   1      43.244  35.720  29.912  1.00  0.00    -0.014 A 
ATOM     58  C   UNL A   1      43.230  36.574  28.792  1.00  0.00     0.010 A 
ATOM     59  C   UNL A   1      43.694  36.229  31.149  1.00  0.00     0.010 A 
ATOM     60  C   UNL A   1      43.695  37.889  28.895  1.00  0.00     0.020 A 
ATOM     61  C   UNL A   1      44.122  37.557  31.263  1.00  0.00     0.020 A 
ATOM     62  C   UNL A   1      44.139  38.373  30.130  1.00  0.00     0.054 A 
BRANCH  62  63
ATOM     63  S   UNL A   1      44.701  40.095  30.244  1.00  0.00     0.124 S 
ATOM     64  O   UNL A   1      43.649  40.705  31.051  1.00  0.00    -0.237 OA
ATOM     65  O   UNL A   1      46.001  39.966  30.899  1.00  0.00    -0.237 OA
ATOM     66  O   UNL A   1      44.754  40.534  28.851  1.00  0.00    -0.744 OA
ENDBRANCH  62  63
ENDBRANCH  36  57
ENDBRANCH  10  11
ENDBRANCH   3   5
ENDBRANCH   2   3
ENDBRANCH   1   2
BRANCH   1  67
ATOM     67  C   UNL A   1      39.618  21.297  26.453  1.00  0.00     0.274 C 
BRANCH  67  68
ATOM     68  O   UNL A   1      38.679  21.463  25.383  1.00  0.00    -0.458 OA
BRANCH  68  69
ATOM     69  C   UNL A   1      37.773  22.482  25.524  1.00  0.00     0.365 C 
ATOM     70  O   UNL A   1      38.077  23.627  25.835  1.00  0.00    -0.245 OA
BRANCH  69  71
ATOM     71  C   UNL A   1      36.327  21.965  25.364  1.00  0.00     0.298 C 
ATOM     72  C   UNL A   1      36.371  20.439  25.146  1.00  0.00     0.115 C 
ATOM     73  N   UNL A   1      35.508  22.346  26.546  1.00  0.00    -0.323 N 
ATOM     74  C   UNL A   1      34.991  19.892  25.209  1.00  0.00    -0.006 A 
ATOM     75  C   UNL A   1      34.100  21.894  26.543  1.00  0.00     0.264 C 
ATOM     76  H   UNL A   1      35.507  23.365  26.607  1.00  0.00     0.347 HD
ATOM     77  H   UNL A   1      35.943  21.877  27.340  1.00  0.00     0.347 HD
ATOM     78  C   UNL A   1      33.988  20.577  25.862  1.00  0.00     0.083 A 
ATOM     79  C   UNL A   1      34.431  18.708  24.671  1.00  0.00     0.003 A 
ATOM     80  N   UNL A   1      32.861  19.805  25.822  1.00  0.00    -0.353 N 
ATOM     81  C   UNL A   1      33.096  18.673  25.078  1.00  0.00     0.046 A 
ATOM     82  C   UNL A   1      34.925  17.664  23.870  1.00  0.00     0.010 A 
ATOM     83  H   UNL A   1      32.008  20.027  26.262  1.00  0.00     0.166 HD
ATOM     84  C   UNL A   1      32.226  17.638  24.730  1.00  0.00     0.026 A 
ATOM     85  C   UNL A   1      34.060  16.632  23.491  1.00  0.00     0.001 A 
ATOM     86  C   UNL A   1      32.733  16.620  23.919  1.00  0.00     0.002 A 
BRANCH  75  87
ATOM     87  C   UNL A   1      33.094  22.946  26.071  1.00  0.00     0.041 A 
ATOM     88  C   UNL A   1      32.325  23.764  26.920  1.00  0.00     0.093 A 
ATOM     89  C   UNL A   1      32.888  23.453  24.750  1.00  0.00     0.009 A 
ATOM     90  N   UNL A   1      31.569  24.783  26.335  1.00  0.00    -0.361 N 
ATOM     91  C   UNL A   1      31.837  24.912  25.005  1.00  0.00     0.046 A 
ATOM     92  C   UNL A   1      33.557  23.116  23.048  1.00  0.00     0.011 A 
ATOM     93  H   UNL A   1      30.922  25.341  26.825  1.00  0.00     0.166 HD
ATOM     94  C   UNL A   1      31.399  26.019  23.547  1.00  0.00     0.026 A 
ATOM     95  C   UNL A   1      33.137  24.221  21.618  1.00  0.00     0.001 A 
ATOM     96  C   UNL A   1      32.076  25.668  21.866  1.00  0.00     0.002 A 
ENDBRANCH  75  87
ENDBRANCH  69  71
ENDBRANCH  68  69
ENDBRANCH  67  68
ENDBRANCH   1  67
TORSDOF 15
ENDMDL
MODEL 2
REMARK VINA RESULT:     -13.2      5.183     11.849
REMARK SMILES O=C(OCCOC(=O)[C@H]1Cc2c([nH]c3ccccc23)[C@H](c2c[nH]c3ccccc23)[NH2+]1)c1ccc(-c2c3nc(c(-c4ccc(S(=O)(=O)[O-])cc4)c4ccc([nH]4)c(-c4ccc(S(=O)(=O)[O-])cc4)c4nc(c(-c5ccc(S(=O)(=O)[O-])cc5)c5ccc2[nH]5)C=C4)C=C3)cc1
REMARK SMILES IDX 4 1 3 2 2 3 1 4 31 5 32 6 90 7 33 8 89 9 34 10 35 11 36 12
REMARK SMILES IDX 83 13 37 14 88 15 82 16 84 17 38 18 87 19 81 20 80 21 39 23
REMARK SMILES IDX 69 24 50 25 68 26 51 27 54 28 67 29 85 30 52 31 53 32 66 34
REMARK SMILES IDX 86 35 55 36 40 37 41 38 49 39 42 40 48 41 43 42 44 43 45 44
REMARK SMILES IDX 46 45 47 46 70 47 71 48 79 49 72 50 78 51 73 52 74 53 75 54
REMARK SMILES IDX 76 55 77 56 56 57 57 58 65 59 58 60 64 61 59 62 60 63 61 64
REMARK SMILES IDX 62 65 63 66 5 67 6 68 7 69 8 70 9 71 10 72 30 73 11 74 20 75
REMARK SMILES IDX 12 78 19 79 13 80 14 81 18 82 15 84 17 85 16 86 21 87 22 88
REMARK SMILES IDX 29 89 23 90 24 91 28 92 25 94 27 95 26 96
REMARK H PARENT 84 22 54 33 30 76 30 77 13 83 23 93
REMARK Flexibility Score: inf
ROOT
ATOM      1  C   UNL A   1      33.730  32.797  28.342  1.00  0.00     0.275 C 
ENDROOT
BRANCH   1   2
ATOM      2  O   UNL A   1      34.270  32.709  29.672  1.00  0.00    -0.458 OA
BRANCH   2   3
ATOM      3  C   UNL A   1      35.545  32.473  30.075  1.00  0.00     0.338 C 
ATOM      4  O   UNL A   1      36.075  33.260  30.856  1.00  0.00    -0.246 OA
BRANCH   3   5
ATOM      5  C   UNL A   1      36.391  31.390  29.484  1.00  0.00     0.060 A 
ATOM      6  C   UNL A   1      37.431  31.558  28.565  1.00  0.00     0.016 A 
ATOM      7  C   UNL A   1      36.125  30.093  29.933  1.00  0.00     0.016 A 
ATOM      8  C   UNL A   1      38.359  30.528  28.329  1.00  0.00     0.010 A 
ATOM      9  C   UNL A   1      37.055  29.073  29.722  1.00  0.00     0.010 A 
ATOM     10  C   UNL A   1      38.275  29.325  29.051  1.00  0.00    -0.014 A 
BRANCH  10  11
ATOM     11  C   UNL A   1      39.605  28.211  29.302  1.00  0.00     0.031 A 
ATOM     12  C   UNL A   1      40.147  29.154  30.819  1.00  0.00     0.074 A 
ATOM     13  C   UNL A   1      40.355  26.753  28.368  1.00  0.00     0.049 A 
ATOM     14  N   UNL A   1      41.152  28.873  31.634  1.00  0.00    -0.248 NA
ATOM     15  C   UNL A   1      39.511  30.414  31.287  1.00  0.00     0.031 C 
ATOM     16  C   UNL A   1      40.024  25.776  27.021  1.00  0.00     0.029 A 
ATOM     17  N   UNL A   1      41.644  25.923  28.527  1.00  0.00    -0.354 N 
ATOM     18  C   UNL A   1      41.266  29.779  32.625  1.00  0.00     0.074 A 
ATOM     19  C   UNL A   1      40.270  30.777  32.327  1.00  0.00     0.031 C 
ATOM     20  C   UNL A   1      40.884  24.747  26.857  1.00  0.00     0.029 A 
ATOM     21  C   UNL A   1      41.870  24.767  27.886  1.00  0.00     0.049 A 
ATOM     22  H   UNL A   1      42.342  26.260  29.134  1.00  0.00     0.167 HD
ATOM     23  C   UNL A   1      42.117  29.662  33.674  1.00  0.00     0.031 A 
ATOM     24  C   UNL A   1      42.863  23.920  28.219  1.00  0.00     0.031 A 
ATOM     25  C   UNL A   1      43.048  28.547  33.852  1.00  0.00     0.049 A 
ATOM     26  C   UNL A   1      43.608  24.121  29.562  1.00  0.00     0.074 A 
ATOM     27  C   UNL A   1      43.794  28.209  34.963  1.00  0.00     0.029 A 
ATOM     28  N   UNL A   1      43.384  27.590  32.880  1.00  0.00    -0.354 N 
ATOM     29  N   UNL A   1      43.561  25.111  30.447  1.00  0.00    -0.248 NA
ATOM     30  C   UNL A   1      44.486  23.024  29.964  1.00  0.00     0.031 C 
ATOM     31  C   UNL A   1      44.512  27.034  34.670  1.00  0.00     0.029 A 
ATOM     32  C   UNL A   1      44.197  26.580  33.386  1.00  0.00     0.049 A 
ATOM     33  H   UNL A   1      43.078  27.629  31.946  1.00  0.00     0.167 HD
ATOM     34  C   UNL A   1      44.361  24.739  31.541  1.00  0.00     0.074 A 
ATOM     35  C   UNL A   1      44.882  23.420  31.168  1.00  0.00     0.031 C 
ATOM     36  C   UNL A   1      44.660  25.332  32.748  1.00  0.00     0.031 A 
BRANCH  23  37
ATOM     37  C   UNL A   1      41.962  30.715  34.727  1.00  0.00    -0.014 A 
ATOM     38  C   UNL A   1      40.903  30.628  35.653  1.00  0.00     0.010 A 
ATOM     39  C   UNL A   1      42.822  31.823  34.770  1.00  0.00     0.010 A 
ATOM     40  C   UNL A   1      40.650  31.671  36.542  1.00  0.00     0.020 A 
ATOM     41  C   UNL A   1      42.589  32.859  35.682  1.00  0.00     0.020 A 
ATOM     42  C   UNL A   1      41.485  32.789  36.539  1.00  0.00     0.054 A 
BRANCH  42  43
ATOM     43  S   UNL A   1      41.098  34.151  37.671  1.00  0.00     0.124 S 
ATOM     44  O   UNL A   1      40.023  34.837  36.958  1.00  0.00    -0.237 OA
ATOM     45  O   UNL A   1      40.696  33.450  38.887  1.00  0.00    -0.237 OA
ATOM     46  O   UNL A   1      42.355  34.889  37.766  1.00  0.00    -0.744 OA
ENDBRANCH  42  43
ENDBRANCH  23  37
BRANCH  24  47
ATOM     47  C   UNL A   1      43.143  22.811  27.281  1.00  0.00    -0.014 A 
ATOM     48  C   UNL A   1      44.227  22.835  26.390  1.00  0.00     0.010 A 
ATOM     49  C   UNL A   1      42.357  21.646  27.375  1.00  0.00     0.010 A 
ATOM     50  C   UNL A   1      44.520  21.709  25.612  1.00  0.00     0.020 A 
ATOM     51  C   UNL A   1      42.660  20.515  26.618  1.00  0.00     0.020 A 
ATOM     52  C   UNL A   1      43.740  20.553  25.738  1.00  0.00     0.054 A 
BRANCH  52  53
ATOM     53  S   UNL A   1      44.200  19.071  24.798  1.00  0.00     0.124 S 
ATOM     54  O   UNL A   1      45.515  18.760  25.347  1.00  0.00    -0.237 OA
ATOM     55  O   UNL A   1      43.131  18.136  25.143  1.00  0.00    -0.237 OA
ATOM     56  O   UNL A   1      44.191  19.529  23.411  1.00  0.00    -0.744 OA
ENDBRANCH  52  53
ENDBRANCH  24  47
BRANCH  36  57
ATOM     57  C   UNL A   1      45.616  24.508  33.615  1.00  0.00    -0.014 A 
ATOM     58  C   UNL A   1      45.132  23.485  34.454  1.00  0.00     0.010 A 
ATOM     59  C   UNL A   1      47.005  24.751  33.570  1.00  0.00     0.010 A 
ATOM     60  C   UNL A   1      46.010  22.752  35.258  1.00  0.00     0.020 A 
ATOM     61  C   UNL A   1      47.889  23.991  34.345  1.00  0.00     0.020 A 
ATOM     62  C   UNL A   1      47.384  23.009  35.200  1.00  0.00     0.054 A 
BRANCH  62  63
ATOM     63  S   UNL A   1      48.505  22.017  36.227  1.00  0.00     0.124 S 
ATOM     64  O   UNL A   1      48.455  20.719  35.562  1.00  0.00    -0.237 OA
ATOM     65  O   UNL A   1      49.771  22.736  36.108  1.00  0.00    -0.237 OA
ATOM     66  O   UNL A   1      47.891  22.064  37.552  1.00  0.00    -0.744 OA
ENDBRANCH  62  63
ENDBRANCH  36  57
ENDBRANCH  10  11
ENDBRANCH   3   5
ENDBRANCH   2   3
ENDBRANCH   1   2
BRANCH   1  67
ATOM     67  C   UNL A   1      33.976  31.590  27.438  1.00  0.00     0.274 C 
BRANCH  67  68
ATOM     68  O   UNL A   1      32.932  30.610  27.489  1.00  0.00    -0.458 OA
BRANCH  68  69
ATOM     69  C   UNL A   1      33.253  29.359  27.028  1.00  0.00     0.365 C 
ATOM     70  O   UNL A   1      34.132  28.657  27.513  1.00  0.00    -0.245 OA
BRANCH  69  71
ATOM     71  C   UNL A   1      32.453  29.015  25.753  1.00  0.00     0.298 C 
ATOM     72  C   UNL A   1      31.506  30.191  25.434  1.00  0.00     0.115 C 
ATOM     73  N   UNL A   1      33.378  28.712  24.628  1.00  0.00    -0.323 N 
ATOM     74  C   UNL A   1      30.890  29.980  24.100  1.00  0.00    -0.006 A 
ATOM     75  C   UNL A   1      32.750  28.389  23.330  1.00  0.00     0.264 C 
ATOM     76  H   UNL A   1      33.949  27.913  24.904  1.00  0.00     0.347 HD
ATOM     77  H   UNL A   1      33.904  29.572  24.469  1.00  0.00     0.347 HD
ATOM     78  C   UNL A   1      31.490  29.162  23.164  1.00  0.00     0.083 A 
ATOM     79  C   UNL A   1      29.690  30.476  23.536  1.00  0.00     0.003 A 
ATOM     80  N   UNL A   1      30.747  29.220  22.020  1.00  0.00    -0.353 N 
ATOM     81  C   UNL A   1      29.628  29.992  22.228  1.00  0.00     0.046 A 
ATOM     82  C   UNL A   1      28.642  31.284  24.012  1.00  0.00     0.010 A 
ATOM     83  H   UNL A   1      30.978  28.775  21.173  1.00  0.00     0.166 HD
ATOM     84  C   UNL A   1      28.570  30.282  21.363  1.00  0.00     0.026 A 
ATOM     85  C   UNL A   1      27.563  31.564  23.166  1.00  0.00     0.001 A 
ATOM     86  C   UNL A   1      27.533  31.072  21.863  1.00  0.00     0.002 A 
BRANCH  75  87
ATOM     87  C   UNL A   1      32.624  26.892  23.037  1.00  0.00     0.041 A 
ATOM     88  C   UNL A   1      32.133  26.344  21.837  1.00  0.00     0.093 A 
ATOM     89  C   UNL A   1      33.150  25.791  23.781  1.00  0.00     0.009 A 
ATOM     90  N   UNL A   1      32.229  24.960  21.664  1.00  0.00    -0.361 N 
ATOM     91  C   UNL A   1      32.950  24.375  22.662  1.00  0.00     0.046 A 
ATOM     92  C   UNL A   1      34.084  25.551  25.372  1.00  0.00     0.011 A 
ATOM     93  H   UNL A   1      31.825  24.469  20.913  1.00  0.00     0.166 HD
ATOM     94  C   UNL A   1      33.634  22.690  23.148  1.00  0.00     0.026 A 
ATOM     95  C   UNL A   1      34.773  23.893  25.838  1.00  0.00     0.001 A 
ATOM     96  C   UNL A   1      34.561  22.475  24.730  1.00  0.00     0.002 A 
ENDBRANCH  75  87
ENDBRANCH  69  71
ENDBRANCH  68  69
ENDBRANCH  67  68
ENDBRANCH   1  67
TORSDOF 15
ENDMDL
MODEL 3
REMARK VINA RESULT:     -12.8      4.082      4.623
REMARK SMILES O=C(OCCOC(=O)[C@H]1Cc2c([nH]c3ccccc23)[C@H](c2c[nH]c3ccccc23)[NH2+]1)c1ccc(-c2c3nc(c(-c4ccc(S(=O)(=O)[O-])cc4)c4ccc([nH]4)c(-c4ccc(S(=O)(=O)[O-])cc4)c4nc(c(-c5ccc(S(=O)(=O)[O-])cc5)c5ccc2[nH]5)C=C4)C=C3)cc1
REMARK SMILES IDX 4 1 3 2 2 3 1 4 31 5 32 6 90 7 33 8 89 9 34 10 35 11 36 12
REMARK SMILES IDX 83 13 37 14 88 15 82 16 84 17 38 18 87 19 81 20 80 21 39 23
REMARK SMILES IDX 69 24 50 25 68 26 51 27 54 28 67 29 85 30 52 31 53 32 66 34
REMARK SMILES IDX 86 35 55 36 40 37 41 38 49 39 42 40 48 41 43 42 44 43 45 44
REMARK SMILES IDX 46 45 47 46 70 47 71 48 79 49 72 50 78 51 73 52 74 53 75 54
REMARK SMILES IDX 76 55 77 56 56 57 57 58 65 59 58 60 64 61 59 62 60 63 61 64
REMARK SMILES IDX 62 65 63 66 5 67 6 68 7 69 8 70 9 71 10 72 30 73 11 74 20 75
REMARK SMILES IDX 12 78 19 79 13 80 14 81 18 82 15 84 17 85 16 86 21 87 22 88
REMARK SMILES IDX 29 89 23 90 24 91 28 92 25 94 27 95 26 96
REMARK H PARENT 84 22 54 33 30 76 30 77 13 83 23 93
REMARK Flexibility Score: inf
ROOT
ATOM      1  C   UNL A   1      40.843  21.244  26.026  1.00  0.00     0.275 C 
ENDROOT
BRANCH   1   2
ATOM      2  O   UNL A   1      42.190  21.743  26.077  1.00  0.00    -0.458 OA
BRANCH   2   3
ATOM      3  C   UNL A   1      42.688  22.938  25.668  1.00  0.00     0.338 C 
ATOM      4  O   UNL A   1      43.119  23.039  24.522  1.00  0.00    -0.246 OA
BRANCH   3   5
ATOM      5  C   UNL A   1      42.887  24.091  26.601  1.00  0.00     0.060 A 
ATOM      6  C   UNL A   1      43.284  25.384  26.247  1.00  0.00     0.016 A 
ATOM      7  C   UNL A   1      42.613  23.841  27.948  1.00  0.00     0.016 A 
ATOM      8  C   UNL A   1      43.126  26.457  27.143  1.00  0.00     0.010 A 
ATOM      9  C   UNL A   1      42.430  24.904  28.835  1.00  0.00     0.010 A 
ATOM     10  C   UNL A   1      42.525  26.246  28.396  1.00  0.00    -0.014 A 
BRANCH  10  11
ATOM     11  C   UNL A   1      41.757  27.491  29.362  1.00  0.00     0.031 A 
ATOM     12  C   UNL A   1      42.966  27.198  30.754  1.00  0.00     0.074 A 
ATOM     13  C   UNL A   1      40.229  28.586  29.206  1.00  0.00     0.049 A 
ATOM     14  N   UNL A   1      43.044  27.838  31.910  1.00  0.00    -0.248 NA
ATOM     15  C   UNL A   1      44.004  26.133  30.745  1.00  0.00     0.031 C 
ATOM     16  C   UNL A   1      39.043  28.991  28.064  1.00  0.00     0.029 A 
ATOM     17  N   UNL A   1      39.482  29.532  30.167  1.00  0.00    -0.354 N 
ATOM     18  C   UNL A   1      44.033  27.354  32.689  1.00  0.00     0.074 A 
ATOM     19  C   UNL A   1      44.560  26.231  31.957  1.00  0.00     0.031 C 
ATOM     20  C   UNL A   1      38.199  29.968  28.460  1.00  0.00     0.029 A 
ATOM     21  C   UNL A   1      38.540  30.402  29.775  1.00  0.00     0.049 A 
ATOM     22  H   UNL A   1      39.708  29.495  31.125  1.00  0.00     0.167 HD
ATOM     23  C   UNL A   1      44.424  27.911  33.862  1.00  0.00     0.031 A 
ATOM     24  C   UNL A   1      38.083  31.398  30.558  1.00  0.00     0.031 A 
ATOM     25  C   UNL A   1      43.801  29.095  34.453  1.00  0.00     0.049 A 
ATOM     26  C   UNL A   1      38.851  31.752  31.855  1.00  0.00     0.074 A 
ATOM     27  C   UNL A   1      44.239  29.870  35.509  1.00  0.00     0.029 A 
ATOM     28  N   UNL A   1      42.585  29.674  34.055  1.00  0.00    -0.354 N 
ATOM     29  N   UNL A   1      39.858  31.139  32.469  1.00  0.00    -0.248 NA
ATOM     30  C   UNL A   1      38.444  32.995  32.508  1.00  0.00     0.031 C 
ATOM     31  C   UNL A   1      43.325  30.925  35.689  1.00  0.00     0.029 A 
ATOM     32  C   UNL A   1      42.318  30.866  34.721  1.00  0.00     0.049 A 
ATOM     33  H   UNL A   1      41.987  29.280  33.379  1.00  0.00     0.167 HD
ATOM     34  C   UNL A   1      40.245  31.943  33.554  1.00  0.00     0.074 A 
ATOM     35  C   UNL A   1      39.328  33.087  33.493  1.00  0.00     0.031 C 
ATOM     36  C   UNL A   1      41.233  31.845  34.509  1.00  0.00     0.031 A 
BRANCH  23  37
ATOM     37  C   UNL A   1      45.638  27.288  34.476  1.00  0.00    -0.014 A 
ATOM     38  C   UNL A   1      46.921  27.706  34.068  1.00  0.00     0.010 A 
ATOM     39  C   UNL A   1      45.521  26.249  35.412  1.00  0.00     0.010 A 
ATOM     40  C   UNL A   1      48.061  27.038  34.512  1.00  0.00     0.020 A 
ATOM     41  C   UNL A   1      46.665  25.595  35.884  1.00  0.00     0.020 A 
ATOM     42  C   UNL A   1      47.924  25.974  35.406  1.00  0.00     0.054 A 
BRANCH  42  43
ATOM     43  S   UNL A   1      49.421  25.093  35.924  1.00  0.00     0.124 S 
ATOM     44  O   UNL A   1      50.462  25.821  35.202  1.00  0.00    -0.237 OA
ATOM     45  O   UNL A   1      49.415  25.280  37.372  1.00  0.00    -0.237 OA
ATOM     46  O   UNL A   1      49.189  23.724  35.472  1.00  0.00    -0.744 OA
ENDBRANCH  42  43
ENDBRANCH  23  37
BRANCH  24  47
ATOM     47  C   UNL A   1      36.882  32.124  30.089  1.00  0.00    -0.014 A 
ATOM     48  C   UNL A   1      35.601  31.871  30.602  1.00  0.00     0.010 A 
ATOM     49  C   UNL A   1      37.061  33.185  29.179  1.00  0.00     0.010 A 
ATOM     50  C   UNL A   1      34.520  32.671  30.214  1.00  0.00     0.020 A 
ATOM     51  C   UNL A   1      35.990  33.998  28.807  1.00  0.00     0.020 A 
ATOM     52  C   UNL A   1      34.724  33.735  29.326  1.00  0.00     0.054 A 
BRANCH  52  53
ATOM     53  S   UNL A   1      33.331  34.822  28.918  1.00  0.00     0.124 S 
ATOM     54  O   UNL A   1      34.011  36.023  28.444  1.00  0.00    -0.237 OA
ATOM     55  O   UNL A   1      32.618  34.053  27.899  1.00  0.00    -0.237 OA
ATOM     56  O   UNL A   1      32.622  34.963  30.188  1.00  0.00    -0.744 OA
ENDBRANCH  52  53
ENDBRANCH  24  47
BRANCH  36  57
ATOM     57  C   UNL A   1      41.238  33.004  35.509  1.00  0.00    -0.014 A 
ATOM     58  C   UNL A   1      41.852  34.231  35.192  1.00  0.00     0.010 A 
ATOM     59  C   UNL A   1      40.604  32.865  36.761  1.00  0.00     0.010 A 
ATOM     60  C   UNL A   1      41.870  35.277  36.119  1.00  0.00     0.020 A 
ATOM     61  C   UNL A   1      40.586  33.925  37.675  1.00  0.00     0.020 A 
ATOM     62  C   UNL A   1      41.237  35.119  37.356  1.00  0.00     0.054 A 
BRANCH  62  63
ATOM     63  S   UNL A   1      41.243  36.506  38.527  1.00  0.00     0.124 S 
ATOM     64  O   UNL A   1      39.975  37.164  38.223  1.00  0.00    -0.237 OA
ATOM     65  O   UNL A   1      41.307  35.834  39.822  1.00  0.00    -0.237 OA
ATOM     66  O   UNL A   1      42.440  37.260  38.163  1.00  0.00    -0.744 OA
ENDBRANCH  62  63
ENDBRANCH  36  57
ENDBRANCH  10  11
ENDBRANCH   3   5
ENDBRANCH   2   3
ENDBRANCH   1   2
BRANCH   1  67
ATOM     67  C   UNL A   1      39.739  22.268  26.287  1.00  0.00     0.274 C 
BRANCH  67  68
ATOM     68  O   UNL A   1      38.434  21.819  25.904  1.00  0.00    -0.458 OA
BRANCH  68  69
ATOM     69  C   UNL A   1      37.490  22.794  25.709  1.00  0.00     0.365 C 
ATOM     70  O   UNL A   1      37.737  23.995  25.723  1.00  0.00    -0.245 OA
BRANCH  69  71
ATOM     71  C   UNL A   1      36.076  22.185  25.599  1.00  0.00     0.298 C 
ATOM     72  C   UNL A   1      36.211  20.686  25.263  1.00  0.00     0.115 C 
ATOM     73  N   UNL A   1      35.313  22.419  26.855  1.00  0.00    -0.323 N 
ATOM     74  C   UNL A   1      34.879  20.035  25.368  1.00  0.00    -0.006 A 
ATOM     75  C   UNL A   1      33.943  21.865  26.903  1.00  0.00     0.264 C 
ATOM     76  H   UNL A   1      35.245  23.427  26.993  1.00  0.00     0.347 HD
ATOM     77  H   UNL A   1      35.831  21.927  27.582  1.00  0.00     0.347 HD
ATOM     78  C   UNL A   1      33.876  20.595  26.132  1.00  0.00     0.083 A 
ATOM     79  C   UNL A   1      34.368  18.855  24.777  1.00  0.00     0.003 A 
ATOM     80  N   UNL A   1      32.806  19.748  26.103  1.00  0.00    -0.353 N 
ATOM     81  C   UNL A   1      33.068  18.693  25.261  1.00  0.00     0.046 A 
ATOM     82  C   UNL A   1      34.878  17.911  23.869  1.00  0.00     0.010 A 
ATOM     83  H   UNL A   1      31.971  19.874  26.609  1.00  0.00     0.166 HD
ATOM     84  C   UNL A   1      32.250  17.623  24.888  1.00  0.00     0.026 A 
ATOM     85  C   UNL A   1      34.063  16.847  23.467  1.00  0.00     0.001 A 
ATOM     86  C   UNL A   1      32.771  16.707  23.973  1.00  0.00     0.002 A 
BRANCH  75  87
ATOM     87  C   UNL A   1      32.837  22.871  26.576  1.00  0.00     0.041 A 
ATOM     88  C   UNL A   1      31.534  22.839  27.109  1.00  0.00     0.093 A 
ATOM     89  C   UNL A   1      32.940  24.112  25.874  1.00  0.00     0.009 A 
ATOM     90  N   UNL A   1      30.690  23.918  26.834  1.00  0.00    -0.361 N 
ATOM     91  C   UNL A   1      31.350  24.927  26.198  1.00  0.00     0.046 A 
ATOM     92  C   UNL A   1      34.270  25.062  24.985  1.00  0.00     0.011 A 
ATOM     93  H   UNL A   1      29.735  23.945  27.071  1.00  0.00     0.166 HD
ATOM     94  C   UNL A   1      31.054  26.683  25.588  1.00  0.00     0.026 A 
ATOM     95  C   UNL A   1      33.979  26.799  24.402  1.00  0.00     0.001 A 
ATOM     96  C   UNL A   1      32.388  27.609  24.710  1.00  0.00     0.002 A 
ENDBRANCH  75  87
ENDBRANCH  69  71
ENDBRANCH  68  69
ENDBRANCH  67  68
ENDBRANCH   1  67
TORSDOF 15
ENDMDL
