MODEL 1
REMARK VINA RESULT:     -13.2      0.000      0.000
REMARK SMILES Cc1ccc(S(=O)(=O)n2cc(C(=O)C(=O)N[C@@H](Cc3cnc[nH]3)C(=O)OCCOC(=O)c3ccc(-c4c5nc(c(-c6ccc(S(=O)(=O)[O-])cc6)c6ccc([nH]6)c(-c6ccc(S(=O)(=O)[O-])cc6)c6nc(c(-c7ccc(S(=O)(=O)[O-])cc7)c7ccc4[nH]7)C=C6)C=C5)cc3)c3ccccc32)cc1
REMARK SMILES IDX 27 1 26 2 24 3 25 4 17 5 16 6 14 7 15 8 12 10 13 11 11 12
REMARK SMILES IDX 9 13 10 14 97 15 92 16 96 17 93 18 95 19 94 20 6 21 7 22
REMARK SMILES IDX 8 23 5 24 1 25 2 26 3 27 99 28 4 29 98 30 18 31 19 32 20 33
REMARK SMILES IDX 23 34 21 35 22 36 28 38 29 39 30 40 31 41 32 42 33 43 91 44
REMARK SMILES IDX 34 45 90 46 35 47 36 48 37 49 84 50 38 51 89 52 83 53 85 54
REMARK SMILES IDX 39 55 88 56 82 57 81 58 40 60 70 61 51 62 69 63 52 64 55 65
REMARK SMILES IDX 68 66 86 67 53 68 54 69 67 71 87 72 56 73 41 74 42 75 50 76
REMARK SMILES IDX 43 77 49 78 44 79 45 80 46 81 47 82 48 83 71 84 72 85 80 86
REMARK SMILES IDX 73 87 79 88 74 89 75 90 76 91 77 92 78 93 57 94 58 95 66 96
REMARK SMILES IDX 59 97 65 98 60 99 61 100 62 101 63 102 64 103
REMARK H PARENT 16 9 23 37 85 59 55 70
REMARK Flexibility Score: inf
ROOT
ATOM      1  C   UNL A   1      37.707  32.414  30.075  1.00  0.00     0.274 C 
ENDROOT
BRANCH   1   2
ATOM      2  O   UNL A   1      36.691  31.545  29.559  1.00  0.00    -0.461 OA
BRANCH   2   3
ATOM      3  C   UNL A   1      35.302  31.952  29.753  1.00  0.00     0.329 C 
ATOM      4  O   UNL A   1      35.120  31.807  30.988  1.00  0.00    -0.250 OA
BRANCH   3   5
ATOM      5  C   UNL A   1      34.024  32.721  28.133  1.00  0.00     0.198 C 
BRANCH   5   6
ATOM      6  N   UNL A   1      32.795  31.926  27.269  1.00  0.00    -0.335 N 
ATOM      7  C   UNL A   1      32.587  30.682  26.699  1.00  0.00     0.293 C 
ATOM      8  O   UNL A   1      31.574  30.555  26.010  1.00  0.00    -0.265 OA
ATOM      9  H   UNL A   1      32.016  32.513  27.137  1.00  0.00     0.164 HD
BRANCH   7  10
ATOM     10  C   UNL A   1      33.557  29.477  26.839  1.00  0.00     0.252 C 
ATOM     11  O   UNL A   1      34.603  29.657  27.458  1.00  0.00    -0.283 OA
BRANCH  10  12
ATOM     12  C   UNL A   1      33.310  28.195  26.113  1.00  0.00     0.054 A 
ATOM     13  N   UNL A   1      32.594  26.118  25.627  1.00  0.00    -0.240 N 
ATOM     14  C   UNL A   1      32.816  27.010  26.648  1.00  0.00     0.117 A 
ATOM     15  C   UNL A   1      32.939  26.660  24.409  1.00  0.00     0.065 A 
ATOM     16  C   UNL A   1      33.470  27.931  24.695  1.00  0.00     0.012 A 
ATOM     17  C   UNL A   1      32.856  26.153  23.096  1.00  0.00     0.028 A 
ATOM     18  C   UNL A   1      34.004  28.672  23.617  1.00  0.00     0.011 A 
ATOM     19  C   UNL A   1      33.394  26.914  22.058  1.00  0.00     0.002 A 
ATOM     20  C   UNL A   1      33.977  28.149  22.316  1.00  0.00     0.001 A 
BRANCH  13  21
ATOM     21  S   UNL A   1      31.856  24.593  25.839  1.00  0.00     0.268 S 
ATOM     22  O   UNL A   1      30.940  24.450  24.719  1.00  0.00    -0.201 OA
ATOM     23  O   UNL A   1      31.383  24.552  27.210  1.00  0.00    -0.201 OA
BRANCH  21  24
ATOM     24  C   UNL A   1      33.070  23.304  25.678  1.00  0.00     0.088 A 
ATOM     25  C   UNL A   1      36.147  20.364  25.004  1.00  0.00     0.044 C 
ATOM     26  C   UNL A   1      35.068  21.378  25.242  1.00  0.00    -0.051 A 
ATOM     27  C   UNL A   1      34.420  21.979  24.157  1.00  0.00     0.005 A 
ATOM     28  C   UNL A   1      34.687  21.734  26.543  1.00  0.00     0.005 A 
ATOM     29  C   UNL A   1      33.431  22.941  24.372  1.00  0.00     0.022 A 
ATOM     30  C   UNL A   1      33.681  22.684  26.767  1.00  0.00     0.022 A 
ENDBRANCH  21  24
ENDBRANCH  13  21
ENDBRANCH  10  12
ENDBRANCH   7  10
ENDBRANCH   5   6
BRANCH   5  31
ATOM     31  C   UNL A   1      33.263  34.310  27.842  1.00  0.00     0.092 C 
BRANCH  31  32
ATOM     32  C   UNL A   1      33.292  35.323  28.965  1.00  0.00     0.037 A 
ATOM     33  C   UNL A   1      32.630  36.511  29.182  1.00  0.00     0.134 A 
ATOM     34  N   UNL A   1      34.070  35.177  30.098  1.00  0.00    -0.348 N 
ATOM     35  N   UNL A   1      32.796  36.935  30.479  1.00  0.00    -0.245 NA
ATOM     36  C   UNL A   1      33.617  36.071  31.024  1.00  0.00     0.196 A 
ATOM     37  H   UNL A   1      34.813  34.544  30.215  1.00  0.00     0.167 HD
ENDBRANCH  31  32
ENDBRANCH   5  31
ENDBRANCH   3   5
ENDBRANCH   2   3
ENDBRANCH   1   2
BRANCH   1  38
ATOM     38  C   UNL A   1      38.552  31.646  31.097  1.00  0.00     0.275 C 
BRANCH  38  39
ATOM     39  O   UNL A   1      38.291  30.223  31.248  1.00  0.00    -0.458 OA
BRANCH  39  40
ATOM     40  C   UNL A   1      38.838  29.254  30.466  1.00  0.00     0.338 C 
ATOM     41  O   UNL A   1      38.651  28.055  30.590  1.00  0.00    -0.246 OA
BRANCH  40  42
ATOM     42  C   UNL A   1      39.850  29.757  29.535  1.00  0.00     0.060 A 
ATOM     43  C   UNL A   1      39.879  29.096  27.857  1.00  0.00     0.016 A 
ATOM     44  C   UNL A   1      41.332  30.474  30.244  1.00  0.00     0.016 A 
ATOM     45  C   UNL A   1      41.461  28.934  26.960  1.00  0.00     0.010 A 
ATOM     46  C   UNL A   1      42.895  30.264  29.368  1.00  0.00     0.010 A 
ATOM     47  C   UNL A   1      42.964  29.454  27.760  1.00  0.00    -0.014 A 
BRANCH  47  48
ATOM     48  C   UNL A   1      44.311  28.885  27.596  1.00  0.00     0.031 A 
ATOM     49  C   UNL A   1      44.369  27.417  27.527  1.00  0.00     0.074 A 
ATOM     50  C   UNL A   1      45.250  29.644  26.992  1.00  0.00     0.049 A 
ATOM     51  N   UNL A   1      44.586  26.734  26.450  1.00  0.00    -0.248 NA
ATOM     52  C   UNL A   1      43.949  26.613  28.681  1.00  0.00     0.031 C 
ATOM     53  C   UNL A   1      46.415  29.227  26.221  1.00  0.00     0.029 A 
ATOM     54  N   UNL A   1      45.461  30.995  27.164  1.00  0.00    -0.354 N 
ATOM     55  C   UNL A   1      44.535  25.401  26.807  1.00  0.00     0.074 A 
ATOM     56  C   UNL A   1      43.945  25.388  28.146  1.00  0.00     0.031 C 
ATOM     57  C   UNL A   1      47.336  30.210  26.244  1.00  0.00     0.029 A 
ATOM     58  C   UNL A   1      46.832  31.266  27.111  1.00  0.00     0.049 A 
ATOM     59  H   UNL A   1      44.754  31.667  27.302  1.00  0.00     0.167 HD
ATOM     60  C   UNL A   1      45.605  24.591  26.596  1.00  0.00     0.031 A 
ATOM     61  C   UNL A   1      47.424  31.658  28.283  1.00  0.00     0.031 A 
ATOM     62  C   UNL A   1      46.871  25.281  26.680  1.00  0.00     0.049 A 
ATOM     63  C   UNL A   1      48.115  30.484  28.973  1.00  0.00     0.074 A 
ATOM     64  C   UNL A   1      47.732  25.858  25.769  1.00  0.00     0.029 A 
ATOM     65  N   UNL A   1      47.289  25.693  27.934  1.00  0.00    -0.354 N 
ATOM     66  N   UNL A   1      48.006  29.240  28.580  1.00  0.00    -0.248 NA
ATOM     67  C   UNL A   1      48.978  30.603  30.147  1.00  0.00     0.031 C 
ATOM     68  C   UNL A   1      48.643  26.679  26.501  1.00  0.00     0.029 A 
ATOM     69  C   UNL A   1      48.361  26.557  27.853  1.00  0.00     0.049 A 
ATOM     70  H   UNL A   1      46.872  25.406  28.778  1.00  0.00     0.167 HD
ATOM     71  C   UNL A   1      48.783  28.425  29.348  1.00  0.00     0.074 A 
ATOM     72  C   UNL A   1      49.311  29.316  30.369  1.00  0.00     0.031 C 
ATOM     73  C   UNL A   1      48.955  27.095  29.074  1.00  0.00     0.031 A 
BRANCH  60  74
ATOM     74  C   UNL A   1      45.332  23.241  26.002  1.00  0.00    -0.014 A 
ATOM     75  C   UNL A   1      44.164  22.552  26.364  1.00  0.00     0.010 A 
ATOM     76  C   UNL A   1      46.243  22.576  25.146  1.00  0.00     0.010 A 
ATOM     77  C   UNL A   1      43.939  21.234  25.945  1.00  0.00     0.020 A 
ATOM     78  C   UNL A   1      46.023  21.259  24.717  1.00  0.00     0.020 A 
ATOM     79  C   UNL A   1      44.878  20.589  25.139  1.00  0.00     0.054 A 
BRANCH  79  80
ATOM     80  S   UNL A   1      44.587  18.856  24.688  1.00  0.00     0.124 S 
ATOM     81  O   UNL A   1      43.182  18.675  25.048  1.00  0.00    -0.237 OA
ATOM     82  O   UNL A   1      44.877  18.849  23.258  1.00  0.00    -0.237 OA
ATOM     83  O   UNL A   1      45.537  18.116  25.517  1.00  0.00    -0.744 OA
ENDBRANCH  79  80
ENDBRANCH  60  74
BRANCH  61  84
ATOM     84  C   UNL A   1      46.617  32.764  28.913  1.00  0.00    -0.014 A 
ATOM     85  C   UNL A   1      46.389  33.901  28.094  1.00  0.00     0.010 A 
ATOM     86  C   UNL A   1      45.729  32.529  29.975  1.00  0.00     0.010 A 
ATOM     87  C   UNL A   1      45.203  34.639  28.190  1.00  0.00     0.020 A 
ATOM     88  C   UNL A   1      44.564  33.314  30.110  1.00  0.00     0.020 A 
ATOM     89  C   UNL A   1      44.275  34.315  29.175  1.00  0.00     0.054 A 
BRANCH  89  90
ATOM     90  S   UNL A   1      42.650  35.140  29.133  1.00  0.00     0.124 S 
ATOM     91  O   UNL A   1      42.463  35.385  27.706  1.00  0.00    -0.237 OA
ATOM     92  O   UNL A   1      41.752  34.143  29.711  1.00  0.00    -0.237 OA
ATOM     93  O   UNL A   1      42.849  36.339  29.946  1.00  0.00    -0.744 OA
ENDBRANCH  89  90
ENDBRANCH  61  84
BRANCH  73  94
ATOM     94  C   UNL A   1      49.749  26.178  29.962  1.00  0.00    -0.014 A 
ATOM     95  C   UNL A   1      51.105  25.903  29.732  1.00  0.00     0.010 A 
ATOM     96  C   UNL A   1      49.130  25.512  31.043  1.00  0.00     0.010 A 
ATOM     97  C   UNL A   1      51.845  25.130  30.630  1.00  0.00     0.020 A 
ATOM     98  C   UNL A   1      49.848  24.701  31.923  1.00  0.00     0.020 A 
ATOM     99  C   UNL A   1      51.214  24.551  31.733  1.00  0.00     0.054 A 
BRANCH  99 100
ATOM    100  S   UNL A   1      52.200  23.576  32.889  1.00  0.00     0.124 S 
ATOM    101  O   UNL A   1      53.557  24.037  32.611  1.00  0.00    -0.237 OA
ATOM    102  O   UNL A   1      51.646  23.992  34.176  1.00  0.00    -0.237 OA
ATOM    103  O   UNL A   1      51.920  22.196  32.505  1.00  0.00    -0.744 OA
ENDBRANCH  99 100
ENDBRANCH  73  94
ENDBRANCH  47  48
ENDBRANCH  40  42
ENDBRANCH  39  40
ENDBRANCH  38  39
ENDBRANCH   1  38
TORSDOF 21
ENDMDL
MODEL 2
REMARK VINA RESULT:     -12.3      5.719     11.877
REMARK SMILES Cc1ccc(S(=O)(=O)n2cc(C(=O)C(=O)N[C@@H](Cc3cnc[nH]3)C(=O)OCCOC(=O)c3ccc(-c4c5nc(c(-c6ccc(S(=O)(=O)[O-])cc6)c6ccc([nH]6)c(-c6ccc(S(=O)(=O)[O-])cc6)c6nc(c(-c7ccc(S(=O)(=O)[O-])cc7)c7ccc4[nH]7)C=C6)C=C5)cc3)c3ccccc32)cc1
REMARK SMILES IDX 27 1 26 2 24 3 25 4 17 5 16 6 14 7 15 8 12 10 13 11 11 12
REMARK SMILES IDX 9 13 10 14 97 15 92 16 96 17 93 18 95 19 94 20 6 21 7 22
REMARK SMILES IDX 8 23 5 24 1 25 2 26 3 27 99 28 4 29 98 30 18 31 19 32 20 33
REMARK SMILES IDX 23 34 21 35 22 36 28 38 29 39 30 40 31 41 32 42 33 43 91 44
REMARK SMILES IDX 34 45 90 46 35 47 36 48 37 49 84 50 38 51 89 52 83 53 85 54
REMARK SMILES IDX 39 55 88 56 82 57 81 58 40 60 70 61 51 62 69 63 52 64 55 65
REMARK SMILES IDX 68 66 86 67 53 68 54 69 67 71 87 72 56 73 41 74 42 75 50 76
REMARK SMILES IDX 43 77 49 78 44 79 45 80 46 81 47 82 48 83 71 84 72 85 80 86
REMARK SMILES IDX 73 87 79 88 74 89 75 90 76 91 77 92 78 93 57 94 58 95 66 96
REMARK SMILES IDX 59 97 65 98 60 99 61 100 62 101 63 102 64 103
REMARK H PARENT 16 9 23 37 85 59 55 70
REMARK Flexibility Score: inf
ROOT
ATOM      1  C   UNL A   1      45.661  30.490  29.762  1.00  0.00     0.274 C 
ENDROOT
BRANCH   1   2
ATOM      2  O   UNL A   1      44.639  30.984  28.888  1.00  0.00    -0.461 OA
BRANCH   2   3
ATOM      3  C   UNL A   1      43.257  30.874  29.348  1.00  0.00     0.329 C 
ATOM      4  O   UNL A   1      42.834  32.056  29.302  1.00  0.00    -0.250 OA
BRANCH   3   5
ATOM      5  C   UNL A   1      42.293  28.960  29.854  1.00  0.00     0.198 C 
BRANCH   5   6
ATOM      6  N   UNL A   1      40.859  28.678  30.722  1.00  0.00    -0.335 N 
ATOM      7  C   UNL A   1      39.499  28.857  30.535  1.00  0.00     0.293 C 
ATOM      8  O   UNL A   1      38.777  28.646  31.510  1.00  0.00    -0.265 OA
ATOM      9  H   UNL A   1      41.048  28.277  31.601  1.00  0.00     0.164 HD
BRANCH   7  10
ATOM     10  C   UNL A   1      38.849  29.341  29.210  1.00  0.00     0.252 C 
ATOM     11  O   UNL A   1      39.042  28.665  28.201  1.00  0.00    -0.283 OA
BRANCH  10  12
ATOM     12  C   UNL A   1      38.153  30.660  29.124  1.00  0.00     0.054 A 
ATOM     13  N   UNL A   1      36.557  32.219  28.836  1.00  0.00    -0.240 N 
ATOM     14  C   UNL A   1      36.894  30.911  28.589  1.00  0.00     0.117 A 
ATOM     15  C   UNL A   1      37.561  32.872  29.514  1.00  0.00     0.065 A 
ATOM     16  C   UNL A   1      38.608  31.940  29.632  1.00  0.00     0.012 A 
ATOM     17  C   UNL A   1      37.660  34.187  30.012  1.00  0.00     0.028 A 
ATOM     18  C   UNL A   1      39.820  32.390  30.205  1.00  0.00     0.011 A 
ATOM     19  C   UNL A   1      38.872  34.594  30.571  1.00  0.00     0.002 A 
ATOM     20  C   UNL A   1      39.943  33.713  30.651  1.00  0.00     0.001 A 
BRANCH  13  21
ATOM     21  S   UNL A   1      35.032  32.895  28.470  1.00  0.00     0.268 S 
ATOM     22  O   UNL A   1      34.124  31.764  28.370  1.00  0.00    -0.201 OA
ATOM     23  O   UNL A   1      35.240  33.796  27.352  1.00  0.00    -0.201 OA
BRANCH  21  24
ATOM     24  C   UNL A   1      34.468  33.890  29.831  1.00  0.00     0.088 A 
ATOM     25  C   UNL A   1      32.814  36.395  32.922  1.00  0.00     0.044 C 
ATOM     26  C   UNL A   1      33.401  35.526  31.849  1.00  0.00    -0.051 A 
ATOM     27  C   UNL A   1      33.337  35.928  30.511  1.00  0.00     0.005 A 
ATOM     28  C   UNL A   1      34.026  34.312  32.166  1.00  0.00     0.005 A 
ATOM     29  C   UNL A   1      33.861  35.112  29.505  1.00  0.00     0.022 A 
ATOM     30  C   UNL A   1      34.572  33.499  31.165  1.00  0.00     0.022 A 
ENDBRANCH  21  24
ENDBRANCH  13  21
ENDBRANCH  10  12
ENDBRANCH   7  10
ENDBRANCH   5   6
BRANCH   5  31
ATOM     31  C   UNL A   1      42.106  27.426  28.960  1.00  0.00     0.092 C 
BRANCH  31  32
ATOM     32  C   UNL A   1      42.173  27.476  27.450  1.00  0.00     0.037 A 
ATOM     33  C   UNL A   1      42.138  26.508  26.470  1.00  0.00     0.134 A 
ATOM     34  N   UNL A   1      42.268  28.654  26.734  1.00  0.00    -0.348 N 
ATOM     35  N   UNL A   1      41.962  27.072  25.230  1.00  0.00    -0.245 NA
ATOM     36  C   UNL A   1      41.978  28.367  25.432  1.00  0.00     0.196 A 
ATOM     37  H   UNL A   1      42.502  29.538  27.097  1.00  0.00     0.167 HD
ENDBRANCH  31  32
ENDBRANCH   5  31
ENDBRANCH   3   5
ENDBRANCH   2   3
ENDBRANCH   1   2
BRANCH   1  38
ATOM     38  C   UNL A   1      47.020  30.620  29.066  1.00  0.00     0.275 C 
BRANCH  38  39
ATOM     39  O   UNL A   1      48.076  29.710  29.482  1.00  0.00    -0.458 OA
BRANCH  39  40
ATOM     40  C   UNL A   1      48.397  28.558  28.833  1.00  0.00     0.338 C 
ATOM     41  O   UNL A   1      48.982  28.487  27.765  1.00  0.00    -0.246 OA
BRANCH  40  42
ATOM     42  C   UNL A   1      47.811  27.362  29.442  1.00  0.00     0.060 A 
ATOM     43  C   UNL A   1      46.080  26.985  29.104  1.00  0.00     0.016 A 
ATOM     44  C   UNL A   1      48.595  26.730  30.926  1.00  0.00     0.016 A 
ATOM     45  C   UNL A   1      45.053  26.165  30.371  1.00  0.00     0.010 A 
ATOM     46  C   UNL A   1      47.559  25.965  32.188  1.00  0.00     0.010 A 
ATOM     47  C   UNL A   1      45.791  25.730  31.932  1.00  0.00    -0.014 A 
BRANCH  47  48
ATOM     48  C   UNL A   1      45.142  25.693  33.252  1.00  0.00     0.031 A 
ATOM     49  C   UNL A   1      44.521  26.954  33.683  1.00  0.00     0.074 A 
ATOM     50  C   UNL A   1      44.678  24.505  33.696  1.00  0.00     0.049 A 
ATOM     51  N   UNL A   1      43.247  27.181  33.712  1.00  0.00    -0.248 NA
ATOM     52  C   UNL A   1      45.353  28.143  33.900  1.00  0.00     0.031 C 
ATOM     53  C   UNL A   1      43.576  24.232  34.611  1.00  0.00     0.029 A 
ATOM     54  N   UNL A   1      45.291  23.277  33.574  1.00  0.00    -0.354 N 
ATOM     55  C   UNL A   1      43.084  28.481  34.148  1.00  0.00     0.074 A 
ATOM     56  C   UNL A   1      44.414  29.082  34.056  1.00  0.00     0.031 C 
ATOM     57  C   UNL A   1      43.765  23.026  35.183  1.00  0.00     0.029 A 
ATOM     58  C   UNL A   1      45.050  22.516  34.723  1.00  0.00     0.049 A 
ATOM     59  H   UNL A   1      45.818  22.981  32.796  1.00  0.00     0.167 HD
ATOM     60  C   UNL A   1      42.362  28.747  35.267  1.00  0.00     0.031 A 
ATOM     61  C   UNL A   1      46.127  22.277  35.535  1.00  0.00     0.031 A 
ATOM     62  C   UNL A   1      42.423  27.691  36.251  1.00  0.00     0.049 A 
ATOM     63  C   UNL A   1      46.164  23.255  36.707  1.00  0.00     0.074 A 
ATOM     64  C   UNL A   1      41.630  26.608  36.574  1.00  0.00     0.029 A 
ATOM     65  N   UNL A   1      43.618  27.520  36.928  1.00  0.00    -0.354 N 
ATOM     66  N   UNL A   1      45.369  24.290  36.819  1.00  0.00    -0.248 NA
ATOM     67  C   UNL A   1      47.083  23.159  37.839  1.00  0.00     0.031 C 
ATOM     68  C   UNL A   1      42.401  25.748  37.414  1.00  0.00     0.029 A 
ATOM     69  C   UNL A   1      43.637  26.336  37.635  1.00  0.00     0.049 A 
ATOM     70  H   UNL A   1      44.363  28.163  36.906  1.00  0.00     0.167 HD
ATOM     71  C   UNL A   1      45.592  24.940  37.996  1.00  0.00     0.074 A 
ATOM     72  C   UNL A   1      46.733  24.239  38.565  1.00  0.00     0.031 C 
ATOM     73  C   UNL A   1      44.812  25.980  38.425  1.00  0.00     0.031 A 
BRANCH  60  74
ATOM     74  C   UNL A   1      41.381  29.878  35.194  1.00  0.00    -0.014 A 
ATOM     75  C   UNL A   1      40.432  29.903  34.159  1.00  0.00     0.010 A 
ATOM     76  C   UNL A   1      41.413  30.986  36.075  1.00  0.00     0.010 A 
ATOM     77  C   UNL A   1      39.592  31.007  33.970  1.00  0.00     0.020 A 
ATOM     78  C   UNL A   1      40.572  32.094  35.896  1.00  0.00     0.020 A 
ATOM     79  C   UNL A   1      39.679  32.105  34.828  1.00  0.00     0.054 A 
BRANCH  79  80
ATOM     80  S   UNL A   1      38.632  33.549  34.497  1.00  0.00     0.124 S 
ATOM     81  O   UNL A   1      39.616  34.566  34.132  1.00  0.00    -0.237 OA
ATOM     82  O   UNL A   1      37.780  33.077  33.409  1.00  0.00    -0.237 OA
ATOM     83  O   UNL A   1      37.946  33.780  35.766  1.00  0.00    -0.744 OA
ENDBRANCH  79  80
ENDBRANCH  60  74
BRANCH  61  84
ATOM     84  C   UNL A   1      47.282  21.769  34.710  1.00  0.00    -0.014 A 
ATOM     85  C   UNL A   1      48.380  22.658  34.577  1.00  0.00     0.010 A 
ATOM     86  C   UNL A   1      47.519  20.397  34.523  1.00  0.00     0.010 A 
ATOM     87  C   UNL A   1      49.694  22.182  34.486  1.00  0.00     0.020 A 
ATOM     88  C   UNL A   1      48.839  19.922  34.367  1.00  0.00     0.020 A 
ATOM     89  C   UNL A   1      49.920  20.810  34.422  1.00  0.00     0.054 A 
BRANCH  89  90
ATOM     90  S   UNL A   1      51.639  20.214  34.531  1.00  0.00     0.124 S 
ATOM     91  O   UNL A   1      52.093  20.322  33.148  1.00  0.00    -0.237 OA
ATOM     92  O   UNL A   1      52.261  21.153  35.461  1.00  0.00    -0.237 OA
ATOM     93  O   UNL A   1      51.499  18.848  35.032  1.00  0.00    -0.744 OA
ENDBRANCH  89  90
ENDBRANCH  61  84
BRANCH  73  94
ATOM     94  C   UNL A   1      45.102  26.748  39.685  1.00  0.00    -0.014 A 
ATOM     95  C   UNL A   1      44.293  26.645  40.826  1.00  0.00     0.010 A 
ATOM     96  C   UNL A   1      46.187  27.651  39.741  1.00  0.00     0.010 A 
ATOM     97  C   UNL A   1      44.642  27.290  42.015  1.00  0.00     0.020 A 
ATOM     98  C   UNL A   1      46.520  28.336  40.910  1.00  0.00     0.020 A 
ATOM     99  C   UNL A   1      45.768  28.114  42.055  1.00  0.00     0.054 A 
BRANCH  99 100
ATOM    100  S   UNL A   1      46.208  28.916  43.611  1.00  0.00     0.124 S 
ATOM    101  O   UNL A   1      45.483  28.114  44.594  1.00  0.00    -0.237 OA
ATOM    102  O   UNL A   1      47.661  28.763  43.624  1.00  0.00    -0.237 OA
ATOM    103  O   UNL A   1      45.724  30.283  43.447  1.00  0.00    -0.744 OA
ENDBRANCH  99 100
ENDBRANCH  73  94
ENDBRANCH  47  48
ENDBRANCH  40  42
ENDBRANCH  39  40
ENDBRANCH  38  39
ENDBRANCH   1  38
TORSDOF 21
ENDMDL
MODEL 3
REMARK VINA RESULT:     -12.2      5.628      8.704
REMARK SMILES Cc1ccc(S(=O)(=O)n2cc(C(=O)C(=O)N[C@@H](Cc3cnc[nH]3)C(=O)OCCOC(=O)c3ccc(-c4c5nc(c(-c6ccc(S(=O)(=O)[O-])cc6)c6ccc([nH]6)c(-c6ccc(S(=O)(=O)[O-])cc6)c6nc(c(-c7ccc(S(=O)(=O)[O-])cc7)c7ccc4[nH]7)C=C6)C=C5)cc3)c3ccccc32)cc1
REMARK SMILES IDX 27 1 26 2 24 3 25 4 17 5 16 6 14 7 15 8 12 10 13 11 11 12
REMARK SMILES IDX 9 13 10 14 97 15 92 16 96 17 93 18 95 19 94 20 6 21 7 22
REMARK SMILES IDX 8 23 5 24 1 25 2 26 3 27 99 28 4 29 98 30 18 31 19 32 20 33
REMARK SMILES IDX 23 34 21 35 22 36 28 38 29 39 30 40 31 41 32 42 33 43 91 44
REMARK SMILES IDX 34 45 90 46 35 47 36 48 37 49 84 50 38 51 89 52 83 53 85 54
REMARK SMILES IDX 39 55 88 56 82 57 81 58 40 60 70 61 51 62 69 63 52 64 55 65
REMARK SMILES IDX 68 66 86 67 53 68 54 69 67 71 87 72 56 73 41 74 42 75 50 76
REMARK SMILES IDX 43 77 49 78 44 79 45 80 46 81 47 82 48 83 71 84 72 85 80 86
REMARK SMILES IDX 73 87 79 88 74 89 75 90 76 91 77 92 78 93 57 94 58 95 66 96
REMARK SMILES IDX 59 97 65 98 60 99 61 100 62 101 63 102 64 103
REMARK H PARENT 16 9 23 37 85 59 55 70
REMARK Flexibility Score: inf
ROOT
ATOM      1  C   UNL A   1      38.701  31.328  35.184  1.00  0.00     0.274 C 
ENDROOT
BRANCH   1   2
ATOM      2  O   UNL A   1      37.401  31.866  35.455  1.00  0.00    -0.461 OA
BRANCH   2   3
ATOM      3  C   UNL A   1      37.132  33.226  34.993  1.00  0.00     0.329 C 
ATOM      4  O   UNL A   1      37.652  33.948  35.879  1.00  0.00    -0.250 OA
BRANCH   3   5
ATOM      5  C   UNL A   1      36.122  33.685  33.090  1.00  0.00     0.198 C 
BRANCH   5   6
ATOM      6  N   UNL A   1      36.550  33.222  31.511  1.00  0.00    -0.335 N 
ATOM      7  C   UNL A   1      37.155  32.142  30.892  1.00  0.00     0.293 C 
ATOM      8  O   UNL A   1      37.417  32.270  29.695  1.00  0.00    -0.265 OA
ATOM      9  H   UNL A   1      36.298  33.913  30.857  1.00  0.00     0.164 HD
BRANCH   7  10
ATOM     10  C   UNL A   1      37.553  30.824  31.611  1.00  0.00     0.252 C 
ATOM     11  O   UNL A   1      36.825  30.429  32.520  1.00  0.00    -0.283 OA
BRANCH  10  12
ATOM     12  C   UNL A   1      38.853  30.147  31.324  1.00  0.00     0.054 A 
ATOM     13  N   UNL A   1      40.964  29.397  31.533  1.00  0.00    -0.240 N 
ATOM     14  C   UNL A   1      40.051  30.304  32.013  1.00  0.00     0.117 A 
ATOM     15  C   UNL A   1      40.423  28.634  30.522  1.00  0.00     0.065 A 
ATOM     16  C   UNL A   1      39.128  29.142  30.314  1.00  0.00     0.012 A 
ATOM     17  C   UNL A   1      40.949  27.570  29.761  1.00  0.00     0.028 A 
ATOM     18  C   UNL A   1      38.379  28.600  29.245  1.00  0.00     0.011 A 
ATOM     19  C   UNL A   1      40.179  27.061  28.715  1.00  0.00     0.002 A 
ATOM     20  C   UNL A   1      38.918  27.580  28.449  1.00  0.00     0.001 A 
BRANCH  13  21
ATOM     21  S   UNL A   1      42.516  29.160  32.205  1.00  0.00     0.268 S 
ATOM     22  O   UNL A   1      42.751  30.322  33.046  1.00  0.00    -0.201 OA
ATOM     23  O   UNL A   1      43.398  28.840  31.098  1.00  0.00    -0.201 OA
BRANCH  21  24
ATOM     24  C   UNL A   1      42.503  27.742  33.276  1.00  0.00     0.088 A 
ATOM     25  C   UNL A   1      42.835  24.334  35.891  1.00  0.00     0.044 C 
ATOM     26  C   UNL A   1      42.710  25.515  34.975  1.00  0.00    -0.051 A 
ATOM     27  C   UNL A   1      43.660  25.724  33.969  1.00  0.00     0.005 A 
ATOM     28  C   UNL A   1      41.645  26.417  35.102  1.00  0.00     0.005 A 
ATOM     29  C   UNL A   1      43.563  26.834  33.127  1.00  0.00     0.022 A 
ATOM     30  C   UNL A   1      41.529  27.522  34.249  1.00  0.00     0.022 A 
ENDBRANCH  21  24
ENDBRANCH  13  21
ENDBRANCH  10  12
ENDBRANCH   7  10
ENDBRANCH   5   6
BRANCH   5  31
ATOM     31  C   UNL A   1      34.401  33.816  32.634  1.00  0.00     0.092 C 
BRANCH  31  32
ATOM     32  C   UNL A   1      33.819  35.202  32.467  1.00  0.00     0.037 A 
ATOM     33  C   UNL A   1      32.531  35.691  32.468  1.00  0.00     0.134 A 
ATOM     34  N   UNL A   1      34.592  36.333  32.290  1.00  0.00    -0.348 N 
ATOM     35  N   UNL A   1      32.528  37.063  32.545  1.00  0.00    -0.245 NA
ATOM     36  C   UNL A   1      33.790  37.416  32.503  1.00  0.00     0.196 A 
ATOM     37  H   UNL A   1      35.546  36.354  32.054  1.00  0.00     0.167 HD
ENDBRANCH  31  32
ENDBRANCH   5  31
ENDBRANCH   3   5
ENDBRANCH   2   3
ENDBRANCH   1   2
BRANCH   1  38
ATOM     38  C   UNL A   1      39.632  31.650  36.357  1.00  0.00     0.275 C 
BRANCH  38  39
ATOM     39  O   UNL A   1      40.520  32.794  36.214  1.00  0.00    -0.458 OA
BRANCH  39  40
ATOM     40  C   UNL A   1      41.566  32.849  35.347  1.00  0.00     0.338 C 
ATOM     41  O   UNL A   1      42.649  32.310  35.510  1.00  0.00    -0.246 OA
BRANCH  40  42
ATOM     42  C   UNL A   1      41.359  33.785  34.240  1.00  0.00     0.060 A 
ATOM     43  C   UNL A   1      40.172  33.347  32.956  1.00  0.00     0.016 A 
ATOM     44  C   UNL A   1      42.684  34.939  33.884  1.00  0.00     0.016 A 
ATOM     45  C   UNL A   1      40.443  33.883  31.232  1.00  0.00     0.010 A 
ATOM     46  C   UNL A   1      42.968  35.422  32.170  1.00  0.00     0.010 A 
ATOM     47  C   UNL A   1      41.884  34.856  30.847  1.00  0.00    -0.014 A 
BRANCH  47  48
ATOM     48  C   UNL A   1      42.656  34.859  29.594  1.00  0.00     0.031 A 
ATOM     49  C   UNL A   1      43.313  33.587  29.257  1.00  0.00     0.074 A 
ATOM     50  C   UNL A   1      42.290  35.727  28.626  1.00  0.00     0.049 A 
ATOM     51  N   UNL A   1      42.921  32.774  28.330  1.00  0.00    -0.248 NA
ATOM     52  C   UNL A   1      44.355  33.047  30.138  1.00  0.00     0.031 C 
ATOM     53  C   UNL A   1      42.451  35.615  27.182  1.00  0.00     0.029 A 
ATOM     54  N   UNL A   1      41.892  37.035  28.793  1.00  0.00    -0.354 N 
ATOM     55  C   UNL A   1      43.785  31.696  28.355  1.00  0.00     0.074 A 
ATOM     56  C   UNL A   1      44.520  31.828  29.613  1.00  0.00     0.031 C 
ATOM     57  C   UNL A   1      42.444  36.848  26.639  1.00  0.00     0.029 A 
ATOM     58  C   UNL A   1      42.369  37.810  27.731  1.00  0.00     0.049 A 
ATOM     59  H   UNL A   1      41.352  37.373  29.545  1.00  0.00     0.167 HD
ATOM     60  C   UNL A   1      44.504  31.364  27.252  1.00  0.00     0.031 A 
ATOM     61  C   UNL A   1      43.346  38.723  28.030  1.00  0.00     0.031 A 
ATOM     62  C   UNL A   1      44.840  32.499  26.425  1.00  0.00     0.049 A 
ATOM     63  C   UNL A   1      44.733  38.178  27.698  1.00  0.00     0.074 A 
ATOM     64  C   UNL A   1      44.291  33.090  25.305  1.00  0.00     0.029 A 
ATOM     65  N   UNL A   1      45.787  33.384  26.912  1.00  0.00    -0.354 N 
ATOM     66  N   UNL A   1      44.963  36.940  27.338  1.00  0.00    -0.248 NA
ATOM     67  C   UNL A   1      45.964  38.964  27.739  1.00  0.00     0.031 C 
ATOM     68  C   UNL A   1      44.888  34.380  25.164  1.00  0.00     0.029 A 
ATOM     69  C   UNL A   1      45.828  34.545  26.169  1.00  0.00     0.049 A 
ATOM     70  H   UNL A   1      46.359  33.206  27.693  1.00  0.00     0.167 HD
ATOM     71  C   UNL A   1      46.283  36.764  27.045  1.00  0.00     0.074 A 
ATOM     72  C   UNL A   1      46.885  38.043  27.390  1.00  0.00     0.031 C 
ATOM     73  C   UNL A   1      46.775  35.600  26.521  1.00  0.00     0.031 A 
BRANCH  60  74
ATOM     74  C   UNL A   1      44.555  29.912  26.883  1.00  0.00    -0.014 A 
ATOM     75  C   UNL A   1      43.399  29.125  27.015  1.00  0.00     0.010 A 
ATOM     76  C   UNL A   1      45.746  29.258  26.482  1.00  0.00     0.010 A 
ATOM     77  C   UNL A   1      43.437  27.739  26.818  1.00  0.00     0.020 A 
ATOM     78  C   UNL A   1      45.791  27.871  26.277  1.00  0.00     0.020 A 
ATOM     79  C   UNL A   1      44.636  27.117  26.468  1.00  0.00     0.054 A 
BRANCH  79  80
ATOM     80  S   UNL A   1      44.660  25.311  26.304  1.00  0.00     0.124 S 
ATOM     81  O   UNL A   1      45.648  24.923  27.308  1.00  0.00    -0.237 OA
ATOM     82  O   UNL A   1      43.278  24.949  26.607  1.00  0.00    -0.237 OA
ATOM     83  O   UNL A   1      45.069  25.091  24.918  1.00  0.00    -0.744 OA
ENDBRANCH  79  80
ENDBRANCH  60  74
BRANCH  61  84
ATOM     84  C   UNL A   1      42.928  39.538  29.227  1.00  0.00    -0.014 A 
ATOM     85  C   UNL A   1      43.847  39.557  30.309  1.00  0.00     0.010 A 
ATOM     86  C   UNL A   1      42.008  40.595  29.127  1.00  0.00     0.010 A 
ATOM     87  C   UNL A   1      43.992  40.689  31.120  1.00  0.00     0.020 A 
ATOM     88  C   UNL A   1      42.114  41.709  29.987  1.00  0.00     0.020 A 
ATOM     89  C   UNL A   1      43.149  41.779  30.928  1.00  0.00     0.054 A 
BRANCH  89  90
ATOM     90  S   UNL A   1      43.505  43.316  31.841  1.00  0.00     0.124 S 
ATOM     91  O   UNL A   1      44.953  43.250  32.005  1.00  0.00    -0.237 OA
ATOM     92  O   UNL A   1      43.033  44.360  30.936  1.00  0.00    -0.237 OA
ATOM     93  O   UNL A   1      42.734  43.171  33.075  1.00  0.00    -0.744 OA
ENDBRANCH  89  90
ENDBRANCH  61  84
BRANCH  73  94
ATOM     94  C   UNL A   1      48.240  35.376  26.270  1.00  0.00    -0.014 A 
ATOM     95  C   UNL A   1      48.815  35.543  25.002  1.00  0.00     0.010 A 
ATOM     96  C   UNL A   1      49.087  34.932  27.310  1.00  0.00     0.010 A 
ATOM     97  C   UNL A   1      50.195  35.429  24.817  1.00  0.00     0.020 A 
ATOM     98  C   UNL A   1      50.461  34.771  27.128  1.00  0.00     0.020 A 
ATOM     99  C   UNL A   1      51.012  35.064  25.888  1.00  0.00     0.054 A 
BRANCH  99 100
ATOM    100  S   UNL A   1      52.794  34.947  25.626  1.00  0.00     0.124 S 
ATOM    101  O   UNL A   1      53.104  33.623  26.159  1.00  0.00    -0.237 OA
ATOM    102  O   UNL A   1      52.891  35.079  24.175  1.00  0.00    -0.237 OA
ATOM    103  O   UNL A   1      53.332  36.067  26.393  1.00  0.00    -0.744 OA
ENDBRANCH  99 100
ENDBRANCH  73  94
ENDBRANCH  47  48
ENDBRANCH  40  42
ENDBRANCH  39  40
ENDBRANCH  38  39
ENDBRANCH   1  38
TORSDOF 21
ENDMDL
