MODEL 1
REMARK VINA RESULT:     -12.7      0.000      0.000
REMARK SMILES Cc1ccccc1[C@@H](Cc1c(Cl)cccc1Cl)C(=O)OCCOC(=O)c1ccc(-c2c3nc(c(-c4ccc(S(=O)(=O)[O-])cc4)c4ccc([nH]4)c(-c4ccc(S(=O)(=O)[O-])cc4)c4nc(c(-c5ccc(S(=O)(=O)[O-])cc5)c5ccc2[nH]5)C=C4)C=C3)cc1
REMARK SMILES IDX 22 1 21 2 20 3 18 4 19 5 8 6 7 7 1 8 2 9 3 10 4 11 6 12 5 13
REMARK SMILES IDX 9 14 10 15 11 16 16 17 12 18 13 19 15 20 17 21 14 22 23 23
REMARK SMILES IDX 24 24 25 25 26 26 27 27 85 28 28 29 84 30 29 31 30 32 31 33
REMARK SMILES IDX 78 34 32 35 83 36 77 37 79 38 33 39 82 40 76 41 75 42 34 44
REMARK SMILES IDX 64 45 45 46 63 47 46 48 49 49 62 50 80 51 47 52 48 53 61 55
REMARK SMILES IDX 81 56 50 57 35 58 36 59 44 60 37 61 43 62 38 63 39 64 40 65
REMARK SMILES IDX 41 66 42 67 65 68 66 69 74 70 67 71 73 72 68 73 69 74 70 75
REMARK SMILES IDX 71 76 72 77 51 78 52 79 60 80 53 81 59 82 54 83 55 84 56 85
REMARK SMILES IDX 57 86 58 87
REMARK H PARENT 79 43 49 54
REMARK Flexibility Score: inf
ROOT
ATOM      1  C   UNL A   1      34.570  30.945  27.463  1.00  0.00     0.275 C 
ENDROOT
BRANCH   1   2
ATOM      2  C   UNL A   1      34.279  29.435  27.311  1.00  0.00     0.274 C 
BRANCH   2   3
ATOM      3  O   UNL A   1      33.658  29.089  26.072  1.00  0.00    -0.462 OA
BRANCH   3   4
ATOM      4  C   UNL A   1      32.334  28.742  26.125  1.00  0.00     0.313 C 
ATOM      5  O   UNL A   1      31.504  29.346  26.791  1.00  0.00    -0.252 OA
BRANCH   4   6
ATOM      6  C   UNL A   1      32.125  27.343  25.501  1.00  0.00     0.134 C 
BRANCH   6   7
ATOM      7  C   UNL A   1      31.181  27.628  24.312  1.00  0.00    -0.031 A 
ATOM      8  C   UNL A   1      29.661  25.614  24.767  1.00  0.00     0.044 C 
ATOM      9  C   UNL A   1      29.970  26.939  24.136  1.00  0.00    -0.047 A 
ATOM     10  C   UNL A   1      28.955  27.547  23.378  1.00  0.00     0.004 A 
ATOM     11  C   UNL A   1      29.146  28.789  22.771  1.00  0.00     0.000 A 
ATOM     12  C   UNL A   1      31.408  28.810  23.563  1.00  0.00     0.005 A 
ATOM     13  C   UNL A   1      30.384  29.407  22.837  1.00  0.00     0.000 A 
ENDBRANCH   6   7
BRANCH   6  14
ATOM     14  C   UNL A   1      33.415  26.584  25.063  1.00  0.00     0.058 C 
BRANCH  14  15
ATOM     15  C   UNL A   1      33.354  25.190  24.408  1.00  0.00    -0.010 A 
ATOM     16  C   UNL A   1      33.474  25.034  23.005  1.00  0.00     0.045 A 
ATOM     17  C   UNL A   1      33.036  24.006  25.107  1.00  0.00     0.045 A 
ATOM     18  Cl  UNL A   1      33.524  26.388  21.922  1.00  0.00    -0.084 Cl
ATOM     19  C   UNL A   1      33.472  23.768  22.386  1.00  0.00     0.021 A 
ATOM     20  C   UNL A   1      33.048  22.739  24.491  1.00  0.00     0.021 A 
ATOM     21  Cl  UNL A   1      32.504  23.995  26.746  1.00  0.00    -0.084 Cl
ATOM     22  C   UNL A   1      33.304  22.613  23.135  1.00  0.00     0.003 A 
ENDBRANCH  14  15
ENDBRANCH   6  14
ENDBRANCH   4   6
ENDBRANCH   3   4
ENDBRANCH   2   3
ENDBRANCH   1   2
BRANCH   1  23
ATOM     23  O   UNL A   1      35.808  31.380  28.086  1.00  0.00    -0.458 OA
BRANCH  23  24
ATOM     24  C   UNL A   1      36.393  30.852  29.199  1.00  0.00     0.338 C 
ATOM     25  O   UNL A   1      35.977  31.161  30.316  1.00  0.00    -0.246 OA
BRANCH  24  26
ATOM     26  C   UNL A   1      37.407  29.794  28.964  1.00  0.00     0.060 A 
ATOM     27  C   UNL A   1      38.125  29.790  27.762  1.00  0.00     0.016 A 
ATOM     28  C   UNL A   1      37.844  29.021  30.033  1.00  0.00     0.016 A 
ATOM     29  C   UNL A   1      39.399  29.215  27.725  1.00  0.00     0.010 A 
ATOM     30  C   UNL A   1      39.149  28.567  30.036  1.00  0.00     0.010 A 
ATOM     31  C   UNL A   1      39.956  28.695  28.895  1.00  0.00    -0.014 A 
BRANCH  31  32
ATOM     32  C   UNL A   1      41.220  27.953  28.938  1.00  0.00     0.031 A 
ATOM     33  C   UNL A   1      41.411  26.539  28.534  1.00  0.00     0.074 A 
ATOM     34  C   UNL A   1      42.246  28.702  29.396  1.00  0.00     0.049 A 
ATOM     35  N   UNL A   1      42.405  25.793  28.882  1.00  0.00    -0.248 NA
ATOM     36  C   UNL A   1      40.474  25.820  27.691  1.00  0.00     0.031 C 
ATOM     37  C   UNL A   1      43.657  28.387  29.502  1.00  0.00     0.029 A 
ATOM     38  N   UNL A   1      42.101  29.882  30.139  1.00  0.00    -0.354 N 
ATOM     39  C   UNL A   1      42.357  24.619  28.144  1.00  0.00     0.074 A 
ATOM     40  C   UNL A   1      41.102  24.665  27.448  1.00  0.00     0.031 C 
ATOM     41  C   UNL A   1      44.152  29.098  30.534  1.00  0.00     0.029 A 
ATOM     42  C   UNL A   1      43.023  29.775  31.171  1.00  0.00     0.049 A 
ATOM     43  H   UNL A   1      41.479  30.625  29.966  1.00  0.00     0.167 HD
ATOM     44  C   UNL A   1      43.437  23.788  28.129  1.00  0.00     0.031 A 
ATOM     45  C   UNL A   1      42.595  29.606  32.456  1.00  0.00     0.031 A 
ATOM     46  C   UNL A   1      44.411  24.235  29.117  1.00  0.00     0.049 A 
ATOM     47  C   UNL A   1      43.135  28.313  33.016  1.00  0.00     0.074 A 
ATOM     48  C   UNL A   1      45.515  25.064  29.029  1.00  0.00     0.029 A 
ATOM     49  N   UNL A   1      44.062  24.173  30.462  1.00  0.00    -0.354 N 
ATOM     50  N   UNL A   1      43.387  27.235  32.319  1.00  0.00    -0.248 NA
ATOM     51  C   UNL A   1      43.502  28.189  34.415  1.00  0.00     0.031 C 
ATOM     52  C   UNL A   1      45.737  25.617  30.322  1.00  0.00     0.029 A 
ATOM     53  C   UNL A   1      44.807  25.077  31.198  1.00  0.00     0.049 A 
ATOM     54  H   UNL A   1      43.380  23.572  30.838  1.00  0.00     0.167 HD
ATOM     55  C   UNL A   1      44.069  26.342  33.113  1.00  0.00     0.074 A 
ATOM     56  C   UNL A   1      44.081  26.979  34.422  1.00  0.00     0.031 C 
ATOM     57  C   UNL A   1      44.631  25.184  32.644  1.00  0.00     0.031 A 
BRANCH  44  58
ATOM     58  C   UNL A   1      43.722  22.758  27.050  1.00  0.00    -0.014 A 
ATOM     59  C   UNL A   1      42.782  21.727  26.820  1.00  0.00     0.010 A 
ATOM     60  C   UNL A   1      44.908  22.684  26.292  1.00  0.00     0.010 A 
ATOM     61  C   UNL A   1      43.050  20.637  25.972  1.00  0.00     0.020 A 
ATOM     62  C   UNL A   1      45.199  21.587  25.454  1.00  0.00     0.020 A 
ATOM     63  C   UNL A   1      44.275  20.555  25.318  1.00  0.00     0.054 A 
BRANCH  63  64
ATOM     64  S   UNL A   1      44.650  19.081  24.323  1.00  0.00     0.124 S 
ATOM     65  O   UNL A   1      46.027  18.783  24.709  1.00  0.00    -0.237 OA
ATOM     66  O   UNL A   1      43.647  18.124  24.782  1.00  0.00    -0.237 OA
ATOM     67  O   UNL A   1      44.483  19.538  22.945  1.00  0.00    -0.744 OA
ENDBRANCH  63  64
ENDBRANCH  44  58
BRANCH  45  68
ATOM     68  C   UNL A   1      41.281  30.241  32.822  1.00  0.00    -0.014 A 
ATOM     69  C   UNL A   1      40.339  29.457  33.536  1.00  0.00     0.010 A 
ATOM     70  C   UNL A   1      41.035  31.621  32.720  1.00  0.00     0.010 A 
ATOM     71  C   UNL A   1      39.270  30.039  34.226  1.00  0.00     0.020 A 
ATOM     72  C   UNL A   1      39.942  32.209  33.389  1.00  0.00     0.020 A 
ATOM     73  C   UNL A   1      39.088  31.417  34.165  1.00  0.00     0.054 A 
BRANCH  73  74
ATOM     74  S   UNL A   1      37.841  32.166  35.261  1.00  0.00     0.124 S 
ATOM     75  O   UNL A   1      36.692  32.298  34.371  1.00  0.00    -0.237 OA
ATOM     76  O   UNL A   1      37.712  31.152  36.307  1.00  0.00    -0.237 OA
ATOM     77  O   UNL A   1      38.473  33.419  35.666  1.00  0.00    -0.744 OA
ENDBRANCH  73  74
ENDBRANCH  45  68
BRANCH  57  78
ATOM     78  C   UNL A   1      45.211  24.063  33.489  1.00  0.00    -0.014 A 
ATOM     79  C   UNL A   1      46.513  24.039  34.003  1.00  0.00     0.010 A 
ATOM     80  C   UNL A   1      44.365  22.991  33.880  1.00  0.00     0.010 A 
ATOM     81  C   UNL A   1      46.977  22.975  34.787  1.00  0.00     0.020 A 
ATOM     82  C   UNL A   1      44.795  21.955  34.713  1.00  0.00     0.020 A 
ATOM     83  C   UNL A   1      46.114  21.939  35.137  1.00  0.00     0.054 A 
BRANCH  83  84
ATOM     84  S   UNL A   1      46.721  20.614  36.203  1.00  0.00     0.124 S 
ATOM     85  O   UNL A   1      46.947  19.537  35.244  1.00  0.00    -0.237 OA
ATOM     86  O   UNL A   1      47.928  21.201  36.784  1.00  0.00    -0.237 OA
ATOM     87  O   UNL A   1      45.626  20.398  37.145  1.00  0.00    -0.744 OA
ENDBRANCH  83  84
ENDBRANCH  57  78
ENDBRANCH  31  32
ENDBRANCH  24  26
ENDBRANCH  23  24
ENDBRANCH   1  23
TORSDOF 17
ENDMDL
MODEL 2
REMARK VINA RESULT:     -12.5      4.586     11.013
REMARK SMILES Cc1ccccc1[C@@H](Cc1c(Cl)cccc1Cl)C(=O)OCCOC(=O)c1ccc(-c2c3nc(c(-c4ccc(S(=O)(=O)[O-])cc4)c4ccc([nH]4)c(-c4ccc(S(=O)(=O)[O-])cc4)c4nc(c(-c5ccc(S(=O)(=O)[O-])cc5)c5ccc2[nH]5)C=C4)C=C3)cc1
REMARK SMILES IDX 22 1 21 2 20 3 18 4 19 5 8 6 7 7 1 8 2 9 3 10 4 11 6 12 5 13
REMARK SMILES IDX 9 14 10 15 11 16 16 17 12 18 13 19 15 20 17 21 14 22 23 23
REMARK SMILES IDX 24 24 25 25 26 26 27 27 85 28 28 29 84 30 29 31 30 32 31 33
REMARK SMILES IDX 78 34 32 35 83 36 77 37 79 38 33 39 82 40 76 41 75 42 34 44
REMARK SMILES IDX 64 45 45 46 63 47 46 48 49 49 62 50 80 51 47 52 48 53 61 55
REMARK SMILES IDX 81 56 50 57 35 58 36 59 44 60 37 61 43 62 38 63 39 64 40 65
REMARK SMILES IDX 41 66 42 67 65 68 66 69 74 70 67 71 73 72 68 73 69 74 70 75
REMARK SMILES IDX 71 76 72 77 51 78 52 79 60 80 53 81 59 82 54 83 55 84 56 85
REMARK SMILES IDX 57 86 58 87
REMARK H PARENT 79 43 49 54
REMARK Flexibility Score: inf
ROOT
ATOM      1  C   UNL A   1      37.449  23.397  25.284  1.00  0.00     0.275 C 
ENDROOT
BRANCH   1   2
ATOM      2  C   UNL A   1      36.031  23.723  24.764  1.00  0.00     0.274 C 
BRANCH   2   3
ATOM      3  O   UNL A   1      35.387  24.782  25.474  1.00  0.00    -0.462 OA
BRANCH   3   4
ATOM      4  C   UNL A   1      34.187  25.215  24.973  1.00  0.00     0.313 C 
ATOM      5  O   UNL A   1      34.055  25.688  23.852  1.00  0.00    -0.252 OA
BRANCH   4   6
ATOM      6  C   UNL A   1      33.140  25.311  26.106  1.00  0.00     0.134 C 
BRANCH   6   7
ATOM      7  C   UNL A   1      32.364  26.599  25.757  1.00  0.00    -0.031 A 
ATOM      8  C   UNL A   1      34.167  28.179  26.667  1.00  0.00     0.044 C 
ATOM      9  C   UNL A   1      32.949  27.873  25.846  1.00  0.00    -0.047 A 
ATOM     10  C   UNL A   1      32.411  28.916  25.075  1.00  0.00     0.004 A 
ATOM     11  C   UNL A   1      31.292  28.718  24.265  1.00  0.00     0.000 A 
ATOM     12  C   UNL A   1      31.142  26.459  25.053  1.00  0.00     0.005 A 
ATOM     13  C   UNL A   1      30.638  27.497  24.278  1.00  0.00     0.000 A 
ENDBRANCH   6   7
BRANCH   6  14
ATOM     14  C   UNL A   1      32.196  24.081  26.278  1.00  0.00     0.058 C 
BRANCH  14  15
ATOM     15  C   UNL A   1      32.484  22.732  25.589  1.00  0.00    -0.010 A 
ATOM     16  C   UNL A   1      33.321  21.764  26.196  1.00  0.00     0.045 A 
ATOM     17  C   UNL A   1      32.075  22.418  24.276  1.00  0.00     0.045 A 
ATOM     18  Cl  UNL A   1      34.206  22.086  27.652  1.00  0.00    -0.084 Cl
ATOM     19  C   UNL A   1      33.561  20.505  25.611  1.00  0.00     0.021 A 
ATOM     20  C   UNL A   1      32.304  21.154  23.696  1.00  0.00     0.021 A 
ATOM     21  Cl  UNL A   1      31.355  23.567  23.213  1.00  0.00    -0.084 Cl
ATOM     22  C   UNL A   1      33.014  20.180  24.379  1.00  0.00     0.003 A 
ENDBRANCH  14  15
ENDBRANCH   6  14
ENDBRANCH   4   6
ENDBRANCH   3   4
ENDBRANCH   2   3
ENDBRANCH   1   2
BRANCH   1  23
ATOM     23  O   UNL A   1      38.153  24.363  26.110  1.00  0.00    -0.458 OA
BRANCH  23  24
ATOM     24  C   UNL A   1      39.409  24.236  26.625  1.00  0.00     0.338 C 
ATOM     25  O   UNL A   1      40.093  23.254  26.338  1.00  0.00    -0.246 OA
BRANCH  24  26
ATOM     26  C   UNL A   1      39.925  25.403  27.384  1.00  0.00     0.060 A 
ATOM     27  C   UNL A   1      40.320  26.551  26.687  1.00  0.00     0.016 A 
ATOM     28  C   UNL A   1      39.729  25.462  28.759  1.00  0.00     0.016 A 
ATOM     29  C   UNL A   1      40.271  27.793  27.326  1.00  0.00     0.010 A 
ATOM     30  C   UNL A   1      39.556  26.697  29.354  1.00  0.00     0.010 A 
ATOM     31  C   UNL A   1      39.787  27.879  28.633  1.00  0.00    -0.014 A 
BRANCH  31  32
ATOM     32  C   UNL A   1      39.819  29.105  29.438  1.00  0.00     0.031 A 
ATOM     33  C   UNL A   1      38.806  30.187  29.411  1.00  0.00     0.074 A 
ATOM     34  C   UNL A   1      40.898  29.166  30.246  1.00  0.00     0.049 A 
ATOM     35  N   UNL A   1      38.992  31.391  29.839  1.00  0.00    -0.248 NA
ATOM     36  C   UNL A   1      37.468  30.011  28.879  1.00  0.00     0.031 C 
ATOM     37  C   UNL A   1      41.254  30.144  31.256  1.00  0.00     0.029 A 
ATOM     38  N   UNL A   1      42.067  28.411  30.074  1.00  0.00    -0.354 N 
ATOM     39  C   UNL A   1      37.771  32.048  29.853  1.00  0.00     0.074 A 
ATOM     40  C   UNL A   1      36.857  31.156  29.198  1.00  0.00     0.031 C 
ATOM     41  C   UNL A   1      42.599  30.177  31.328  1.00  0.00     0.029 A 
ATOM     42  C   UNL A   1      43.109  29.307  30.270  1.00  0.00     0.049 A 
ATOM     43  H   UNL A   1      42.134  27.453  29.859  1.00  0.00     0.167 HD
ATOM     44  C   UNL A   1      37.652  33.236  30.513  1.00  0.00     0.031 A 
ATOM     45  C   UNL A   1      43.895  29.682  29.219  1.00  0.00     0.031 A 
ATOM     46  C   UNL A   1      38.971  33.698  30.926  1.00  0.00     0.049 A 
ATOM     47  C   UNL A   1      43.815  31.175  29.018  1.00  0.00     0.074 A 
ATOM     48  C   UNL A   1      39.689  33.543  32.099  1.00  0.00     0.029 A 
ATOM     49  N   UNL A   1      39.886  34.047  29.939  1.00  0.00    -0.354 N 
ATOM     50  N   UNL A   1      42.770  31.917  29.283  1.00  0.00    -0.248 NA
ATOM     51  C   UNL A   1      44.963  31.942  28.569  1.00  0.00     0.031 C 
ATOM     52  C   UNL A   1      41.069  33.661  31.772  1.00  0.00     0.029 A 
ATOM     53  C   UNL A   1      41.180  33.945  30.419  1.00  0.00     0.049 A 
ATOM     54  H   UNL A   1      39.648  34.326  29.026  1.00  0.00     0.167 HD
ATOM     55  C   UNL A   1      43.130  33.241  29.188  1.00  0.00     0.074 A 
ATOM     56  C   UNL A   1      44.503  33.195  28.706  1.00  0.00     0.031 C 
ATOM     57  C   UNL A   1      42.319  34.278  29.568  1.00  0.00     0.031 A 
BRANCH  44  58
ATOM     58  C   UNL A   1      36.343  33.821  31.013  1.00  0.00    -0.014 A 
ATOM     59  C   UNL A   1      35.308  34.079  30.084  1.00  0.00     0.010 A 
ATOM     60  C   UNL A   1      36.087  34.221  32.340  1.00  0.00     0.010 A 
ATOM     61  C   UNL A   1      34.141  34.783  30.432  1.00  0.00     0.020 A 
ATOM     62  C   UNL A   1      34.932  34.946  32.698  1.00  0.00     0.020 A 
ATOM     63  C   UNL A   1      33.974  35.244  31.734  1.00  0.00     0.054 A 
BRANCH  63  64
ATOM     64  S   UNL A   1      32.518  36.255  32.134  1.00  0.00     0.124 S 
ATOM     65  O   UNL A   1      32.239  36.923  30.864  1.00  0.00    -0.237 OA
ATOM     66  O   UNL A   1      31.538  35.254  32.545  1.00  0.00    -0.237 OA
ATOM     67  O   UNL A   1      32.987  37.137  33.201  1.00  0.00    -0.744 OA
ENDBRANCH  63  64
ENDBRANCH  44  58
BRANCH  45  68
ATOM     68  C   UNL A   1      44.113  28.661  28.135  1.00  0.00    -0.014 A 
ATOM     69  C   UNL A   1      44.605  27.385  28.512  1.00  0.00     0.010 A 
ATOM     70  C   UNL A   1      43.629  28.811  26.825  1.00  0.00     0.010 A 
ATOM     71  C   UNL A   1      44.500  26.276  27.666  1.00  0.00     0.020 A 
ATOM     72  C   UNL A   1      43.549  27.703  25.956  1.00  0.00     0.020 A 
ATOM     73  C   UNL A   1      43.954  26.437  26.396  1.00  0.00     0.054 A 
BRANCH  73  74
ATOM     74  S   UNL A   1      43.611  24.941  25.414  1.00  0.00     0.124 S 
ATOM     75  O   UNL A   1      43.324  23.956  26.451  1.00  0.00    -0.237 OA
ATOM     76  O   UNL A   1      42.463  25.364  24.614  1.00  0.00    -0.237 OA
ATOM     77  O   UNL A   1      44.857  24.741  24.680  1.00  0.00    -0.744 OA
ENDBRANCH  73  74
ENDBRANCH  45  68
BRANCH  57  78
ATOM     78  C   UNL A   1      42.566  35.753  29.302  1.00  0.00    -0.014 A 
ATOM     79  C   UNL A   1      43.452  36.561  30.026  1.00  0.00     0.010 A 
ATOM     80  C   UNL A   1      41.936  36.363  28.184  1.00  0.00     0.010 A 
ATOM     81  C   UNL A   1      43.638  37.913  29.715  1.00  0.00     0.020 A 
ATOM     82  C   UNL A   1      42.160  37.695  27.825  1.00  0.00     0.020 A 
ATOM     83  C   UNL A   1      42.991  38.472  28.616  1.00  0.00     0.054 A 
BRANCH  83  84
ATOM     84  S   UNL A   1      43.301  40.201  28.200  1.00  0.00     0.124 S 
ATOM     85  O   UNL A   1      44.694  40.159  27.762  1.00  0.00    -0.237 OA
ATOM     86  O   UNL A   1      42.320  40.457  27.147  1.00  0.00    -0.237 OA
ATOM     87  O   UNL A   1      43.057  40.909  29.454  1.00  0.00    -0.744 OA
ENDBRANCH  83  84
ENDBRANCH  57  78
ENDBRANCH  31  32
ENDBRANCH  24  26
ENDBRANCH  23  24
ENDBRANCH   1  23
TORSDOF 17
ENDMDL
MODEL 3
REMARK VINA RESULT:     -12.4      4.718     11.386
REMARK SMILES Cc1ccccc1[C@@H](Cc1c(Cl)cccc1Cl)C(=O)OCCOC(=O)c1ccc(-c2c3nc(c(-c4ccc(S(=O)(=O)[O-])cc4)c4ccc([nH]4)c(-c4ccc(S(=O)(=O)[O-])cc4)c4nc(c(-c5ccc(S(=O)(=O)[O-])cc5)c5ccc2[nH]5)C=C4)C=C3)cc1
REMARK SMILES IDX 22 1 21 2 20 3 18 4 19 5 8 6 7 7 1 8 2 9 3 10 4 11 6 12 5 13
REMARK SMILES IDX 9 14 10 15 11 16 16 17 12 18 13 19 15 20 17 21 14 22 23 23
REMARK SMILES IDX 24 24 25 25 26 26 27 27 85 28 28 29 84 30 29 31 30 32 31 33
REMARK SMILES IDX 78 34 32 35 83 36 77 37 79 38 33 39 82 40 76 41 75 42 34 44
REMARK SMILES IDX 64 45 45 46 63 47 46 48 49 49 62 50 80 51 47 52 48 53 61 55
REMARK SMILES IDX 81 56 50 57 35 58 36 59 44 60 37 61 43 62 38 63 39 64 40 65
REMARK SMILES IDX 41 66 42 67 65 68 66 69 74 70 67 71 73 72 68 73 69 74 70 75
REMARK SMILES IDX 71 76 72 77 51 78 52 79 60 80 53 81 59 82 54 83 55 84 56 85
REMARK SMILES IDX 57 86 58 87
REMARK H PARENT 79 43 49 54
REMARK Flexibility Score: inf
ROOT
ATOM      1  C   UNL A   1      38.816  22.583  25.987  1.00  0.00     0.275 C 
ENDROOT
BRANCH   1   2
ATOM      2  C   UNL A   1      37.280  22.716  26.080  1.00  0.00     0.274 C 
BRANCH   2   3
ATOM      3  O   UNL A   1      36.724  23.642  25.144  1.00  0.00    -0.462 OA
BRANCH   3   4
ATOM      4  C   UNL A   1      36.092  23.105  24.053  1.00  0.00     0.313 C 
ATOM      5  O   UNL A   1      36.667  22.445  23.197  1.00  0.00    -0.252 OA
BRANCH   4   6
ATOM      6  C   UNL A   1      34.677  23.709  23.906  1.00  0.00     0.134 C 
BRANCH   6   7
ATOM      7  C   UNL A   1      33.753  22.514  24.230  1.00  0.00    -0.031 A 
ATOM      8  C   UNL A   1      32.517  22.594  21.984  1.00  0.00     0.044 C 
ATOM      9  C   UNL A   1      32.930  21.920  23.259  1.00  0.00    -0.047 A 
ATOM     10  C   UNL A   1      32.516  20.591  23.451  1.00  0.00     0.004 A 
ATOM     11  C   UNL A   1      32.870  19.878  24.597  1.00  0.00     0.000 A 
ATOM     12  C   UNL A   1      33.970  21.829  25.451  1.00  0.00     0.005 A 
ATOM     13  C   UNL A   1      33.571  20.508  25.613  1.00  0.00     0.000 A 
ENDBRANCH   6   7
BRANCH   6  14
ATOM     14  C   UNL A   1      34.364  24.955  24.790  1.00  0.00     0.058 C 
BRANCH  14  15
ATOM     15  C   UNL A   1      33.027  25.715  24.679  1.00  0.00    -0.010 A 
ATOM     16  C   UNL A   1      32.012  25.556  25.653  1.00  0.00     0.045 A 
ATOM     17  C   UNL A   1      32.656  26.491  23.561  1.00  0.00     0.045 A 
ATOM     18  Cl  UNL A   1      32.123  24.385  26.927  1.00  0.00    -0.084 Cl
ATOM     19  C   UNL A   1      30.801  26.276  25.601  1.00  0.00     0.021 A 
ATOM     20  C   UNL A   1      31.452  27.222  23.516  1.00  0.00     0.021 A 
ATOM     21  Cl  UNL A   1      33.574  26.545  22.105  1.00  0.00    -0.084 Cl
ATOM     22  C   UNL A   1      30.539  27.147  24.555  1.00  0.00     0.003 A 
ENDBRANCH  14  15
ENDBRANCH   6  14
ENDBRANCH   4   6
ENDBRANCH   3   4
ENDBRANCH   2   3
ENDBRANCH   1   2
BRANCH   1  23
ATOM     23  O   UNL A   1      39.653  23.148  27.032  1.00  0.00    -0.458 OA
BRANCH  23  24
ATOM     24  C   UNL A   1      40.491  24.217  26.919  1.00  0.00     0.338 C 
ATOM     25  O   UNL A   1      41.533  24.113  26.271  1.00  0.00    -0.246 OA
BRANCH  24  26
ATOM     26  C   UNL A   1      39.990  25.502  27.467  1.00  0.00     0.060 A 
ATOM     27  C   UNL A   1      39.309  25.504  28.689  1.00  0.00     0.016 A 
ATOM     28  C   UNL A   1      40.455  26.698  26.932  1.00  0.00     0.016 A 
ATOM     29  C   UNL A   1      39.320  26.657  29.480  1.00  0.00     0.010 A 
ATOM     30  C   UNL A   1      40.578  27.795  27.763  1.00  0.00     0.010 A 
ATOM     31  C   UNL A   1      40.047  27.773  29.062  1.00  0.00    -0.014 A 
BRANCH  31  32
ATOM     32  C   UNL A   1      40.016  29.071  29.745  1.00  0.00     0.031 A 
ATOM     33  C   UNL A   1      38.964  30.106  29.593  1.00  0.00     0.074 A 
ATOM     34  C   UNL A   1      41.073  29.252  30.564  1.00  0.00     0.049 A 
ATOM     35  N   UNL A   1      39.096  31.351  29.906  1.00  0.00    -0.248 NA
ATOM     36  C   UNL A   1      37.646  29.827  29.055  1.00  0.00     0.031 C 
ATOM     37  C   UNL A   1      41.369  30.335  31.481  1.00  0.00     0.029 A 
ATOM     38  N   UNL A   1      42.272  28.530  30.489  1.00  0.00    -0.354 N 
ATOM     39  C   UNL A   1      37.852  31.959  29.833  1.00  0.00     0.074 A 
ATOM     40  C   UNL A   1      36.986  30.973  29.250  1.00  0.00     0.031 C 
ATOM     41  C   UNL A   1      42.710  30.428  31.576  1.00  0.00     0.029 A 
ATOM     42  C   UNL A   1      43.276  29.481  30.617  1.00  0.00     0.049 A 
ATOM     43  H   UNL A   1      42.380  27.559  30.369  1.00  0.00     0.167 HD
ATOM     44  C   UNL A   1      37.674  33.199  30.372  1.00  0.00     0.031 A 
ATOM     45  C   UNL A   1      44.072  29.783  29.550  1.00  0.00     0.031 A 
ATOM     46  C   UNL A   1      38.965  33.750  30.763  1.00  0.00     0.049 A 
ATOM     47  C   UNL A   1      43.941  31.245  29.204  1.00  0.00     0.074 A 
ATOM     48  C   UNL A   1      39.661  33.737  31.960  1.00  0.00     0.029 A 
ATOM     49  N   UNL A   1      39.890  34.037  29.765  1.00  0.00    -0.354 N 
ATOM     50  N   UNL A   1      42.864  31.969  29.375  1.00  0.00    -0.248 NA
ATOM     51  C   UNL A   1      45.070  32.009  28.705  1.00  0.00     0.031 C 
ATOM     52  C   UNL A   1      41.043  33.876  31.650  1.00  0.00     0.029 A 
ATOM     53  C   UNL A   1      41.174  34.032  30.278  1.00  0.00     0.049 A 
ATOM     54  H   UNL A   1      39.662  34.218  28.825  1.00  0.00     0.167 HD
ATOM     55  C   UNL A   1      43.177  33.290  29.159  1.00  0.00     0.074 A 
ATOM     56  C   UNL A   1      44.562  33.251  28.710  1.00  0.00     0.031 C 
ATOM     57  C   UNL A   1      42.320  34.326  29.421  1.00  0.00     0.031 A 
BRANCH  44  58
ATOM     58  C   UNL A   1      36.333  33.779  30.787  1.00  0.00    -0.014 A 
ATOM     59  C   UNL A   1      35.368  34.056  29.792  1.00  0.00     0.010 A 
ATOM     60  C   UNL A   1      35.983  34.155  32.100  1.00  0.00     0.010 A 
ATOM     61  C   UNL A   1      34.180  34.757  30.067  1.00  0.00     0.020 A 
ATOM     62  C   UNL A   1      34.805  34.876  32.387  1.00  0.00     0.020 A 
ATOM     63  C   UNL A   1      33.920  35.195  31.362  1.00  0.00     0.054 A 
BRANCH  63  64
ATOM     64  S   UNL A   1      32.440  36.202  31.675  1.00  0.00     0.124 S 
ATOM     65  O   UNL A   1      31.950  36.469  30.325  1.00  0.00    -0.237 OA
ATOM     66  O   UNL A   1      31.611  35.308  32.479  1.00  0.00    -0.237 OA
ATOM     67  O   UNL A   1      32.957  37.371  32.385  1.00  0.00    -0.744 OA
ENDBRANCH  63  64
ENDBRANCH  44  58
BRANCH  45  68
ATOM     68  C   UNL A   1      44.352  28.671  28.575  1.00  0.00    -0.014 A 
ATOM     69  C   UNL A   1      43.982  28.866  27.219  1.00  0.00     0.010 A 
ATOM     70  C   UNL A   1      45.171  27.569  28.875  1.00  0.00     0.010 A 
ATOM     71  C   UNL A   1      44.510  28.076  26.193  1.00  0.00     0.020 A 
ATOM     72  C   UNL A   1      45.681  26.751  27.846  1.00  0.00     0.020 A 
ATOM     73  C   UNL A   1      45.374  27.033  26.510  1.00  0.00     0.054 A 
BRANCH  73  74
ATOM     74  S   UNL A   1      46.228  26.181  25.144  1.00  0.00     0.124 S 
ATOM     75  O   UNL A   1      46.367  27.248  24.159  1.00  0.00    -0.237 OA
ATOM     76  O   UNL A   1      47.470  25.754  25.787  1.00  0.00    -0.237 OA
ATOM     77  O   UNL A   1      45.296  25.114  24.792  1.00  0.00    -0.744 OA
ENDBRANCH  73  74
ENDBRANCH  45  68
BRANCH  57  78
ATOM     78  C   UNL A   1      42.518  35.778  29.018  1.00  0.00    -0.014 A 
ATOM     79  C   UNL A   1      43.345  36.689  29.686  1.00  0.00     0.010 A 
ATOM     80  C   UNL A   1      41.907  36.248  27.825  1.00  0.00     0.010 A 
ATOM     81  C   UNL A   1      43.489  38.011  29.249  1.00  0.00     0.020 A 
ATOM     82  C   UNL A   1      42.091  37.546  27.342  1.00  0.00     0.020 A 
ATOM     83  C   UNL A   1      42.861  38.431  28.079  1.00  0.00     0.054 A 
BRANCH  83  84
ATOM     84  S   UNL A   1      43.119  40.124  27.504  1.00  0.00     0.124 S 
ATOM     85  O   UNL A   1      43.915  39.913  26.298  1.00  0.00    -0.237 OA
ATOM     86  O   UNL A   1      41.753  40.595  27.280  1.00  0.00    -0.237 OA
ATOM     87  O   UNL A   1      43.818  40.765  28.614  1.00  0.00    -0.744 OA
ENDBRANCH  83  84
ENDBRANCH  57  78
ENDBRANCH  31  32
ENDBRANCH  24  26
ENDBRANCH  23  24
ENDBRANCH   1  23
TORSDOF 17
ENDMDL
