MODEL 1
REMARK VINA RESULT:     -10.9      0.000      0.000
REMARK SMILES COc1ccc(-c2noc(CC(=O)OCCOC(=O)c3ccc(-c4c5nc(c(-c6ccc(S(=O)(=O)[O-])cc6)c6ccc([nH]6)c(-c6ccc(S(=O)(=O)[O-])cc6)c6nc(c(-c7ccc(S(=O)(=O)[O-])cc7)c7ccc4[nH]7)C=C6)C=C5)cc3)c2-c2ccc(OC)cc2)cc1
REMARK SMILES IDX 15 1 14 2 12 3 13 4 11 5 10 6 7 7 8 8 80 9 9 10 6 11 3 12
REMARK SMILES IDX 4 13 90 14 5 15 89 16 2 17 1 18 81 19 82 20 88 21 83 22
REMARK SMILES IDX 87 23 84 24 85 25 86 26 16 27 17 28 18 29 19 30 20 31 21 32
REMARK SMILES IDX 79 33 22 34 78 35 23 36 24 37 25 38 72 39 26 40 77 41 71 42
REMARK SMILES IDX 73 43 27 44 76 45 70 46 69 47 28 49 58 50 39 51 57 52 40 53
REMARK SMILES IDX 43 54 56 55 74 56 41 57 42 58 55 60 75 61 44 62 29 63 30 64
REMARK SMILES IDX 38 65 31 66 37 67 32 68 33 69 34 70 35 71 36 72 59 73 60 74
REMARK SMILES IDX 68 75 61 76 67 77 62 78 63 79 64 80 65 81 66 82 45 83 46 84
REMARK SMILES IDX 54 85 47 86 53 87 48 88 49 89 50 90 51 91 52 92
REMARK H PARENT 73 48 43 59
REMARK Flexibility Score: inf
ROOT
ATOM      1  C   UNL A   1      36.713  23.289  25.901  1.00  0.00     0.274 C 
ENDROOT
BRANCH   1   2
ATOM      2  O   UNL A   1      35.803  24.399  25.792  1.00  0.00    -0.462 OA
BRANCH   2   3
ATOM      3  C   UNL A   1      34.728  24.192  24.990  1.00  0.00     0.313 C 
ATOM      4  O   UNL A   1      34.789  24.060  23.770  1.00  0.00    -0.252 OA
BRANCH   3   5
ATOM      5  C   UNL A   1      33.403  24.227  25.699  1.00  0.00     0.201 C 
BRANCH   5   6
ATOM      6  C   UNL A   1      32.281  24.837  24.949  1.00  0.00     0.156 A 
ATOM      7  C   UNL A   1      30.763  26.064  23.898  1.00  0.00     0.122 A 
ATOM      8  N   UNL A   1      30.626  24.812  23.437  1.00  0.00    -0.079 NA
ATOM      9  C   UNL A   1      31.791  26.122  24.877  1.00  0.00     0.053 A 
ATOM     10  O   UNL A   1      31.595  24.054  24.074  1.00  0.00    -0.359 OA
BRANCH   7  11
ATOM     11  C   UNL A   1      29.952  27.166  23.397  1.00  0.00     0.005 A 
ATOM     12  C   UNL A   1      28.426  29.350  22.507  1.00  0.00     0.118 A 
ATOM     13  C   UNL A   1      27.819  28.295  23.193  1.00  0.00     0.047 A 
ATOM     14  C   UNL A   1      29.801  29.318  22.273  1.00  0.00     0.047 A 
ATOM     15  C   UNL A   1      28.573  27.198  23.621  1.00  0.00     0.014 A 
ATOM     16  C   UNL A   1      30.560  28.230  22.715  1.00  0.00     0.014 A 
BRANCH  12  17
ATOM     17  O   UNL A   1      27.595  30.377  22.152  1.00  0.00    -0.497 OA
ATOM     18  C   UNL A   1      27.922  31.643  22.716  1.00  0.00     0.278 C 
ENDBRANCH  12  17
ENDBRANCH   7  11
BRANCH   9  19
ATOM     19  C   UNL A   1      32.288  27.206  25.689  1.00  0.00    -0.012 A 
ATOM     20  C   UNL A   1      33.427  27.907  25.291  1.00  0.00     0.013 A 
ATOM     21  C   UNL A   1      31.593  27.601  26.837  1.00  0.00     0.013 A 
ATOM     22  C   UNL A   1      33.843  29.023  26.020  1.00  0.00     0.047 A 
ATOM     23  C   UNL A   1      32.011  28.722  27.560  1.00  0.00     0.047 A 
ATOM     24  C   UNL A   1      33.128  29.448  27.144  1.00  0.00     0.118 A 
BRANCH  24  25
ATOM     25  O   UNL A   1      33.617  30.574  27.745  1.00  0.00    -0.497 OA
ATOM     26  C   UNL A   1      35.029  30.741  27.718  1.00  0.00     0.278 C 
ENDBRANCH  24  25
ENDBRANCH   9  19
ENDBRANCH   5   6
ENDBRANCH   3   5
ENDBRANCH   2   3
ENDBRANCH   1   2
BRANCH   1  27
ATOM     27  C   UNL A   1      38.164  23.761  25.967  1.00  0.00     0.275 C 
BRANCH  27  28
ATOM     28  O   UNL A   1      38.333  24.735  27.011  1.00  0.00    -0.458 OA
BRANCH  28  29
ATOM     29  C   UNL A   1      39.441  25.506  26.919  1.00  0.00     0.338 C 
ATOM     30  O   UNL A   1      40.329  25.435  26.091  1.00  0.00    -0.246 OA
BRANCH  29  31
ATOM     31  C   UNL A   1      39.440  26.489  28.012  1.00  0.00     0.060 A 
ATOM     32  C   UNL A   1      40.072  27.722  27.836  1.00  0.00     0.016 A 
ATOM     33  C   UNL A   1      38.901  26.138  29.250  1.00  0.00     0.016 A 
ATOM     34  C   UNL A   1      40.182  28.608  28.909  1.00  0.00     0.010 A 
ATOM     35  C   UNL A   1      38.993  27.034  30.317  1.00  0.00     0.010 A 
ATOM     36  C   UNL A   1      39.650  28.267  30.160  1.00  0.00    -0.014 A 
BRANCH  36  37
ATOM     37  C   UNL A   1      39.828  29.168  31.325  1.00  0.00     0.031 A 
ATOM     38  C   UNL A   1      41.004  28.976  32.243  1.00  0.00     0.074 A 
ATOM     39  C   UNL A   1      38.943  30.156  31.562  1.00  0.00     0.049 A 
ATOM     40  N   UNL A   1      41.271  29.568  33.380  1.00  0.00    -0.248 NA
ATOM     41  C   UNL A   1      42.013  27.987  31.828  1.00  0.00     0.031 C 
ATOM     42  C   UNL A   1      37.794  30.484  30.717  1.00  0.00     0.029 A 
ATOM     43  N   UNL A   1      38.875  31.065  32.587  1.00  0.00    -0.354 N 
ATOM     44  C   UNL A   1      42.464  29.012  33.826  1.00  0.00     0.074 A 
ATOM     45  C   UNL A   1      42.863  28.026  32.844  1.00  0.00     0.031 C 
ATOM     46  C   UNL A   1      37.138  31.526  31.256  1.00  0.00     0.029 A 
ATOM     47  C   UNL A   1      37.788  31.903  32.507  1.00  0.00     0.049 A 
ATOM     48  H   UNL A   1      39.540  31.112  33.311  1.00  0.00     0.167 HD
ATOM     49  C   UNL A   1      43.163  29.296  34.951  1.00  0.00     0.031 A 
ATOM     50  C   UNL A   1      37.349  32.848  33.362  1.00  0.00     0.031 A 
ATOM     51  C   UNL A   1      42.764  30.275  35.926  1.00  0.00     0.049 A 
ATOM     52  C   UNL A   1      38.102  33.095  34.640  1.00  0.00     0.074 A 
ATOM     53  C   UNL A   1      43.392  30.618  37.113  1.00  0.00     0.029 A 
ATOM     54  N   UNL A   1      41.637  31.077  35.826  1.00  0.00    -0.354 N 
ATOM     55  N   UNL A   1      39.204  32.527  35.069  1.00  0.00    -0.248 NA
ATOM     56  C   UNL A   1      37.546  34.102  35.553  1.00  0.00     0.031 C 
ATOM     57  C   UNL A   1      42.628  31.605  37.744  1.00  0.00     0.029 A 
ATOM     58  C   UNL A   1      41.547  31.907  36.931  1.00  0.00     0.049 A 
ATOM     59  H   UNL A   1      40.995  31.058  35.080  1.00  0.00     0.167 HD
ATOM     60  C   UNL A   1      39.483  33.122  36.294  1.00  0.00     0.074 A 
ATOM     61  C   UNL A   1      38.443  34.103  36.531  1.00  0.00     0.031 C 
ATOM     62  C   UNL A   1      40.507  32.878  37.148  1.00  0.00     0.031 A 
BRANCH  49  63
ATOM     63  C   UNL A   1      44.423  28.514  35.200  1.00  0.00    -0.014 A 
ATOM     64  C   UNL A   1      45.675  29.006  34.788  1.00  0.00     0.010 A 
ATOM     65  C   UNL A   1      44.360  27.287  35.886  1.00  0.00     0.010 A 
ATOM     66  C   UNL A   1      46.838  28.270  35.031  1.00  0.00     0.020 A 
ATOM     67  C   UNL A   1      45.522  26.559  36.149  1.00  0.00     0.020 A 
ATOM     68  C   UNL A   1      46.754  27.048  35.705  1.00  0.00     0.054 A 
BRANCH  68  69
ATOM     69  S   UNL A   1      48.280  26.121  36.031  1.00  0.00     0.124 S 
ATOM     70  O   UNL A   1      48.306  26.091  37.491  1.00  0.00    -0.237 OA
ATOM     71  O   UNL A   1      48.025  24.839  35.381  1.00  0.00    -0.237 OA
ATOM     72  O   UNL A   1      49.319  26.937  35.405  1.00  0.00    -0.744 OA
ENDBRANCH  68  69
ENDBRANCH  49  63
BRANCH  50  73
ATOM     73  C   UNL A   1      36.110  33.612  33.055  1.00  0.00    -0.014 A 
ATOM     74  C   UNL A   1      36.176  34.820  32.340  1.00  0.00     0.010 A 
ATOM     75  C   UNL A   1      34.858  33.137  33.487  1.00  0.00     0.010 A 
ATOM     76  C   UNL A   1      35.013  35.551  32.078  1.00  0.00     0.020 A 
ATOM     77  C   UNL A   1      33.691  33.853  33.205  1.00  0.00     0.020 A 
ATOM     78  C   UNL A   1      33.777  35.063  32.514  1.00  0.00     0.054 A 
BRANCH  78  79
ATOM     79  S   UNL A   1      32.273  36.000  32.128  1.00  0.00     0.124 S 
ATOM     80  O   UNL A   1      32.447  36.280  30.707  1.00  0.00    -0.237 OA
ATOM     81  O   UNL A   1      31.211  35.054  32.461  1.00  0.00    -0.237 OA
ATOM     82  O   UNL A   1      32.361  37.161  33.012  1.00  0.00    -0.744 OA
ENDBRANCH  78  79
ENDBRANCH  50  73
BRANCH  62  83
ATOM     83  C   UNL A   1      40.572  33.710  38.398  1.00  0.00    -0.014 A 
ATOM     84  C   UNL A   1      39.964  33.279  39.589  1.00  0.00     0.010 A 
ATOM     85  C   UNL A   1      41.288  34.920  38.390  1.00  0.00     0.010 A 
ATOM     86  C   UNL A   1      40.046  34.059  40.745  1.00  0.00     0.020 A 
ATOM     87  C   UNL A   1      41.390  35.693  39.549  1.00  0.00     0.020 A 
ATOM     88  C   UNL A   1      40.755  35.264  40.717  1.00  0.00     0.054 A 
BRANCH  88  89
ATOM     89  S   UNL A   1      40.884  36.244  42.238  1.00  0.00     0.124 S 
ATOM     90  O   UNL A   1      41.952  37.183  41.904  1.00  0.00    -0.237 OA
ATOM     91  O   UNL A   1      39.550  36.829  42.361  1.00  0.00    -0.237 OA
ATOM     92  O   UNL A   1      41.219  35.254  43.259  1.00  0.00    -0.744 OA
ENDBRANCH  88  89
ENDBRANCH  62  83
ENDBRANCH  36  37
ENDBRANCH  29  31
ENDBRANCH  28  29
ENDBRANCH  27  28
ENDBRANCH   1  27
TORSDOF 19
ENDMDL
MODEL 2
REMARK VINA RESULT:     -10.4      5.257      9.872
REMARK SMILES COc1ccc(-c2noc(CC(=O)OCCOC(=O)c3ccc(-c4c5nc(c(-c6ccc(S(=O)(=O)[O-])cc6)c6ccc([nH]6)c(-c6ccc(S(=O)(=O)[O-])cc6)c6nc(c(-c7ccc(S(=O)(=O)[O-])cc7)c7ccc4[nH]7)C=C6)C=C5)cc3)c2-c2ccc(OC)cc2)cc1
REMARK SMILES IDX 15 1 14 2 12 3 13 4 11 5 10 6 7 7 8 8 80 9 9 10 6 11 3 12
REMARK SMILES IDX 4 13 90 14 5 15 89 16 2 17 1 18 81 19 82 20 88 21 83 22
REMARK SMILES IDX 87 23 84 24 85 25 86 26 16 27 17 28 18 29 19 30 20 31 21 32
REMARK SMILES IDX 79 33 22 34 78 35 23 36 24 37 25 38 72 39 26 40 77 41 71 42
REMARK SMILES IDX 73 43 27 44 76 45 70 46 69 47 28 49 58 50 39 51 57 52 40 53
REMARK SMILES IDX 43 54 56 55 74 56 41 57 42 58 55 60 75 61 44 62 29 63 30 64
REMARK SMILES IDX 38 65 31 66 37 67 32 68 33 69 34 70 35 71 36 72 59 73 60 74
REMARK SMILES IDX 68 75 61 76 67 77 62 78 63 79 64 80 65 81 66 82 45 83 46 84
REMARK SMILES IDX 54 85 47 86 53 87 48 88 49 89 50 90 51 91 52 92
REMARK H PARENT 73 48 43 59
REMARK Flexibility Score: inf
ROOT
ATOM      1  C   UNL A   1      35.713  21.691  25.090  1.00  0.00     0.274 C 
ENDROOT
BRANCH   1   2
ATOM      2  O   UNL A   1      35.427  23.065  25.413  1.00  0.00    -0.462 OA
BRANCH   2   3
ATOM      3  C   UNL A   1      34.390  23.617  24.733  1.00  0.00     0.313 C 
ATOM      4  O   UNL A   1      34.487  24.139  23.626  1.00  0.00    -0.252 OA
BRANCH   3   5
ATOM      5  C   UNL A   1      33.088  23.632  25.484  1.00  0.00     0.201 C 
BRANCH   5   6
ATOM      6  C   UNL A   1      31.970  24.351  24.831  1.00  0.00     0.156 A 
ATOM      7  C   UNL A   1      30.479  25.726  23.934  1.00  0.00     0.122 A 
ATOM      8  N   UNL A   1      30.244  24.514  23.408  1.00  0.00    -0.079 NA
ATOM      9  C   UNL A   1      31.556  25.664  24.860  1.00  0.00     0.053 A 
ATOM     10  O   UNL A   1      31.196  23.664  23.948  1.00  0.00    -0.359 OA
BRANCH   7  11
ATOM     11  C   UNL A   1      29.714  26.901  23.541  1.00  0.00     0.005 A 
ATOM     12  C   UNL A   1      28.197  29.113  22.704  1.00  0.00     0.118 A 
ATOM     13  C   UNL A   1      29.567  29.053  22.438  1.00  0.00     0.047 A 
ATOM     14  C   UNL A   1      27.581  28.061  23.382  1.00  0.00     0.047 A 
ATOM     15  C   UNL A   1      30.329  27.962  22.869  1.00  0.00     0.014 A 
ATOM     16  C   UNL A   1      28.337  26.960  23.799  1.00  0.00     0.014 A 
BRANCH  12  17
ATOM     17  O   UNL A   1      27.551  30.217  22.220  1.00  0.00    -0.497 OA
ATOM     18  C   UNL A   1      28.330  31.051  21.369  1.00  0.00     0.278 C 
ENDBRANCH  12  17
ENDBRANCH   7  11
BRANCH   9  19
ATOM     19  C   UNL A   1      32.157  26.666  25.707  1.00  0.00    -0.012 A 
ATOM     20  C   UNL A   1      33.390  27.220  25.361  1.00  0.00     0.013 A 
ATOM     21  C   UNL A   1      31.476  27.132  26.836  1.00  0.00     0.013 A 
ATOM     22  C   UNL A   1      33.918  28.264  26.122  1.00  0.00     0.047 A 
ATOM     23  C   UNL A   1      32.006  28.181  27.591  1.00  0.00     0.047 A 
ATOM     24  C   UNL A   1      33.221  28.763  27.227  1.00  0.00     0.118 A 
BRANCH  24  25
ATOM     25  O   UNL A   1      33.828  29.811  27.863  1.00  0.00    -0.497 OA
ATOM     26  C   UNL A   1      33.612  31.100  27.304  1.00  0.00     0.278 C 
ENDBRANCH  24  25
ENDBRANCH   9  19
ENDBRANCH   5   6
ENDBRANCH   3   5
ENDBRANCH   2   3
ENDBRANCH   1   2
BRANCH   1  27
ATOM     27  C   UNL A   1      37.203  21.384  25.230  1.00  0.00     0.275 C 
BRANCH  27  28
ATOM     28  O   UNL A   1      37.876  22.448  25.925  1.00  0.00    -0.458 OA
BRANCH  28  29
ATOM     29  C   UNL A   1      39.159  22.196  26.277  1.00  0.00     0.338 C 
ATOM     30  O   UNL A   1      39.765  21.146  26.180  1.00  0.00    -0.246 OA
BRANCH  29  31
ATOM     31  C   UNL A   1      39.757  23.419  26.832  1.00  0.00     0.060 A 
ATOM     32  C   UNL A   1      39.541  24.645  26.199  1.00  0.00     0.016 A 
ATOM     33  C   UNL A   1      40.622  23.326  27.923  1.00  0.00     0.016 A 
ATOM     34  C   UNL A   1      40.205  25.788  26.648  1.00  0.00     0.010 A 
ATOM     35  C   UNL A   1      41.269  24.475  28.385  1.00  0.00     0.010 A 
ATOM     36  C   UNL A   1      41.081  25.709  27.740  1.00  0.00    -0.014 A 
BRANCH  36  37
ATOM     37  C   UNL A   1      41.850  26.901  28.176  1.00  0.00     0.031 A 
ATOM     38  C   UNL A   1      41.136  28.050  28.834  1.00  0.00     0.074 A 
ATOM     39  C   UNL A   1      43.183  26.956  27.987  1.00  0.00     0.049 A 
ATOM     40  N   UNL A   1      41.598  29.227  29.170  1.00  0.00    -0.248 NA
ATOM     41  C   UNL A   1      39.714  27.847  29.156  1.00  0.00     0.031 C 
ATOM     42  C   UNL A   1      44.002  25.886  27.414  1.00  0.00     0.029 A 
ATOM     43  N   UNL A   1      44.081  27.957  28.257  1.00  0.00    -0.354 N 
ATOM     44  C   UNL A   1      40.523  29.913  29.724  1.00  0.00     0.074 A 
ATOM     45  C   UNL A   1      39.382  29.024  29.666  1.00  0.00     0.031 C 
ATOM     46  C   UNL A   1      45.284  26.288  27.381  1.00  0.00     0.029 A 
ATOM     47  C   UNL A   1      45.369  27.657  27.880  1.00  0.00     0.049 A 
ATOM     48  H   UNL A   1      43.828  28.809  28.679  1.00  0.00     0.167 HD
ATOM     49  C   UNL A   1      40.490  31.168  30.232  1.00  0.00     0.031 A 
ATOM     50  C   UNL A   1      46.485  28.411  27.906  1.00  0.00     0.031 A 
ATOM     51  C   UNL A   1      41.626  32.050  30.287  1.00  0.00     0.049 A 
ATOM     52  C   UNL A   1      46.407  29.827  28.408  1.00  0.00     0.074 A 
ATOM     53  C   UNL A   1      41.687  33.350  30.760  1.00  0.00     0.029 A 
ATOM     54  N   UNL A   1      42.903  31.720  29.861  1.00  0.00    -0.354 N 
ATOM     55  N   UNL A   1      45.372  30.475  28.884  1.00  0.00    -0.248 NA
ATOM     56  C   UNL A   1      47.647  30.614  28.365  1.00  0.00     0.031 C 
ATOM     57  C   UNL A   1      42.995  33.816  30.593  1.00  0.00     0.029 A 
ATOM     58  C   UNL A   1      43.757  32.793  30.054  1.00  0.00     0.049 A 
ATOM     59  H   UNL A   1      43.164  30.851  29.478  1.00  0.00     0.167 HD
ATOM     60  C   UNL A   1      45.840  31.742  29.216  1.00  0.00     0.074 A 
ATOM     61  C   UNL A   1      47.254  31.764  28.898  1.00  0.00     0.031 C 
ATOM     62  C   UNL A   1      45.162  32.794  29.735  1.00  0.00     0.031 A 
BRANCH  49  63
ATOM     63  C   UNL A   1      39.170  31.671  30.747  1.00  0.00    -0.014 A 
ATOM     64  C   UNL A   1      38.802  31.493  32.093  1.00  0.00     0.010 A 
ATOM     65  C   UNL A   1      38.302  32.364  29.884  1.00  0.00     0.010 A 
ATOM     66  C   UNL A   1      37.574  31.971  32.558  1.00  0.00     0.020 A 
ATOM     67  C   UNL A   1      37.083  32.862  30.351  1.00  0.00     0.020 A 
ATOM     68  C   UNL A   1      36.719  32.648  31.682  1.00  0.00     0.054 A 
BRANCH  68  69
ATOM     69  S   UNL A   1      35.141  33.282  32.315  1.00  0.00     0.124 S 
ATOM     70  O   UNL A   1      35.302  34.722  32.135  1.00  0.00    -0.237 OA
ATOM     71  O   UNL A   1      34.162  32.646  31.439  1.00  0.00    -0.237 OA
ATOM     72  O   UNL A   1      35.117  32.826  33.704  1.00  0.00    -0.744 OA
ENDBRANCH  68  69
ENDBRANCH  49  63
BRANCH  50  73
ATOM     73  C   UNL A   1      47.771  27.855  27.408  1.00  0.00    -0.014 A 
ATOM     74  C   UNL A   1      48.159  28.042  26.070  1.00  0.00     0.010 A 
ATOM     75  C   UNL A   1      48.612  27.127  28.271  1.00  0.00     0.010 A 
ATOM     76  C   UNL A   1      49.355  27.494  25.597  1.00  0.00     0.020 A 
ATOM     77  C   UNL A   1      49.820  26.599  27.807  1.00  0.00     0.020 A 
ATOM     78  C   UNL A   1      50.178  26.774  26.469  1.00  0.00     0.054 A 
BRANCH  78  79
ATOM     79  S   UNL A   1      51.748  26.107  25.852  1.00  0.00     0.124 S 
ATOM     80  O   UNL A   1      51.575  26.214  24.407  1.00  0.00    -0.237 OA
ATOM     81  O   UNL A   1      52.734  27.012  26.439  1.00  0.00    -0.237 OA
ATOM     82  O   UNL A   1      51.770  24.746  26.383  1.00  0.00    -0.744 OA
ENDBRANCH  78  79
ENDBRANCH  50  73
BRANCH  62  83
ATOM     83  C   UNL A   1      45.947  34.043  30.025  1.00  0.00    -0.014 A 
ATOM     84  C   UNL A   1      46.581  34.229  31.265  1.00  0.00     0.010 A 
ATOM     85  C   UNL A   1      46.086  35.022  29.026  1.00  0.00     0.010 A 
ATOM     86  C   UNL A   1      47.318  35.390  31.513  1.00  0.00     0.020 A 
ATOM     87  C   UNL A   1      46.839  36.176  29.263  1.00  0.00     0.020 A 
ATOM     88  C   UNL A   1      47.439  36.358  30.511  1.00  0.00     0.054 A 
BRANCH  88  89
ATOM     89  S   UNL A   1      48.432  37.841  30.836  1.00  0.00     0.124 S 
ATOM     90  O   UNL A   1      49.195  37.442  32.015  1.00  0.00    -0.237 OA
ATOM     91  O   UNL A   1      49.208  37.988  29.606  1.00  0.00    -0.237 OA
ATOM     92  O   UNL A   1      47.433  38.883  31.062  1.00  0.00    -0.744 OA
ENDBRANCH  88  89
ENDBRANCH  62  83
ENDBRANCH  36  37
ENDBRANCH  29  31
ENDBRANCH  28  29
ENDBRANCH  27  28
ENDBRANCH   1  27
TORSDOF 19
ENDMDL
MODEL 3
REMARK VINA RESULT:     -10.3      4.673      5.572
REMARK SMILES COc1ccc(-c2noc(CC(=O)OCCOC(=O)c3ccc(-c4c5nc(c(-c6ccc(S(=O)(=O)[O-])cc6)c6ccc([nH]6)c(-c6ccc(S(=O)(=O)[O-])cc6)c6nc(c(-c7ccc(S(=O)(=O)[O-])cc7)c7ccc4[nH]7)C=C6)C=C5)cc3)c2-c2ccc(OC)cc2)cc1
REMARK SMILES IDX 15 1 14 2 12 3 13 4 11 5 10 6 7 7 8 8 80 9 9 10 6 11 3 12
REMARK SMILES IDX 4 13 90 14 5 15 89 16 2 17 1 18 81 19 82 20 88 21 83 22
REMARK SMILES IDX 87 23 84 24 85 25 86 26 16 27 17 28 18 29 19 30 20 31 21 32
REMARK SMILES IDX 79 33 22 34 78 35 23 36 24 37 25 38 72 39 26 40 77 41 71 42
REMARK SMILES IDX 73 43 27 44 76 45 70 46 69 47 28 49 58 50 39 51 57 52 40 53
REMARK SMILES IDX 43 54 56 55 74 56 41 57 42 58 55 60 75 61 44 62 29 63 30 64
REMARK SMILES IDX 38 65 31 66 37 67 32 68 33 69 34 70 35 71 36 72 59 73 60 74
REMARK SMILES IDX 68 75 61 76 67 77 62 78 63 79 64 80 65 81 66 82 45 83 46 84
REMARK SMILES IDX 54 85 47 86 53 87 48 88 49 89 50 90 51 91 52 92
REMARK H PARENT 73 48 43 59
REMARK Flexibility Score: inf
ROOT
ATOM      1  C   UNL A   1      35.661  21.287  25.488  1.00  0.00     0.274 C 
ENDROOT
BRANCH   1   2
ATOM      2  O   UNL A   1      34.654  22.099  24.855  1.00  0.00    -0.462 OA
BRANCH   2   3
ATOM      3  C   UNL A   1      33.692  22.581  25.684  1.00  0.00     0.313 C 
ATOM      4  O   UNL A   1      32.899  21.879  26.306  1.00  0.00    -0.252 OA
BRANCH   3   5
ATOM      5  C   UNL A   1      33.594  24.080  25.722  1.00  0.00     0.201 C 
BRANCH   5   6
ATOM      6  C   UNL A   1      32.462  24.676  24.975  1.00  0.00     0.156 A 
ATOM      7  C   UNL A   1      30.932  25.884  23.919  1.00  0.00     0.122 A 
ATOM      8  N   UNL A   1      30.785  24.621  23.488  1.00  0.00    -0.079 NA
ATOM      9  C   UNL A   1      31.974  25.960  24.882  1.00  0.00     0.053 A 
ATOM     10  O   UNL A   1      31.762  23.876  24.128  1.00  0.00    -0.359 OA
BRANCH   7  11
ATOM     11  C   UNL A   1      30.117  26.976  23.405  1.00  0.00     0.005 A 
ATOM     12  C   UNL A   1      28.586  29.145  22.486  1.00  0.00     0.118 A 
ATOM     13  C   UNL A   1      27.996  28.136  23.250  1.00  0.00     0.047 A 
ATOM     14  C   UNL A   1      29.947  29.075  22.188  1.00  0.00     0.047 A 
ATOM     15  C   UNL A   1      28.751  27.045  23.694  1.00  0.00     0.014 A 
ATOM     16  C   UNL A   1      30.708  27.995  22.645  1.00  0.00     0.014 A 
BRANCH  12  17
ATOM     17  O   UNL A   1      27.757  30.170  22.123  1.00  0.00    -0.497 OA
ATOM     18  C   UNL A   1      27.590  31.190  23.102  1.00  0.00     0.278 C 
ENDBRANCH  12  17
ENDBRANCH   7  11
BRANCH   9  19
ATOM     19  C   UNL A   1      32.486  27.061  25.662  1.00  0.00    -0.012 A 
ATOM     20  C   UNL A   1      33.601  27.771  25.214  1.00  0.00     0.013 A 
ATOM     21  C   UNL A   1      31.828  27.462  26.829  1.00  0.00     0.013 A 
ATOM     22  C   UNL A   1      34.028  28.902  25.914  1.00  0.00     0.047 A 
ATOM     23  C   UNL A   1      32.256  28.597  27.522  1.00  0.00     0.047 A 
ATOM     24  C   UNL A   1      33.348  29.331  27.057  1.00  0.00     0.118 A 
BRANCH  24  25
ATOM     25  O   UNL A   1      33.844  30.472  27.626  1.00  0.00    -0.497 OA
ATOM     26  C   UNL A   1      35.152  30.385  28.176  1.00  0.00     0.278 C 
ENDBRANCH  24  25
ENDBRANCH   9  19
ENDBRANCH   5   6
ENDBRANCH   3   5
ENDBRANCH   2   3
ENDBRANCH   1   2
BRANCH   1  27
ATOM     27  C   UNL A   1      37.059  21.639  24.984  1.00  0.00     0.275 C 
BRANCH  27  28
ATOM     28  O   UNL A   1      37.560  22.808  25.654  1.00  0.00    -0.458 OA
BRANCH  28  29
ATOM     29  C   UNL A   1      38.752  22.659  26.278  1.00  0.00     0.338 C 
ATOM     30  O   UNL A   1      39.365  21.626  26.475  1.00  0.00    -0.246 OA
BRANCH  29  31
ATOM     31  C   UNL A   1      39.234  23.975  26.722  1.00  0.00     0.060 A 
ATOM     32  C   UNL A   1      39.882  24.818  25.816  1.00  0.00     0.016 A 
ATOM     33  C   UNL A   1      39.135  24.323  28.070  1.00  0.00     0.016 A 
ATOM     34  C   UNL A   1      40.450  26.012  26.260  1.00  0.00     0.010 A 
ATOM     35  C   UNL A   1      39.686  25.530  28.509  1.00  0.00     0.010 A 
ATOM     36  C   UNL A   1      40.363  26.374  27.612  1.00  0.00    -0.014 A 
BRANCH  36  37
ATOM     37  C   UNL A   1      41.030  27.603  28.108  1.00  0.00     0.031 A 
ATOM     38  C   UNL A   1      42.529  27.714  28.049  1.00  0.00     0.074 A 
ATOM     39  C   UNL A   1      40.298  28.618  28.607  1.00  0.00     0.049 A 
ATOM     40  N   UNL A   1      43.309  28.641  28.544  1.00  0.00    -0.248 NA
ATOM     41  C   UNL A   1      43.244  26.640  27.341  1.00  0.00     0.031 C 
ATOM     42  C   UNL A   1      38.835  28.659  28.667  1.00  0.00     0.029 A 
ATOM     43  N   UNL A   1      40.689  29.810  29.161  1.00  0.00    -0.354 N 
ATOM     44  C   UNL A   1      44.606  28.255  28.226  1.00  0.00     0.074 A 
ATOM     45  C   UNL A   1      44.508  27.003  27.506  1.00  0.00     0.031 C 
ATOM     46  C   UNL A   1      38.454  29.822  29.222  1.00  0.00     0.029 A 
ATOM     47  C   UNL A   1      39.640  30.582  29.603  1.00  0.00     0.049 A 
ATOM     48  H   UNL A   1      41.630  30.088  29.236  1.00  0.00     0.167 HD
ATOM     49  C   UNL A   1      45.771  28.886  28.507  1.00  0.00     0.031 A 
ATOM     50  C   UNL A   1      39.637  31.755  30.267  1.00  0.00     0.031 A 
ATOM     51  C   UNL A   1      45.865  30.130  29.224  1.00  0.00     0.049 A 
ATOM     52  C   UNL A   1      40.945  32.399  30.632  1.00  0.00     0.074 A 
ATOM     53  C   UNL A   1      47.002  30.837  29.581  1.00  0.00     0.029 A 
ATOM     54  N   UNL A   1      44.781  30.861  29.685  1.00  0.00    -0.354 N 
ATOM     55  N   UNL A   1      42.165  31.996  30.364  1.00  0.00    -0.248 NA
ATOM     56  C   UNL A   1      40.877  33.651  31.399  1.00  0.00     0.031 C 
ATOM     57  C   UNL A   1      46.605  31.979  30.285  1.00  0.00     0.029 A 
ATOM     58  C   UNL A   1      45.221  32.005  30.330  1.00  0.00     0.049 A 
ATOM     59  H   UNL A   1      43.837  30.603  29.572  1.00  0.00     0.167 HD
ATOM     60  C   UNL A   1      43.008  32.956  30.914  1.00  0.00     0.074 A 
ATOM     61  C   UNL A   1      42.160  33.965  31.516  1.00  0.00     0.031 C 
ATOM     62  C   UNL A   1      44.362  32.998  30.921  1.00  0.00     0.031 A 
BRANCH  49  63
ATOM     63  C   UNL A   1      47.043  28.222  28.061  1.00  0.00    -0.014 A 
ATOM     64  C   UNL A   1      47.618  28.522  26.812  1.00  0.00     0.010 A 
ATOM     65  C   UNL A   1      47.693  27.312  28.914  1.00  0.00     0.010 A 
ATOM     66  C   UNL A   1      48.804  27.900  26.413  1.00  0.00     0.020 A 
ATOM     67  C   UNL A   1      48.890  26.704  28.527  1.00  0.00     0.020 A 
ATOM     68  C   UNL A   1      49.430  26.990  27.271  1.00  0.00     0.054 A 
BRANCH  68  69
ATOM     69  S   UNL A   1      50.983  26.214  26.741  1.00  0.00     0.124 S 
ATOM     70  O   UNL A   1      51.976  27.008  27.460  1.00  0.00    -0.237 OA
ATOM     71  O   UNL A   1      50.829  24.836  27.200  1.00  0.00    -0.237 OA
ATOM     72  O   UNL A   1      50.978  26.387  25.290  1.00  0.00    -0.744 OA
ENDBRANCH  68  69
ENDBRANCH  49  63
BRANCH  50  73
ATOM     73  C   UNL A   1      38.348  32.383  30.663  1.00  0.00    -0.014 A 
ATOM     74  C   UNL A   1      37.672  33.242  29.779  1.00  0.00     0.010 A 
ATOM     75  C   UNL A   1      37.796  32.132  31.932  1.00  0.00     0.010 A 
ATOM     76  C   UNL A   1      36.475  33.854  30.164  1.00  0.00     0.020 A 
ATOM     77  C   UNL A   1      36.587  32.722  32.311  1.00  0.00     0.020 A 
ATOM     78  C   UNL A   1      35.941  33.591  31.430  1.00  0.00     0.054 A 
BRANCH  78  79
ATOM     79  S   UNL A   1      34.365  34.358  31.898  1.00  0.00     0.124 S 
ATOM     80  O   UNL A   1      33.685  34.461  30.612  1.00  0.00    -0.237 OA
ATOM     81  O   UNL A   1      33.803  33.389  32.836  1.00  0.00    -0.237 OA
ATOM     82  O   UNL A   1      34.771  35.627  32.497  1.00  0.00    -0.744 OA
ENDBRANCH  78  79
ENDBRANCH  50  73
BRANCH  62  83
ATOM     83  C   UNL A   1      45.009  34.190  31.568  1.00  0.00    -0.014 A 
ATOM     84  C   UNL A   1      45.375  34.169  32.925  1.00  0.00     0.010 A 
ATOM     85  C   UNL A   1      45.294  35.331  30.796  1.00  0.00     0.010 A 
ATOM     86  C   UNL A   1      45.988  35.282  33.507  1.00  0.00     0.020 A 
ATOM     87  C   UNL A   1      45.925  36.438  31.370  1.00  0.00     0.020 A 
ATOM     88  C   UNL A   1      46.255  36.411  32.727  1.00  0.00     0.054 A 
BRANCH  88  89
ATOM     89  S   UNL A   1      47.087  37.831  33.490  1.00  0.00     0.124 S 
ATOM     90  O   UNL A   1      47.194  38.759  32.367  1.00  0.00    -0.237 OA
ATOM     91  O   UNL A   1      46.154  38.226  34.543  1.00  0.00    -0.237 OA
ATOM     92  O   UNL A   1      48.352  37.276  33.964  1.00  0.00    -0.744 OA
ENDBRANCH  88  89
ENDBRANCH  62  83
ENDBRANCH  36  37
ENDBRANCH  29  31
ENDBRANCH  28  29
ENDBRANCH  27  28
ENDBRANCH   1  27
TORSDOF 19
ENDMDL
