MODEL 1
REMARK VINA RESULT:     -12.2      0.000      0.000
REMARK SMILES O=C(OCCOC(=O)c1cc(N2CCN(c3ccc(F)cc3)CC2)ccc1NC(=O)C1CCCC1)c1ccc(-c2c3nc(c(-c4ccc(S(=O)(=O)[O-])cc4)c4ccc([nH]4)c(-c4ccc(S(=O)(=O)[O-])cc4)c4nc(c(-c5ccc(S(=O)(=O)[O-])cc5)c5ccc2[nH]5)C=C4)C=C3)cc1
REMARK SMILES IDX 4 1 3 2 2 3 1 4 36 5 37 6 95 7 38 8 94 9 39 10 40 11 41 12
REMARK SMILES IDX 88 13 42 14 93 15 87 16 89 17 43 18 92 19 86 20 85 21 44 23
REMARK SMILES IDX 74 24 55 25 73 26 56 27 59 28 72 29 90 30 57 31 58 32 71 34
REMARK SMILES IDX 91 35 60 36 45 37 46 38 54 39 47 40 53 41 48 42 49 43 50 44
REMARK SMILES IDX 51 45 52 46 75 47 76 48 84 49 77 50 83 51 78 52 79 53 80 54
REMARK SMILES IDX 81 55 82 56 61 57 62 58 70 59 63 60 69 61 64 62 65 63 66 64
REMARK SMILES IDX 67 65 68 66 5 67 6 68 7 69 8 70 9 71 10 72 27 73 11 74 26 75
REMARK SMILES IDX 25 76 28 77 29 78 30 80 31 81 32 82 35 83 33 84 34 85 12 86
REMARK SMILES IDX 13 87 24 88 14 89 23 90 15 91 16 92 17 93 22 94 18 95 21 96
REMARK SMILES IDX 19 97 20 98
REMARK H PARENT 89 22 59 33 28 79
REMARK Flexibility Score: inf
ROOT
ATOM      1  C   UNL A   1      38.314  24.346  26.864  1.00  0.00     0.275 C 
ENDROOT
BRANCH   1   2
ATOM      2  O   UNL A   1      39.681  24.692  26.579  1.00  0.00    -0.458 OA
BRANCH   2   3
ATOM      3  C   UNL A   1      40.275  25.907  26.507  1.00  0.00     0.338 C 
ATOM      4  O   UNL A   1      40.912  26.189  25.493  1.00  0.00    -0.246 OA
BRANCH   3   5
ATOM      5  C   UNL A   1      40.309  26.882  27.643  1.00  0.00     0.060 A 
ATOM      6  C   UNL A   1      41.059  28.060  27.699  1.00  0.00     0.016 A 
ATOM      7  C   UNL A   1      39.525  26.558  28.762  1.00  0.00     0.016 A 
ATOM      8  C   UNL A   1      40.971  28.930  28.795  1.00  0.00     0.010 A 
ATOM      9  C   UNL A   1      39.433  27.423  29.858  1.00  0.00     0.010 A 
ATOM     10  C   UNL A   1      40.155  28.625  29.883  1.00  0.00    -0.014 A 
BRANCH  10  11
ATOM     11  C   UNL A   1      40.210  29.436  31.127  1.00  0.00     0.031 A 
ATOM     12  C   UNL A   1      41.175  29.005  32.191  1.00  0.00     0.074 A 
ATOM     13  C   UNL A   1      39.503  30.573  31.300  1.00  0.00     0.049 A 
ATOM     14  N   UNL A   1      41.369  29.519  33.373  1.00  0.00    -0.248 NA
ATOM     15  C   UNL A   1      42.090  27.899  31.853  1.00  0.00     0.031 C 
ATOM     16  C   UNL A   1      38.714  31.248  30.276  1.00  0.00     0.029 A 
ATOM     17  N   UNL A   1      39.305  31.351  32.420  1.00  0.00    -0.354 N 
ATOM     18  C   UNL A   1      42.497  28.881  33.868  1.00  0.00     0.074 A 
ATOM     19  C   UNL A   1      42.855  27.843  32.930  1.00  0.00     0.031 C 
ATOM     20  C   UNL A   1      38.024  32.256  30.840  1.00  0.00     0.029 A 
ATOM     21  C   UNL A   1      38.284  32.272  32.269  1.00  0.00     0.049 A 
ATOM     22  H   UNL A   1      39.837  31.261  33.244  1.00  0.00     0.167 HD
ATOM     23  C   UNL A   1      43.220  29.199  34.963  1.00  0.00     0.031 A 
ATOM     24  C   UNL A   1      37.597  32.963  33.204  1.00  0.00     0.031 A 
ATOM     25  C   UNL A   1      42.828  30.206  35.906  1.00  0.00     0.049 A 
ATOM     26  C   UNL A   1      38.146  32.973  34.600  1.00  0.00     0.074 A 
ATOM     27  C   UNL A   1      43.493  30.640  37.037  1.00  0.00     0.029 A 
ATOM     28  N   UNL A   1      41.639  30.915  35.839  1.00  0.00    -0.354 N 
ATOM     29  N   UNL A   1      39.175  32.320  35.080  1.00  0.00    -0.248 NA
ATOM     30  C   UNL A   1      37.498  33.883  35.554  1.00  0.00     0.031 C 
ATOM     31  C   UNL A   1      42.668  31.558  37.696  1.00  0.00     0.029 A 
ATOM     32  C   UNL A   1      41.521  31.743  36.939  1.00  0.00     0.049 A 
ATOM     33  H   UNL A   1      40.976  30.842  35.114  1.00  0.00     0.167 HD
ATOM     34  C   UNL A   1      39.366  32.823  36.358  1.00  0.00     0.074 A 
ATOM     35  C   UNL A   1      38.284  33.755  36.611  1.00  0.00     0.031 C 
ATOM     36  C   UNL A   1      40.402  32.609  37.201  1.00  0.00     0.031 A 
BRANCH  23  37
ATOM     37  C   UNL A   1      44.503  28.450  35.167  1.00  0.00    -0.014 A 
ATOM     38  C   UNL A   1      44.561  27.352  36.048  1.00  0.00     0.010 A 
ATOM     39  C   UNL A   1      45.663  28.849  34.486  1.00  0.00     0.010 A 
ATOM     40  C   UNL A   1      45.770  26.693  36.275  1.00  0.00     0.020 A 
ATOM     41  C   UNL A   1      46.869  28.176  34.693  1.00  0.00     0.020 A 
ATOM     42  C   UNL A   1      46.918  27.113  35.599  1.00  0.00     0.054 A 
BRANCH  42  43
ATOM     43  S   UNL A   1      48.475  26.239  35.907  1.00  0.00     0.124 S 
ATOM     44  O   UNL A   1      48.032  24.848  35.966  1.00  0.00    -0.237 OA
ATOM     45  O   UNL A   1      49.277  26.594  34.739  1.00  0.00    -0.237 OA
ATOM     46  O   UNL A   1      48.942  26.798  37.173  1.00  0.00    -0.744 OA
ENDBRANCH  42  43
ENDBRANCH  23  37
BRANCH  24  47
ATOM     47  C   UNL A   1      36.286  33.631  32.938  1.00  0.00    -0.014 A 
ATOM     48  C   UNL A   1      35.061  32.954  32.913  1.00  0.00     0.010 A 
ATOM     49  C   UNL A   1      36.293  35.015  32.654  1.00  0.00     0.010 A 
ATOM     50  C   UNL A   1      33.867  33.650  32.654  1.00  0.00     0.020 A 
ATOM     51  C   UNL A   1      35.110  35.711  32.387  1.00  0.00     0.020 A 
ATOM     52  C   UNL A   1      33.898  35.025  32.400  1.00  0.00     0.054 A 
BRANCH  52  53
ATOM     53  S   UNL A   1      32.354  35.963  32.188  1.00  0.00     0.124 S 
ATOM     54  O   UNL A   1      32.539  37.073  33.117  1.00  0.00    -0.237 OA
ATOM     55  O   UNL A   1      32.368  36.317  30.771  1.00  0.00    -0.237 OA
ATOM     56  O   UNL A   1      31.329  34.993  32.567  1.00  0.00    -0.744 OA
ENDBRANCH  52  53
ENDBRANCH  24  47
BRANCH  36  57
ATOM     57  C   UNL A   1      40.441  33.458  38.433  1.00  0.00    -0.014 A 
ATOM     58  C   UNL A   1      39.944  33.001  39.663  1.00  0.00     0.010 A 
ATOM     59  C   UNL A   1      40.987  34.752  38.339  1.00  0.00     0.010 A 
ATOM     60  C   UNL A   1      39.968  33.840  40.778  1.00  0.00     0.020 A 
ATOM     61  C   UNL A   1      41.043  35.579  39.457  1.00  0.00     0.020 A 
ATOM     62  C   UNL A   1      40.520  35.121  40.667  1.00  0.00     0.054 A 
BRANCH  62  63
ATOM     63  S   UNL A   1      40.584  36.173  42.141  1.00  0.00     0.124 S 
ATOM     64  O   UNL A   1      40.356  35.207  43.212  1.00  0.00    -0.237 OA
ATOM     65  O   UNL A   1      41.932  36.732  42.074  1.00  0.00    -0.237 OA
ATOM     66  O   UNL A   1      39.506  37.135  41.926  1.00  0.00    -0.744 OA
ENDBRANCH  62  63
ENDBRANCH  36  57
ENDBRANCH  10  11
ENDBRANCH   3   5
ENDBRANCH   2   3
ENDBRANCH   1   2
BRANCH   1  67
ATOM     67  C   UNL A   1      37.471  23.968  25.641  1.00  0.00     0.275 C 
BRANCH  67  68
ATOM     68  O   UNL A   1      36.106  24.407  25.728  1.00  0.00    -0.458 OA
BRANCH  68  69
ATOM     69  C   UNL A   1      35.373  24.266  24.584  1.00  0.00     0.340 C 
ATOM     70  O   UNL A   1      35.755  23.768  23.548  1.00  0.00    -0.246 OA
BRANCH  69  71
ATOM     71  C   UNL A   1      33.965  24.661  24.848  1.00  0.00     0.085 A 
ATOM     72  C   UNL A   1      33.448  25.703  24.047  1.00  0.00     0.043 A 
ATOM     73  C   UNL A   1      33.151  24.062  25.818  1.00  0.00     0.055 A 
ATOM     74  C   UNL A   1      32.109  26.102  24.141  1.00  0.00     0.038 A 
ATOM     75  C   UNL A   1      31.796  24.385  25.796  1.00  0.00     0.029 A 
ATOM     76  C   UNL A   1      31.277  25.395  24.993  1.00  0.00     0.028 A 
BRANCH  73  77
ATOM     77  N   UNL A   1      33.655  23.148  26.767  1.00  0.00    -0.325 N 
ATOM     78  C   UNL A   1      33.698  21.766  26.746  1.00  0.00     0.227 C 
ATOM     79  H   UNL A   1      34.040  23.560  27.574  1.00  0.00     0.169 HD
ATOM     80  O   UNL A   1      34.278  21.202  27.676  1.00  0.00    -0.274 OA
BRANCH  78  81
ATOM     81  C   UNL A   1      32.939  20.997  25.663  1.00  0.00     0.079 C 
ATOM     82  C   UNL A   1      33.436  21.134  24.226  1.00  0.00     0.013 C 
ATOM     83  C   UNL A   1      33.012  19.471  25.784  1.00  0.00     0.013 C 
ATOM     84  C   UNL A   1      32.505  20.187  23.499  1.00  0.00     0.001 C 
ATOM     85  C   UNL A   1      32.476  18.973  24.428  1.00  0.00     0.001 C 
ENDBRANCH  78  81
ENDBRANCH  73  77
BRANCH  74  86
ATOM     86  N   UNL A   1      31.644  27.186  23.422  1.00  0.00    -0.368 N 
ATOM     87  C   UNL A   1      30.430  27.046  22.591  1.00  0.00     0.138 C 
ATOM     88  C   UNL A   1      31.885  28.510  24.028  1.00  0.00     0.138 C 
ATOM     89  C   UNL A   1      29.172  27.716  23.206  1.00  0.00     0.138 C 
ATOM     90  C   UNL A   1      30.609  29.123  24.644  1.00  0.00     0.138 C 
ATOM     91  N   UNL A   1      29.477  29.069  23.708  1.00  0.00    -0.368 N 
BRANCH  91  92
ATOM     92  C   UNL A   1      29.086  30.177  22.983  1.00  0.00     0.037 A 
ATOM     93  C   UNL A   1      28.563  30.022  21.689  1.00  0.00     0.029 A 
ATOM     94  C   UNL A   1      29.157  31.480  23.499  1.00  0.00     0.029 A 
ATOM     95  C   UNL A   1      28.106  31.118  20.950  1.00  0.00     0.041 A 
ATOM     96  C   UNL A   1      28.722  32.584  22.759  1.00  0.00     0.041 A 
ATOM     97  C   UNL A   1      28.192  32.391  21.493  1.00  0.00     0.123 A 
ATOM     98  F   UNL A   1      27.756  33.445  20.791  1.00  0.00    -0.207 F 
ENDBRANCH  91  92
ENDBRANCH  74  86
ENDBRANCH  69  71
ENDBRANCH  68  69
ENDBRANCH  67  68
ENDBRANCH   1  67
TORSDOF 18
ENDMDL
MODEL 2
REMARK VINA RESULT:     -12.2      4.419     10.805
REMARK SMILES O=C(OCCOC(=O)c1cc(N2CCN(c3ccc(F)cc3)CC2)ccc1NC(=O)C1CCCC1)c1ccc(-c2c3nc(c(-c4ccc(S(=O)(=O)[O-])cc4)c4ccc([nH]4)c(-c4ccc(S(=O)(=O)[O-])cc4)c4nc(c(-c5ccc(S(=O)(=O)[O-])cc5)c5ccc2[nH]5)C=C4)C=C3)cc1
REMARK SMILES IDX 4 1 3 2 2 3 1 4 36 5 37 6 95 7 38 8 94 9 39 10 40 11 41 12
REMARK SMILES IDX 88 13 42 14 93 15 87 16 89 17 43 18 92 19 86 20 85 21 44 23
REMARK SMILES IDX 74 24 55 25 73 26 56 27 59 28 72 29 90 30 57 31 58 32 71 34
REMARK SMILES IDX 91 35 60 36 45 37 46 38 54 39 47 40 53 41 48 42 49 43 50 44
REMARK SMILES IDX 51 45 52 46 75 47 76 48 84 49 77 50 83 51 78 52 79 53 80 54
REMARK SMILES IDX 81 55 82 56 61 57 62 58 70 59 63 60 69 61 64 62 65 63 66 64
REMARK SMILES IDX 67 65 68 66 5 67 6 68 7 69 8 70 9 71 10 72 27 73 11 74 26 75
REMARK SMILES IDX 25 76 28 77 29 78 30 80 31 81 32 82 35 83 33 84 34 85 12 86
REMARK SMILES IDX 13 87 24 88 14 89 23 90 15 91 16 92 17 93 22 94 18 95 21 96
REMARK SMILES IDX 19 97 20 98
REMARK H PARENT 89 22 59 33 28 79
REMARK Flexibility Score: inf
ROOT
ATOM      1  C   UNL A   1      32.470  28.675  27.078  1.00  0.00     0.275 C 
ENDROOT
BRANCH   1   2
ATOM      2  O   UNL A   1      33.664  29.429  26.803  1.00  0.00    -0.458 OA
BRANCH   2   3
ATOM      3  C   UNL A   1      34.385  30.244  27.609  1.00  0.00     0.338 C 
ATOM      4  O   UNL A   1      33.964  31.380  27.821  1.00  0.00    -0.246 OA
BRANCH   3   5
ATOM      5  C   UNL A   1      35.732  29.888  28.158  1.00  0.00     0.060 A 
ATOM      6  C   UNL A   1      36.003  29.422  29.447  1.00  0.00     0.016 A 
ATOM      7  C   UNL A   1      36.822  30.066  27.290  1.00  0.00     0.016 A 
ATOM      8  C   UNL A   1      37.301  29.066  29.837  1.00  0.00     0.010 A 
ATOM      9  C   UNL A   1      38.120  29.710  27.673  1.00  0.00     0.010 A 
ATOM     10  C   UNL A   1      38.372  29.200  28.956  1.00  0.00    -0.014 A 
BRANCH  10  11
ATOM     11  C   UNL A   1      39.770  29.016  29.422  1.00  0.00     0.031 A 
ATOM     12  C   UNL A   1      40.355  30.088  30.294  1.00  0.00     0.074 A 
ATOM     13  C   UNL A   1      40.493  27.904  29.172  1.00  0.00     0.049 A 
ATOM     14  N   UNL A   1      41.561  30.175  30.782  1.00  0.00    -0.248 NA
ATOM     15  C   UNL A   1      39.445  31.163  30.730  1.00  0.00     0.031 C 
ATOM     16  C   UNL A   1      39.989  26.684  28.553  1.00  0.00     0.029 A 
ATOM     17  N   UNL A   1      41.828  27.629  29.378  1.00  0.00    -0.354 N 
ATOM     18  C   UNL A   1      41.519  31.240  31.670  1.00  0.00     0.074 A 
ATOM     19  C   UNL A   1      40.220  31.859  31.544  1.00  0.00     0.031 C 
ATOM     20  C   UNL A   1      41.016  25.848  28.318  1.00  0.00     0.029 A 
ATOM     21  C   UNL A   1      42.255  26.488  28.724  1.00  0.00     0.049 A 
ATOM     22  H   UNL A   1      42.417  28.188  29.935  1.00  0.00     0.167 HD
ATOM     23  C   UNL A   1      42.452  31.606  32.575  1.00  0.00     0.031 A 
ATOM     24  C   UNL A   1      43.508  26.081  28.423  1.00  0.00     0.031 A 
ATOM     25  C   UNL A   1      43.752  31.007  32.659  1.00  0.00     0.049 A 
ATOM     26  C   UNL A   1      44.647  26.791  29.094  1.00  0.00     0.074 A 
ATOM     27  C   UNL A   1      44.771  31.271  33.554  1.00  0.00     0.029 A 
ATOM     28  N   UNL A   1      44.221  30.038  31.786  1.00  0.00    -0.354 N 
ATOM     29  N   UNL A   1      44.608  27.835  29.884  1.00  0.00    -0.248 NA
ATOM     30  C   UNL A   1      45.983  26.211  28.907  1.00  0.00     0.031 C 
ATOM     31  C   UNL A   1      45.886  30.516  33.171  1.00  0.00     0.029 A 
ATOM     32  C   UNL A   1      45.536  29.734  32.081  1.00  0.00     0.049 A 
ATOM     33  H   UNL A   1      43.696  29.627  31.062  1.00  0.00     0.167 HD
ATOM     34  C   UNL A   1      45.898  27.970  30.376  1.00  0.00     0.074 A 
ATOM     35  C   UNL A   1      46.710  26.968  29.714  1.00  0.00     0.031 C 
ATOM     36  C   UNL A   1      46.342  28.783  31.363  1.00  0.00     0.031 A 
BRANCH  23  37
ATOM     37  C   UNL A   1      42.071  32.690  33.538  1.00  0.00    -0.014 A 
ATOM     38  C   UNL A   1      41.401  32.382  34.739  1.00  0.00     0.010 A 
ATOM     39  C   UNL A   1      42.372  34.028  33.241  1.00  0.00     0.010 A 
ATOM     40  C   UNL A   1      41.000  33.401  35.605  1.00  0.00     0.020 A 
ATOM     41  C   UNL A   1      41.993  35.048  34.117  1.00  0.00     0.020 A 
ATOM     42  C   UNL A   1      41.296  34.728  35.285  1.00  0.00     0.054 A 
BRANCH  42  43
ATOM     43  S   UNL A   1      40.769  36.033  36.427  1.00  0.00     0.124 S 
ATOM     44  O   UNL A   1      40.377  35.262  37.604  1.00  0.00    -0.237 OA
ATOM     45  O   UNL A   1      41.981  36.835  36.576  1.00  0.00    -0.237 OA
ATOM     46  O   UNL A   1      39.673  36.691  35.720  1.00  0.00    -0.744 OA
ENDBRANCH  42  43
ENDBRANCH  23  37
BRANCH  24  47
ATOM     47  C   UNL A   1      43.811  25.034  27.400  1.00  0.00    -0.014 A 
ATOM     48  C   UNL A   1      43.952  25.303  26.033  1.00  0.00     0.010 A 
ATOM     49  C   UNL A   1      43.919  23.694  27.834  1.00  0.00     0.010 A 
ATOM     50  C   UNL A   1      44.236  24.265  25.128  1.00  0.00     0.020 A 
ATOM     51  C   UNL A   1      44.193  22.656  26.937  1.00  0.00     0.020 A 
ATOM     52  C   UNL A   1      44.362  22.950  25.587  1.00  0.00     0.054 A 
BRANCH  52  53
ATOM     53  S   UNL A   1      44.854  21.615  24.452  1.00  0.00     0.124 S 
ATOM     54  O   UNL A   1      46.283  21.498  24.718  1.00  0.00    -0.237 OA
ATOM     55  O   UNL A   1      44.034  20.487  24.887  1.00  0.00    -0.237 OA
ATOM     56  O   UNL A   1      44.502  22.157  23.141  1.00  0.00    -0.744 OA
ENDBRANCH  52  53
ENDBRANCH  24  47
BRANCH  36  57
ATOM     57  C   UNL A   1      47.747  28.556  31.826  1.00  0.00    -0.014 A 
ATOM     58  C   UNL A   1      48.833  29.238  31.257  1.00  0.00     0.010 A 
ATOM     59  C   UNL A   1      47.971  27.625  32.858  1.00  0.00     0.010 A 
ATOM     60  C   UNL A   1      50.130  28.969  31.697  1.00  0.00     0.020 A 
ATOM     61  C   UNL A   1      49.260  27.379  33.322  1.00  0.00     0.020 A 
ATOM     62  C   UNL A   1      50.334  28.044  32.727  1.00  0.00     0.054 A 
BRANCH  62  63
ATOM     63  S   UNL A   1      52.022  27.749  33.313  1.00  0.00     0.124 S 
ATOM     64  O   UNL A   1      52.821  28.257  32.202  1.00  0.00    -0.237 OA
ATOM     65  O   UNL A   1      52.075  28.539  34.541  1.00  0.00    -0.237 OA
ATOM     66  O   UNL A   1      52.072  26.302  33.509  1.00  0.00    -0.744 OA
ENDBRANCH  62  63
ENDBRANCH  36  57
ENDBRANCH  10  11
ENDBRANCH   3   5
ENDBRANCH   2   3
ENDBRANCH   1   2
BRANCH   1  67
ATOM     67  C   UNL A   1      32.585  27.165  26.846  1.00  0.00     0.275 C 
BRANCH  67  68
ATOM     68  O   UNL A   1      31.537  26.629  26.025  1.00  0.00    -0.458 OA
BRANCH  68  69
ATOM     69  C   UNL A   1      31.291  25.295  26.189  1.00  0.00     0.340 C 
ATOM     70  O   UNL A   1      30.413  24.808  26.865  1.00  0.00    -0.246 OA
BRANCH  69  71
ATOM     71  C   UNL A   1      32.161  24.516  25.269  1.00  0.00     0.085 A 
ATOM     72  C   UNL A   1      33.207  23.782  25.871  1.00  0.00     0.043 A 
ATOM     73  C   UNL A   1      31.992  24.471  23.879  1.00  0.00     0.055 A 
ATOM     74  C   UNL A   1      34.036  22.940  25.119  1.00  0.00     0.038 A 
ATOM     75  C   UNL A   1      32.741  23.528  23.179  1.00  0.00     0.029 A 
ATOM     76  C   UNL A   1      33.757  22.786  23.771  1.00  0.00     0.028 A 
BRANCH  73  77
ATOM     77  N   UNL A   1      31.088  25.316  23.201  1.00  0.00    -0.325 N 
ATOM     78  C   UNL A   1      31.254  26.599  22.713  1.00  0.00     0.227 C 
ATOM     79  H   UNL A   1      30.195  24.929  23.051  1.00  0.00     0.169 HD
ATOM     80  O   UNL A   1      30.320  27.089  22.075  1.00  0.00    -0.274 OA
BRANCH  78  81
ATOM     81  C   UNL A   1      32.510  27.394  23.074  1.00  0.00     0.079 C 
ATOM     82  C   UNL A   1      33.606  27.494  22.016  1.00  0.00     0.013 C 
ATOM     83  C   UNL A   1      32.281  28.892  23.307  1.00  0.00     0.013 C 
ATOM     84  C   UNL A   1      34.602  28.401  22.707  1.00  0.00     0.001 C 
ATOM     85  C   UNL A   1      33.704  29.480  23.312  1.00  0.00     0.001 C 
ENDBRANCH  78  81
ENDBRANCH  73  77
BRANCH  74  86
ATOM     86  N   UNL A   1      35.115  22.306  25.705  1.00  0.00    -0.368 N 
ATOM     87  C   UNL A   1      35.768  21.179  25.005  1.00  0.00     0.138 C 
ATOM     88  C   UNL A   1      35.978  23.154  26.550  1.00  0.00     0.138 C 
ATOM     89  C   UNL A   1      37.136  21.549  24.371  1.00  0.00     0.138 C 
ATOM     90  C   UNL A   1      37.314  23.510  25.865  1.00  0.00     0.138 C 
ATOM     91  N   UNL A   1      37.972  22.319  25.311  1.00  0.00    -0.368 N 
BRANCH  91  92
ATOM     92  C   UNL A   1      39.020  21.701  25.966  1.00  0.00     0.037 A 
ATOM     93  C   UNL A   1      39.406  20.401  25.604  1.00  0.00     0.029 A 
ATOM     94  C   UNL A   1      39.756  22.336  26.977  1.00  0.00     0.029 A 
ATOM     95  C   UNL A   1      40.498  19.768  26.209  1.00  0.00     0.041 A 
ATOM     96  C   UNL A   1      40.834  21.704  27.603  1.00  0.00     0.041 A 
ATOM     97  C   UNL A   1      41.201  20.427  27.205  1.00  0.00     0.123 A 
ATOM     98  F   UNL A   1      42.247  19.828  27.789  1.00  0.00    -0.207 F 
ENDBRANCH  91  92
ENDBRANCH  74  86
ENDBRANCH  69  71
ENDBRANCH  68  69
ENDBRANCH  67  68
ENDBRANCH   1  67
TORSDOF 18
ENDMDL
MODEL 3
REMARK VINA RESULT:     -11.4      1.944      2.661
REMARK SMILES O=C(OCCOC(=O)c1cc(N2CCN(c3ccc(F)cc3)CC2)ccc1NC(=O)C1CCCC1)c1ccc(-c2c3nc(c(-c4ccc(S(=O)(=O)[O-])cc4)c4ccc([nH]4)c(-c4ccc(S(=O)(=O)[O-])cc4)c4nc(c(-c5ccc(S(=O)(=O)[O-])cc5)c5ccc2[nH]5)C=C4)C=C3)cc1
REMARK SMILES IDX 4 1 3 2 2 3 1 4 36 5 37 6 95 7 38 8 94 9 39 10 40 11 41 12
REMARK SMILES IDX 88 13 42 14 93 15 87 16 89 17 43 18 92 19 86 20 85 21 44 23
REMARK SMILES IDX 74 24 55 25 73 26 56 27 59 28 72 29 90 30 57 31 58 32 71 34
REMARK SMILES IDX 91 35 60 36 45 37 46 38 54 39 47 40 53 41 48 42 49 43 50 44
REMARK SMILES IDX 51 45 52 46 75 47 76 48 84 49 77 50 83 51 78 52 79 53 80 54
REMARK SMILES IDX 81 55 82 56 61 57 62 58 70 59 63 60 69 61 64 62 65 63 66 64
REMARK SMILES IDX 67 65 68 66 5 67 6 68 7 69 8 70 9 71 10 72 27 73 11 74 26 75
REMARK SMILES IDX 25 76 28 77 29 78 30 80 31 81 32 82 35 83 33 84 34 85 12 86
REMARK SMILES IDX 13 87 24 88 14 89 23 90 15 91 16 92 17 93 22 94 18 95 21 96
REMARK SMILES IDX 19 97 20 98
REMARK H PARENT 89 22 59 33 28 79
REMARK Flexibility Score: inf
ROOT
ATOM      1  C   UNL A   1      37.990  24.335  26.784  1.00  0.00     0.275 C 
ENDROOT
BRANCH   1   2
ATOM      2  O   UNL A   1      39.094  25.254  26.711  1.00  0.00    -0.458 OA
BRANCH   2   3
ATOM      3  C   UNL A   1      40.162  25.401  27.532  1.00  0.00     0.338 C 
ATOM      4  O   UNL A   1      41.061  24.564  27.480  1.00  0.00    -0.246 OA
BRANCH   3   5
ATOM      5  C   UNL A   1      40.254  26.455  28.592  1.00  0.00     0.060 A 
ATOM      6  C   UNL A   1      41.254  27.423  28.711  1.00  0.00     0.016 A 
ATOM      7  C   UNL A   1      39.242  26.444  29.567  1.00  0.00     0.016 A 
ATOM      8  C   UNL A   1      41.210  28.399  29.715  1.00  0.00     0.010 A 
ATOM      9  C   UNL A   1      39.192  27.417  30.571  1.00  0.00     0.010 A 
ATOM     10  C   UNL A   1      40.178  28.411  30.652  1.00  0.00    -0.014 A 
BRANCH  10  11
ATOM     11  C   UNL A   1      40.231  29.313  31.832  1.00  0.00     0.031 A 
ATOM     12  C   UNL A   1      41.158  28.936  32.950  1.00  0.00     0.074 A 
ATOM     13  C   UNL A   1      39.558  30.482  31.900  1.00  0.00     0.049 A 
ATOM     14  N   UNL A   1      41.342  29.534  34.094  1.00  0.00    -0.248 NA
ATOM     15  C   UNL A   1      42.043  27.780  32.719  1.00  0.00     0.031 C 
ATOM     16  C   UNL A   1      38.814  31.099  30.809  1.00  0.00     0.029 A 
ATOM     17  N   UNL A   1      39.360  31.349  32.953  1.00  0.00    -0.354 N 
ATOM     18  C   UNL A   1      42.437  28.901  34.664  1.00  0.00     0.074 A 
ATOM     19  C   UNL A   1      42.782  27.783  33.817  1.00  0.00     0.031 C 
ATOM     20  C   UNL A   1      38.145  32.169  31.277  1.00  0.00     0.029 A 
ATOM     21  C   UNL A   1      38.373  32.286  32.707  1.00  0.00     0.049 A 
ATOM     22  H   UNL A   1      39.870  31.307  33.794  1.00  0.00     0.167 HD
ATOM     23  C   UNL A   1      43.145  29.280  35.749  1.00  0.00     0.031 A 
ATOM     24  C   UNL A   1      37.688  33.068  33.569  1.00  0.00     0.031 A 
ATOM     25  C   UNL A   1      42.764  30.367  36.603  1.00  0.00     0.049 A 
ATOM     26  C   UNL A   1      38.205  33.168  34.974  1.00  0.00     0.074 A 
ATOM     27  C   UNL A   1      43.418  30.867  37.713  1.00  0.00     0.029 A 
ATOM     28  N   UNL A   1      41.601  31.106  36.452  1.00  0.00    -0.354 N 
ATOM     29  N   UNL A   1      39.202  32.523  35.527  1.00  0.00    -0.248 NA
ATOM     30  C   UNL A   1      37.566  34.169  35.839  1.00  0.00     0.031 C 
ATOM     31  C   UNL A   1      42.608  31.858  38.280  1.00  0.00     0.029 A 
ATOM     32  C   UNL A   1      41.485  32.019  37.483  1.00  0.00     0.049 A 
ATOM     33  H   UNL A   1      40.953  30.998  35.719  1.00  0.00     0.167 HD
ATOM     34  C   UNL A   1      39.380  33.117  36.767  1.00  0.00     0.074 A 
ATOM     35  C   UNL A   1      38.324  34.098  36.922  1.00  0.00     0.031 C 
ATOM     36  C   UNL A   1      40.389  32.936  37.650  1.00  0.00     0.031 A 
BRANCH  23  37
ATOM     37  C   UNL A   1      44.397  28.510  36.042  1.00  0.00    -0.014 A 
ATOM     38  C   UNL A   1      45.570  28.734  35.293  1.00  0.00     0.010 A 
ATOM     39  C   UNL A   1      44.406  27.548  37.063  1.00  0.00     0.010 A 
ATOM     40  C   UNL A   1      46.717  27.975  35.533  1.00  0.00     0.020 A 
ATOM     41  C   UNL A   1      45.559  26.804  37.323  1.00  0.00     0.020 A 
ATOM     42  C   UNL A   1      46.702  27.012  36.545  1.00  0.00     0.054 A 
BRANCH  42  43
ATOM     43  S   UNL A   1      48.204  26.043  36.841  1.00  0.00     0.124 S 
ATOM     44  O   UNL A   1      47.950  25.495  38.172  1.00  0.00    -0.237 OA
ATOM     45  O   UNL A   1      48.179  25.073  35.748  1.00  0.00    -0.237 OA
ATOM     46  O   UNL A   1      49.276  27.032  36.768  1.00  0.00    -0.744 OA
ENDBRANCH  42  43
ENDBRANCH  23  37
BRANCH  24  47
ATOM     47  C   UNL A   1      36.406  33.754  33.220  1.00  0.00    -0.014 A 
ATOM     48  C   UNL A   1      36.327  35.096  32.826  1.00  0.00     0.010 A 
ATOM     49  C   UNL A   1      35.207  33.018  33.338  1.00  0.00     0.010 A 
ATOM     50  C   UNL A   1      35.084  35.675  32.514  1.00  0.00     0.020 A 
ATOM     51  C   UNL A   1      33.966  33.591  33.037  1.00  0.00     0.020 A 
ATOM     52  C   UNL A   1      33.913  34.917  32.614  1.00  0.00     0.054 A 
BRANCH  52  53
ATOM     53  S   UNL A   1      32.313  35.610  32.095  1.00  0.00     0.124 S 
ATOM     54  O   UNL A   1      31.366  34.783  32.836  1.00  0.00    -0.237 OA
ATOM     55  O   UNL A   1      32.399  37.006  32.518  1.00  0.00    -0.237 OA
ATOM     56  O   UNL A   1      32.324  35.406  30.648  1.00  0.00    -0.744 OA
ENDBRANCH  52  53
ENDBRANCH  24  47
BRANCH  36  57
ATOM     57  C   UNL A   1      40.427  33.876  38.815  1.00  0.00    -0.014 A 
ATOM     58  C   UNL A   1      41.025  35.142  38.725  1.00  0.00     0.010 A 
ATOM     59  C   UNL A   1      39.848  33.463  40.030  1.00  0.00     0.010 A 
ATOM     60  C   UNL A   1      41.068  35.972  39.846  1.00  0.00     0.020 A 
ATOM     61  C   UNL A   1      39.861  34.302  41.140  1.00  0.00     0.020 A 
ATOM     62  C   UNL A   1      40.484  35.547  41.044  1.00  0.00     0.054 A 
BRANCH  62  63
ATOM     63  S   UNL A   1      40.510  36.662  42.471  1.00  0.00     0.124 S 
ATOM     64  O   UNL A   1      39.948  35.820  43.524  1.00  0.00    -0.237 OA
ATOM     65  O   UNL A   1      41.930  36.975  42.606  1.00  0.00    -0.237 OA
ATOM     66  O   UNL A   1      39.669  37.781  42.050  1.00  0.00    -0.744 OA
ENDBRANCH  62  63
ENDBRANCH  36  57
ENDBRANCH  10  11
ENDBRANCH   3   5
ENDBRANCH   2   3
ENDBRANCH   1   2
BRANCH   1  67
ATOM     67  C   UNL A   1      37.495  23.805  25.435  1.00  0.00     0.275 C 
BRANCH  67  68
ATOM     68  O   UNL A   1      36.067  23.849  25.290  1.00  0.00    -0.458 OA
BRANCH  68  69
ATOM     69  C   UNL A   1      35.590  23.450  24.073  1.00  0.00     0.340 C 
ATOM     70  O   UNL A   1      36.050  22.571  23.380  1.00  0.00    -0.246 OA
BRANCH  69  71
ATOM     71  C   UNL A   1      34.305  24.144  23.795  1.00  0.00     0.085 A 
ATOM     72  C   UNL A   1      34.274  25.530  24.061  1.00  0.00     0.043 A 
ATOM     73  C   UNL A   1      33.163  23.508  23.292  1.00  0.00     0.055 A 
ATOM     74  C   UNL A   1      33.151  26.309  23.755  1.00  0.00     0.038 A 
ATOM     75  C   UNL A   1      32.114  24.324  22.876  1.00  0.00     0.029 A 
ATOM     76  C   UNL A   1      32.088  25.694  23.114  1.00  0.00     0.028 A 
BRANCH  73  77
ATOM     77  N   UNL A   1      33.069  22.104  23.177  1.00  0.00    -0.325 N 
ATOM     78  C   UNL A   1      32.529  21.169  24.040  1.00  0.00     0.227 C 
ATOM     79  H   UNL A   1      33.450  21.731  22.349  1.00  0.00     0.169 HD
ATOM     80  O   UNL A   1      32.497  19.997  23.658  1.00  0.00    -0.274 OA
BRANCH  78  81
ATOM     81  C   UNL A   1      32.111  21.586  25.450  1.00  0.00     0.079 C 
ATOM     82  C   UNL A   1      33.173  22.231  26.336  1.00  0.00     0.013 C 
ATOM     83  C   UNL A   1      31.059  22.700  25.509  1.00  0.00     0.013 C 
ATOM     84  C   UNL A   1      32.366  22.563  27.573  1.00  0.00     0.001 C 
ATOM     85  C   UNL A   1      31.079  23.141  26.985  1.00  0.00     0.001 C 
ENDBRANCH  78  81
ENDBRANCH  73  77
BRANCH  74  86
ATOM     86  N   UNL A   1      33.099  27.643  24.110  1.00  0.00    -0.368 N 
ATOM     87  C   UNL A   1      31.797  28.263  24.433  1.00  0.00     0.138 C 
ATOM     88  C   UNL A   1      34.279  28.164  24.827  1.00  0.00     0.138 C 
ATOM     89  C   UNL A   1      31.580  28.502  25.952  1.00  0.00     0.138 C 
ATOM     90  C   UNL A   1      34.019  28.363  26.334  1.00  0.00     0.138 C 
ATOM     91  N   UNL A   1      32.774  29.106  26.574  1.00  0.00    -0.368 N 
BRANCH  91  92
ATOM     92  C   UNL A   1      32.784  30.452  26.883  1.00  0.00     0.037 A 
ATOM     93  C   UNL A   1      31.678  31.255  26.560  1.00  0.00     0.029 A 
ATOM     94  C   UNL A   1      33.855  31.066  27.548  1.00  0.00     0.029 A 
ATOM     95  C   UNL A   1      31.633  32.610  26.907  1.00  0.00     0.041 A 
ATOM     96  C   UNL A   1      33.828  32.423  27.881  1.00  0.00     0.041 A 
ATOM     97  C   UNL A   1      32.711  33.181  27.565  1.00  0.00     0.123 A 
ATOM     98  F   UNL A   1      32.675  34.477  27.902  1.00  0.00    -0.207 F 
ENDBRANCH  91  92
ENDBRANCH  74  86
ENDBRANCH  69  71
ENDBRANCH  68  69
ENDBRANCH  67  68
ENDBRANCH   1  67
TORSDOF 18
ENDMDL
