MODEL 1
REMARK VINA RESULT:      -9.8      0.000      0.000
REMARK SMILES C[C@H](CC(=O)NC[C@@]1(C)CCCO1)CC(=O)OCCOC(=O)c1ccc(-c2c3nc(c(-c4ccc(S(=O)(=O)[O-])cc4)c4ccc([nH]4)c(-c4ccc(S(=O)(=O)[O-])cc4)c4nc(c(-c5ccc(S(=O)(=O)[O-])cc5)c5ccc2[nH]5)C=C4)C=C3)cc1
REMARK SMILES IDX 18 1 17 2 15 3 16 4 14 5 2 6 1 7 3 8 4 9 5 10 6 11 7 13 8 14
REMARK SMILES IDX 9 15 10 16 13 17 11 18 12 19 19 20 20 21 21 22 22 23 23 24
REMARK SMILES IDX 24 25 82 26 25 27 81 28 26 29 27 30 28 31 75 32 29 33 80 34
REMARK SMILES IDX 74 35 76 36 30 37 79 38 73 39 72 40 31 42 61 43 42 44 60 45
REMARK SMILES IDX 43 46 46 47 59 48 77 49 44 50 45 51 58 53 78 54 47 55 32 56
REMARK SMILES IDX 33 57 41 58 34 59 40 60 35 61 36 62 37 63 38 64 39 65 62 66
REMARK SMILES IDX 63 67 71 68 64 69 70 70 65 71 66 72 67 73 68 74 69 75 48 76
REMARK SMILES IDX 49 77 57 78 50 79 56 80 51 81 52 82 53 83 54 84 55 85
REMARK H PARENT 6 12 76 41 46 52
REMARK Flexibility Score: inf
ROOT
ATOM      1  C   UNL A   1      31.753  28.513  26.822  1.00  0.00     0.274 C 
ENDROOT
BRANCH   1   2
ATOM      2  O   UNL A   1      31.033  27.320  27.178  1.00  0.00    -0.462 OA
BRANCH   2   3
ATOM      3  C   UNL A   1      30.854  26.405  26.192  1.00  0.00     0.306 C 
ATOM      4  O   UNL A   1      30.563  25.228  26.373  1.00  0.00    -0.252 OA
BRANCH   3   5
ATOM      5  C   UNL A   1      31.044  26.987  24.805  1.00  0.00     0.126 C 
BRANCH   5   6
ATOM      6  C   UNL A   1      32.173  26.359  23.972  1.00  0.00     0.006 C 
ATOM      7  C   UNL A   1      33.447  27.203  24.030  1.00  0.00     0.009 C 
BRANCH   6   8
ATOM      8  C   UNL A   1      31.680  26.029  22.550  1.00  0.00     0.104 C 
BRANCH   8   9
ATOM      9  C   UNL A   1      32.634  25.275  21.649  1.00  0.00     0.220 C 
ATOM     10  O   UNL A   1      33.137  25.824  20.666  1.00  0.00    -0.275 OA
ATOM     11  N   UNL A   1      32.989  23.990  21.896  1.00  0.00    -0.353 N 
ATOM     12  H   UNL A   1      33.585  23.606  21.214  1.00  0.00     0.163 HD
BRANCH  11  13
ATOM     13  C   UNL A   1      32.660  23.064  22.975  1.00  0.00     0.151 C 
BRANCH  13  14
ATOM     14  C   UNL A   1      33.832  22.743  23.952  1.00  0.00     0.083 C 
ATOM     15  C   UNL A   1      33.736  21.336  24.563  1.00  0.00     0.044 C 
ATOM     16  C   UNL A   1      35.185  22.950  23.262  1.00  0.00     0.039 C 
ATOM     17  O   UNL A   1      33.843  23.683  25.048  1.00  0.00    -0.373 OA
ATOM     18  C   UNL A   1      36.105  23.295  24.406  1.00  0.00     0.031 C 
ATOM     19  C   UNL A   1      35.197  24.097  25.314  1.00  0.00     0.161 C 
ENDBRANCH  13  14
ENDBRANCH  11  13
ENDBRANCH   8   9
ENDBRANCH   6   8
ENDBRANCH   5   6
ENDBRANCH   3   5
ENDBRANCH   2   3
ENDBRANCH   1   2
BRANCH   1  20
ATOM     20  C   UNL A   1      33.060  28.579  27.608  1.00  0.00     0.275 C 
BRANCH  20  21
ATOM     21  O   UNL A   1      33.944  29.543  27.009  1.00  0.00    -0.458 OA
BRANCH  21  22
ATOM     22  C   UNL A   1      34.473  30.467  27.847  1.00  0.00     0.338 C 
ATOM     23  O   UNL A   1      33.936  31.461  28.297  1.00  0.00    -0.246 OA
BRANCH  22  24
ATOM     24  C   UNL A   1      35.853  30.074  28.165  1.00  0.00     0.060 A 
ATOM     25  C   UNL A   1      36.828  30.119  27.168  1.00  0.00     0.016 A 
ATOM     26  C   UNL A   1      36.171  29.615  29.440  1.00  0.00     0.016 A 
ATOM     27  C   UNL A   1      38.121  29.679  27.429  1.00  0.00     0.010 A 
ATOM     28  C   UNL A   1      37.489  29.246  29.725  1.00  0.00     0.010 A 
ATOM     29  C   UNL A   1      38.475  29.274  28.721  1.00  0.00    -0.014 A 
BRANCH  29  30
ATOM     30  C   UNL A   1      39.882  28.926  29.041  1.00  0.00     0.031 A 
ATOM     31  C   UNL A   1      40.809  29.964  29.605  1.00  0.00     0.074 A 
ATOM     32  C   UNL A   1      40.333  27.683  28.781  1.00  0.00     0.049 A 
ATOM     33  N   UNL A   1      42.106  29.912  29.758  1.00  0.00    -0.248 NA
ATOM     34  C   UNL A   1      40.199  31.229  30.045  1.00  0.00     0.031 C 
ATOM     35  C   UNL A   1      39.520  26.573  28.273  1.00  0.00     0.029 A 
ATOM     36  N   UNL A   1      41.591  27.145  28.894  1.00  0.00    -0.354 N 
ATOM     37  C   UNL A   1      42.477  31.149  30.271  1.00  0.00     0.074 A 
ATOM     38  C   UNL A   1      41.266  31.931  30.404  1.00  0.00     0.031 C 
ATOM     39  C   UNL A   1      40.297  25.488  28.127  1.00  0.00     0.029 A 
ATOM     40  C   UNL A   1      41.673  25.846  28.450  1.00  0.00     0.049 A 
ATOM     41  H   UNL A   1      42.360  27.641  29.258  1.00  0.00     0.167 HD
ATOM     42  C   UNL A   1      43.716  31.591  30.593  1.00  0.00     0.031 A 
ATOM     43  C   UNL A   1      42.740  25.045  28.268  1.00  0.00     0.031 A 
ATOM     44  C   UNL A   1      44.911  30.797  30.469  1.00  0.00     0.049 A 
ATOM     45  C   UNL A   1      44.111  25.582  28.562  1.00  0.00     0.074 A 
ATOM     46  C   UNL A   1      46.211  31.144  30.792  1.00  0.00     0.029 A 
ATOM     47  N   UNL A   1      44.952  29.500  29.982  1.00  0.00    -0.354 N 
ATOM     48  N   UNL A   1      44.448  26.760  29.030  1.00  0.00    -0.248 NA
ATOM     49  C   UNL A   1      45.246  24.691  28.285  1.00  0.00     0.031 C 
ATOM     50  C   UNL A   1      47.045  30.071  30.454  1.00  0.00     0.029 A 
ATOM     51  C   UNL A   1      46.257  29.041  29.965  1.00  0.00     0.049 A 
ATOM     52  H   UNL A   1      44.167  28.981  29.690  1.00  0.00     0.167 HD
ATOM     53  C   UNL A   1      45.835  26.752  29.105  1.00  0.00     0.074 A 
ATOM     54  C   UNL A   1      46.272  25.445  28.655  1.00  0.00     0.031 C 
ATOM     55  C   UNL A   1      46.671  27.741  29.502  1.00  0.00     0.031 A 
BRANCH  42  56
ATOM     56  C   UNL A   1      43.850  33.013  31.065  1.00  0.00    -0.014 A 
ATOM     57  C   UNL A   1      43.783  33.342  32.431  1.00  0.00     0.010 A 
ATOM     58  C   UNL A   1      44.088  34.034  30.125  1.00  0.00     0.010 A 
ATOM     59  C   UNL A   1      43.918  34.671  32.844  1.00  0.00     0.020 A 
ATOM     60  C   UNL A   1      44.245  35.361  30.538  1.00  0.00     0.020 A 
ATOM     61  C   UNL A   1      44.143  35.672  31.894  1.00  0.00     0.054 A 
BRANCH  61  62
ATOM     62  S   UNL A   1      44.335  37.386  32.459  1.00  0.00     0.124 S 
ATOM     63  O   UNL A   1      45.778  37.473  32.671  1.00  0.00    -0.237 OA
ATOM     64  O   UNL A   1      43.820  38.156  31.330  1.00  0.00    -0.237 OA
ATOM     65  O   UNL A   1      43.522  37.446  33.671  1.00  0.00    -0.744 OA
ENDBRANCH  61  62
ENDBRANCH  42  56
BRANCH  43  66
ATOM     66  C   UNL A   1      42.550  23.678  27.712  1.00  0.00    -0.014 A 
ATOM     67  C   UNL A   1      42.657  23.447  26.330  1.00  0.00     0.010 A 
ATOM     68  C   UNL A   1      42.294  22.592  28.570  1.00  0.00     0.010 A 
ATOM     69  C   UNL A   1      42.509  22.155  25.816  1.00  0.00     0.020 A 
ATOM     70  C   UNL A   1      42.172  21.296  28.063  1.00  0.00     0.020 A 
ATOM     71  C   UNL A   1      42.270  21.087  26.686  1.00  0.00     0.054 A 
BRANCH  71  72
ATOM     72  S   UNL A   1      42.152  19.409  26.008  1.00  0.00     0.124 S 
ATOM     73  O   UNL A   1      42.639  18.598  27.119  1.00  0.00    -0.237 OA
ATOM     74  O   UNL A   1      40.726  19.285  25.712  1.00  0.00    -0.237 OA
ATOM     75  O   UNL A   1      43.020  19.453  24.834  1.00  0.00    -0.744 OA
ENDBRANCH  71  72
ENDBRANCH  43  66
BRANCH  55  76
ATOM     76  C   UNL A   1      48.144  27.445  29.474  1.00  0.00    -0.014 A 
ATOM     77  C   UNL A   1      48.896  27.646  28.303  1.00  0.00     0.010 A 
ATOM     78  C   UNL A   1      48.793  27.016  30.646  1.00  0.00     0.010 A 
ATOM     79  C   UNL A   1      50.271  27.407  28.300  1.00  0.00     0.020 A 
ATOM     80  C   UNL A   1      50.173  26.796  30.651  1.00  0.00     0.020 A 
ATOM     81  C   UNL A   1      50.902  26.984  29.474  1.00  0.00     0.054 A 
BRANCH  81  82
ATOM     82  S   UNL A   1      52.698  26.734  29.461  1.00  0.00     0.124 S 
ATOM     83  O   UNL A   1      53.196  28.099  29.594  1.00  0.00    -0.237 OA
ATOM     84  O   UNL A   1      52.912  25.870  30.620  1.00  0.00    -0.237 OA
ATOM     85  O   UNL A   1      52.949  26.101  28.167  1.00  0.00    -0.744 OA
ENDBRANCH  81  82
ENDBRANCH  55  76
ENDBRANCH  29  30
ENDBRANCH  22  24
ENDBRANCH  21  22
ENDBRANCH  20  21
ENDBRANCH   1  20
TORSDOF 19
ENDMDL
MODEL 2
REMARK VINA RESULT:      -9.6      5.060     10.141
REMARK SMILES C[C@H](CC(=O)NC[C@@]1(C)CCCO1)CC(=O)OCCOC(=O)c1ccc(-c2c3nc(c(-c4ccc(S(=O)(=O)[O-])cc4)c4ccc([nH]4)c(-c4ccc(S(=O)(=O)[O-])cc4)c4nc(c(-c5ccc(S(=O)(=O)[O-])cc5)c5ccc2[nH]5)C=C4)C=C3)cc1
REMARK SMILES IDX 18 1 17 2 15 3 16 4 14 5 2 6 1 7 3 8 4 9 5 10 6 11 7 13 8 14
REMARK SMILES IDX 9 15 10 16 13 17 11 18 12 19 19 20 20 21 21 22 22 23 23 24
REMARK SMILES IDX 24 25 82 26 25 27 81 28 26 29 27 30 28 31 75 32 29 33 80 34
REMARK SMILES IDX 74 35 76 36 30 37 79 38 73 39 72 40 31 42 61 43 42 44 60 45
REMARK SMILES IDX 43 46 46 47 59 48 77 49 44 50 45 51 58 53 78 54 47 55 32 56
REMARK SMILES IDX 33 57 41 58 34 59 40 60 35 61 36 62 37 63 38 64 39 65 62 66
REMARK SMILES IDX 63 67 71 68 64 69 70 70 65 71 66 72 67 73 68 74 69 75 48 76
REMARK SMILES IDX 49 77 57 78 50 79 56 80 51 81 52 82 53 83 54 84 55 85
REMARK H PARENT 6 12 76 41 46 52
REMARK Flexibility Score: inf
ROOT
ATOM      1  C   UNL A   1      32.821  30.827  27.045  1.00  0.00     0.274 C 
ENDROOT
BRANCH   1   2
ATOM      2  O   UNL A   1      32.964  29.478  27.521  1.00  0.00    -0.462 OA
BRANCH   2   3
ATOM      3  C   UNL A   1      31.981  28.608  27.175  1.00  0.00     0.306 C 
ATOM      4  O   UNL A   1      31.266  28.007  27.969  1.00  0.00    -0.252 OA
BRANCH   3   5
ATOM      5  C   UNL A   1      31.837  28.446  25.675  1.00  0.00     0.126 C 
BRANCH   5   6
ATOM      6  C   UNL A   1      32.430  27.154  25.088  1.00  0.00     0.006 C 
ATOM      7  C   UNL A   1      33.744  26.778  25.774  1.00  0.00     0.009 C 
BRANCH   6   8
ATOM      8  C   UNL A   1      32.505  27.240  23.551  1.00  0.00     0.104 C 
BRANCH   8   9
ATOM      9  C   UNL A   1      32.411  28.618  22.933  1.00  0.00     0.220 C 
ATOM     10  O   UNL A   1      33.414  29.327  22.822  1.00  0.00    -0.275 OA
ATOM     11  N   UNL A   1      31.240  29.113  22.460  1.00  0.00    -0.353 N 
ATOM     12  H   UNL A   1      31.310  30.033  22.118  1.00  0.00     0.163 HD
BRANCH  11  13
ATOM     13  C   UNL A   1      29.898  28.550  22.358  1.00  0.00     0.151 C 
BRANCH  13  14
ATOM     14  C   UNL A   1      28.737  29.585  22.462  1.00  0.00     0.083 C 
ATOM     15  C   UNL A   1      27.434  28.973  23.000  1.00  0.00     0.044 C 
ATOM     16  C   UNL A   1      29.163  30.795  23.302  1.00  0.00     0.039 C 
ATOM     17  O   UNL A   1      28.441  30.140  21.161  1.00  0.00    -0.373 OA
ATOM     18  C   UNL A   1      28.314  31.912  22.749  1.00  0.00     0.031 C 
ATOM     19  C   UNL A   1      28.243  31.562  21.278  1.00  0.00     0.161 C 
ENDBRANCH  13  14
ENDBRANCH  11  13
ENDBRANCH   8   9
ENDBRANCH   6   8
ENDBRANCH   5   6
ENDBRANCH   3   5
ENDBRANCH   2   3
ENDBRANCH   1   2
BRANCH   1  20
ATOM     20  C   UNL A   1      33.783  31.743  27.800  1.00  0.00     0.275 C 
BRANCH  20  21
ATOM     21  O   UNL A   1      33.356  33.111  27.675  1.00  0.00    -0.458 OA
BRANCH  21  22
ATOM     22  C   UNL A   1      33.459  33.871  28.791  1.00  0.00     0.338 C 
ATOM     23  O   UNL A   1      32.670  34.700  29.205  1.00  0.00    -0.246 OA
BRANCH  22  24
ATOM     24  C   UNL A   1      34.713  33.529  29.477  1.00  0.00     0.060 A 
ATOM     25  C   UNL A   1      34.685  32.655  30.564  1.00  0.00     0.016 A 
ATOM     26  C   UNL A   1      35.910  34.114  29.073  1.00  0.00     0.016 A 
ATOM     27  C   UNL A   1      35.850  32.380  31.273  1.00  0.00     0.010 A 
ATOM     28  C   UNL A   1      37.093  33.777  29.737  1.00  0.00     0.010 A 
ATOM     29  C   UNL A   1      37.073  32.908  30.844  1.00  0.00    -0.014 A 
BRANCH  29  30
ATOM     30  C   UNL A   1      38.337  32.517  31.515  1.00  0.00     0.031 A 
ATOM     31  C   UNL A   1      39.200  31.434  30.934  1.00  0.00     0.074 A 
ATOM     32  C   UNL A   1      38.684  33.112  32.674  1.00  0.00     0.049 A 
ATOM     33  N   UNL A   1      40.222  30.819  31.470  1.00  0.00    -0.248 NA
ATOM     34  C   UNL A   1      38.864  30.975  29.577  1.00  0.00     0.031 C 
ATOM     35  C   UNL A   1      37.953  34.208  33.319  1.00  0.00     0.029 A 
ATOM     36  N   UNL A   1      39.734  32.871  33.525  1.00  0.00    -0.354 N 
ATOM     37  C   UNL A   1      40.626  29.872  30.537  1.00  0.00     0.074 A 
ATOM     38  C   UNL A   1      39.738  29.993  29.400  1.00  0.00     0.031 C 
ATOM     39  C   UNL A   1      38.579  34.547  34.456  1.00  0.00     0.029 A 
ATOM     40  C   UNL A   1      39.704  33.643  34.663  1.00  0.00     0.049 A 
ATOM     41  H   UNL A   1      40.439  32.210  33.340  1.00  0.00     0.167 HD
ATOM     42  C   UNL A   1      41.640  28.979  30.629  1.00  0.00     0.031 A 
ATOM     43  C   UNL A   1      40.460  33.596  35.777  1.00  0.00     0.031 A 
ATOM     44  C   UNL A   1      42.525  28.878  31.760  1.00  0.00     0.049 A 
ATOM     45  C   UNL A   1      41.531  32.549  35.885  1.00  0.00     0.074 A 
ATOM     46  C   UNL A   1      43.599  28.024  31.939  1.00  0.00     0.029 A 
ATOM     47  N   UNL A   1      42.436  29.655  32.905  1.00  0.00    -0.354 N 
ATOM     48  N   UNL A   1      41.890  31.649  35.002  1.00  0.00    -0.248 NA
ATOM     49  C   UNL A   1      42.283  32.499  37.146  1.00  0.00     0.031 C 
ATOM     50  C   UNL A   1      44.130  28.253  33.215  1.00  0.00     0.029 A 
ATOM     51  C   UNL A   1      43.415  29.281  33.808  1.00  0.00     0.049 A 
ATOM     52  H   UNL A   1      41.774  30.369  33.054  1.00  0.00     0.167 HD
ATOM     53  C   UNL A   1      42.913  30.923  35.600  1.00  0.00     0.074 A 
ATOM     54  C   UNL A   1      43.129  31.505  36.911  1.00  0.00     0.031 C 
ATOM     55  C   UNL A   1      43.605  29.866  35.112  1.00  0.00     0.031 A 
BRANCH  42  56
ATOM     56  C   UNL A   1      41.819  28.006  29.495  1.00  0.00    -0.014 A 
ATOM     57  C   UNL A   1      42.872  28.140  28.573  1.00  0.00     0.010 A 
ATOM     58  C   UNL A   1      40.938  26.914  29.375  1.00  0.00     0.010 A 
ATOM     59  C   UNL A   1      43.020  27.219  27.532  1.00  0.00     0.020 A 
ATOM     60  C   UNL A   1      41.097  25.979  28.349  1.00  0.00     0.020 A 
ATOM     61  C   UNL A   1      42.129  26.147  27.424  1.00  0.00     0.054 A 
BRANCH  61  62
ATOM     62  S   UNL A   1      42.356  24.953  26.076  1.00  0.00     0.124 S 
ATOM     63  O   UNL A   1      42.012  25.754  24.904  1.00  0.00    -0.237 OA
ATOM     64  O   UNL A   1      43.766  24.593  26.198  1.00  0.00    -0.237 OA
ATOM     65  O   UNL A   1      41.414  23.884  26.397  1.00  0.00    -0.744 OA
ENDBRANCH  61  62
ENDBRANCH  42  56
BRANCH  43  66
ATOM     66  C   UNL A   1      40.174  34.527  36.901  1.00  0.00    -0.014 A 
ATOM     67  C   UNL A   1      40.756  35.805  36.938  1.00  0.00     0.010 A 
ATOM     68  C   UNL A   1      39.288  34.148  37.928  1.00  0.00     0.010 A 
ATOM     69  C   UNL A   1      40.458  36.687  37.981  1.00  0.00     0.020 A 
ATOM     70  C   UNL A   1      38.968  35.035  38.958  1.00  0.00     0.020 A 
ATOM     71  C   UNL A   1      39.564  36.298  38.983  1.00  0.00     0.054 A 
BRANCH  71  72
ATOM     72  S   UNL A   1      39.136  37.482  40.290  1.00  0.00     0.124 S 
ATOM     73  O   UNL A   1      38.217  38.379  39.597  1.00  0.00    -0.237 OA
ATOM     74  O   UNL A   1      38.537  36.626  41.311  1.00  0.00    -0.237 OA
ATOM     75  O   UNL A   1      40.425  38.065  40.657  1.00  0.00    -0.744 OA
ENDBRANCH  71  72
ENDBRANCH  43  66
BRANCH  55  76
ATOM     76  C   UNL A   1      44.665  29.272  35.996  1.00  0.00    -0.014 A 
ATOM     77  C   UNL A   1      45.960  29.818  36.032  1.00  0.00     0.010 A 
ATOM     78  C   UNL A   1      44.348  28.194  36.841  1.00  0.00     0.010 A 
ATOM     79  C   UNL A   1      46.926  29.285  36.887  1.00  0.00     0.020 A 
ATOM     80  C   UNL A   1      45.306  27.672  37.714  1.00  0.00     0.020 A 
ATOM     81  C   UNL A   1      46.593  28.215  37.723  1.00  0.00     0.054 A 
BRANCH  81  82
ATOM     82  S   UNL A   1      47.847  27.575  38.866  1.00  0.00     0.124 S 
ATOM     83  O   UNL A   1      48.367  28.800  39.464  1.00  0.00    -0.237 OA
ATOM     84  O   UNL A   1      47.065  26.722  39.759  1.00  0.00    -0.237 OA
ATOM     85  O   UNL A   1      48.778  26.862  37.993  1.00  0.00    -0.744 OA
ENDBRANCH  81  82
ENDBRANCH  55  76
ENDBRANCH  29  30
ENDBRANCH  22  24
ENDBRANCH  21  22
ENDBRANCH  20  21
ENDBRANCH   1  20
TORSDOF 19
ENDMDL
MODEL 3
REMARK VINA RESULT:      -9.4      3.397      8.120
REMARK SMILES C[C@H](CC(=O)NC[C@@]1(C)CCCO1)CC(=O)OCCOC(=O)c1ccc(-c2c3nc(c(-c4ccc(S(=O)(=O)[O-])cc4)c4ccc([nH]4)c(-c4ccc(S(=O)(=O)[O-])cc4)c4nc(c(-c5ccc(S(=O)(=O)[O-])cc5)c5ccc2[nH]5)C=C4)C=C3)cc1
REMARK SMILES IDX 18 1 17 2 15 3 16 4 14 5 2 6 1 7 3 8 4 9 5 10 6 11 7 13 8 14
REMARK SMILES IDX 9 15 10 16 13 17 11 18 12 19 19 20 20 21 21 22 22 23 23 24
REMARK SMILES IDX 24 25 82 26 25 27 81 28 26 29 27 30 28 31 75 32 29 33 80 34
REMARK SMILES IDX 74 35 76 36 30 37 79 38 73 39 72 40 31 42 61 43 42 44 60 45
REMARK SMILES IDX 43 46 46 47 59 48 77 49 44 50 45 51 58 53 78 54 47 55 32 56
REMARK SMILES IDX 33 57 41 58 34 59 40 60 35 61 36 62 37 63 38 64 39 65 62 66
REMARK SMILES IDX 63 67 71 68 64 69 70 70 65 71 66 72 67 73 68 74 69 75 48 76
REMARK SMILES IDX 49 77 57 78 50 79 56 80 51 81 52 82 53 83 54 84 55 85
REMARK H PARENT 6 12 76 41 46 52
REMARK Flexibility Score: inf
ROOT
ATOM      1  C   UNL A   1      38.758  21.548  25.769  1.00  0.00     0.274 C 
ENDROOT
BRANCH   1   2
ATOM      2  O   UNL A   1      37.497  21.679  25.089  1.00  0.00    -0.462 OA
BRANCH   2   3
ATOM      3  C   UNL A   1      36.597  22.528  25.646  1.00  0.00     0.306 C 
ATOM      4  O   UNL A   1      36.728  23.745  25.710  1.00  0.00    -0.252 OA
BRANCH   3   5
ATOM      5  C   UNL A   1      35.375  21.817  26.194  1.00  0.00     0.126 C 
BRANCH   5   6
ATOM      6  C   UNL A   1      34.242  22.731  26.689  1.00  0.00     0.006 C 
ATOM      7  C   UNL A   1      33.575  22.166  27.944  1.00  0.00     0.009 C 
BRANCH   6   8
ATOM      8  C   UNL A   1      33.275  23.070  25.539  1.00  0.00     0.104 C 
BRANCH   8   9
ATOM      9  C   UNL A   1      32.045  22.200  25.395  1.00  0.00     0.220 C 
ATOM     10  O   UNL A   1      30.955  22.574  25.833  1.00  0.00    -0.275 OA
ATOM     11  N   UNL A   1      32.086  21.001  24.763  1.00  0.00    -0.353 N 
ATOM     12  H   UNL A   1      31.227  20.521  24.771  1.00  0.00     0.163 HD
BRANCH  11  13
ATOM     13  C   UNL A   1      33.153  20.282  24.075  1.00  0.00     0.151 C 
BRANCH  13  14
ATOM     14  C   UNL A   1      33.301  18.781  24.470  1.00  0.00     0.083 C 
ATOM     15  C   UNL A   1      32.650  18.449  25.821  1.00  0.00     0.044 C 
ATOM     16  C   UNL A   1      32.758  17.873  23.361  1.00  0.00     0.039 C 
ATOM     17  O   UNL A   1      34.698  18.424  24.572  1.00  0.00    -0.373 OA
ATOM     18  C   UNL A   1      33.561  16.607  23.530  1.00  0.00     0.031 C 
ATOM     19  C   UNL A   1      34.913  17.141  23.954  1.00  0.00     0.161 C 
ENDBRANCH  13  14
ENDBRANCH  11  13
ENDBRANCH   8   9
ENDBRANCH   6   8
ENDBRANCH   5   6
ENDBRANCH   3   5
ENDBRANCH   2   3
ENDBRANCH   1   2
BRANCH   1  20
ATOM     20  C   UNL A   1      39.275  20.119  25.620  1.00  0.00     0.275 C 
BRANCH  20  21
ATOM     21  O   UNL A   1      40.343  19.884  26.556  1.00  0.00    -0.458 OA
BRANCH  21  22
ATOM     22  C   UNL A   1      41.597  19.905  26.046  1.00  0.00     0.338 C 
ATOM     23  O   UNL A   1      42.148  19.046  25.384  1.00  0.00    -0.246 OA
BRANCH  22  24
ATOM     24  C   UNL A   1      42.230  21.182  26.409  1.00  0.00     0.060 A 
ATOM     25  C   UNL A   1      42.488  22.127  25.417  1.00  0.00     0.016 A 
ATOM     26  C   UNL A   1      42.610  21.420  27.726  1.00  0.00     0.016 A 
ATOM     27  C   UNL A   1      43.155  23.307  25.728  1.00  0.00     0.010 A 
ATOM     28  C   UNL A   1      43.210  22.640  28.054  1.00  0.00     0.010 A 
ATOM     29  C   UNL A   1      43.489  23.593  27.057  1.00  0.00    -0.014 A 
BRANCH  29  30
ATOM     30  C   UNL A   1      44.082  24.905  27.417  1.00  0.00     0.031 A 
ATOM     31  C   UNL A   1      43.213  26.013  27.937  1.00  0.00     0.074 A 
ATOM     32  C   UNL A   1      45.402  25.108  27.234  1.00  0.00     0.049 A 
ATOM     33  N   UNL A   1      43.505  27.275  28.112  1.00  0.00    -0.248 NA
ATOM     34  C   UNL A   1      41.830  25.658  28.296  1.00  0.00     0.031 C 
ATOM     35  C   UNL A   1      46.362  24.097  26.777  1.00  0.00     0.029 A 
ATOM     36  N   UNL A   1      46.166  26.237  27.396  1.00  0.00    -0.354 N 
ATOM     37  C   UNL A   1      42.336  27.876  28.561  1.00  0.00     0.074 A 
ATOM     38  C   UNL A   1      41.328  26.839  28.632  1.00  0.00     0.031 C 
ATOM     39  C   UNL A   1      47.583  24.649  26.703  1.00  0.00     0.029 A 
ATOM     40  C   UNL A   1      47.480  26.067  27.027  1.00  0.00     0.049 A 
ATOM     41  H   UNL A   1      45.808  27.086  27.744  1.00  0.00     0.167 HD
ATOM     42  C   UNL A   1      42.124  29.176  28.877  1.00  0.00     0.031 A 
ATOM     43  C   UNL A   1      48.481  26.960  26.906  1.00  0.00     0.031 A 
ATOM     44  C   UNL A   1      43.140  30.195  28.816  1.00  0.00     0.049 A 
ATOM     45  C   UNL A   1      48.203  28.407  27.191  1.00  0.00     0.074 A 
ATOM     46  C   UNL A   1      43.033  31.536  29.140  1.00  0.00     0.029 A 
ATOM     47  N   UNL A   1      44.446  29.986  28.403  1.00  0.00    -0.354 N 
ATOM     48  N   UNL A   1      47.088  28.964  27.598  1.00  0.00    -0.248 NA
ATOM     49  C   UNL A   1      49.311  29.349  26.982  1.00  0.00     0.031 C 
ATOM     50  C   UNL A   1      44.264  32.148  28.875  1.00  0.00     0.029 A 
ATOM     51  C   UNL A   1      45.149  31.178  28.432  1.00  0.00     0.049 A 
ATOM     52  H   UNL A   1      44.820  29.117  28.129  1.00  0.00     0.167 HD
ATOM     53  C   UNL A   1      47.359  30.323  27.695  1.00  0.00     0.074 A 
ATOM     54  C   UNL A   1      48.750  30.500  27.325  1.00  0.00     0.031 C 
ATOM     55  C   UNL A   1      46.529  31.334  28.049  1.00  0.00     0.031 A 
BRANCH  42  56
ATOM     56  C   UNL A   1      40.729  29.581  29.271  1.00  0.00    -0.014 A 
ATOM     57  C   UNL A   1      39.708  29.719  28.314  1.00  0.00     0.010 A 
ATOM     58  C   UNL A   1      40.427  29.787  30.630  1.00  0.00     0.010 A 
ATOM     59  C   UNL A   1      38.418  30.089  28.707  1.00  0.00     0.020 A 
ATOM     60  C   UNL A   1      39.133  30.136  31.029  1.00  0.00     0.020 A 
ATOM     61  C   UNL A   1      38.141  30.300  30.061  1.00  0.00     0.054 A 
BRANCH  61  62
ATOM     62  S   UNL A   1      36.453  30.759  30.547  1.00  0.00     0.124 S 
ATOM     63  O   UNL A   1      36.114  29.699  31.493  1.00  0.00    -0.237 OA
ATOM     64  O   UNL A   1      36.637  32.085  31.131  1.00  0.00    -0.237 OA
ATOM     65  O   UNL A   1      35.711  30.733  29.290  1.00  0.00    -0.744 OA
ENDBRANCH  61  62
ENDBRANCH  42  56
BRANCH  43  66
ATOM     66  C   UNL A   1      49.815  26.511  26.424  1.00  0.00    -0.014 A 
ATOM     67  C   UNL A   1      50.190  26.694  25.083  1.00  0.00     0.010 A 
ATOM     68  C   UNL A   1      50.733  25.926  27.318  1.00  0.00     0.010 A 
ATOM     69  C   UNL A   1      51.456  26.299  24.643  1.00  0.00     0.020 A 
ATOM     70  C   UNL A   1      52.009  25.555  26.888  1.00  0.00     0.020 A 
ATOM     71  C   UNL A   1      52.360  25.735  25.548  1.00  0.00     0.054 A 
BRANCH  71  72
ATOM     72  S   UNL A   1      54.023  25.294  24.975  1.00  0.00     0.124 S 
ATOM     73  O   UNL A   1      54.082  25.957  23.676  1.00  0.00    -0.237 OA
ATOM     74  O   UNL A   1      54.880  25.862  26.014  1.00  0.00    -0.237 OA
ATOM     75  O   UNL A   1      53.994  23.834  24.935  1.00  0.00    -0.744 OA
ENDBRANCH  71  72
ENDBRANCH  43  66
BRANCH  55  76
ATOM     76  C   UNL A   1      47.105  32.722  28.060  1.00  0.00    -0.014 A 
ATOM     77  C   UNL A   1      47.011  33.548  26.927  1.00  0.00     0.010 A 
ATOM     78  C   UNL A   1      47.695  33.224  29.233  1.00  0.00     0.010 A 
ATOM     79  C   UNL A   1      47.514  34.850  26.962  1.00  0.00     0.020 A 
ATOM     80  C   UNL A   1      48.180  34.533  29.278  1.00  0.00     0.020 A 
ATOM     81  C   UNL A   1      48.095  35.335  28.138  1.00  0.00     0.054 A 
BRANCH  81  82
ATOM     82  S   UNL A   1      48.689  37.048  28.177  1.00  0.00     0.124 S 
ATOM     83  O   UNL A   1      48.471  37.477  26.800  1.00  0.00    -0.237 OA
ATOM     84  O   UNL A   1      47.820  37.669  29.175  1.00  0.00    -0.237 OA
ATOM     85  O   UNL A   1      50.090  36.918  28.576  1.00  0.00    -0.744 OA
ENDBRANCH  81  82
ENDBRANCH  55  76
ENDBRANCH  29  30
ENDBRANCH  22  24
ENDBRANCH  21  22
ENDBRANCH  20  21
ENDBRANCH   1  20
TORSDOF 19
ENDMDL
