MODEL 1
REMARK VINA RESULT:     -11.3      0.000      0.000
REMARK SMILES Cc1ccc(S(=O)(=O)n2cc(C(=O)C(=O)N[C@@H](Cc3c[nH]c4ccccc34)C(=O)NCC(=O)OCCOC(=O)c3ccc(-c4c5nc(c(-c6ccc(S(=O)(=O)[O-])cc6)c6ccc([nH]6)c(-c6ccc(S(=O)(=O)[O-])cc6)c6nc(c(-c7ccc(S(=O)(=O)[O-])cc7)c7ccc4[nH]7)C=C6)C=C5)cc3)c3ccccc32)cc1
REMARK SMILES IDX 32 1 33 2 31 3 30 4 28 5 29 6 17 8 16 9 14 10 15 11 12 13
REMARK SMILES IDX 13 14 11 15 9 16 10 17 105 18 100 19 104 20 101 21 103 22
REMARK SMILES IDX 102 23 6 24 7 25 8 26 5 27 1 28 2 29 3 30 107 31 4 32 106 33
REMARK SMILES IDX 18 34 19 35 20 36 27 37 21 38 22 39 26 40 23 42 25 43 24 44
REMARK SMILES IDX 34 45 35 46 36 47 37 48 38 49 39 50 40 51 41 52 99 53 42 54
REMARK SMILES IDX 98 55 43 56 44 57 45 58 92 59 46 60 97 61 91 62 93 63 47 64
REMARK SMILES IDX 96 65 90 66 89 67 48 69 78 70 59 71 77 72 60 73 63 74 76 75
REMARK SMILES IDX 94 76 61 77 62 78 75 80 95 81 64 82 49 83 50 84 58 85 51 86
REMARK SMILES IDX 57 87 52 88 53 89 54 90 55 91 56 92 79 93 80 94 88 95 81 96
REMARK SMILES IDX 87 97 82 98 83 99 84 100 85 101 86 102 65 103 66 104 74 105
REMARK SMILES IDX 67 106 73 107 68 108 69 109 70 110 71 111 72 112
REMARK H PARENT 30 7 16 12 21 41 93 68 63 79
REMARK Flexibility Score: inf
ROOT
ATOM      1  C   UNL A   1      37.121  23.670  25.853  1.00  0.00     0.325 C 
ATOM      2  O   UNL A   1      36.281  23.656  26.739  1.00  0.00    -0.250 OA
ENDROOT
BRANCH   1   3
ATOM      3  C   UNL A   1      36.873  23.245  24.392  1.00  0.00     0.238 C 
BRANCH   3   4
ATOM      4  N   UNL A   1      35.649  23.764  23.782  1.00  0.00    -0.343 N 
ATOM      5  C   UNL A   1      34.347  23.348  23.858  1.00  0.00     0.243 C 
ATOM      6  O   UNL A   1      33.526  23.979  23.179  1.00  0.00    -0.273 OA
ATOM      7  H   UNL A   1      35.787  24.556  23.214  1.00  0.00     0.164 HD
BRANCH   5   8
ATOM      8  C   UNL A   1      33.893  22.054  24.615  1.00  0.00     0.176 C 
BRANCH   8   9
ATOM      9  N   UNL A   1      33.609  22.204  26.035  1.00  0.00    -0.337 N 
ATOM     10  C   UNL A   1      32.737  22.981  26.754  1.00  0.00     0.293 C 
ATOM     11  O   UNL A   1      32.725  22.965  27.978  1.00  0.00    -0.265 OA
ATOM     12  H   UNL A   1      34.164  21.622  26.603  1.00  0.00     0.164 HD
BRANCH  10  13
ATOM     13  C   UNL A   1      31.689  23.780  26.013  1.00  0.00     0.252 C 
ATOM     14  O   UNL A   1      30.708  23.136  25.633  1.00  0.00    -0.283 OA
BRANCH  13  15
ATOM     15  C   UNL A   1      31.867  25.191  25.679  1.00  0.00     0.054 A 
ATOM     16  N   UNL A   1      32.529  27.342  25.512  1.00  0.00    -0.240 N 
ATOM     17  C   UNL A   1      32.899  26.081  25.987  1.00  0.00     0.117 A 
ATOM     18  C   UNL A   1      31.469  27.146  24.612  1.00  0.00     0.065 A 
ATOM     19  C   UNL A   1      30.879  25.941  24.978  1.00  0.00     0.012 A 
ATOM     20  C   UNL A   1      30.838  28.027  23.717  1.00  0.00     0.028 A 
ATOM     21  C   UNL A   1      29.546  25.686  24.594  1.00  0.00     0.011 A 
ATOM     22  C   UNL A   1      29.506  27.771  23.381  1.00  0.00     0.002 A 
ATOM     23  C   UNL A   1      28.853  26.638  23.848  1.00  0.00     0.001 A 
BRANCH  16  24
ATOM     24  S   UNL A   1      32.234  28.697  26.596  1.00  0.00     0.268 S 
ATOM     25  O   UNL A   1      31.648  28.079  27.776  1.00  0.00    -0.201 OA
ATOM     26  O   UNL A   1      31.452  29.623  25.786  1.00  0.00    -0.201 OA
BRANCH  24  27
ATOM     27  C   UNL A   1      33.548  29.711  27.176  1.00  0.00     0.088 A 
ATOM     28  C   UNL A   1      37.217  31.449  28.645  1.00  0.00     0.044 C 
ATOM     29  C   UNL A   1      35.940  30.881  28.097  1.00  0.00    -0.051 A 
ATOM     30  C   UNL A   1      35.928  29.540  27.733  1.00  0.00     0.005 A 
ATOM     31  C   UNL A   1      34.744  31.624  28.007  1.00  0.00     0.005 A 
ATOM     32  C   UNL A   1      34.753  28.974  27.270  1.00  0.00     0.022 A 
ATOM     33  C   UNL A   1      33.535  31.046  27.546  1.00  0.00     0.022 A 
ENDBRANCH  24  27
ENDBRANCH  16  24
ENDBRANCH  13  15
ENDBRANCH  10  13
ENDBRANCH   8   9
BRANCH   8  34
ATOM     34  C   UNL A   1      32.677  21.371  23.904  1.00  0.00     0.072 C 
BRANCH  34  35
ATOM     35  C   UNL A   1      32.817  19.911  23.498  1.00  0.00    -0.020 A 
ATOM     36  C   UNL A   1      31.855  19.257  22.707  1.00  0.00     0.087 A 
ATOM     37  C   UNL A   1      33.812  18.930  23.874  1.00  0.00     0.003 A 
ATOM     38  N   UNL A   1      31.959  17.872  22.639  1.00  0.00    -0.361 N 
ATOM     39  C   UNL A   1      32.971  17.421  23.446  1.00  0.00     0.046 A 
ATOM     40  C   UNL A   1      35.393  18.822  24.818  1.00  0.00     0.010 A 
ATOM     41  H   UNL A   1      31.385  17.294  22.087  1.00  0.00     0.166 HD
ATOM     42  C   UNL A   1      33.436  15.856  24.267  1.00  0.00     0.026 A 
ATOM     43  C   UNL A   1      36.066  17.212  25.389  1.00  0.00     0.001 A 
ATOM     44  C   UNL A   1      34.990  15.753  25.267  1.00  0.00     0.002 A 
ENDBRANCH  34  35
ENDBRANCH   8  34
ENDBRANCH   5   8
ENDBRANCH   3   4
ENDBRANCH   1   3
BRANCH   1  45
ATOM     45  O   UNL A   1      38.404  24.099  26.005  1.00  0.00    -0.461 OA
BRANCH  45  46
ATOM     46  C   UNL A   1      39.238  23.717  27.131  1.00  0.00     0.274 C 
BRANCH  46  47
ATOM     47  C   UNL A   1      40.688  23.231  26.881  1.00  0.00     0.275 C 
BRANCH  47  48
ATOM     48  O   UNL A   1      41.483  24.157  26.120  1.00  0.00    -0.458 OA
BRANCH  48  49
ATOM     49  C   UNL A   1      42.659  24.536  26.697  1.00  0.00     0.338 C 
ATOM     50  O   UNL A   1      43.738  24.000  26.524  1.00  0.00    -0.246 OA
BRANCH  49  51
ATOM     51  C   UNL A   1      42.442  25.849  27.346  1.00  0.00     0.060 A 
ATOM     52  C   UNL A   1      41.814  26.908  26.753  1.00  0.00     0.016 A 
ATOM     53  C   UNL A   1      42.601  25.921  28.705  1.00  0.00     0.016 A 
ATOM     54  C   UNL A   1      41.603  28.076  27.543  1.00  0.00     0.010 A 
ATOM     55  C   UNL A   1      41.961  26.901  29.451  1.00  0.00     0.010 A 
ATOM     56  C   UNL A   1      41.931  28.318  29.051  1.00  0.00    -0.014 A 
BRANCH  56  57
ATOM     57  C   UNL A   1      42.549  30.039  30.167  1.00  0.00     0.031 A 
ATOM     58  C   UNL A   1      41.596  31.085  31.179  1.00  0.00     0.074 A 
ATOM     59  C   UNL A   1      43.836  30.615  30.607  1.00  0.00     0.049 A 
ATOM     60  N   UNL A   1      41.354  30.922  32.465  1.00  0.00    -0.248 NA
ATOM     61  C   UNL A   1      40.911  32.273  30.627  1.00  0.00     0.031 C 
ATOM     62  C   UNL A   1      44.170  31.356  31.845  1.00  0.00     0.029 A 
ATOM     63  N   UNL A   1      45.158  30.468  30.105  1.00  0.00    -0.354 N 
ATOM     64  C   UNL A   1      40.490  31.932  32.881  1.00  0.00     0.074 A 
ATOM     65  C   UNL A   1      40.144  32.642  31.655  1.00  0.00     0.031 C 
ATOM     66  C   UNL A   1      45.449  31.780  31.815  1.00  0.00     0.029 A 
ATOM     67  C   UNL A   1      45.977  31.485  30.506  1.00  0.00     0.049 A 
ATOM     68  H   UNL A   1      45.450  29.720  29.535  1.00  0.00     0.167 HD
ATOM     69  C   UNL A   1      40.767  32.700  33.976  1.00  0.00     0.031 A 
ATOM     70  C   UNL A   1      46.553  32.310  29.586  1.00  0.00     0.031 A 
ATOM     71  C   UNL A   1      42.039  33.396  33.941  1.00  0.00     0.049 A 
ATOM     72  C   UNL A   1      46.067  33.696  29.890  1.00  0.00     0.074 A 
ATOM     73  C   UNL A   1      43.198  33.317  34.690  1.00  0.00     0.029 A 
ATOM     74  N   UNL A   1      42.302  34.291  32.909  1.00  0.00    -0.354 N 
ATOM     75  N   UNL A   1      44.934  33.923  30.499  1.00  0.00    -0.248 NA
ATOM     76  C   UNL A   1      46.834  34.910  29.651  1.00  0.00     0.031 C 
ATOM     77  C   UNL A   1      44.191  34.095  34.032  1.00  0.00     0.029 A 
ATOM     78  C   UNL A   1      43.623  34.669  32.904  1.00  0.00     0.049 A 
ATOM     79  H   UNL A   1      41.629  34.612  32.267  1.00  0.00     0.167 HD
ATOM     80  C   UNL A   1      44.943  35.201  30.954  1.00  0.00     0.074 A 
ATOM     81  C   UNL A   1      46.081  35.821  30.295  1.00  0.00     0.031 C 
ATOM     82  C   UNL A   1      44.118  35.643  31.941  1.00  0.00     0.031 A 
BRANCH  69  83
ATOM     83  C   UNL A   1      39.863  32.520  35.176  1.00  0.00    -0.014 A 
ATOM     84  C   UNL A   1      38.625  31.853  35.082  1.00  0.00     0.010 A 
ATOM     85  C   UNL A   1      40.237  32.986  36.459  1.00  0.00     0.010 A 
ATOM     86  C   UNL A   1      37.786  31.690  36.203  1.00  0.00     0.020 A 
ATOM     87  C   UNL A   1      39.413  32.819  37.583  1.00  0.00     0.020 A 
ATOM     88  C   UNL A   1      38.184  32.180  37.447  1.00  0.00     0.054 A 
BRANCH  88  89
ATOM     89  S   UNL A   1      37.084  31.994  38.882  1.00  0.00     0.124 S 
ATOM     90  O   UNL A   1      35.904  32.754  38.479  1.00  0.00    -0.237 OA
ATOM     91  O   UNL A   1      36.906  30.548  38.964  1.00  0.00    -0.237 OA
ATOM     92  O   UNL A   1      37.846  32.588  39.982  1.00  0.00    -0.744 OA
ENDBRANCH  88  89
ENDBRANCH  69  83
BRANCH  70  93
ATOM     93  C   UNL A   1      46.799  31.689  28.234  1.00  0.00    -0.014 A 
ATOM     94  C   UNL A   1      47.768  30.652  28.167  1.00  0.00     0.010 A 
ATOM     95  C   UNL A   1      45.881  31.790  27.172  1.00  0.00     0.010 A 
ATOM     96  C   UNL A   1      47.712  29.655  27.182  1.00  0.00     0.020 A 
ATOM     97  C   UNL A   1      45.850  30.812  26.155  1.00  0.00     0.020 A 
ATOM     98  C   UNL A   1      46.726  29.720  26.201  1.00  0.00     0.054 A 
BRANCH  98  99
ATOM     99  S   UNL A   1      46.398  28.227  25.193  1.00  0.00     0.124 S 
ATOM    100  O   UNL A   1      46.811  28.659  23.863  1.00  0.00    -0.237 OA
ATOM    101  O   UNL A   1      47.251  27.224  25.829  1.00  0.00    -0.237 OA
ATOM    102  O   UNL A   1      44.964  28.018  25.379  1.00  0.00    -0.744 OA
ENDBRANCH  98  99
ENDBRANCH  70  93
BRANCH  82 103
ATOM    103  C   UNL A   1      43.828  37.090  32.156  1.00  0.00    -0.014 A 
ATOM    104  C   UNL A   1      43.614  37.617  33.439  1.00  0.00     0.010 A 
ATOM    105  C   UNL A   1      43.953  37.993  31.079  1.00  0.00     0.010 A 
ATOM    106  C   UNL A   1      43.449  38.987  33.633  1.00  0.00     0.020 A 
ATOM    107  C   UNL A   1      43.831  39.366  31.268  1.00  0.00     0.020 A 
ATOM    108  C   UNL A   1      43.550  39.851  32.543  1.00  0.00     0.054 A 
BRANCH 108 109
ATOM    109  S   UNL A   1      43.383  41.630  32.807  1.00  0.00     0.124 S 
ATOM    110  O   UNL A   1      43.835  41.766  34.189  1.00  0.00    -0.237 OA
ATOM    111  O   UNL A   1      44.274  42.197  31.797  1.00  0.00    -0.237 OA
ATOM    112  O   UNL A   1      41.961  41.872  32.580  1.00  0.00    -0.744 OA
ENDBRANCH 108 109
ENDBRANCH  82 103
ENDBRANCH  56  57
ENDBRANCH  49  51
ENDBRANCH  48  49
ENDBRANCH  47  48
ENDBRANCH  46  47
ENDBRANCH  45  46
ENDBRANCH   1  45
TORSDOF 23
ENDMDL
MODEL 2
REMARK VINA RESULT:     -11.2      3.256      4.410
REMARK SMILES Cc1ccc(S(=O)(=O)n2cc(C(=O)C(=O)N[C@@H](Cc3c[nH]c4ccccc34)C(=O)NCC(=O)OCCOC(=O)c3ccc(-c4c5nc(c(-c6ccc(S(=O)(=O)[O-])cc6)c6ccc([nH]6)c(-c6ccc(S(=O)(=O)[O-])cc6)c6nc(c(-c7ccc(S(=O)(=O)[O-])cc7)c7ccc4[nH]7)C=C6)C=C5)cc3)c3ccccc32)cc1
REMARK SMILES IDX 32 1 33 2 31 3 30 4 28 5 29 6 17 8 16 9 14 10 15 11 12 13
REMARK SMILES IDX 13 14 11 15 9 16 10 17 105 18 100 19 104 20 101 21 103 22
REMARK SMILES IDX 102 23 6 24 7 25 8 26 5 27 1 28 2 29 3 30 107 31 4 32 106 33
REMARK SMILES IDX 18 34 19 35 20 36 27 37 21 38 22 39 26 40 23 42 25 43 24 44
REMARK SMILES IDX 34 45 35 46 36 47 37 48 38 49 39 50 40 51 41 52 99 53 42 54
REMARK SMILES IDX 98 55 43 56 44 57 45 58 92 59 46 60 97 61 91 62 93 63 47 64
REMARK SMILES IDX 96 65 90 66 89 67 48 69 78 70 59 71 77 72 60 73 63 74 76 75
REMARK SMILES IDX 94 76 61 77 62 78 75 80 95 81 64 82 49 83 50 84 58 85 51 86
REMARK SMILES IDX 57 87 52 88 53 89 54 90 55 91 56 92 79 93 80 94 88 95 81 96
REMARK SMILES IDX 87 97 82 98 83 99 84 100 85 101 86 102 65 103 66 104 74 105
REMARK SMILES IDX 67 106 73 107 68 108 69 109 70 110 71 111 72 112
REMARK H PARENT 30 7 16 12 21 41 93 68 63 79
REMARK Flexibility Score: inf
ROOT
ATOM      1  C   UNL A   1      34.386  23.953  23.290  1.00  0.00     0.325 C 
ATOM      2  O   UNL A   1      34.352  25.157  23.087  1.00  0.00    -0.250 OA
ENDROOT
BRANCH   1   3
ATOM      3  C   UNL A   1      33.374  22.933  22.731  1.00  0.00     0.238 C 
BRANCH   3   4
ATOM      4  N   UNL A   1      32.003  23.420  22.581  1.00  0.00    -0.343 N 
ATOM      5  C   UNL A   1      30.988  23.576  23.488  1.00  0.00     0.243 C 
ATOM      6  O   UNL A   1      29.906  23.977  23.040  1.00  0.00    -0.273 OA
ATOM      7  H   UNL A   1      31.766  23.682  21.662  1.00  0.00     0.164 HD
BRANCH   5   8
ATOM      8  C   UNL A   1      31.090  23.134  24.987  1.00  0.00     0.176 C 
BRANCH   8   9
ATOM      9  N   UNL A   1      30.102  23.700  25.894  1.00  0.00    -0.337 N 
ATOM     10  C   UNL A   1      29.647  24.972  26.131  1.00  0.00     0.293 C 
ATOM     11  O   UNL A   1      28.826  25.205  27.009  1.00  0.00    -0.265 OA
ATOM     12  H   UNL A   1      29.665  23.023  26.460  1.00  0.00     0.164 HD
BRANCH  10  13
ATOM     13  C   UNL A   1      30.081  26.087  25.208  1.00  0.00     0.252 C 
ATOM     14  O   UNL A   1      29.401  26.221  24.188  1.00  0.00    -0.283 OA
BRANCH  13  15
ATOM     15  C   UNL A   1      31.280  26.887  25.450  1.00  0.00     0.054 A 
ATOM     16  N   UNL A   1      32.958  28.123  26.316  1.00  0.00    -0.240 N 
ATOM     17  C   UNL A   1      31.890  27.283  26.642  1.00  0.00     0.117 A 
ATOM     18  C   UNL A   1      33.217  27.942  24.948  1.00  0.00     0.065 A 
ATOM     19  C   UNL A   1      32.027  27.483  24.394  1.00  0.00     0.012 A 
ATOM     20  C   UNL A   1      34.277  28.388  24.138  1.00  0.00     0.028 A 
ATOM     21  C   UNL A   1      31.809  27.644  23.009  1.00  0.00     0.011 A 
ATOM     22  C   UNL A   1      34.024  28.571  22.776  1.00  0.00     0.002 A 
ATOM     23  C   UNL A   1      32.792  28.245  22.225  1.00  0.00     0.001 A 
BRANCH  16  24
ATOM     24  S   UNL A   1      32.982  29.822  26.775  1.00  0.00     0.268 S 
ATOM     25  O   UNL A   1      31.997  29.909  27.842  1.00  0.00    -0.201 OA
ATOM     26  O   UNL A   1      32.765  30.523  25.515  1.00  0.00    -0.201 OA
BRANCH  24  27
ATOM     27  C   UNL A   1      34.441  30.585  27.391  1.00  0.00     0.088 A 
ATOM     28  C   UNL A   1      37.544  33.187  28.889  1.00  0.00     0.044 C 
ATOM     29  C   UNL A   1      36.475  32.249  28.406  1.00  0.00    -0.051 A 
ATOM     30  C   UNL A   1      35.186  32.749  28.266  1.00  0.00     0.005 A 
ATOM     31  C   UNL A   1      36.737  30.917  28.023  1.00  0.00     0.005 A 
ATOM     32  C   UNL A   1      34.188  31.923  27.779  1.00  0.00     0.022 A 
ATOM     33  C   UNL A   1      35.722  30.071  27.511  1.00  0.00     0.022 A 
ENDBRANCH  24  27
ENDBRANCH  16  24
ENDBRANCH  13  15
ENDBRANCH  10  13
ENDBRANCH   8   9
BRANCH   8  34
ATOM     34  C   UNL A   1      31.098  21.574  25.124  1.00  0.00     0.072 C 
BRANCH  34  35
ATOM     35  C   UNL A   1      32.417  20.898  25.469  1.00  0.00    -0.020 A 
ATOM     36  C   UNL A   1      33.509  21.609  25.997  1.00  0.00     0.087 A 
ATOM     37  C   UNL A   1      32.847  19.532  25.260  1.00  0.00     0.003 A 
ATOM     38  N   UNL A   1      34.727  20.939  26.010  1.00  0.00    -0.361 N 
ATOM     39  C   UNL A   1      34.611  19.710  25.414  1.00  0.00     0.046 A 
ATOM     40  C   UNL A   1      32.171  17.919  24.673  1.00  0.00     0.010 A 
ATOM     41  H   UNL A   1      35.560  21.298  26.393  1.00  0.00     0.166 HD
ATOM     42  C   UNL A   1      35.721  18.490  24.626  1.00  0.00     0.026 A 
ATOM     43  C   UNL A   1      33.272  16.539  24.171  1.00  0.00     0.001 A 
ATOM     44  C   UNL A   1      35.044  16.895  23.978  1.00  0.00     0.002 A 
ENDBRANCH  34  35
ENDBRANCH   8  34
ENDBRANCH   5   8
ENDBRANCH   3   4
ENDBRANCH   1   3
BRANCH   1  45
ATOM     45  O   UNL A   1      35.346  23.313  24.012  1.00  0.00    -0.461 OA
BRANCH  45  46
ATOM     46  C   UNL A   1      36.207  23.994  24.962  1.00  0.00     0.274 C 
BRANCH  46  47
ATOM     47  C   UNL A   1      37.626  23.440  25.246  1.00  0.00     0.275 C 
BRANCH  47  48
ATOM     48  O   UNL A   1      38.167  23.860  26.511  1.00  0.00    -0.458 OA
BRANCH  48  49
ATOM     49  C   UNL A   1      39.339  23.268  26.875  1.00  0.00     0.338 C 
ATOM     50  O   UNL A   1      39.746  22.193  26.473  1.00  0.00    -0.246 OA
BRANCH  49  51
ATOM     51  C   UNL A   1      40.136  24.266  27.625  1.00  0.00     0.060 A 
ATOM     52  C   UNL A   1      41.426  24.074  28.032  1.00  0.00     0.016 A 
ATOM     53  C   UNL A   1      39.676  25.556  27.653  1.00  0.00     0.016 A 
ATOM     54  C   UNL A   1      42.088  25.166  28.665  1.00  0.00     0.010 A 
ATOM     55  C   UNL A   1      40.541  26.621  27.864  1.00  0.00     0.010 A 
ATOM     56  C   UNL A   1      41.571  26.619  28.918  1.00  0.00    -0.014 A 
BRANCH  56  57
ATOM     57  C   UNL A   1      41.888  28.045  30.484  1.00  0.00     0.031 A 
ATOM     58  C   UNL A   1      41.198  29.631  30.675  1.00  0.00     0.074 A 
ATOM     59  C   UNL A   1      42.466  28.021  31.843  1.00  0.00     0.049 A 
ATOM     60  N   UNL A   1      40.063  29.923  31.281  1.00  0.00    -0.248 NA
ATOM     61  C   UNL A   1      41.848  30.826  30.096  1.00  0.00     0.031 C 
ATOM     62  C   UNL A   1      42.083  28.787  33.051  1.00  0.00     0.029 A 
ATOM     63  N   UNL A   1      43.398  27.140  32.458  1.00  0.00    -0.354 N 
ATOM     64  C   UNL A   1      39.834  31.290  31.147  1.00  0.00     0.074 A 
ATOM     65  C   UNL A   1      40.907  31.755  30.275  1.00  0.00     0.031 C 
ATOM     66  C   UNL A   1      42.926  28.524  34.069  1.00  0.00     0.029 A 
ATOM     67  C   UNL A   1      43.993  27.703  33.551  1.00  0.00     0.049 A 
ATOM     68  H   UNL A   1      43.592  26.231  32.134  1.00  0.00     0.167 HD
ATOM     69  C   UNL A   1      39.541  32.072  32.228  1.00  0.00     0.031 A 
ATOM     70  C   UNL A   1      45.342  27.898  33.578  1.00  0.00     0.031 A 
ATOM     71  C   UNL A   1      40.516  32.040  33.300  1.00  0.00     0.049 A 
ATOM     72  C   UNL A   1      45.558  29.373  33.738  1.00  0.00     0.074 A 
ATOM     73  C   UNL A   1      40.489  31.600  34.611  1.00  0.00     0.029 A 
ATOM     74  N   UNL A   1      41.830  32.417  33.043  1.00  0.00    -0.354 N 
ATOM     75  N   UNL A   1      44.678  30.256  33.349  1.00  0.00    -0.248 NA
ATOM     76  C   UNL A   1      46.691  29.971  34.431  1.00  0.00     0.031 C 
ATOM     77  C   UNL A   1      41.825  31.619  35.100  1.00  0.00     0.029 A 
ATOM     78  C   UNL A   1      42.653  32.100  34.096  1.00  0.00     0.049 A 
ATOM     79  H   UNL A   1      42.131  32.853  32.213  1.00  0.00     0.167 HD
ATOM     80  C   UNL A   1      44.971  31.440  33.944  1.00  0.00     0.074 A 
ATOM     81  C   UNL A   1      46.301  31.257  34.501  1.00  0.00     0.031 C 
ATOM     82  C   UNL A   1      44.067  32.449  34.071  1.00  0.00     0.031 A 
BRANCH  69  83
ATOM     83  C   UNL A   1      38.142  32.647  32.289  1.00  0.00    -0.014 A 
ATOM     84  C   UNL A   1      37.911  34.030  32.431  1.00  0.00     0.010 A 
ATOM     85  C   UNL A   1      36.998  31.822  32.171  1.00  0.00     0.010 A 
ATOM     86  C   UNL A   1      36.607  34.560  32.488  1.00  0.00     0.020 A 
ATOM     87  C   UNL A   1      35.695  32.342  32.217  1.00  0.00     0.020 A 
ATOM     88  C   UNL A   1      35.505  33.709  32.387  1.00  0.00     0.054 A 
BRANCH  88  89
ATOM     89  S   UNL A   1      33.825  34.395  32.493  1.00  0.00     0.124 S 
ATOM     90  O   UNL A   1      33.445  34.525  31.089  1.00  0.00    -0.237 OA
ATOM     91  O   UNL A   1      33.110  33.373  33.249  1.00  0.00    -0.237 OA
ATOM     92  O   UNL A   1      34.014  35.666  33.194  1.00  0.00    -0.744 OA
ENDBRANCH  88  89
ENDBRANCH  69  83
BRANCH  70  93
ATOM     93  C   UNL A   1      46.146  26.927  32.751  1.00  0.00    -0.014 A 
ATOM     94  C   UNL A   1      46.651  27.401  31.510  1.00  0.00     0.010 A 
ATOM     95  C   UNL A   1      46.737  25.772  33.294  1.00  0.00     0.010 A 
ATOM     96  C   UNL A   1      47.806  26.857  30.929  1.00  0.00     0.020 A 
ATOM     97  C   UNL A   1      47.875  25.195  32.689  1.00  0.00     0.020 A 
ATOM     98  C   UNL A   1      48.435  25.777  31.545  1.00  0.00     0.054 A 
BRANCH  98  99
ATOM     99  S   UNL A   1      50.140  25.352  31.031  1.00  0.00     0.124 S 
ATOM    100  O   UNL A   1      50.001  25.225  29.585  1.00  0.00    -0.237 OA
ATOM    101  O   UNL A   1      50.907  26.505  31.496  1.00  0.00    -0.237 OA
ATOM    102  O   UNL A   1      50.398  24.110  31.757  1.00  0.00    -0.744 OA
ENDBRANCH  98  99
ENDBRANCH  70  93
BRANCH  82 103
ATOM    103  C   UNL A   1      44.473  33.861  34.332  1.00  0.00    -0.014 A 
ATOM    104  C   UNL A   1      43.929  34.600  35.394  1.00  0.00     0.010 A 
ATOM    105  C   UNL A   1      45.559  34.416  33.623  1.00  0.00     0.010 A 
ATOM    106  C   UNL A   1      44.395  35.880  35.688  1.00  0.00     0.020 A 
ATOM    107  C   UNL A   1      46.059  35.676  33.936  1.00  0.00     0.020 A 
ATOM    108  C   UNL A   1      45.452  36.412  34.951  1.00  0.00     0.054 A 
BRANCH 108 109
ATOM    109  S   UNL A   1      46.083  38.052  35.367  1.00  0.00     0.124 S 
ATOM    110  O   UNL A   1      45.032  38.915  34.837  1.00  0.00    -0.237 OA
ATOM    111  O   UNL A   1      46.181  38.005  36.824  1.00  0.00    -0.237 OA
ATOM    112  O   UNL A   1      47.363  38.109  34.666  1.00  0.00    -0.744 OA
ENDBRANCH 108 109
ENDBRANCH  82 103
ENDBRANCH  56  57
ENDBRANCH  49  51
ENDBRANCH  48  49
ENDBRANCH  47  48
ENDBRANCH  46  47
ENDBRANCH  45  46
ENDBRANCH   1  45
TORSDOF 23
ENDMDL
MODEL 3
REMARK VINA RESULT:     -11.0      6.116     10.943
REMARK SMILES Cc1ccc(S(=O)(=O)n2cc(C(=O)C(=O)N[C@@H](Cc3c[nH]c4ccccc34)C(=O)NCC(=O)OCCOC(=O)c3ccc(-c4c5nc(c(-c6ccc(S(=O)(=O)[O-])cc6)c6ccc([nH]6)c(-c6ccc(S(=O)(=O)[O-])cc6)c6nc(c(-c7ccc(S(=O)(=O)[O-])cc7)c7ccc4[nH]7)C=C6)C=C5)cc3)c3ccccc32)cc1
REMARK SMILES IDX 32 1 33 2 31 3 30 4 28 5 29 6 17 8 16 9 14 10 15 11 12 13
REMARK SMILES IDX 13 14 11 15 9 16 10 17 105 18 100 19 104 20 101 21 103 22
REMARK SMILES IDX 102 23 6 24 7 25 8 26 5 27 1 28 2 29 3 30 107 31 4 32 106 33
REMARK SMILES IDX 18 34 19 35 20 36 27 37 21 38 22 39 26 40 23 42 25 43 24 44
REMARK SMILES IDX 34 45 35 46 36 47 37 48 38 49 39 50 40 51 41 52 99 53 42 54
REMARK SMILES IDX 98 55 43 56 44 57 45 58 92 59 46 60 97 61 91 62 93 63 47 64
REMARK SMILES IDX 96 65 90 66 89 67 48 69 78 70 59 71 77 72 60 73 63 74 76 75
REMARK SMILES IDX 94 76 61 77 62 78 75 80 95 81 64 82 49 83 50 84 58 85 51 86
REMARK SMILES IDX 57 87 52 88 53 89 54 90 55 91 56 92 79 93 80 94 88 95 81 96
REMARK SMILES IDX 87 97 82 98 83 99 84 100 85 101 86 102 65 103 66 104 74 105
REMARK SMILES IDX 67 106 73 107 68 108 69 109 70 110 71 111 72 112
REMARK H PARENT 30 7 16 12 21 41 93 68 63 79
REMARK Flexibility Score: inf
ROOT
ATOM      1  C   UNL A   1      46.712  28.964  25.771  1.00  0.00     0.325 C 
ATOM      2  O   UNL A   1      46.366  29.901  25.068  1.00  0.00    -0.250 OA
ENDROOT
BRANCH   1   3
ATOM      3  C   UNL A   1      45.789  28.199  26.742  1.00  0.00     0.238 C 
BRANCH   3   4
ATOM      4  N   UNL A   1      44.600  27.596  26.142  1.00  0.00    -0.343 N 
ATOM      5  C   UNL A   1      43.319  27.455  26.604  1.00  0.00     0.243 C 
ATOM      6  O   UNL A   1      42.531  26.847  25.867  1.00  0.00    -0.273 OA
ATOM      7  H   UNL A   1      44.748  27.223  25.243  1.00  0.00     0.164 HD
BRANCH   5   8
ATOM      8  C   UNL A   1      42.865  27.875  28.044  1.00  0.00     0.176 C 
BRANCH   8   9
ATOM      9  N   UNL A   1      41.476  28.286  28.187  1.00  0.00    -0.337 N 
ATOM     10  C   UNL A   1      40.707  28.687  29.250  1.00  0.00     0.293 C 
ATOM     11  O   UNL A   1      39.516  28.935  29.121  1.00  0.00    -0.265 OA
ATOM     12  H   UNL A   1      40.980  28.273  27.337  1.00  0.00     0.164 HD
BRANCH  10  13
ATOM     13  C   UNL A   1      41.378  28.942  30.581  1.00  0.00     0.252 C 
ATOM     14  O   UNL A   1      41.412  27.975  31.347  1.00  0.00    -0.283 OA
BRANCH  13  15
ATOM     15  C   UNL A   1      41.862  30.261  30.977  1.00  0.00     0.054 A 
ATOM     16  N   UNL A   1      42.116  32.441  31.506  1.00  0.00    -0.240 N 
ATOM     17  C   UNL A   1      41.171  31.434  31.290  1.00  0.00     0.117 A 
ATOM     18  C   UNL A   1      43.356  31.807  31.686  1.00  0.00     0.065 A 
ATOM     19  C   UNL A   1      43.250  30.578  31.041  1.00  0.00     0.012 A 
ATOM     20  C   UNL A   1      44.601  32.306  32.107  1.00  0.00     0.028 A 
ATOM     21  C   UNL A   1      44.426  29.912  30.638  1.00  0.00     0.011 A 
ATOM     22  C   UNL A   1      45.751  31.648  31.665  1.00  0.00     0.002 A 
ATOM     23  C   UNL A   1      45.667  30.490  30.902  1.00  0.00     0.001 A 
BRANCH  16  24
ATOM     24  S   UNL A   1      42.238  33.847  30.455  1.00  0.00     0.268 S 
ATOM     25  O   UNL A   1      42.763  34.888  31.324  1.00  0.00    -0.201 OA
ATOM     26  O   UNL A   1      40.902  33.969  29.885  1.00  0.00    -0.201 OA
BRANCH  24  27
ATOM     27  C   UNL A   1      43.263  33.838  29.026  1.00  0.00     0.088 A 
ATOM     28  C   UNL A   1      45.513  34.642  25.430  1.00  0.00     0.044 C 
ATOM     29  C   UNL A   1      44.773  34.343  26.702  1.00  0.00    -0.051 A 
ATOM     30  C   UNL A   1      44.116  35.392  27.334  1.00  0.00     0.005 A 
ATOM     31  C   UNL A   1      44.656  33.042  27.236  1.00  0.00     0.005 A 
ATOM     32  C   UNL A   1      43.386  35.140  28.483  1.00  0.00     0.022 A 
ATOM     33  C   UNL A   1      43.899  32.776  28.404  1.00  0.00     0.022 A 
ENDBRANCH  24  27
ENDBRANCH  16  24
ENDBRANCH  13  15
ENDBRANCH  10  13
ENDBRANCH   8   9
BRANCH   8  34
ATOM     34  C   UNL A   1      43.198  26.765  29.096  1.00  0.00     0.072 C 
BRANCH  34  35
ATOM     35  C   UNL A   1      42.814  25.330  28.762  1.00  0.00    -0.020 A 
ATOM     36  C   UNL A   1      43.769  24.303  28.660  1.00  0.00     0.087 A 
ATOM     37  C   UNL A   1      41.529  24.767  28.408  1.00  0.00     0.003 A 
ATOM     38  N   UNL A   1      43.331  23.115  28.087  1.00  0.00    -0.361 N 
ATOM     39  C   UNL A   1      42.032  23.231  27.664  1.00  0.00     0.046 A 
ATOM     40  C   UNL A   1      39.760  25.273  28.280  1.00  0.00     0.010 A 
ATOM     41  H   UNL A   1      43.877  22.301  27.998  1.00  0.00     0.166 HD
ATOM     42  C   UNL A   1      40.931  22.398  26.466  1.00  0.00     0.026 A 
ATOM     43  C   UNL A   1      38.539  24.275  27.339  1.00  0.00     0.001 A 
ATOM     44  C   UNL A   1      39.171  22.937  26.285  1.00  0.00     0.002 A 
ENDBRANCH  34  35
ENDBRANCH   8  34
ENDBRANCH   5   8
ENDBRANCH   3   4
ENDBRANCH   1   3
BRANCH   1  45
ATOM     45  O   UNL A   1      47.958  28.418  25.782  1.00  0.00    -0.461 OA
BRANCH  45  46
ATOM     46  C   UNL A   1      48.352  27.328  24.906  1.00  0.00     0.274 C 
BRANCH  46  47
ATOM     47  C   UNL A   1      49.674  26.566  25.177  1.00  0.00     0.275 C 
BRANCH  47  48
ATOM     48  O   UNL A   1      50.131  26.670  26.537  1.00  0.00    -0.458 OA
BRANCH  48  49
ATOM     49  C   UNL A   1      49.876  25.590  27.328  1.00  0.00     0.338 C 
ATOM     50  O   UNL A   1      50.447  24.516  27.266  1.00  0.00    -0.246 OA
BRANCH  49  51
ATOM     51  C   UNL A   1      48.987  26.032  28.427  1.00  0.00     0.060 A 
ATOM     52  C   UNL A   1      48.860  27.327  28.841  1.00  0.00     0.016 A 
ATOM     53  C   UNL A   1      48.020  25.160  28.852  1.00  0.00     0.016 A 
ATOM     54  C   UNL A   1      47.894  27.604  29.853  1.00  0.00     0.010 A 
ATOM     55  C   UNL A   1      46.866  25.617  29.473  1.00  0.00     0.010 A 
ATOM     56  C   UNL A   1      46.880  26.633  30.539  1.00  0.00    -0.014 A 
BRANCH  56  57
ATOM     57  C   UNL A   1      46.055  26.517  32.513  1.00  0.00     0.031 A 
ATOM     58  C   UNL A   1      45.312  27.771  33.462  1.00  0.00     0.074 A 
ATOM     59  C   UNL A   1      45.644  25.436  33.431  1.00  0.00     0.049 A 
ATOM     60  N   UNL A   1      44.036  28.104  33.458  1.00  0.00    -0.248 NA
ATOM     61  C   UNL A   1      46.113  28.634  34.357  1.00  0.00     0.031 C 
ATOM     62  C   UNL A   1      44.541  25.398  34.418  1.00  0.00     0.029 A 
ATOM     63  N   UNL A   1      46.025  24.068  33.511  1.00  0.00    -0.354 N 
ATOM     64  C   UNL A   1      43.866  29.203  34.297  1.00  0.00     0.074 A 
ATOM     65  C   UNL A   1      45.220  29.564  34.701  1.00  0.00     0.031 C 
ATOM     66  C   UNL A   1      44.564  24.243  35.113  1.00  0.00     0.029 A 
ATOM     67  C   UNL A   1      45.762  23.532  34.740  1.00  0.00     0.049 A 
ATOM     68  H   UNL A   1      46.430  23.566  32.768  1.00  0.00     0.167 HD
ATOM     69  C   UNL A   1      42.912  29.211  35.274  1.00  0.00     0.031 A 
ATOM     70  C   UNL A   1      46.776  23.054  35.515  1.00  0.00     0.031 A 
ATOM     71  C   UNL A   1      42.990  28.121  36.227  1.00  0.00     0.049 A 
ATOM     72  C   UNL A   1      46.759  23.854  36.783  1.00  0.00     0.074 A 
ATOM     73  C   UNL A   1      42.165  27.056  36.538  1.00  0.00     0.029 A 
ATOM     74  N   UNL A   1      44.147  27.951  36.981  1.00  0.00    -0.354 N 
ATOM     75  N   UNL A   1      46.276  25.066  36.840  1.00  0.00    -0.248 NA
ATOM     76  C   UNL A   1      47.163  23.344  38.086  1.00  0.00     0.031 C 
ATOM     77  C   UNL A   1      42.887  26.190  37.406  1.00  0.00     0.029 A 
ATOM     78  C   UNL A   1      44.135  26.748  37.644  1.00  0.00     0.049 A 
ATOM     79  H   UNL A   1      44.879  28.607  37.031  1.00  0.00     0.167 HD
ATOM     80  C   UNL A   1      46.059  25.378  38.143  1.00  0.00     0.074 A 
ATOM     81  C   UNL A   1      46.744  24.337  38.892  1.00  0.00     0.031 C 
ATOM     82  C   UNL A   1      45.224  26.376  38.537  1.00  0.00     0.031 A 
BRANCH  69  83
ATOM     83  C   UNL A   1      41.760  30.175  35.089  1.00  0.00    -0.014 A 
ATOM     84  C   UNL A   1      41.907  31.561  35.305  1.00  0.00     0.010 A 
ATOM     85  C   UNL A   1      40.489  29.732  34.654  1.00  0.00     0.010 A 
ATOM     86  C   UNL A   1      40.830  32.453  35.132  1.00  0.00     0.020 A 
ATOM     87  C   UNL A   1      39.413  30.615  34.469  1.00  0.00     0.020 A 
ATOM     88  C   UNL A   1      39.586  31.973  34.720  1.00  0.00     0.054 A 
BRANCH  88  89
ATOM     89  S   UNL A   1      38.194  33.125  34.529  1.00  0.00     0.124 S 
ATOM     90  O   UNL A   1      37.046  32.299  34.889  1.00  0.00    -0.237 OA
ATOM     91  O   UNL A   1      38.527  34.189  35.471  1.00  0.00    -0.237 OA
ATOM     92  O   UNL A   1      38.252  33.508  33.117  1.00  0.00    -0.744 OA
ENDBRANCH  88  89
ENDBRANCH  69  83
BRANCH  70  93
ATOM     93  C   UNL A   1      47.975  22.543  34.756  1.00  0.00    -0.014 A 
ATOM     94  C   UNL A   1      49.139  23.358  34.765  1.00  0.00     0.010 A 
ATOM     95  C   UNL A   1      48.131  21.190  34.403  1.00  0.00     0.010 A 
ATOM     96  C   UNL A   1      50.421  22.811  34.606  1.00  0.00     0.020 A 
ATOM     97  C   UNL A   1      49.418  20.645  34.199  1.00  0.00     0.020 A 
ATOM     98  C   UNL A   1      50.555  21.447  34.361  1.00  0.00     0.054 A 
BRANCH  98  99
ATOM     99  S   UNL A   1      52.205  20.681  34.572  1.00  0.00     0.124 S 
ATOM    100  O   UNL A   1      51.945  19.291  34.216  1.00  0.00    -0.237 OA
ATOM    101  O   UNL A   1      53.026  21.435  33.626  1.00  0.00    -0.237 OA
ATOM    102  O   UNL A   1      52.503  20.933  35.980  1.00  0.00    -0.744 OA
ENDBRANCH  98  99
ENDBRANCH  70  93
BRANCH  82 103
ATOM    103  C   UNL A   1      45.293  26.990  39.895  1.00  0.00    -0.014 A 
ATOM    104  C   UNL A   1      44.335  26.707  40.881  1.00  0.00     0.010 A 
ATOM    105  C   UNL A   1      46.438  27.722  40.271  1.00  0.00     0.010 A 
ATOM    106  C   UNL A   1      44.472  27.205  42.176  1.00  0.00     0.020 A 
ATOM    107  C   UNL A   1      46.604  28.188  41.572  1.00  0.00     0.020 A 
ATOM    108  C   UNL A   1      45.603  27.950  42.509  1.00  0.00     0.054 A 
BRANCH 108 109
ATOM    109  S   UNL A   1      45.798  28.552  44.200  1.00  0.00     0.124 S 
ATOM    110  O   UNL A   1      46.056  29.972  43.979  1.00  0.00    -0.237 OA
ATOM    111  O   UNL A   1      44.508  28.237  44.812  1.00  0.00    -0.237 OA
ATOM    112  O   UNL A   1      46.926  27.775  44.707  1.00  0.00    -0.744 OA
ENDBRANCH 108 109
ENDBRANCH  82 103
ENDBRANCH  56  57
ENDBRANCH  49  51
ENDBRANCH  48  49
ENDBRANCH  47  48
ENDBRANCH  46  47
ENDBRANCH  45  46
ENDBRANCH   1  45
TORSDOF 23
ENDMDL
