MODEL 1
REMARK VINA RESULT:     -11.6      0.000      0.000
REMARK SMILES CC(C)c1cc2c(cc1Cl)C=C(C(=O)OCCOC(=O)c1ccc(-c3c4nc(c(-c5ccc(S(=O)(=O)[O-])cc5)c5ccc([nH]5)c(-c5ccc(S(=O)(=O)[O-])cc5)c5nc(c(-c6ccc(S(=O)(=O)[O-])cc6)c6ccc3[nH]6)C=C5)C=C4)cc1)[C@@H](C(F)(F)F)O2
REMARK SMILES IDX 17 1 16 2 15 3 13 4 14 5 12 6 4 7 5 8 9 9 6 10 8 11 10 12
REMARK SMILES IDX 7 13 86 14 11 15 81 16 2 17 1 18 3 19 82 20 83 21 84 22
REMARK SMILES IDX 85 23 18 24 19 25 20 26 21 27 22 28 80 29 23 30 79 31 24 32
REMARK SMILES IDX 25 33 26 34 73 35 27 36 78 37 72 38 74 39 28 40 77 41 71 42
REMARK SMILES IDX 70 43 29 45 59 46 40 47 58 48 41 49 44 50 57 51 75 52 42 53
REMARK SMILES IDX 43 54 56 56 76 57 45 58 30 59 31 60 39 61 32 62 38 63 33 64
REMARK SMILES IDX 34 65 35 66 36 67 37 68 60 69 61 70 69 71 62 72 68 73 63 74
REMARK SMILES IDX 64 75 65 76 66 77 67 78 46 79 47 80 55 81 48 82 54 83 49 84
REMARK SMILES IDX 50 85 51 86 52 87 53 88
REMARK H PARENT 74 44 44 55
REMARK Flexibility Score: inf
ROOT
ATOM      1  C   UNL A   1      33.306  28.978  26.052  1.00  0.00     0.275 C 
ENDROOT
BRANCH   1   2
ATOM      2  C   UNL A   1      32.465  27.716  25.850  1.00  0.00     0.275 C 
BRANCH   2   3
ATOM      3  O   UNL A   1      33.267  26.519  25.943  1.00  0.00    -0.459 OA
BRANCH   3   4
ATOM      4  C   UNL A   1      33.533  25.902  24.767  1.00  0.00     0.338 C 
ATOM      5  O   UNL A   1      33.940  26.434  23.747  1.00  0.00    -0.246 OA
BRANCH   4   6
ATOM      6  C   UNL A   1      33.306  24.447  24.874  1.00  0.00     0.087 C 
ATOM      7  C   UNL A   1      33.886  19.440  24.740  1.00  0.00    -0.023 A 
ATOM      8  C   UNL A   1      32.770  20.305  24.788  1.00  0.00     0.052 A 
ATOM      9  C   UNL A   1      35.170  20.010  24.846  1.00  0.00     0.045 A 
ATOM     10  C   UNL A   1      32.928  21.691  24.867  1.00  0.00     0.128 A 
ATOM     11  C   UNL A   1      35.325  21.392  24.937  1.00  0.00     0.032 A 
ATOM     12  Cl  UNL A   1      36.617  19.062  24.859  1.00  0.00    -0.084 Cl
ATOM     13  C   UNL A   1      34.207  22.227  24.920  1.00  0.00     0.019 A 
ATOM     14  O   UNL A   1      31.791  22.453  24.897  1.00  0.00    -0.475 OA
ATOM     15  C   UNL A   1      34.384  23.658  24.922  1.00  0.00     0.027 C 
ATOM     16  C   UNL A   1      31.910  23.904  24.772  1.00  0.00     0.316 C 
BRANCH   7  17
ATOM     17  C   UNL A   1      33.711  17.933  24.596  1.00  0.00     0.014 C 
ATOM     18  C   UNL A   1      32.488  17.461  25.384  1.00  0.00     0.012 C 
ATOM     19  C   UNL A   1      33.638  17.447  23.145  1.00  0.00     0.012 C 
ENDBRANCH   7  17
BRANCH  16  20
ATOM     20  C   UNL A   1      31.255  24.340  23.451  1.00  0.00     0.430 C 
ATOM     21  F   UNL A   1      30.914  25.652  23.479  1.00  0.00    -0.167 F 
ATOM     22  F   UNL A   1      32.097  24.187  22.400  1.00  0.00    -0.167 F 
ATOM     23  F   UNL A   1      30.134  23.636  23.177  1.00  0.00    -0.167 F 
ENDBRANCH  16  20
ENDBRANCH   4   6
ENDBRANCH   3   4
ENDBRANCH   2   3
ENDBRANCH   1   2
BRANCH   1  24
ATOM     24  O   UNL A   1      33.791  29.060  27.403  1.00  0.00    -0.458 OA
BRANCH  24  25
ATOM     25  C   UNL A   1      34.346  30.244  27.746  1.00  0.00     0.338 C 
ATOM     26  O   UNL A   1      33.800  31.333  27.785  1.00  0.00    -0.246 OA
BRANCH  25  27
ATOM     27  C   UNL A   1      35.720  30.025  28.218  1.00  0.00     0.060 A 
ATOM     28  C   UNL A   1      36.002  29.540  29.487  1.00  0.00     0.016 A 
ATOM     29  C   UNL A   1      36.741  30.167  27.289  1.00  0.00     0.016 A 
ATOM     30  C   UNL A   1      37.330  29.219  29.810  1.00  0.00     0.010 A 
ATOM     31  C   UNL A   1      38.014  29.678  27.550  1.00  0.00     0.010 A 
ATOM     32  C   UNL A   1      38.350  29.245  28.835  1.00  0.00    -0.014 A 
BRANCH  32  33
ATOM     33  C   UNL A   1      39.761  28.861  29.144  1.00  0.00     0.031 A 
ATOM     34  C   UNL A   1      40.663  29.794  29.930  1.00  0.00     0.074 A 
ATOM     35  C   UNL A   1      40.255  27.690  28.689  1.00  0.00     0.049 A 
ATOM     36  N   UNL A   1      41.914  29.626  30.280  1.00  0.00    -0.248 NA
ATOM     37  C   UNL A   1      40.113  31.099  30.343  1.00  0.00     0.031 C 
ATOM     38  C   UNL A   1      39.531  26.738  27.843  1.00  0.00     0.029 A 
ATOM     39  N   UNL A   1      41.475  27.085  28.889  1.00  0.00    -0.354 N 
ATOM     40  C   UNL A   1      42.294  30.802  30.922  1.00  0.00     0.074 A 
ATOM     41  C   UNL A   1      41.178  31.711  30.835  1.00  0.00     0.031 C 
ATOM     42  C   UNL A   1      40.279  25.638  27.674  1.00  0.00     0.029 A 
ATOM     43  C   UNL A   1      41.562  25.822  28.345  1.00  0.00     0.049 A 
ATOM     44  H   UNL A   1      42.215  27.513  29.376  1.00  0.00     0.167 HD
ATOM     45  C   UNL A   1      43.444  31.085  31.578  1.00  0.00     0.031 A 
ATOM     46  C   UNL A   1      42.550  24.903  28.392  1.00  0.00     0.031 A 
ATOM     47  C   UNL A   1      44.522  30.147  31.732  1.00  0.00     0.049 A 
ATOM     48  C   UNL A   1      43.802  25.218  29.163  1.00  0.00     0.074 A 
ATOM     49  C   UNL A   1      45.691  30.304  32.454  1.00  0.00     0.029 A 
ATOM     50  N   UNL A   1      44.556  28.876  31.180  1.00  0.00    -0.354 N 
ATOM     51  N   UNL A   1      44.101  26.304  29.833  1.00  0.00    -0.248 NA
ATOM     52  C   UNL A   1      44.846  24.183  29.200  1.00  0.00     0.031 C 
ATOM     53  C   UNL A   1      46.461  29.153  32.287  1.00  0.00     0.029 A 
ATOM     54  C   UNL A   1      45.737  28.246  31.528  1.00  0.00     0.049 A 
ATOM     55  H   UNL A   1      43.846  28.481  30.623  1.00  0.00     0.167 HD
ATOM     56  C   UNL A   1      45.357  26.077  30.387  1.00  0.00     0.074 A 
ATOM     57  C   UNL A   1      45.753  24.742  29.992  1.00  0.00     0.031 C 
ATOM     58  C   UNL A   1      46.112  26.907  31.146  1.00  0.00     0.031 A 
BRANCH  45  59
ATOM     59  C   UNL A   1      43.586  32.430  32.249  1.00  0.00    -0.014 A 
ATOM     60  C   UNL A   1      42.977  32.665  33.496  1.00  0.00     0.010 A 
ATOM     61  C   UNL A   1      44.202  33.504  31.581  1.00  0.00     0.010 A 
ATOM     62  C   UNL A   1      42.944  33.953  34.040  1.00  0.00     0.020 A 
ATOM     63  C   UNL A   1      44.204  34.786  32.137  1.00  0.00     0.020 A 
ATOM     64  C   UNL A   1      43.548  35.008  33.350  1.00  0.00     0.054 A 
BRANCH  64  65
ATOM     65  S   UNL A   1      43.444  36.682  34.040  1.00  0.00     0.124 S 
ATOM     66  O   UNL A   1      44.649  36.752  34.861  1.00  0.00    -0.237 OA
ATOM     67  O   UNL A   1      43.444  37.522  32.845  1.00  0.00    -0.237 OA
ATOM     68  O   UNL A   1      42.184  36.670  34.781  1.00  0.00    -0.744 OA
ENDBRANCH  64  65
ENDBRANCH  45  59
BRANCH  46  69
ATOM     69  C   UNL A   1      42.342  23.574  27.745  1.00  0.00    -0.014 A 
ATOM     70  C   UNL A   1      41.616  22.560  28.400  1.00  0.00     0.010 A 
ATOM     71  C   UNL A   1      42.947  23.284  26.509  1.00  0.00     0.010 A 
ATOM     72  C   UNL A   1      41.555  21.269  27.866  1.00  0.00     0.020 A 
ATOM     73  C   UNL A   1      42.858  22.003  25.953  1.00  0.00     0.020 A 
ATOM     74  C   UNL A   1      42.189  20.995  26.652  1.00  0.00     0.054 A 
BRANCH  74  75
ATOM     75  S   UNL A   1      42.149  19.299  26.010  1.00  0.00     0.124 S 
ATOM     76  O   UNL A   1      40.731  19.128  25.704  1.00  0.00    -0.237 OA
ATOM     77  O   UNL A   1      43.039  19.375  24.854  1.00  0.00    -0.237 OA
ATOM     78  O   UNL A   1      42.648  18.498  27.125  1.00  0.00    -0.744 OA
ENDBRANCH  74  75
ENDBRANCH  46  69
BRANCH  58  79
ATOM     79  C   UNL A   1      47.456  26.425  31.628  1.00  0.00    -0.014 A 
ATOM     80  C   UNL A   1      48.549  26.417  30.740  1.00  0.00     0.010 A 
ATOM     81  C   UNL A   1      47.586  25.810  32.884  1.00  0.00     0.010 A 
ATOM     82  C   UNL A   1      49.729  25.749  31.076  1.00  0.00     0.020 A 
ATOM     83  C   UNL A   1      48.777  25.169  33.236  1.00  0.00     0.020 A 
ATOM     84  C   UNL A   1      49.828  25.115  32.316  1.00  0.00     0.054 A 
BRANCH  84  85
ATOM     85  S   UNL A   1      51.336  24.186  32.701  1.00  0.00     0.124 S 
ATOM     86  O   UNL A   1      52.349  24.914  31.942  1.00  0.00    -0.237 OA
ATOM     87  O   UNL A   1      51.427  24.312  34.154  1.00  0.00    -0.237 OA
ATOM     88  O   UNL A   1      51.043  22.838  32.218  1.00  0.00    -0.744 OA
ENDBRANCH  84  85
ENDBRANCH  58  79
ENDBRANCH  32  33
ENDBRANCH  25  27
ENDBRANCH  24  25
ENDBRANCH   1  24
TORSDOF 16
ENDMDL
MODEL 2
REMARK VINA RESULT:     -11.6      4.663      7.498
REMARK SMILES CC(C)c1cc2c(cc1Cl)C=C(C(=O)OCCOC(=O)c1ccc(-c3c4nc(c(-c5ccc(S(=O)(=O)[O-])cc5)c5ccc([nH]5)c(-c5ccc(S(=O)(=O)[O-])cc5)c5nc(c(-c6ccc(S(=O)(=O)[O-])cc6)c6ccc3[nH]6)C=C5)C=C4)cc1)[C@@H](C(F)(F)F)O2
REMARK SMILES IDX 17 1 16 2 15 3 13 4 14 5 12 6 4 7 5 8 9 9 6 10 8 11 10 12
REMARK SMILES IDX 7 13 86 14 11 15 81 16 2 17 1 18 3 19 82 20 83 21 84 22
REMARK SMILES IDX 85 23 18 24 19 25 20 26 21 27 22 28 80 29 23 30 79 31 24 32
REMARK SMILES IDX 25 33 26 34 73 35 27 36 78 37 72 38 74 39 28 40 77 41 71 42
REMARK SMILES IDX 70 43 29 45 59 46 40 47 58 48 41 49 44 50 57 51 75 52 42 53
REMARK SMILES IDX 43 54 56 56 76 57 45 58 30 59 31 60 39 61 32 62 38 63 33 64
REMARK SMILES IDX 34 65 35 66 36 67 37 68 60 69 61 70 69 71 62 72 68 73 63 74
REMARK SMILES IDX 64 75 65 76 66 77 67 78 46 79 47 80 55 81 48 82 54 83 49 84
REMARK SMILES IDX 50 85 51 86 52 87 53 88
REMARK H PARENT 74 44 44 55
REMARK Flexibility Score: inf
ROOT
ATOM      1  C   UNL A   1      32.918  32.407  27.590  1.00  0.00     0.275 C 
ENDROOT
BRANCH   1   2
ATOM      2  C   UNL A   1      33.133  33.881  27.939  1.00  0.00     0.275 C 
BRANCH   2   3
ATOM      3  O   UNL A   1      32.782  34.162  29.312  1.00  0.00    -0.459 OA
BRANCH   3   4
ATOM      4  C   UNL A   1      33.293  35.308  29.822  1.00  0.00     0.338 C 
ATOM      5  O   UNL A   1      33.000  36.444  29.485  1.00  0.00    -0.246 OA
BRANCH   4   6
ATOM      6  C   UNL A   1      34.254  35.018  30.905  1.00  0.00     0.087 C 
ATOM      7  C   UNL A   1      37.198  32.664  34.254  1.00  0.00    -0.023 A 
ATOM      8  C   UNL A   1      36.681  33.975  34.140  1.00  0.00     0.052 A 
ATOM      9  C   UNL A   1      36.971  31.769  33.191  1.00  0.00     0.045 A 
ATOM     10  C   UNL A   1      35.909  34.358  33.042  1.00  0.00     0.128 A 
ATOM     11  C   UNL A   1      36.210  32.157  32.089  1.00  0.00     0.032 A 
ATOM     12  Cl  UNL A   1      37.595  30.156  33.176  1.00  0.00    -0.084 Cl
ATOM     13  C   UNL A   1      35.660  33.438  32.032  1.00  0.00     0.019 A 
ATOM     14  O   UNL A   1      35.440  35.643  33.020  1.00  0.00    -0.475 OA
ATOM     15  C   UNL A   1      34.799  33.798  30.932  1.00  0.00     0.027 C 
ATOM     16  C   UNL A   1      34.464  36.022  32.000  1.00  0.00     0.316 C 
BRANCH   7  17
ATOM     17  C   UNL A   1      37.991  32.233  35.481  1.00  0.00     0.014 C 
ATOM     18  C   UNL A   1      39.455  31.990  35.111  1.00  0.00     0.012 C 
ATOM     19  C   UNL A   1      37.889  33.199  36.666  1.00  0.00     0.012 C 
ENDBRANCH   7  17
BRANCH  16  20
ATOM     20  C   UNL A   1      33.132  36.355  32.692  1.00  0.00     0.430 C 
ATOM     21  F   UNL A   1      32.300  35.285  32.703  1.00  0.00    -0.167 F 
ATOM     22  F   UNL A   1      33.316  36.708  33.988  1.00  0.00    -0.167 F 
ATOM     23  F   UNL A   1      32.478  37.371  32.085  1.00  0.00    -0.167 F 
ENDBRANCH  16  20
ENDBRANCH   4   6
ENDBRANCH   3   4
ENDBRANCH   2   3
ENDBRANCH   1   2
BRANCH   1  24
ATOM     24  O   UNL A   1      33.794  31.566  28.360  1.00  0.00    -0.458 OA
BRANCH  24  25
ATOM     25  C   UNL A   1      34.343  30.532  27.682  1.00  0.00     0.338 C 
ATOM     26  O   UNL A   1      33.886  29.960  26.708  1.00  0.00    -0.246 OA
BRANCH  25  27
ATOM     27  C   UNL A   1      35.686  30.256  28.211  1.00  0.00     0.060 A 
ATOM     28  C   UNL A   1      35.891  29.652  29.444  1.00  0.00     0.016 A 
ATOM     29  C   UNL A   1      36.761  30.475  27.361  1.00  0.00     0.016 A 
ATOM     30  C   UNL A   1      37.196  29.289  29.812  1.00  0.00     0.010 A 
ATOM     31  C   UNL A   1      38.014  29.952  27.649  1.00  0.00     0.010 A 
ATOM     32  C   UNL A   1      38.272  29.398  28.905  1.00  0.00    -0.014 A 
BRANCH  32  33
ATOM     33  C   UNL A   1      39.661  28.973  29.258  1.00  0.00     0.031 A 
ATOM     34  C   UNL A   1      40.557  29.872  30.089  1.00  0.00     0.074 A 
ATOM     35  C   UNL A   1      40.141  27.795  28.805  1.00  0.00     0.049 A 
ATOM     36  N   UNL A   1      41.790  29.667  30.481  1.00  0.00    -0.248 NA
ATOM     37  C   UNL A   1      40.026  31.185  30.501  1.00  0.00     0.031 C 
ATOM     38  C   UNL A   1      39.424  26.874  27.920  1.00  0.00     0.029 A 
ATOM     39  N   UNL A   1      41.337  27.156  29.040  1.00  0.00    -0.354 N 
ATOM     40  C   UNL A   1      42.176  30.824  31.153  1.00  0.00     0.074 A 
ATOM     41  C   UNL A   1      41.088  31.763  31.040  1.00  0.00     0.031 C 
ATOM     42  C   UNL A   1      40.149  25.758  27.762  1.00  0.00     0.029 A 
ATOM     43  C   UNL A   1      41.411  25.900  28.481  1.00  0.00     0.049 A 
ATOM     44  H   UNL A   1      42.070  27.559  29.558  1.00  0.00     0.167 HD
ATOM     45  C   UNL A   1      43.309  31.068  31.853  1.00  0.00     0.031 A 
ATOM     46  C   UNL A   1      42.374  24.954  28.549  1.00  0.00     0.031 A 
ATOM     47  C   UNL A   1      44.357  30.101  32.032  1.00  0.00     0.049 A 
ATOM     48  C   UNL A   1      43.605  25.226  29.369  1.00  0.00     0.074 A 
ATOM     49  C   UNL A   1      45.503  30.217  32.797  1.00  0.00     0.029 A 
ATOM     50  N   UNL A   1      44.378  28.836  31.463  1.00  0.00    -0.354 N 
ATOM     51  N   UNL A   1      43.907  26.296  30.065  1.00  0.00    -0.248 NA
ATOM     52  C   UNL A   1      44.620  24.165  29.428  1.00  0.00     0.031 C 
ATOM     53  C   UNL A   1      46.248  29.049  32.642  1.00  0.00     0.029 A 
ATOM     54  C   UNL A   1      45.529  28.172  31.844  1.00  0.00     0.049 A 
ATOM     55  H   UNL A   1      43.678  28.468  30.876  1.00  0.00     0.167 HD
ATOM     56  C   UNL A   1      45.136  26.029  30.660  1.00  0.00     0.074 A 
ATOM     57  C   UNL A   1      45.513  24.690  30.260  1.00  0.00     0.031 C 
ATOM     58  C   UNL A   1      45.884  26.829  31.457  1.00  0.00     0.031 A 
BRANCH  45  59
ATOM     59  C   UNL A   1      43.461  32.400  32.549  1.00  0.00    -0.014 A 
ATOM     60  C   UNL A   1      42.953  32.580  33.849  1.00  0.00     0.010 A 
ATOM     61  C   UNL A   1      43.979  33.513  31.861  1.00  0.00     0.010 A 
ATOM     62  C   UNL A   1      42.922  33.852  34.431  1.00  0.00     0.020 A 
ATOM     63  C   UNL A   1      43.983  34.780  32.453  1.00  0.00     0.020 A 
ATOM     64  C   UNL A   1      43.426  34.946  33.722  1.00  0.00     0.054 A 
BRANCH  64  65
ATOM     65  S   UNL A   1      43.324  36.597  34.467  1.00  0.00     0.124 S 
ATOM     66  O   UNL A   1      44.507  36.623  35.322  1.00  0.00    -0.237 OA
ATOM     67  O   UNL A   1      43.367  37.476  33.301  1.00  0.00    -0.237 OA
ATOM     68  O   UNL A   1      42.044  36.575  35.173  1.00  0.00    -0.744 OA
ENDBRANCH  64  65
ENDBRANCH  45  59
BRANCH  46  69
ATOM     69  C   UNL A   1      42.155  23.641  27.876  1.00  0.00    -0.014 A 
ATOM     70  C   UNL A   1      41.454  22.606  28.526  1.00  0.00     0.010 A 
ATOM     71  C   UNL A   1      42.728  23.384  26.617  1.00  0.00     0.010 A 
ATOM     72  C   UNL A   1      41.385  21.329  27.963  1.00  0.00     0.020 A 
ATOM     73  C   UNL A   1      42.631  22.116  26.034  1.00  0.00     0.020 A 
ATOM     74  C   UNL A   1      41.988  21.088  26.726  1.00  0.00     0.054 A 
BRANCH  74  75
ATOM     75  S   UNL A   1      41.940  19.407  26.045  1.00  0.00     0.124 S 
ATOM     76  O   UNL A   1      42.800  19.535  24.872  1.00  0.00    -0.237 OA
ATOM     77  O   UNL A   1      42.481  18.604  27.139  1.00  0.00    -0.237 OA
ATOM     78  O   UNL A   1      40.524  19.192  25.760  1.00  0.00    -0.744 OA
ENDBRANCH  74  75
ENDBRANCH  46  69
BRANCH  58  79
ATOM     79  C   UNL A   1      47.197  26.306  31.979  1.00  0.00    -0.014 A 
ATOM     80  C   UNL A   1      48.351  26.403  31.177  1.00  0.00     0.010 A 
ATOM     81  C   UNL A   1      47.246  25.558  33.167  1.00  0.00     0.010 A 
ATOM     82  C   UNL A   1      49.513  25.710  31.523  1.00  0.00     0.020 A 
ATOM     83  C   UNL A   1      48.419  24.890  33.532  1.00  0.00     0.020 A 
ATOM     84  C   UNL A   1      49.533  24.944  32.690  1.00  0.00     0.054 A 
BRANCH  84  85
ATOM     85  S   UNL A   1      51.023  23.988  33.080  1.00  0.00     0.124 S 
ATOM     86  O   UNL A   1      51.989  24.519  32.122  1.00  0.00    -0.237 OA
ATOM     87  O   UNL A   1      51.269  24.336  34.479  1.00  0.00    -0.237 OA
ATOM     88  O   UNL A   1      50.614  22.605  32.853  1.00  0.00    -0.744 OA
ENDBRANCH  84  85
ENDBRANCH  58  79
ENDBRANCH  32  33
ENDBRANCH  25  27
ENDBRANCH  24  25
ENDBRANCH   1  24
TORSDOF 16
ENDMDL
MODEL 3
REMARK VINA RESULT:     -11.5      4.708     11.227
REMARK SMILES CC(C)c1cc2c(cc1Cl)C=C(C(=O)OCCOC(=O)c1ccc(-c3c4nc(c(-c5ccc(S(=O)(=O)[O-])cc5)c5ccc([nH]5)c(-c5ccc(S(=O)(=O)[O-])cc5)c5nc(c(-c6ccc(S(=O)(=O)[O-])cc6)c6ccc3[nH]6)C=C5)C=C4)cc1)[C@@H](C(F)(F)F)O2
REMARK SMILES IDX 17 1 16 2 15 3 13 4 14 5 12 6 4 7 5 8 9 9 6 10 8 11 10 12
REMARK SMILES IDX 7 13 86 14 11 15 81 16 2 17 1 18 3 19 82 20 83 21 84 22
REMARK SMILES IDX 85 23 18 24 19 25 20 26 21 27 22 28 80 29 23 30 79 31 24 32
REMARK SMILES IDX 25 33 26 34 73 35 27 36 78 37 72 38 74 39 28 40 77 41 71 42
REMARK SMILES IDX 70 43 29 45 59 46 40 47 58 48 41 49 44 50 57 51 75 52 42 53
REMARK SMILES IDX 43 54 56 56 76 57 45 58 30 59 31 60 39 61 32 62 38 63 33 64
REMARK SMILES IDX 34 65 35 66 36 67 37 68 60 69 61 70 69 71 62 72 68 73 63 74
REMARK SMILES IDX 64 75 65 76 66 77 67 78 46 79 47 80 55 81 48 82 54 83 49 84
REMARK SMILES IDX 50 85 51 86 52 87 53 88
REMARK H PARENT 74 44 44 55
REMARK Flexibility Score: inf
ROOT
ATOM      1  C   UNL A   1      39.618  20.481  26.083  1.00  0.00     0.275 C 
ENDROOT
BRANCH   1   2
ATOM      2  C   UNL A   1      40.835  19.579  26.298  1.00  0.00     0.275 C 
BRANCH   2   3
ATOM      3  O   UNL A   1      41.854  19.810  25.299  1.00  0.00    -0.459 OA
BRANCH   3   4
ATOM      4  C   UNL A   1      43.119  19.511  25.677  1.00  0.00     0.338 C 
ATOM      5  O   UNL A   1      43.556  18.400  25.932  1.00  0.00    -0.246 OA
BRANCH   4   6
ATOM      6  C   UNL A   1      43.958  20.726  25.707  1.00  0.00     0.087 C 
ATOM      7  C   UNL A   1      45.652  25.446  25.180  1.00  0.00    -0.023 A 
ATOM      8  C   UNL A   1      46.268  24.192  25.392  1.00  0.00     0.052 A 
ATOM      9  C   UNL A   1      44.245  25.504  25.202  1.00  0.00     0.045 A 
ATOM     10  C   UNL A   1      45.512  23.029  25.549  1.00  0.00     0.128 A 
ATOM     11  C   UNL A   1      43.491  24.344  25.371  1.00  0.00     0.032 A 
ATOM     12  Cl  UNL A   1      43.365  26.981  25.013  1.00  0.00    -0.084 Cl
ATOM     13  C   UNL A   1      44.127  23.109  25.516  1.00  0.00     0.019 A 
ATOM     14  O   UNL A   1      46.193  21.857  25.738  1.00  0.00    -0.475 OA
ATOM     15  C   UNL A   1      43.337  21.905  25.598  1.00  0.00     0.027 C 
ATOM     16  C   UNL A   1      45.453  20.597  25.701  1.00  0.00     0.316 C 
BRANCH   7  17
ATOM     17  C   UNL A   1      46.481  26.704  24.951  1.00  0.00     0.014 C 
ATOM     18  C   UNL A   1      46.569  27.525  26.238  1.00  0.00     0.012 C 
ATOM     19  C   UNL A   1      47.879  26.439  24.384  1.00  0.00     0.012 C 
ENDBRANCH   7  17
BRANCH  16  20
ATOM     20  C   UNL A   1      45.922  19.787  24.480  1.00  0.00     0.430 C 
ATOM     21  F   UNL A   1      46.007  18.464  24.768  1.00  0.00    -0.167 F 
ATOM     22  F   UNL A   1      45.054  19.896  23.444  1.00  0.00    -0.167 F 
ATOM     23  F   UNL A   1      47.135  20.183  24.036  1.00  0.00    -0.167 F 
ENDBRANCH  16  20
ENDBRANCH   4   6
ENDBRANCH   3   4
ENDBRANCH   2   3
ENDBRANCH   1   2
BRANCH   1  24
ATOM     24  O   UNL A   1      39.958  21.861  26.305  1.00  0.00    -0.458 OA
BRANCH  24  25
ATOM     25  C   UNL A   1      39.008  22.754  25.945  1.00  0.00     0.338 C 
ATOM     26  O   UNL A   1      38.034  22.554  25.240  1.00  0.00    -0.246 OA
BRANCH  25  27
ATOM     27  C   UNL A   1      39.233  24.022  26.651  1.00  0.00     0.060 A 
ATOM     28  C   UNL A   1      38.924  24.192  27.994  1.00  0.00     0.016 A 
ATOM     29  C   UNL A   1      39.923  25.015  25.970  1.00  0.00     0.016 A 
ATOM     30  C   UNL A   1      39.305  25.383  28.631  1.00  0.00     0.010 A 
ATOM     31  C   UNL A   1      40.456  26.104  26.646  1.00  0.00     0.010 A 
ATOM     32  C   UNL A   1      40.111  26.340  27.979  1.00  0.00    -0.014 A 
BRANCH  32  33
ATOM     33  C   UNL A   1      40.569  27.593  28.654  1.00  0.00     0.031 A 
ATOM     34  C   UNL A   1      42.005  27.740  29.120  1.00  0.00     0.074 A 
ATOM     35  C   UNL A   1      39.691  28.593  28.886  1.00  0.00     0.049 A 
ATOM     36  N   UNL A   1      42.571  28.752  29.729  1.00  0.00    -0.248 NA
ATOM     37  C   UNL A   1      42.916  26.597  28.920  1.00  0.00     0.031 C 
ATOM     38  C   UNL A   1      38.260  28.551  28.576  1.00  0.00     0.029 A 
ATOM     39  N   UNL A   1      39.872  29.849  29.417  1.00  0.00    -0.354 N 
ATOM     40  C   UNL A   1      43.878  28.354  30.000  1.00  0.00     0.074 A 
ATOM     41  C   UNL A   1      44.000  26.982  29.575  1.00  0.00     0.031 C 
ATOM     42  C   UNL A   1      37.716  29.748  28.834  1.00  0.00     0.029 A 
ATOM     43  C   UNL A   1      38.738  30.631  29.387  1.00  0.00     0.049 A 
ATOM     44  H   UNL A   1      40.730  30.160  29.784  1.00  0.00     0.167 HD
ATOM     45  C   UNL A   1      44.906  29.079  30.501  1.00  0.00     0.031 A 
ATOM     46  C   UNL A   1      38.540  31.918  29.743  1.00  0.00     0.031 A 
ATOM     47  C   UNL A   1      44.803  30.470  30.848  1.00  0.00     0.049 A 
ATOM     48  C   UNL A   1      39.704  32.721  30.256  1.00  0.00     0.074 A 
ATOM     49  C   UNL A   1      45.807  31.317  31.279  1.00  0.00     0.029 A 
ATOM     50  N   UNL A   1      43.640  31.222  30.782  1.00  0.00    -0.354 N 
ATOM     51  N   UNL A   1      40.949  32.345  30.421  1.00  0.00    -0.248 NA
ATOM     52  C   UNL A   1      39.446  34.122  30.618  1.00  0.00     0.031 C 
ATOM     53  C   UNL A   1      45.240  32.566  31.534  1.00  0.00     0.029 A 
ATOM     54  C   UNL A   1      43.899  32.520  31.185  1.00  0.00     0.049 A 
ATOM     55  H   UNL A   1      42.763  30.883  30.491  1.00  0.00     0.167 HD
ATOM     56  C   UNL A   1      41.627  33.466  30.887  1.00  0.00     0.074 A 
ATOM     57  C   UNL A   1      40.660  34.541  30.958  1.00  0.00     0.031 C 
ATOM     58  C   UNL A   1      42.931  33.588  31.232  1.00  0.00     0.031 A 
BRANCH  45  59
ATOM     59  C   UNL A   1      46.258  28.421  30.643  1.00  0.00    -0.014 A 
ATOM     60  C   UNL A   1      47.179  28.463  29.579  1.00  0.00     0.010 A 
ATOM     61  C   UNL A   1      46.562  27.643  31.775  1.00  0.00     0.010 A 
ATOM     62  C   UNL A   1      48.354  27.706  29.625  1.00  0.00     0.020 A 
ATOM     63  C   UNL A   1      47.753  26.913  31.841  1.00  0.00     0.020 A 
ATOM     64  C   UNL A   1      48.627  26.926  30.752  1.00  0.00     0.054 A 
BRANCH  64  65
ATOM     65  S   UNL A   1      50.126  25.904  30.771  1.00  0.00     0.124 S 
ATOM     66  O   UNL A   1      51.169  26.893  31.029  1.00  0.00    -0.237 OA
ATOM     67  O   UNL A   1      49.860  24.967  31.860  1.00  0.00    -0.237 OA
ATOM     68  O   UNL A   1      50.149  25.305  29.438  1.00  0.00    -0.744 OA
ENDBRANCH  64  65
ENDBRANCH  45  59
BRANCH  46  69
ATOM     69  C   UNL A   1      37.193  32.530  29.545  1.00  0.00    -0.014 A 
ATOM     70  C   UNL A   1      36.758  32.915  28.262  1.00  0.00     0.010 A 
ATOM     71  C   UNL A   1      36.374  32.818  30.652  1.00  0.00     0.010 A 
ATOM     72  C   UNL A   1      35.568  33.629  28.097  1.00  0.00     0.020 A 
ATOM     73  C   UNL A   1      35.164  33.501  30.488  1.00  0.00     0.020 A 
ATOM     74  C   UNL A   1      34.785  33.930  29.214  1.00  0.00     0.054 A 
BRANCH  74  75
ATOM     75  S   UNL A   1      33.277  34.912  28.984  1.00  0.00     0.124 S 
ATOM     76  O   UNL A   1      32.673  34.850  30.312  1.00  0.00    -0.237 OA
ATOM     77  O   UNL A   1      33.803  36.218  28.592  1.00  0.00    -0.237 OA
ATOM     78  O   UNL A   1      32.556  34.194  27.936  1.00  0.00    -0.744 OA
ENDBRANCH  74  75
ENDBRANCH  46  69
BRANCH  58  79
ATOM     79  C   UNL A   1      43.431  34.923  31.718  1.00  0.00    -0.014 A 
ATOM     80  C   UNL A   1      43.274  35.271  33.074  1.00  0.00     0.010 A 
ATOM     81  C   UNL A   1      43.875  35.895  30.806  1.00  0.00     0.010 A 
ATOM     82  C   UNL A   1      43.494  36.583  33.497  1.00  0.00     0.020 A 
ATOM     83  C   UNL A   1      44.128  37.201  31.234  1.00  0.00     0.020 A 
ATOM     84  C   UNL A   1      43.903  37.544  32.570  1.00  0.00     0.054 A 
BRANCH  84  85
ATOM     85  S   UNL A   1      44.105  39.259  33.123  1.00  0.00     0.124 S 
ATOM     86  O   UNL A   1      44.928  39.101  34.319  1.00  0.00    -0.237 OA
ATOM     87  O   UNL A   1      44.768  39.886  31.981  1.00  0.00    -0.237 OA
ATOM     88  O   UNL A   1      42.736  39.707  33.363  1.00  0.00    -0.744 OA
ENDBRANCH  84  85
ENDBRANCH  58  79
ENDBRANCH  32  33
ENDBRANCH  25  27
ENDBRANCH  24  25
ENDBRANCH   1  24
TORSDOF 16
ENDMDL
