MODEL 1
REMARK VINA RESULT:     -10.4      0.000      0.000
REMARK SMILES O=C(OCCOC(=O)c1cccnc1C(=O)Nc1ccc([N+](=O)[O-])cc1)c1ccc(-c2c3nc(c(-c4ccc(S(=O)(=O)[O-])cc4)c4ccc([nH]4)c(-c4ccc(S(=O)(=O)[O-])cc4)c4nc(c(-c5ccc(S(=O)(=O)[O-])cc5)c5ccc2[nH]5)C=C4)C=C3)cc1
REMARK SMILES IDX 4 1 3 2 2 3 1 4 27 5 28 6 86 7 29 8 85 9 30 10 31 11 32 12
REMARK SMILES IDX 79 13 33 14 84 15 78 16 80 17 34 18 83 19 77 20 76 21 35 23
REMARK SMILES IDX 65 24 46 25 64 26 47 27 50 28 63 29 81 30 48 31 49 32 62 34
REMARK SMILES IDX 82 35 51 36 36 37 37 38 45 39 38 40 44 41 39 42 40 43 41 44
REMARK SMILES IDX 42 45 43 46 66 47 67 48 75 49 68 50 74 51 69 52 70 53 71 54
REMARK SMILES IDX 72 55 73 56 52 57 53 58 61 59 54 60 60 61 55 62 56 63 57 64
REMARK SMILES IDX 58 65 59 66 5 67 6 68 7 69 8 70 9 71 10 72 14 73 11 74 13 75
REMARK SMILES IDX 12 76 15 77 16 78 17 79 18 81 19 82 26 83 20 84 25 85 21 86
REMARK SMILES IDX 22 87 23 88 24 89
REMARK H PARENT 80 22 50 33 17 80
REMARK Flexibility Score: inf
ROOT
ATOM      1  C   UNL A   1      40.031  20.745  26.442  1.00  0.00     0.275 C 
ENDROOT
BRANCH   1   2
ATOM      2  O   UNL A   1      40.126  22.147  26.097  1.00  0.00    -0.458 OA
BRANCH   2   3
ATOM      3  C   UNL A   1      39.159  23.061  26.397  1.00  0.00     0.338 C 
ATOM      4  O   UNL A   1      37.996  22.940  26.044  1.00  0.00    -0.246 OA
BRANCH   3   5
ATOM      5  C   UNL A   1      39.668  24.321  26.970  1.00  0.00     0.060 A 
ATOM      6  C   UNL A   1      40.330  25.245  26.164  1.00  0.00     0.016 A 
ATOM      7  C   UNL A   1      39.357  24.626  28.300  1.00  0.00     0.016 A 
ATOM      8  C   UNL A   1      40.514  26.539  26.628  1.00  0.00     0.010 A 
ATOM      9  C   UNL A   1      39.578  25.913  28.786  1.00  0.00     0.010 A 
ATOM     10  C   UNL A   1      40.140  26.874  27.940  1.00  0.00    -0.014 A 
BRANCH  10  11
ATOM     11  C   UNL A   1      40.678  28.130  28.485  1.00  0.00     0.031 A 
ATOM     12  C   UNL A   1      42.165  28.257  28.447  1.00  0.00     0.074 A 
ATOM     13  C   UNL A   1      39.897  29.149  28.878  1.00  0.00     0.049 A 
ATOM     14  N   UNL A   1      42.889  29.332  28.555  1.00  0.00    -0.248 NA
ATOM     15  C   UNL A   1      42.922  27.030  28.136  1.00  0.00     0.031 C 
ATOM     16  C   UNL A   1      38.440  29.164  28.839  1.00  0.00     0.029 A 
ATOM     17  N   UNL A   1      40.226  30.374  29.390  1.00  0.00    -0.354 N 
ATOM     18  C   UNL A   1      44.165  28.935  28.188  1.00  0.00     0.074 A 
ATOM     19  C   UNL A   1      44.131  27.516  27.923  1.00  0.00     0.031 C 
ATOM     20  C   UNL A   1      37.992  30.301  29.401  1.00  0.00     0.029 A 
ATOM     21  C   UNL A   1      39.140  31.115  29.789  1.00  0.00     0.049 A 
ATOM     22  H   UNL A   1      41.154  30.695  29.465  1.00  0.00     0.167 HD
ATOM     23  C   UNL A   1      45.266  29.704  28.063  1.00  0.00     0.031 A 
ATOM     24  C   UNL A   1      39.099  32.316  30.397  1.00  0.00     0.031 A 
ATOM     25  C   UNL A   1      45.318  31.055  28.528  1.00  0.00     0.049 A 
ATOM     26  C   UNL A   1      40.398  33.064  30.550  1.00  0.00     0.074 A 
ATOM     27  C   UNL A   1      46.402  31.901  28.618  1.00  0.00     0.029 A 
ATOM     28  N   UNL A   1      44.224  31.730  29.058  1.00  0.00    -0.354 N 
ATOM     29  N   UNL A   1      41.594  32.711  30.138  1.00  0.00    -0.248 NA
ATOM     30  C   UNL A   1      40.345  34.378  31.200  1.00  0.00     0.031 C 
ATOM     31  C   UNL A   1      45.977  33.067  29.267  1.00  0.00     0.029 A 
ATOM     32  C   UNL A   1      44.614  32.967  29.525  1.00  0.00     0.049 A 
ATOM     33  H   UNL A   1      43.306  31.376  29.094  1.00  0.00     0.167 HD
ATOM     34  C   UNL A   1      42.429  33.781  30.426  1.00  0.00     0.074 A 
ATOM     35  C   UNL A   1      41.604  34.785  31.074  1.00  0.00     0.031 C 
ATOM     36  C   UNL A   1      43.749  33.935  30.156  1.00  0.00     0.031 A 
BRANCH  23  37
ATOM     37  C   UNL A   1      46.465  29.016  27.487  1.00  0.00    -0.014 A 
ATOM     38  C   UNL A   1      46.659  28.992  26.091  1.00  0.00     0.010 A 
ATOM     39  C   UNL A   1      47.291  28.242  28.315  1.00  0.00     0.010 A 
ATOM     40  C   UNL A   1      47.618  28.148  25.530  1.00  0.00     0.020 A 
ATOM     41  C   UNL A   1      48.259  27.405  27.756  1.00  0.00     0.020 A 
ATOM     42  C   UNL A   1      48.395  27.341  26.366  1.00  0.00     0.054 A 
BRANCH  42  43
ATOM     43  S   UNL A   1      49.561  26.173  25.614  1.00  0.00     0.124 S 
ATOM     44  O   UNL A   1      50.601  27.069  25.115  1.00  0.00    -0.237 OA
ATOM     45  O   UNL A   1      49.947  25.330  26.744  1.00  0.00    -0.237 OA
ATOM     46  O   UNL A   1      48.765  25.505  24.587  1.00  0.00    -0.744 OA
ENDBRANCH  42  43
ENDBRANCH  23  37
BRANCH  24  47
ATOM     47  C   UNL A   1      37.810  32.857  30.907  1.00  0.00    -0.014 A 
ATOM     48  C   UNL A   1      36.955  33.626  30.099  1.00  0.00     0.010 A 
ATOM     49  C   UNL A   1      37.429  32.589  32.237  1.00  0.00     0.010 A 
ATOM     50  C   UNL A   1      35.751  34.125  30.615  1.00  0.00     0.020 A 
ATOM     51  C   UNL A   1      36.222  33.073  32.751  1.00  0.00     0.020 A 
ATOM     52  C   UNL A   1      35.393  33.847  31.938  1.00  0.00     0.054 A 
BRANCH  52  53
ATOM     53  S   UNL A   1      33.811  34.472  32.574  1.00  0.00     0.124 S 
ATOM     54  O   UNL A   1      34.242  35.551  33.457  1.00  0.00    -0.237 OA
ATOM     55  O   UNL A   1      33.124  34.886  31.354  1.00  0.00    -0.237 OA
ATOM     56  O   UNL A   1      33.230  33.310  33.243  1.00  0.00    -0.744 OA
ENDBRANCH  52  53
ENDBRANCH  24  47
BRANCH  36  57
ATOM     57  C   UNL A   1      44.377  35.251  30.505  1.00  0.00    -0.014 A 
ATOM     58  C   UNL A   1      44.338  36.333  29.612  1.00  0.00     0.010 A 
ATOM     59  C   UNL A   1      44.880  35.436  31.806  1.00  0.00     0.010 A 
ATOM     60  C   UNL A   1      44.785  37.590  30.022  1.00  0.00     0.020 A 
ATOM     61  C   UNL A   1      45.308  36.695  32.224  1.00  0.00     0.020 A 
ATOM     62  C   UNL A   1      45.257  37.765  31.328  1.00  0.00     0.054 A 
BRANCH  62  63
ATOM     63  S   UNL A   1      45.715  39.430  31.878  1.00  0.00     0.124 S 
ATOM     64  O   UNL A   1      45.588  39.314  33.328  1.00  0.00    -0.237 OA
ATOM     65  O   UNL A   1      47.078  39.574  31.374  1.00  0.00    -0.237 OA
ATOM     66  O   UNL A   1      44.725  40.290  31.232  1.00  0.00    -0.744 OA
ENDBRANCH  62  63
ENDBRANCH  36  57
ENDBRANCH  10  11
ENDBRANCH   3   5
ENDBRANCH   2   3
ENDBRANCH   1   2
BRANCH   1  67
ATOM     67  C   UNL A   1      41.019  20.226  27.509  1.00  0.00     0.275 C 
BRANCH  67  68
ATOM     68  O   UNL A   1      42.373  20.221  27.015  1.00  0.00    -0.458 OA
BRANCH  68  69
ATOM     69  C   UNL A   1      42.642  19.406  25.967  1.00  0.00     0.340 C 
ATOM     70  O   UNL A   1      41.962  18.489  25.576  1.00  0.00    -0.246 OA
BRANCH  69  71
ATOM     71  C   UNL A   1      43.955  19.754  25.405  1.00  0.00     0.091 A 
ATOM     72  C   UNL A   1      44.839  18.665  25.306  1.00  0.00     0.020 A 
ATOM     73  C   UNL A   1      44.431  21.025  25.101  1.00  0.00     0.142 A 
ATOM     74  C   UNL A   1      46.191  18.875  25.078  1.00  0.00     0.021 A 
ATOM     75  N   UNL A   1      45.768  21.228  24.848  1.00  0.00    -0.250 NA
ATOM     76  C   UNL A   1      46.611  20.173  24.887  1.00  0.00     0.112 A 
BRANCH  73  77
ATOM     77  C   UNL A   1      43.688  22.348  25.075  1.00  0.00     0.275 C 
ATOM     78  O   UNL A   1      43.310  22.779  23.982  1.00  0.00    -0.267 OA
ATOM     79  N   UNL A   1      43.041  22.848  26.197  1.00  0.00    -0.321 N 
ATOM     80  H   UNL A   1      42.059  22.866  26.132  1.00  0.00     0.170 HD
BRANCH  79  81
ATOM     81  C   UNL A   1      43.556  23.334  27.407  1.00  0.00     0.042 A 
ATOM     82  C   UNL A   1      44.879  23.754  27.506  1.00  0.00     0.033 A 
ATOM     83  C   UNL A   1      42.823  23.263  28.575  1.00  0.00     0.033 A 
ATOM     84  C   UNL A   1      45.389  24.208  28.737  1.00  0.00     0.088 A 
ATOM     85  C   UNL A   1      43.265  23.763  29.793  1.00  0.00     0.088 A 
ATOM     86  C   UNL A   1      44.560  24.246  29.869  1.00  0.00     0.269 A 
BRANCH  86  87
ATOM     87  N   UNL A   1      45.060  24.729  31.157  1.00  0.00     0.062 N 
ATOM     88  O   UNL A   1      45.747  25.760  31.154  1.00  0.00    -0.258 OA
ATOM     89  O   UNL A   1      44.781  24.071  32.169  1.00  0.00    -0.258 OA
ENDBRANCH  86  87
ENDBRANCH  79  81
ENDBRANCH  73  77
ENDBRANCH  69  71
ENDBRANCH  68  69
ENDBRANCH  67  68
ENDBRANCH   1  67
TORSDOF 17
ENDMDL
MODEL 2
REMARK VINA RESULT:      -9.7      4.091      6.830
REMARK SMILES O=C(OCCOC(=O)c1cccnc1C(=O)Nc1ccc([N+](=O)[O-])cc1)c1ccc(-c2c3nc(c(-c4ccc(S(=O)(=O)[O-])cc4)c4ccc([nH]4)c(-c4ccc(S(=O)(=O)[O-])cc4)c4nc(c(-c5ccc(S(=O)(=O)[O-])cc5)c5ccc2[nH]5)C=C4)C=C3)cc1
REMARK SMILES IDX 4 1 3 2 2 3 1 4 27 5 28 6 86 7 29 8 85 9 30 10 31 11 32 12
REMARK SMILES IDX 79 13 33 14 84 15 78 16 80 17 34 18 83 19 77 20 76 21 35 23
REMARK SMILES IDX 65 24 46 25 64 26 47 27 50 28 63 29 81 30 48 31 49 32 62 34
REMARK SMILES IDX 82 35 51 36 36 37 37 38 45 39 38 40 44 41 39 42 40 43 41 44
REMARK SMILES IDX 42 45 43 46 66 47 67 48 75 49 68 50 74 51 69 52 70 53 71 54
REMARK SMILES IDX 72 55 73 56 52 57 53 58 61 59 54 60 60 61 55 62 56 63 57 64
REMARK SMILES IDX 58 65 59 66 5 67 6 68 7 69 8 70 9 71 10 72 14 73 11 74 13 75
REMARK SMILES IDX 12 76 15 77 16 78 17 79 18 81 19 82 26 83 20 84 25 85 21 86
REMARK SMILES IDX 22 87 23 88 24 89
REMARK H PARENT 80 22 50 33 17 80
REMARK Flexibility Score: inf
ROOT
ATOM      1  C   UNL A   1      37.640  21.496  25.341  1.00  0.00     0.275 C 
ENDROOT
BRANCH   1   2
ATOM      2  O   UNL A   1      38.185  22.703  25.925  1.00  0.00    -0.458 OA
BRANCH   2   3
ATOM      3  C   UNL A   1      39.508  22.870  26.207  1.00  0.00     0.338 C 
ATOM      4  O   UNL A   1      40.336  21.983  26.069  1.00  0.00    -0.246 OA
BRANCH   3   5
ATOM      5  C   UNL A   1      39.827  24.123  26.917  1.00  0.00     0.060 A 
ATOM      6  C   UNL A   1      40.582  25.114  26.294  1.00  0.00     0.016 A 
ATOM      7  C   UNL A   1      39.247  24.348  28.172  1.00  0.00     0.016 A 
ATOM      8  C   UNL A   1      40.602  26.391  26.835  1.00  0.00     0.010 A 
ATOM      9  C   UNL A   1      39.300  25.619  28.741  1.00  0.00     0.010 A 
ATOM     10  C   UNL A   1      39.963  26.645  28.059  1.00  0.00    -0.014 A 
BRANCH  10  11
ATOM     11  C   UNL A   1      40.316  27.896  28.747  1.00  0.00     0.031 A 
ATOM     12  C   UNL A   1      41.679  27.926  29.356  1.00  0.00     0.074 A 
ATOM     13  C   UNL A   1      39.529  28.984  28.733  1.00  0.00     0.049 A 
ATOM     14  N   UNL A   1      42.373  28.959  29.736  1.00  0.00    -0.248 NA
ATOM     15  C   UNL A   1      42.391  26.638  29.440  1.00  0.00     0.031 C 
ATOM     16  C   UNL A   1      38.239  29.088  28.064  1.00  0.00     0.029 A 
ATOM     17  N   UNL A   1      39.707  30.215  29.302  1.00  0.00    -0.354 N 
ATOM     18  C   UNL A   1      43.644  28.461  29.972  1.00  0.00     0.074 A 
ATOM     19  C   UNL A   1      43.610  27.033  29.760  1.00  0.00     0.031 C 
ATOM     20  C   UNL A   1      37.689  30.284  28.342  1.00  0.00     0.029 A 
ATOM     21  C   UNL A   1      38.620  31.046  29.167  1.00  0.00     0.049 A 
ATOM     22  H   UNL A   1      40.535  30.481  29.763  1.00  0.00     0.167 HD
ATOM     23  C   UNL A   1      44.752  29.150  30.316  1.00  0.00     0.031 A 
ATOM     24  C   UNL A   1      38.422  32.283  29.662  1.00  0.00     0.031 A 
ATOM     25  C   UNL A   1      44.710  30.521  30.718  1.00  0.00     0.049 A 
ATOM     26  C   UNL A   1      39.585  32.956  30.342  1.00  0.00     0.074 A 
ATOM     27  C   UNL A   1      45.716  31.302  31.246  1.00  0.00     0.029 A 
ATOM     28  N   UNL A   1      43.555  31.295  30.701  1.00  0.00    -0.354 N 
ATOM     29  N   UNL A   1      40.808  32.504  30.502  1.00  0.00    -0.248 NA
ATOM     30  C   UNL A   1      39.367  34.309  30.867  1.00  0.00     0.031 C 
ATOM     31  C   UNL A   1      45.151  32.530  31.612  1.00  0.00     0.029 A 
ATOM     32  C   UNL A   1      43.807  32.532  31.255  1.00  0.00     0.049 A 
ATOM     33  H   UNL A   1      42.685  31.002  30.345  1.00  0.00     0.167 HD
ATOM     34  C   UNL A   1      41.524  33.536  31.093  1.00  0.00     0.074 A 
ATOM     35  C   UNL A   1      40.586  34.628  31.289  1.00  0.00     0.031 C 
ATOM     36  C   UNL A   1      42.839  33.589  31.419  1.00  0.00     0.031 A 
BRANCH  23  37
ATOM     37  C   UNL A   1      46.019  28.354  30.338  1.00  0.00    -0.014 A 
ATOM     38  C   UNL A   1      46.437  27.731  31.532  1.00  0.00     0.010 A 
ATOM     39  C   UNL A   1      46.880  28.379  29.231  1.00  0.00     0.010 A 
ATOM     40  C   UNL A   1      47.727  27.208  31.637  1.00  0.00     0.020 A 
ATOM     41  C   UNL A   1      48.167  27.846  29.330  1.00  0.00     0.020 A 
ATOM     42  C   UNL A   1      48.592  27.292  30.542  1.00  0.00     0.054 A 
BRANCH  42  43
ATOM     43  S   UNL A   1      50.297  26.704  30.730  1.00  0.00     0.124 S 
ATOM     44  O   UNL A   1      50.985  27.439  29.671  1.00  0.00    -0.237 OA
ATOM     45  O   UNL A   1      50.630  27.109  32.094  1.00  0.00    -0.237 OA
ATOM     46  O   UNL A   1      50.188  25.262  30.520  1.00  0.00    -0.744 OA
ENDBRANCH  42  43
ENDBRANCH  23  37
BRANCH  24  47
ATOM     47  C   UNL A   1      37.089  32.934  29.545  1.00  0.00    -0.014 A 
ATOM     48  C   UNL A   1      36.224  33.060  30.645  1.00  0.00     0.010 A 
ATOM     49  C   UNL A   1      36.680  33.444  28.297  1.00  0.00     0.010 A 
ATOM     50  C   UNL A   1      34.972  33.674  30.496  1.00  0.00     0.020 A 
ATOM     51  C   UNL A   1      35.438  34.070  28.148  1.00  0.00     0.020 A 
ATOM     52  C   UNL A   1      34.587  34.174  29.248  1.00  0.00     0.054 A 
BRANCH  52  53
ATOM     53  S   UNL A   1      32.977  34.998  29.087  1.00  0.00     0.124 S 
ATOM     54  O   UNL A   1      32.439  34.884  30.438  1.00  0.00    -0.237 OA
ATOM     55  O   UNL A   1      33.354  36.344  28.665  1.00  0.00    -0.237 OA
ATOM     56  O   UNL A   1      32.289  34.205  28.070  1.00  0.00    -0.744 OA
ENDBRANCH  52  53
ENDBRANCH  24  47
BRANCH  36  57
ATOM     57  C   UNL A   1      43.362  34.883  31.969  1.00  0.00    -0.014 A 
ATOM     58  C   UNL A   1      43.854  35.885  31.119  1.00  0.00     0.010 A 
ATOM     59  C   UNL A   1      43.216  35.141  33.344  1.00  0.00     0.010 A 
ATOM     60  C   UNL A   1      44.184  37.138  31.639  1.00  0.00     0.020 A 
ATOM     61  C   UNL A   1      43.526  36.397  33.862  1.00  0.00     0.020 A 
ATOM     62  C   UNL A   1      44.008  37.388  33.004  1.00  0.00     0.054 A 
BRANCH  62  63
ATOM     63  S   UNL A   1      44.324  39.058  33.637  1.00  0.00     0.124 S 
ATOM     64  O   UNL A   1      44.968  38.779  34.917  1.00  0.00    -0.237 OA
ATOM     65  O   UNL A   1      45.188  39.635  32.610  1.00  0.00    -0.237 OA
ATOM     66  O   UNL A   1      42.990  39.651  33.724  1.00  0.00    -0.744 OA
ENDBRANCH  62  63
ENDBRANCH  36  57
ENDBRANCH  10  11
ENDBRANCH   3   5
ENDBRANCH   2   3
ENDBRANCH   1   2
BRANCH   1  67
ATOM     67  C   UNL A   1      36.383  21.660  24.458  1.00  0.00     0.275 C 
BRANCH  67  68
ATOM     68  O   UNL A   1      35.623  22.823  24.838  1.00  0.00    -0.458 OA
BRANCH  68  69
ATOM     69  C   UNL A   1      34.916  23.443  23.862  1.00  0.00     0.340 C 
ATOM     70  O   UNL A   1      35.085  23.332  22.672  1.00  0.00    -0.246 OA
BRANCH  69  71
ATOM     71  C   UNL A   1      33.941  24.356  24.474  1.00  0.00     0.091 A 
ATOM     72  C   UNL A   1      33.736  25.542  23.747  1.00  0.00     0.020 A 
ATOM     73  C   UNL A   1      33.327  24.224  25.714  1.00  0.00     0.142 A 
ATOM     74  C   UNL A   1      33.083  26.620  24.327  1.00  0.00     0.021 A 
ATOM     75  N   UNL A   1      32.655  25.285  26.277  1.00  0.00    -0.250 NA
ATOM     76  C   UNL A   1      32.589  26.453  25.601  1.00  0.00     0.112 A 
BRANCH  73  77
ATOM     77  C   UNL A   1      33.336  23.047  26.670  1.00  0.00     0.275 C 
ATOM     78  O   UNL A   1      33.716  23.242  27.829  1.00  0.00    -0.267 OA
ATOM     79  N   UNL A   1      32.548  21.923  26.458  1.00  0.00    -0.321 N 
ATOM     80  H   UNL A   1      31.816  21.804  27.107  1.00  0.00     0.170 HD
BRANCH  79  81
ATOM     81  C   UNL A   1      32.622  20.929  25.472  1.00  0.00     0.042 A 
ATOM     82  C   UNL A   1      32.180  21.173  24.174  1.00  0.00     0.033 A 
ATOM     83  C   UNL A   1      32.981  19.635  25.788  1.00  0.00     0.033 A 
ATOM     84  C   UNL A   1      32.230  20.154  23.205  1.00  0.00     0.088 A 
ATOM     85  C   UNL A   1      33.110  18.620  24.848  1.00  0.00     0.088 A 
ATOM     86  C   UNL A   1      32.736  18.889  23.542  1.00  0.00     0.269 A 
BRANCH  86  87
ATOM     87  N   UNL A   1      32.815  17.817  22.549  1.00  0.00     0.062 N 
ATOM     88  O   UNL A   1      33.513  16.831  22.825  1.00  0.00    -0.258 OA
ATOM     89  O   UNL A   1      32.194  17.965  21.487  1.00  0.00    -0.258 OA
ENDBRANCH  86  87
ENDBRANCH  79  81
ENDBRANCH  73  77
ENDBRANCH  69  71
ENDBRANCH  68  69
ENDBRANCH  67  68
ENDBRANCH   1  67
TORSDOF 17
ENDMDL
MODEL 3
REMARK VINA RESULT:      -9.6      4.700     11.060
REMARK SMILES O=C(OCCOC(=O)c1cccnc1C(=O)Nc1ccc([N+](=O)[O-])cc1)c1ccc(-c2c3nc(c(-c4ccc(S(=O)(=O)[O-])cc4)c4ccc([nH]4)c(-c4ccc(S(=O)(=O)[O-])cc4)c4nc(c(-c5ccc(S(=O)(=O)[O-])cc5)c5ccc2[nH]5)C=C4)C=C3)cc1
REMARK SMILES IDX 4 1 3 2 2 3 1 4 27 5 28 6 86 7 29 8 85 9 30 10 31 11 32 12
REMARK SMILES IDX 79 13 33 14 84 15 78 16 80 17 34 18 83 19 77 20 76 21 35 23
REMARK SMILES IDX 65 24 46 25 64 26 47 27 50 28 63 29 81 30 48 31 49 32 62 34
REMARK SMILES IDX 82 35 51 36 36 37 37 38 45 39 38 40 44 41 39 42 40 43 41 44
REMARK SMILES IDX 42 45 43 46 66 47 67 48 75 49 68 50 74 51 69 52 70 53 71 54
REMARK SMILES IDX 72 55 73 56 52 57 53 58 61 59 54 60 60 61 55 62 56 63 57 64
REMARK SMILES IDX 58 65 59 66 5 67 6 68 7 69 8 70 9 71 10 72 14 73 11 74 13 75
REMARK SMILES IDX 12 76 15 77 16 78 17 79 18 81 19 82 26 83 20 84 25 85 21 86
REMARK SMILES IDX 22 87 23 88 24 89
REMARK H PARENT 80 22 50 33 17 80
REMARK Flexibility Score: inf
ROOT
ATOM      1  C   UNL A   1      34.826  29.853  27.505  1.00  0.00     0.275 C 
ENDROOT
BRANCH   1   2
ATOM      2  O   UNL A   1      35.760  29.219  28.410  1.00  0.00    -0.458 OA
BRANCH   2   3
ATOM      3  C   UNL A   1      36.563  29.912  29.267  1.00  0.00     0.338 C 
ATOM      4  O   UNL A   1      36.164  30.847  29.945  1.00  0.00    -0.246 OA
BRANCH   3   5
ATOM      5  C   UNL A   1      38.000  29.605  29.139  1.00  0.00     0.060 A 
ATOM      6  C   UNL A   1      38.562  29.375  27.886  1.00  0.00     0.016 A 
ATOM      7  C   UNL A   1      38.805  29.681  30.282  1.00  0.00     0.016 A 
ATOM      8  C   UNL A   1      39.942  29.408  27.747  1.00  0.00     0.010 A 
ATOM      9  C   UNL A   1      40.193  29.671  30.153  1.00  0.00     0.010 A 
ATOM     10  C   UNL A   1      40.759  29.553  28.880  1.00  0.00    -0.014 A 
BRANCH  10  11
ATOM     11  C   UNL A   1      42.184  29.225  28.720  1.00  0.00     0.031 A 
ATOM     12  C   UNL A   1      42.485  27.776  28.524  1.00  0.00     0.074 A 
ATOM     13  C   UNL A   1      43.143  30.159  28.633  1.00  0.00     0.049 A 
ATOM     14  N   UNL A   1      43.569  27.230  28.054  1.00  0.00    -0.248 NA
ATOM     15  C   UNL A   1      41.382  26.833  28.784  1.00  0.00     0.031 C 
ATOM     16  C   UNL A   1      42.931  31.599  28.691  1.00  0.00     0.029 A 
ATOM     17  N   UNL A   1      44.496  30.030  28.473  1.00  0.00    -0.354 N 
ATOM     18  C   UNL A   1      43.230  25.905  27.835  1.00  0.00     0.074 A 
ATOM     19  C   UNL A   1      41.870  25.713  28.282  1.00  0.00     0.031 C 
ATOM     20  C   UNL A   1      44.122  32.226  28.672  1.00  0.00     0.029 A 
ATOM     21  C   UNL A   1      45.175  31.223  28.545  1.00  0.00     0.049 A 
ATOM     22  H   UNL A   1      44.941  29.166  28.322  1.00  0.00     0.167 HD
ATOM     23  C   UNL A   1      43.990  24.938  27.281  1.00  0.00     0.031 A 
ATOM     24  C   UNL A   1      46.501  31.457  28.506  1.00  0.00     0.031 A 
ATOM     25  C   UNL A   1      45.389  25.103  27.040  1.00  0.00     0.049 A 
ATOM     26  C   UNL A   1      47.405  30.294  28.193  1.00  0.00     0.074 A 
ATOM     27  C   UNL A   1      46.318  24.166  26.640  1.00  0.00     0.029 A 
ATOM     28  N   UNL A   1      46.074  26.294  27.258  1.00  0.00    -0.354 N 
ATOM     29  N   UNL A   1      47.070  29.053  27.918  1.00  0.00    -0.248 NA
ATOM     30  C   UNL A   1      48.847  30.557  28.138  1.00  0.00     0.031 C 
ATOM     31  C   UNL A   1      47.578  24.775  26.682  1.00  0.00     0.029 A 
ATOM     32  C   UNL A   1      47.424  26.107  27.050  1.00  0.00     0.049 A 
ATOM     33  H   UNL A   1      45.655  27.144  27.522  1.00  0.00     0.167 HD
ATOM     34  C   UNL A   1      48.253  28.399  27.601  1.00  0.00     0.074 A 
ATOM     35  C   UNL A   1      49.317  29.377  27.747  1.00  0.00     0.031 C 
ATOM     36  C   UNL A   1      48.442  27.118  27.200  1.00  0.00     0.031 A 
BRANCH  23  37
ATOM     37  C   UNL A   1      43.287  23.642  27.023  1.00  0.00    -0.014 A 
ATOM     38  C   UNL A   1      43.085  22.729  28.078  1.00  0.00     0.010 A 
ATOM     39  C   UNL A   1      42.996  23.255  25.706  1.00  0.00     0.010 A 
ATOM     40  C   UNL A   1      42.667  21.425  27.808  1.00  0.00     0.020 A 
ATOM     41  C   UNL A   1      42.567  21.954  25.435  1.00  0.00     0.020 A 
ATOM     42  C   UNL A   1      42.436  21.039  26.484  1.00  0.00     0.054 A 
BRANCH  42  43
ATOM     43  S   UNL A   1      41.998  19.313  26.142  1.00  0.00     0.124 S 
ATOM     44  O   UNL A   1      40.567  19.416  25.870  1.00  0.00    -0.237 OA
ATOM     45  O   UNL A   1      42.835  18.990  24.989  1.00  0.00    -0.237 OA
ATOM     46  O   UNL A   1      42.351  18.617  27.378  1.00  0.00    -0.744 OA
ENDBRANCH  42  43
ENDBRANCH  23  37
BRANCH  24  47
ATOM     47  C   UNL A   1      47.032  32.819  28.784  1.00  0.00    -0.014 A 
ATOM     48  C   UNL A   1      47.270  33.748  27.756  1.00  0.00     0.010 A 
ATOM     49  C   UNL A   1      47.301  33.195  30.115  1.00  0.00     0.010 A 
ATOM     50  C   UNL A   1      47.778  35.020  28.054  1.00  0.00     0.020 A 
ATOM     51  C   UNL A   1      47.794  34.468  30.417  1.00  0.00     0.020 A 
ATOM     52  C   UNL A   1      48.037  35.372  29.383  1.00  0.00     0.054 A 
BRANCH  52  53
ATOM     53  S   UNL A   1      48.659  37.039  29.749  1.00  0.00     0.124 S 
ATOM     54  O   UNL A   1      49.932  36.753  30.402  1.00  0.00    -0.237 OA
ATOM     55  O   UNL A   1      48.746  37.639  28.421  1.00  0.00    -0.237 OA
ATOM     56  O   UNL A   1      47.625  37.604  30.614  1.00  0.00    -0.744 OA
ENDBRANCH  52  53
ENDBRANCH  24  47
BRANCH  36  57
ATOM     57  C   UNL A   1      49.837  26.707  26.834  1.00  0.00    -0.014 A 
ATOM     58  C   UNL A   1      50.709  26.169  27.793  1.00  0.00     0.010 A 
ATOM     59  C   UNL A   1      50.215  26.730  25.479  1.00  0.00     0.010 A 
ATOM     60  C   UNL A   1      51.942  25.648  27.397  1.00  0.00     0.020 A 
ATOM     61  C   UNL A   1      51.437  26.191  25.080  1.00  0.00     0.020 A 
ATOM     62  C   UNL A   1      52.293  25.652  26.043  1.00  0.00     0.054 A 
BRANCH  62  63
ATOM     63  S   UNL A   1      53.842  24.858  25.536  1.00  0.00     0.124 S 
ATOM     64  O   UNL A   1      54.575  24.795  26.797  1.00  0.00    -0.237 OA
ATOM     65  O   UNL A   1      53.389  23.574  25.006  1.00  0.00    -0.237 OA
ATOM     66  O   UNL A   1      54.389  25.777  24.540  1.00  0.00    -0.744 OA
ENDBRANCH  62  63
ENDBRANCH  36  57
ENDBRANCH  10  11
ENDBRANCH   3   5
ENDBRANCH   2   3
ENDBRANCH   1   2
BRANCH   1  67
ATOM     67  C   UNL A   1      34.195  28.953  26.420  1.00  0.00     0.275 C 
BRANCH  67  68
ATOM     68  O   UNL A   1      32.778  29.185  26.303  1.00  0.00    -0.458 OA
BRANCH  68  69
ATOM     69  C   UNL A   1      31.960  28.132  26.541  1.00  0.00     0.340 C 
ATOM     70  O   UNL A   1      31.914  27.471  27.550  1.00  0.00    -0.246 OA
BRANCH  69  71
ATOM     71  C   UNL A   1      31.168  27.848  25.336  1.00  0.00     0.091 A 
ATOM     72  C   UNL A   1      31.013  28.956  24.482  1.00  0.00     0.020 A 
ATOM     73  C   UNL A   1      30.479  26.679  25.037  1.00  0.00     0.142 A 
ATOM     74  C   UNL A   1      30.065  28.937  23.470  1.00  0.00     0.021 A 
ATOM     75  N   UNL A   1      29.558  26.653  24.014  1.00  0.00    -0.250 NA
ATOM     76  C   UNL A   1      29.343  27.777  23.296  1.00  0.00     0.112 A 
BRANCH  73  77
ATOM     77  C   UNL A   1      30.505  25.339  25.748  1.00  0.00     0.275 C 
ATOM     78  O   UNL A   1      29.708  25.157  26.673  1.00  0.00    -0.267 OA
ATOM     79  N   UNL A   1      31.033  24.202  25.150  1.00  0.00    -0.321 N 
ATOM     80  H   UNL A   1      30.369  23.508  24.929  1.00  0.00     0.170 HD
BRANCH  79  81
ATOM     81  C   UNL A   1      32.353  23.877  24.810  1.00  0.00     0.042 A 
ATOM     82  C   UNL A   1      32.632  22.815  23.954  1.00  0.00     0.033 A 
ATOM     83  C   UNL A   1      33.422  24.490  25.432  1.00  0.00     0.033 A 
ATOM     84  C   UNL A   1      33.966  22.482  23.649  1.00  0.00     0.088 A 
ATOM     85  C   UNL A   1      34.749  24.238  25.108  1.00  0.00     0.088 A 
ATOM     86  C   UNL A   1      35.019  23.227  24.201  1.00  0.00     0.269 A 
BRANCH  86  87
ATOM     87  N   UNL A   1      36.414  22.912  23.887  1.00  0.00     0.062 N 
ATOM     88  O   UNL A   1      36.796  23.105  22.725  1.00  0.00    -0.258 OA
ATOM     89  O   UNL A   1      37.122  22.458  24.797  1.00  0.00    -0.258 OA
ENDBRANCH  86  87
ENDBRANCH  79  81
ENDBRANCH  73  77
ENDBRANCH  69  71
ENDBRANCH  68  69
ENDBRANCH  67  68
ENDBRANCH   1  67
TORSDOF 17
ENDMDL
