MODEL 1
REMARK VINA RESULT:     -12.9      0.000      0.000
REMARK SMILES COC(=O)c1ccc([C@H]2CC(=O)Nc3c(C(=O)OCCOC(=O)c4ccc(-c5c6nc(c(-c7ccc(S(=O)(=O)[O-])cc7)c7ccc([nH]7)c(-c7ccc(S(=O)(=O)[O-])cc7)c7nc(c(-c8ccc(S(=O)(=O)[O-])cc8)c8ccc5[nH]8)C=C7)C=C6)cc4)cn(-c4ccccc4)c32)cc1
REMARK SMILES IDX 19 1 18 2 16 3 17 4 15 5 9 6 10 7 92 8 11 9 14 10 85 11
REMARK SMILES IDX 12 12 13 13 84 14 8 16 5 17 6 18 94 19 7 20 93 21 3 22 4 23
REMARK SMILES IDX 2 24 1 25 86 26 87 27 91 28 88 29 90 30 89 31 20 32 21 33
REMARK SMILES IDX 22 34 23 35 24 36 25 37 83 38 26 39 82 40 27 41 28 42 29 43
REMARK SMILES IDX 76 44 30 45 81 46 75 47 77 48 31 49 80 50 74 51 73 52 32 54
REMARK SMILES IDX 62 55 43 56 61 57 44 58 47 59 60 60 78 61 45 62 46 63 59 65
REMARK SMILES IDX 79 66 48 67 33 68 34 69 42 70 35 71 41 72 36 73 37 74 38 75
REMARK SMILES IDX 39 76 40 77 63 78 64 79 72 80 65 81 71 82 66 83 67 84 68 85
REMARK SMILES IDX 69 86 70 87 49 88 50 89 58 90 51 91 57 92 52 93 53 94 54 95
REMARK SMILES IDX 55 96 56 97
REMARK H PARENT 13 15 77 53 47 64
REMARK Flexibility Score: inf
ROOT
ATOM      1  C   UNL A   1      31.813  30.102  26.016  1.00  0.00     0.275 C 
ENDROOT
BRANCH   1   2
ATOM      2  O   UNL A   1      32.807  29.092  25.779  1.00  0.00    -0.458 OA
BRANCH   2   3
ATOM      3  C   UNL A   1      32.746  27.991  26.586  1.00  0.00     0.341 C 
ATOM      4  O   UNL A   1      32.548  28.031  27.802  1.00  0.00    -0.246 OA
BRANCH   3   5
ATOM      5  C   UNL A   1      32.891  26.749  25.847  1.00  0.00     0.102 A 
ATOM      6  C   UNL A   1      31.801  23.963  23.631  1.00  0.00     0.078 C 
ATOM      7  C   UNL A   1      30.294  24.287  23.614  1.00  0.00     0.115 C 
ATOM      8  C   UNL A   1      32.524  24.931  24.529  1.00  0.00     0.055 A 
ATOM      9  C   UNL A   1      29.937  25.754  23.759  1.00  0.00     0.225 C 
ATOM     10  C   UNL A   1      31.973  26.106  24.986  1.00  0.00     0.078 A 
ATOM     11  N   UNL A   1      33.819  24.862  25.022  1.00  0.00    -0.317 N 
ATOM     12  O   UNL A   1      28.915  26.224  23.260  1.00  0.00    -0.275 OA
ATOM     13  N   UNL A   1      30.732  26.517  24.570  1.00  0.00    -0.324 N 
ATOM     14  C   UNL A   1      33.993  25.908  25.903  1.00  0.00     0.109 A 
ATOM     15  H   UNL A   1      30.400  27.395  24.868  1.00  0.00     0.170 HD
BRANCH   6  16
ATOM     16  C   UNL A   1      31.958  22.471  23.930  1.00  0.00    -0.038 A 
ATOM     17  C   UNL A   1      32.417  19.722  24.411  1.00  0.00     0.060 A 
ATOM     18  C   UNL A   1      32.548  20.244  23.121  1.00  0.00     0.016 A 
ATOM     19  C   UNL A   1      31.997  20.562  25.448  1.00  0.00     0.016 A 
ATOM     20  C   UNL A   1      32.327  21.605  22.885  1.00  0.00     0.005 A 
ATOM     21  C   UNL A   1      31.733  21.912  25.197  1.00  0.00     0.005 A 
BRANCH  17  22
ATOM     22  C   UNL A   1      32.751  18.290  24.634  1.00  0.00     0.337 C 
ATOM     23  O   UNL A   1      32.066  17.534  25.308  1.00  0.00    -0.246 OA
BRANCH  22  24
ATOM     24  O   UNL A   1      33.902  17.969  23.994  1.00  0.00    -0.465 OA
ATOM     25  C   UNL A   1      33.852  16.754  23.245  1.00  0.00     0.282 C 
ENDBRANCH  22  24
ENDBRANCH  17  22
ENDBRANCH   6  16
BRANCH  11  26
ATOM     26  C   UNL A   1      34.807  23.901  24.712  1.00  0.00     0.045 A 
ATOM     27  C   UNL A   1      35.386  23.151  25.740  1.00  0.00     0.026 A 
ATOM     28  C   UNL A   1      35.257  23.774  23.393  1.00  0.00     0.026 A 
ATOM     29  C   UNL A   1      36.451  22.298  25.452  1.00  0.00     0.002 A 
ATOM     30  C   UNL A   1      36.352  22.951  23.124  1.00  0.00     0.002 A 
ATOM     31  C   UNL A   1      36.948  22.218  24.152  1.00  0.00     0.000 A 
ENDBRANCH  11  26
ENDBRANCH   3   5
ENDBRANCH   2   3
ENDBRANCH   1   2
BRANCH   1  32
ATOM     32  C   UNL A   1      32.354  31.237  26.875  1.00  0.00     0.275 C 
BRANCH  32  33
ATOM     33  O   UNL A   1      33.759  31.118  27.095  1.00  0.00    -0.458 OA
BRANCH  33  34
ATOM     34  C   UNL A   1      34.258  31.946  28.041  1.00  0.00     0.338 C 
ATOM     35  O   UNL A   1      33.897  33.085  28.282  1.00  0.00    -0.246 OA
BRANCH  34  36
ATOM     36  C   UNL A   1      35.484  31.361  28.593  1.00  0.00     0.060 A 
ATOM     37  C   UNL A   1      36.453  32.232  29.101  1.00  0.00     0.016 A 
ATOM     38  C   UNL A   1      35.762  30.007  28.357  1.00  0.00     0.016 A 
ATOM     39  C   UNL A   1      37.746  31.768  29.248  1.00  0.00     0.010 A 
ATOM     40  C   UNL A   1      37.054  29.554  28.480  1.00  0.00     0.010 A 
ATOM     41  C   UNL A   1      38.045  30.452  28.871  1.00  0.00    -0.014 A 
BRANCH  41  42
ATOM     42  C   UNL A   1      39.390  29.953  29.087  1.00  0.00     0.031 A 
ATOM     43  C   UNL A   1      39.717  29.866  30.530  1.00  0.00     0.074 A 
ATOM     44  C   UNL A   1      40.174  29.478  28.099  1.00  0.00     0.049 A 
ATOM     45  N   UNL A   1      40.541  30.607  31.192  1.00  0.00    -0.248 NA
ATOM     46  C   UNL A   1      38.870  29.006  31.379  1.00  0.00     0.031 C 
ATOM     47  C   UNL A   1      39.818  29.273  26.692  1.00  0.00     0.029 A 
ATOM     48  N   UNL A   1      41.432  28.960  28.168  1.00  0.00    -0.354 N 
ATOM     49  C   UNL A   1      40.511  30.113  32.491  1.00  0.00     0.074 A 
ATOM     50  C   UNL A   1      39.315  29.321  32.595  1.00  0.00     0.031 C 
ATOM     51  C   UNL A   1      40.733  28.461  26.113  1.00  0.00     0.029 A 
ATOM     52  C   UNL A   1      41.801  28.195  27.064  1.00  0.00     0.049 A 
ATOM     53  H   UNL A   1      42.030  29.113  28.935  1.00  0.00     0.167 HD
ATOM     54  C   UNL A   1      41.633  30.116  33.261  1.00  0.00     0.031 A 
ATOM     55  C   UNL A   1      42.868  27.356  26.971  1.00  0.00     0.031 A 
ATOM     56  C   UNL A   1      42.633  31.009  32.730  1.00  0.00     0.049 A 
ATOM     57  C   UNL A   1      43.822  27.743  28.037  1.00  0.00     0.074 A 
ATOM     58  C   UNL A   1      42.683  32.358  32.437  1.00  0.00     0.029 A 
ATOM     59  N   UNL A   1      43.667  30.425  32.038  1.00  0.00    -0.354 N 
ATOM     60  N   UNL A   1      44.466  28.876  28.045  1.00  0.00    -0.248 NA
ATOM     61  C   UNL A   1      43.716  27.080  29.326  1.00  0.00     0.031 C 
ATOM     62  C   UNL A   1      43.460  32.449  31.245  1.00  0.00     0.029 A 
ATOM     63  C   UNL A   1      43.914  31.170  30.917  1.00  0.00     0.049 A 
ATOM     64  H   UNL A   1      44.149  29.609  32.304  1.00  0.00     0.167 HD
ATOM     65  C   UNL A   1      44.436  29.289  29.368  1.00  0.00     0.074 A 
ATOM     66  C   UNL A   1      44.055  28.095  30.125  1.00  0.00     0.031 C 
ATOM     67  C   UNL A   1      44.440  30.617  29.686  1.00  0.00     0.031 A 
BRANCH  54  68
ATOM     68  C   UNL A   1      41.997  28.964  34.173  1.00  0.00    -0.014 A 
ATOM     69  C   UNL A   1      42.204  27.694  33.597  1.00  0.00     0.010 A 
ATOM     70  C   UNL A   1      41.851  29.008  35.576  1.00  0.00     0.010 A 
ATOM     71  C   UNL A   1      42.180  26.530  34.376  1.00  0.00     0.020 A 
ATOM     72  C   UNL A   1      41.873  27.861  36.366  1.00  0.00     0.020 A 
ATOM     73  C   UNL A   1      42.003  26.623  35.756  1.00  0.00     0.054 A 
BRANCH  73  74
ATOM     74  S   UNL A   1      41.896  25.113  36.743  1.00  0.00     0.124 S 
ATOM     75  O   UNL A   1      43.097  25.207  37.565  1.00  0.00    -0.237 OA
ATOM     76  O   UNL A   1      40.629  25.297  37.444  1.00  0.00    -0.237 OA
ATOM     77  O   UNL A   1      41.901  24.050  35.741  1.00  0.00    -0.744 OA
ENDBRANCH  73  74
ENDBRANCH  54  68
BRANCH  55  78
ATOM     78  C   UNL A   1      42.977  26.055  26.254  1.00  0.00    -0.014 A 
ATOM     79  C   UNL A   1      44.033  25.808  25.352  1.00  0.00     0.010 A 
ATOM     80  C   UNL A   1      42.218  24.948  26.683  1.00  0.00     0.010 A 
ATOM     81  C   UNL A   1      44.361  24.497  24.955  1.00  0.00     0.020 A 
ATOM     82  C   UNL A   1      42.534  23.641  26.287  1.00  0.00     0.020 A 
ATOM     83  C   UNL A   1      43.622  23.418  25.446  1.00  0.00     0.054 A 
BRANCH  83  84
ATOM     84  S   UNL A   1      44.165  21.718  25.093  1.00  0.00     0.124 S 
ATOM     85  O   UNL A   1      43.061  20.921  25.618  1.00  0.00    -0.237 OA
ATOM     86  O   UNL A   1      44.305  21.722  23.638  1.00  0.00    -0.237 OA
ATOM     87  O   UNL A   1      45.422  21.597  25.830  1.00  0.00    -0.744 OA
ENDBRANCH  83  84
ENDBRANCH  55  78
BRANCH  67  88
ATOM     88  C   UNL A   1      44.853  31.609  28.623  1.00  0.00    -0.014 A 
ATOM     89  C   UNL A   1      43.992  32.149  27.647  1.00  0.00     0.010 A 
ATOM     90  C   UNL A   1      46.172  32.090  28.689  1.00  0.00     0.010 A 
ATOM     91  C   UNL A   1      44.459  33.107  26.732  1.00  0.00     0.020 A 
ATOM     92  C   UNL A   1      46.636  33.057  27.798  1.00  0.00     0.020 A 
ATOM     93  C   UNL A   1      45.784  33.548  26.811  1.00  0.00     0.054 A 
BRANCH  93  94
ATOM     94  S   UNL A   1      46.395  34.776  25.624  1.00  0.00     0.124 S 
ATOM     95  O   UNL A   1      45.589  34.500  24.438  1.00  0.00    -0.237 OA
ATOM     96  O   UNL A   1      46.117  36.044  26.296  1.00  0.00    -0.237 OA
ATOM     97  O   UNL A   1      47.816  34.456  25.491  1.00  0.00    -0.744 OA
ENDBRANCH  93  94
ENDBRANCH  67  88
ENDBRANCH  41  42
ENDBRANCH  34  36
ENDBRANCH  33  34
ENDBRANCH  32  33
ENDBRANCH   1  32
TORSDOF 18
ENDMDL
MODEL 2
REMARK VINA RESULT:     -12.8      2.839      9.377
REMARK SMILES COC(=O)c1ccc([C@H]2CC(=O)Nc3c(C(=O)OCCOC(=O)c4ccc(-c5c6nc(c(-c7ccc(S(=O)(=O)[O-])cc7)c7ccc([nH]7)c(-c7ccc(S(=O)(=O)[O-])cc7)c7nc(c(-c8ccc(S(=O)(=O)[O-])cc8)c8ccc5[nH]8)C=C7)C=C6)cc4)cn(-c4ccccc4)c32)cc1
REMARK SMILES IDX 19 1 18 2 16 3 17 4 15 5 9 6 10 7 92 8 11 9 14 10 85 11
REMARK SMILES IDX 12 12 13 13 84 14 8 16 5 17 6 18 94 19 7 20 93 21 3 22 4 23
REMARK SMILES IDX 2 24 1 25 86 26 87 27 91 28 88 29 90 30 89 31 20 32 21 33
REMARK SMILES IDX 22 34 23 35 24 36 25 37 83 38 26 39 82 40 27 41 28 42 29 43
REMARK SMILES IDX 76 44 30 45 81 46 75 47 77 48 31 49 80 50 74 51 73 52 32 54
REMARK SMILES IDX 62 55 43 56 61 57 44 58 47 59 60 60 78 61 45 62 46 63 59 65
REMARK SMILES IDX 79 66 48 67 33 68 34 69 42 70 35 71 41 72 36 73 37 74 38 75
REMARK SMILES IDX 39 76 40 77 63 78 64 79 72 80 65 81 71 82 66 83 67 84 68 85
REMARK SMILES IDX 69 86 70 87 49 88 50 89 58 90 51 91 57 92 52 93 53 94 54 95
REMARK SMILES IDX 55 96 56 97
REMARK H PARENT 13 15 77 53 47 64
REMARK Flexibility Score: inf
ROOT
ATOM      1  C   UNL A   1      35.555  21.060  25.536  1.00  0.00     0.275 C 
ENDROOT
BRANCH   1   2
ATOM      2  O   UNL A   1      34.796  21.009  24.317  1.00  0.00    -0.458 OA
BRANCH   2   3
ATOM      3  C   UNL A   1      33.446  21.176  24.445  1.00  0.00     0.341 C 
ATOM      4  O   UNL A   1      32.631  20.251  24.482  1.00  0.00    -0.246 OA
BRANCH   3   5
ATOM      5  C   UNL A   1      33.068  22.571  24.586  1.00  0.00     0.102 A 
ATOM      6  C   UNL A   1      31.034  25.437  25.817  1.00  0.00     0.078 C 
ATOM      7  C   UNL A   1      29.864  24.625  26.407  1.00  0.00     0.115 C 
ATOM      8  C   UNL A   1      32.030  24.509  25.173  1.00  0.00     0.055 A 
ATOM      9  C   UNL A   1      30.222  23.248  26.935  1.00  0.00     0.225 C 
ATOM     10  C   UNL A   1      32.049  23.149  25.377  1.00  0.00     0.078 A 
ATOM     11  N   UNL A   1      33.084  24.815  24.325  1.00  0.00    -0.317 N 
ATOM     12  O   UNL A   1      29.595  22.726  27.856  1.00  0.00    -0.275 OA
ATOM     13  N   UNL A   1      31.194  22.552  26.269  1.00  0.00    -0.324 N 
ATOM     14  C   UNL A   1      33.637  23.629  23.890  1.00  0.00     0.109 A 
ATOM     15  H   UNL A   1      31.282  21.586  26.435  1.00  0.00     0.170 HD
BRANCH   6  16
ATOM     16  C   UNL A   1      30.444  26.551  24.949  1.00  0.00    -0.038 A 
ATOM     17  C   UNL A   1      29.524  28.655  23.300  1.00  0.00     0.060 A 
ATOM     18  C   UNL A   1      30.435  28.912  24.330  1.00  0.00     0.016 A 
ATOM     19  C   UNL A   1      29.027  27.358  23.136  1.00  0.00     0.016 A 
ATOM     20  C   UNL A   1      30.894  27.869  25.141  1.00  0.00     0.005 A 
ATOM     21  C   UNL A   1      29.455  26.328  23.979  1.00  0.00     0.005 A 
BRANCH  17  22
ATOM     22  C   UNL A   1      29.133  29.776  22.404  1.00  0.00     0.337 C 
ATOM     23  O   UNL A   1      29.373  29.798  21.206  1.00  0.00    -0.246 OA
BRANCH  22  24
ATOM     24  O   UNL A   1      28.493  30.742  23.108  1.00  0.00    -0.465 OA
ATOM     25  C   UNL A   1      28.351  31.987  22.423  1.00  0.00     0.282 C 
ENDBRANCH  22  24
ENDBRANCH  17  22
ENDBRANCH   6  16
BRANCH  11  26
ATOM     26  C   UNL A   1      33.534  26.098  23.940  1.00  0.00     0.045 A 
ATOM     27  C   UNL A   1      34.053  26.966  24.906  1.00  0.00     0.026 A 
ATOM     28  C   UNL A   1      33.375  26.516  22.614  1.00  0.00     0.026 A 
ATOM     29  C   UNL A   1      34.374  28.275  24.551  1.00  0.00     0.002 A 
ATOM     30  C   UNL A   1      33.658  27.841  22.280  1.00  0.00     0.002 A 
ATOM     31  C   UNL A   1      34.154  28.718  23.247  1.00  0.00     0.000 A 
ENDBRANCH  11  26
ENDBRANCH   3   5
ENDBRANCH   2   3
ENDBRANCH   1   2
BRANCH   1  32
ATOM     32  C   UNL A   1      37.054  21.091  25.266  1.00  0.00     0.275 C 
BRANCH  32  33
ATOM     33  O   UNL A   1      37.688  22.200  25.902  1.00  0.00    -0.458 OA
BRANCH  33  34
ATOM     34  C   UNL A   1      38.996  22.015  26.195  1.00  0.00     0.338 C 
ATOM     35  O   UNL A   1      39.570  20.949  26.343  1.00  0.00    -0.246 OA
BRANCH  34  36
ATOM     36  C   UNL A   1      39.595  23.304  26.556  1.00  0.00     0.060 A 
ATOM     37  C   UNL A   1      40.773  23.289  27.309  1.00  0.00     0.016 A 
ATOM     38  C   UNL A   1      38.849  24.477  26.377  1.00  0.00     0.016 A 
ATOM     39  C   UNL A   1      41.132  24.434  27.994  1.00  0.00     0.010 A 
ATOM     40  C   UNL A   1      39.195  25.608  27.079  1.00  0.00     0.010 A 
ATOM     41  C   UNL A   1      40.301  25.559  27.925  1.00  0.00    -0.014 A 
BRANCH  41  42
ATOM     42  C   UNL A   1      40.717  26.776  28.596  1.00  0.00     0.031 A 
ATOM     43  C   UNL A   1      41.915  27.371  27.958  1.00  0.00     0.074 A 
ATOM     44  C   UNL A   1      40.002  27.369  29.573  1.00  0.00     0.049 A 
ATOM     45  N   UNL A   1      43.113  27.422  28.437  1.00  0.00    -0.248 NA
ATOM     46  C   UNL A   1      41.822  27.756  26.536  1.00  0.00     0.031 C 
ATOM     47  C   UNL A   1      38.672  26.993  30.063  1.00  0.00     0.029 A 
ATOM     48  N   UNL A   1      40.262  28.515  30.259  1.00  0.00    -0.354 N 
ATOM     49  C   UNL A   1      43.860  28.096  27.478  1.00  0.00     0.074 A 
ATOM     50  C   UNL A   1      43.092  28.050  26.262  1.00  0.00     0.031 C 
ATOM     51  C   UNL A   1      38.152  28.020  30.774  1.00  0.00     0.029 A 
ATOM     52  C   UNL A   1      39.153  29.067  30.899  1.00  0.00     0.049 A 
ATOM     53  H   UNL A   1      41.158  28.921  30.301  1.00  0.00     0.167 HD
ATOM     54  C   UNL A   1      44.878  28.921  27.843  1.00  0.00     0.031 A 
ATOM     55  C   UNL A   1      39.053  30.318  31.426  1.00  0.00     0.031 A 
ATOM     56  C   UNL A   1      45.292  28.675  29.202  1.00  0.00     0.049 A 
ATOM     57  C   UNL A   1      40.434  30.815  31.635  1.00  0.00     0.074 A 
ATOM     58  C   UNL A   1      45.768  27.580  29.896  1.00  0.00     0.029 A 
ATOM     59  N   UNL A   1      44.844  29.566  30.148  1.00  0.00    -0.354 N 
ATOM     60  N   UNL A   1      41.256  30.302  32.507  1.00  0.00    -0.248 NA
ATOM     61  C   UNL A   1      41.058  31.575  30.565  1.00  0.00     0.031 C 
ATOM     62  C   UNL A   1      45.179  27.677  31.190  1.00  0.00     0.029 A 
ATOM     63  C   UNL A   1      44.445  28.863  31.252  1.00  0.00     0.049 A 
ATOM     64  H   UNL A   1      44.817  30.545  30.048  1.00  0.00     0.167 HD
ATOM     65  C   UNL A   1      42.481  30.272  31.859  1.00  0.00     0.074 A 
ATOM     66  C   UNL A   1      42.321  31.164  30.710  1.00  0.00     0.031 C 
ATOM     67  C   UNL A   1      43.405  29.309  32.154  1.00  0.00     0.031 A 
BRANCH  54  68
ATOM     68  C   UNL A   1      45.136  30.247  27.159  1.00  0.00    -0.014 A 
ATOM     69  C   UNL A   1      46.472  30.663  26.986  1.00  0.00     0.010 A 
ATOM     70  C   UNL A   1      44.136  31.222  26.953  1.00  0.00     0.010 A 
ATOM     71  C   UNL A   1      46.788  31.999  26.708  1.00  0.00     0.020 A 
ATOM     72  C   UNL A   1      44.437  32.544  26.630  1.00  0.00     0.020 A 
ATOM     73  C   UNL A   1      45.764  32.932  26.543  1.00  0.00     0.054 A 
BRANCH  73  74
ATOM     74  S   UNL A   1      46.182  34.668  26.262  1.00  0.00     0.124 S 
ATOM     75  O   UNL A   1      45.077  35.352  26.925  1.00  0.00    -0.237 OA
ATOM     76  O   UNL A   1      47.483  34.778  26.915  1.00  0.00    -0.237 OA
ATOM     77  O   UNL A   1      46.209  34.781  24.806  1.00  0.00    -0.744 OA
ENDBRANCH  73  74
ENDBRANCH  54  68
BRANCH  55  78
ATOM     78  C   UNL A   1      37.877  31.230  31.456  1.00  0.00    -0.014 A 
ATOM     79  C   UNL A   1      36.694  30.869  32.134  1.00  0.00     0.010 A 
ATOM     80  C   UNL A   1      38.020  32.579  31.077  1.00  0.00     0.010 A 
ATOM     81  C   UNL A   1      35.730  31.835  32.485  1.00  0.00     0.020 A 
ATOM     82  C   UNL A   1      37.063  33.545  31.416  1.00  0.00     0.020 A 
ATOM     83  C   UNL A   1      35.934  33.174  32.143  1.00  0.00     0.054 A 
BRANCH  83  84
ATOM     84  S   UNL A   1      34.792  34.447  32.762  1.00  0.00     0.124 S 
ATOM     85  O   UNL A   1      34.531  35.243  31.567  1.00  0.00    -0.237 OA
ATOM     86  O   UNL A   1      33.666  33.656  33.253  1.00  0.00    -0.237 OA
ATOM     87  O   UNL A   1      35.564  35.126  33.802  1.00  0.00    -0.744 OA
ENDBRANCH  83  84
ENDBRANCH  55  78
BRANCH  67  88
ATOM     88  C   UNL A   1      43.237  28.522  33.434  1.00  0.00    -0.014 A 
ATOM     89  C   UNL A   1      42.411  27.390  33.580  1.00  0.00     0.010 A 
ATOM     90  C   UNL A   1      44.046  28.904  34.518  1.00  0.00     0.010 A 
ATOM     91  C   UNL A   1      42.363  26.693  34.799  1.00  0.00     0.020 A 
ATOM     92  C   UNL A   1      44.020  28.203  35.723  1.00  0.00     0.020 A 
ATOM     93  C   UNL A   1      43.164  27.112  35.866  1.00  0.00     0.054 A 
BRANCH  93  94
ATOM     94  S   UNL A   1      43.096  26.222  37.445  1.00  0.00     0.124 S 
ATOM     95  O   UNL A   1      43.587  24.895  37.084  1.00  0.00    -0.237 OA
ATOM     96  O   UNL A   1      43.979  27.011  38.302  1.00  0.00    -0.237 OA
ATOM     97  O   UNL A   1      41.682  26.275  37.815  1.00  0.00    -0.744 OA
ENDBRANCH  93  94
ENDBRANCH  67  88
ENDBRANCH  41  42
ENDBRANCH  34  36
ENDBRANCH  33  34
ENDBRANCH  32  33
ENDBRANCH   1  32
TORSDOF 18
ENDMDL
MODEL 3
REMARK VINA RESULT:     -11.5      2.842      7.342
REMARK SMILES COC(=O)c1ccc([C@H]2CC(=O)Nc3c(C(=O)OCCOC(=O)c4ccc(-c5c6nc(c(-c7ccc(S(=O)(=O)[O-])cc7)c7ccc([nH]7)c(-c7ccc(S(=O)(=O)[O-])cc7)c7nc(c(-c8ccc(S(=O)(=O)[O-])cc8)c8ccc5[nH]8)C=C7)C=C6)cc4)cn(-c4ccccc4)c32)cc1
REMARK SMILES IDX 19 1 18 2 16 3 17 4 15 5 9 6 10 7 92 8 11 9 14 10 85 11
REMARK SMILES IDX 12 12 13 13 84 14 8 16 5 17 6 18 94 19 7 20 93 21 3 22 4 23
REMARK SMILES IDX 2 24 1 25 86 26 87 27 91 28 88 29 90 30 89 31 20 32 21 33
REMARK SMILES IDX 22 34 23 35 24 36 25 37 83 38 26 39 82 40 27 41 28 42 29 43
REMARK SMILES IDX 76 44 30 45 81 46 75 47 77 48 31 49 80 50 74 51 73 52 32 54
REMARK SMILES IDX 62 55 43 56 61 57 44 58 47 59 60 60 78 61 45 62 46 63 59 65
REMARK SMILES IDX 79 66 48 67 33 68 34 69 42 70 35 71 41 72 36 73 37 74 38 75
REMARK SMILES IDX 39 76 40 77 63 78 64 79 72 80 65 81 71 82 66 83 67 84 68 85
REMARK SMILES IDX 69 86 70 87 49 88 50 89 58 90 51 91 57 92 52 93 53 94 54 95
REMARK SMILES IDX 55 96 56 97
REMARK H PARENT 13 15 77 53 47 64
REMARK Flexibility Score: inf
ROOT
ATOM      1  C   UNL A   1      33.292  29.620  25.997  1.00  0.00     0.275 C 
ENDROOT
BRANCH   1   2
ATOM      2  O   UNL A   1      33.228  28.853  27.210  1.00  0.00    -0.458 OA
BRANCH   2   3
ATOM      3  C   UNL A   1      32.268  27.882  27.254  1.00  0.00     0.341 C 
ATOM      4  O   UNL A   1      31.256  27.935  27.957  1.00  0.00    -0.246 OA
BRANCH   3   5
ATOM      5  C   UNL A   1      32.541  26.787  26.339  1.00  0.00     0.102 A 
ATOM      6  C   UNL A   1      31.759  24.307  23.674  1.00  0.00     0.078 C 
ATOM      7  C   UNL A   1      30.232  24.509  23.642  1.00  0.00     0.115 C 
ATOM      8  C   UNL A   1      32.370  25.177  24.741  1.00  0.00     0.055 A 
ATOM      9  C   UNL A   1      29.747  25.903  23.997  1.00  0.00     0.225 C 
ATOM     10  C   UNL A   1      31.708  26.217  25.351  1.00  0.00     0.078 A 
ATOM     11  N   UNL A   1      33.650  25.133  25.273  1.00  0.00    -0.317 N 
ATOM     12  O   UNL A   1      28.704  26.362  23.532  1.00  0.00    -0.275 OA
ATOM     13  N   UNL A   1      30.449  26.589  24.950  1.00  0.00    -0.324 N 
ATOM     14  C   UNL A   1      33.709  26.038  26.312  1.00  0.00     0.109 A 
ATOM     15  H   UNL A   1      30.035  27.379  25.365  1.00  0.00     0.170 HD
BRANCH   6  16
ATOM     16  C   UNL A   1      32.035  22.804  23.745  1.00  0.00    -0.038 A 
ATOM     17  C   UNL A   1      32.397  20.010  23.983  1.00  0.00     0.060 A 
ATOM     18  C   UNL A   1      32.338  20.814  25.125  1.00  0.00     0.016 A 
ATOM     19  C   UNL A   1      32.337  20.611  22.721  1.00  0.00     0.016 A 
ATOM     20  C   UNL A   1      32.153  22.195  25.007  1.00  0.00     0.005 A 
ATOM     21  C   UNL A   1      32.197  21.998  22.608  1.00  0.00     0.005 A 
BRANCH  17  22
ATOM     22  C   UNL A   1      32.503  18.536  24.158  1.00  0.00     0.337 C 
ATOM     23  O   UNL A   1      31.923  17.918  25.037  1.00  0.00    -0.246 OA
BRANCH  22  24
ATOM     24  O   UNL A   1      33.324  18.007  23.218  1.00  0.00    -0.465 OA
ATOM     25  C   UNL A   1      33.738  16.665  23.472  1.00  0.00     0.282 C 
ENDBRANCH  22  24
ENDBRANCH  17  22
ENDBRANCH   6  16
BRANCH  11  26
ATOM     26  C   UNL A   1      34.726  24.314  24.861  1.00  0.00     0.045 A 
ATOM     27  C   UNL A   1      34.919  24.061  23.500  1.00  0.00     0.026 A 
ATOM     28  C   UNL A   1      35.531  23.697  25.826  1.00  0.00     0.026 A 
ATOM     29  C   UNL A   1      35.898  23.151  23.103  1.00  0.00     0.002 A 
ATOM     30  C   UNL A   1      36.477  22.754  25.419  1.00  0.00     0.002 A 
ATOM     31  C   UNL A   1      36.657  22.481  24.062  1.00  0.00     0.000 A 
ENDBRANCH  11  26
ENDBRANCH   3   5
ENDBRANCH   2   3
ENDBRANCH   1   2
BRANCH   1  32
ATOM     32  C   UNL A   1      32.760  31.034  26.194  1.00  0.00     0.275 C 
BRANCH  32  33
ATOM     33  O   UNL A   1      32.606  31.360  27.575  1.00  0.00    -0.458 OA
BRANCH  33  34
ATOM     34  C   UNL A   1      32.868  32.650  27.887  1.00  0.00     0.338 C 
ATOM     35  O   UNL A   1      32.222  33.629  27.556  1.00  0.00    -0.246 OA
BRANCH  34  36
ATOM     36  C   UNL A   1      34.201  32.736  28.491  1.00  0.00     0.060 A 
ATOM     37  C   UNL A   1      35.202  33.400  27.774  1.00  0.00     0.016 A 
ATOM     38  C   UNL A   1      34.498  31.942  29.608  1.00  0.00     0.016 A 
ATOM     39  C   UNL A   1      36.521  33.159  28.105  1.00  0.00     0.010 A 
ATOM     40  C   UNL A   1      35.812  31.684  29.919  1.00  0.00     0.010 A 
ATOM     41  C   UNL A   1      36.812  32.249  29.130  1.00  0.00    -0.014 A 
BRANCH  41  42
ATOM     42  C   UNL A   1      38.197  32.048  29.513  1.00  0.00     0.031 A 
ATOM     43  C   UNL A   1      38.621  30.643  29.313  1.00  0.00     0.074 A 
ATOM     44  C   UNL A   1      39.028  33.054  29.852  1.00  0.00     0.049 A 
ATOM     45  N   UNL A   1      38.879  29.766  30.224  1.00  0.00    -0.248 NA
ATOM     46  C   UNL A   1      38.538  30.083  27.949  1.00  0.00     0.031 C 
ATOM     47  C   UNL A   1      38.758  34.494  29.804  1.00  0.00     0.029 A 
ATOM     48  N   UNL A   1      40.343  33.006  30.201  1.00  0.00    -0.354 N 
ATOM     49  C   UNL A   1      39.256  28.621  29.531  1.00  0.00     0.074 A 
ATOM     50  C   UNL A   1      38.795  28.797  28.180  1.00  0.00     0.031 C 
ATOM     51  C   UNL A   1      39.929  35.170  29.870  1.00  0.00     0.029 A 
ATOM     52  C   UNL A   1      41.011  34.224  30.095  1.00  0.00     0.049 A 
ATOM     53  H   UNL A   1      40.785  32.180  30.503  1.00  0.00     0.167 HD
ATOM     54  C   UNL A   1      40.204  27.785  30.035  1.00  0.00     0.031 A 
ATOM     55  C   UNL A   1      42.357  34.423  30.122  1.00  0.00     0.031 A 
ATOM     56  C   UNL A   1      40.415  28.016  31.442  1.00  0.00     0.049 A 
ATOM     57  C   UNL A   1      42.963  33.224  30.749  1.00  0.00     0.074 A 
ATOM     58  C   UNL A   1      39.616  27.987  32.568  1.00  0.00     0.029 A 
ATOM     59  N   UNL A   1      41.533  28.740  31.781  1.00  0.00    -0.354 N 
ATOM     60  N   UNL A   1      42.789  32.906  32.001  1.00  0.00    -0.248 NA
ATOM     61  C   UNL A   1      43.381  32.135  29.883  1.00  0.00     0.031 C 
ATOM     62  C   UNL A   1      40.083  29.060  33.381  1.00  0.00     0.029 A 
ATOM     63  C   UNL A   1      41.190  29.636  32.756  1.00  0.00     0.049 A 
ATOM     64  H   UNL A   1      42.429  28.631  31.389  1.00  0.00     0.167 HD
ATOM     65  C   UNL A   1      42.619  31.530  31.993  1.00  0.00     0.074 A 
ATOM     66  C   UNL A   1      43.099  31.100  30.679  1.00  0.00     0.031 C 
ATOM     67  C   UNL A   1      41.844  30.916  32.935  1.00  0.00     0.031 A 
BRANCH  54  68
ATOM     68  C   UNL A   1      41.261  27.136  29.166  1.00  0.00    -0.014 A 
ATOM     69  C   UNL A   1      42.220  27.964  28.547  1.00  0.00     0.010 A 
ATOM     70  C   UNL A   1      41.174  25.807  28.699  1.00  0.00     0.010 A 
ATOM     71  C   UNL A   1      42.984  27.508  27.465  1.00  0.00     0.020 A 
ATOM     72  C   UNL A   1      41.962  25.329  27.654  1.00  0.00     0.020 A 
ATOM     73  C   UNL A   1      42.840  26.194  27.021  1.00  0.00     0.054 A 
BRANCH  73  74
ATOM     74  S   UNL A   1      43.772  25.638  25.576  1.00  0.00     0.124 S 
ATOM     75  O   UNL A   1      44.683  26.757  25.359  1.00  0.00    -0.237 OA
ATOM     76  O   UNL A   1      44.384  24.405  26.064  1.00  0.00    -0.237 OA
ATOM     77  O   UNL A   1      42.744  25.456  24.555  1.00  0.00    -0.744 OA
ENDBRANCH  73  74
ENDBRANCH  54  68
BRANCH  55  78
ATOM     78  C   UNL A   1      43.173  35.408  29.360  1.00  0.00    -0.014 A 
ATOM     79  C   UNL A   1      43.057  35.521  27.959  1.00  0.00     0.010 A 
ATOM     80  C   UNL A   1      43.841  36.446  30.040  1.00  0.00     0.010 A 
ATOM     81  C   UNL A   1      43.525  36.660  27.277  1.00  0.00     0.020 A 
ATOM     82  C   UNL A   1      44.317  37.580  29.367  1.00  0.00     0.020 A 
ATOM     83  C   UNL A   1      44.132  37.696  27.991  1.00  0.00     0.054 A 
BRANCH  83  84
ATOM     84  S   UNL A   1      44.559  39.248  27.143  1.00  0.00     0.124 S 
ATOM     85  O   UNL A   1      45.763  38.880  26.404  1.00  0.00    -0.237 OA
ATOM     86  O   UNL A   1      43.372  39.506  26.331  1.00  0.00    -0.237 OA
ATOM     87  O   UNL A   1      44.770  40.192  28.239  1.00  0.00    -0.744 OA
ENDBRANCH  83  84
ENDBRANCH  55  78
BRANCH  67  88
ATOM     88  C   UNL A   1      41.488  31.687  34.185  1.00  0.00    -0.014 A 
ATOM     89  C   UNL A   1      40.333  32.477  34.342  1.00  0.00     0.010 A 
ATOM     90  C   UNL A   1      42.334  31.512  35.295  1.00  0.00     0.010 A 
ATOM     91  C   UNL A   1      40.063  33.115  35.565  1.00  0.00     0.020 A 
ATOM     92  C   UNL A   1      42.060  32.123  36.518  1.00  0.00     0.020 A 
ATOM     93  C   UNL A   1      40.937  32.938  36.643  1.00  0.00     0.054 A 
BRANCH  93  94
ATOM     94  S   UNL A   1      40.598  33.769  38.220  1.00  0.00     0.124 S 
ATOM     95  O   UNL A   1      40.082  35.066  37.792  1.00  0.00    -0.237 OA
ATOM     96  O   UNL A   1      39.626  32.881  38.854  1.00  0.00    -0.237 OA
ATOM     97  O   UNL A   1      41.904  33.813  38.878  1.00  0.00    -0.744 OA
ENDBRANCH  93  94
ENDBRANCH  67  88
ENDBRANCH  41  42
ENDBRANCH  34  36
ENDBRANCH  33  34
ENDBRANCH  32  33
ENDBRANCH   1  32
TORSDOF 18
ENDMDL
