MODEL 1
REMARK VINA RESULT:     -11.6      0.000      0.000
REMARK SMILES Cc1ccc(C)n1-c1ccccc1S[C@H](C)C(=O)OCCOC(=O)c1ccc(-c2c3nc(c(-c4ccc(S(=O)(=O)[O-])cc4)c4ccc([nH]4)c(-c4ccc(S(=O)(=O)[O-])cc4)c4nc(c(-c5ccc(S(=O)(=O)[O-])cc5)c5ccc2[nH]5)C=C4)C=C3)cc1
REMARK SMILES IDX 20 1 19 2 17 3 18 4 15 5 16 6 14 7 13 8 8 9 9 10 10 11 12 12
REMARK SMILES IDX 11 13 7 14 1 15 2 16 3 17 4 18 5 19 6 20 21 21 22 22 23 23
REMARK SMILES IDX 24 24 25 25 26 26 84 27 27 28 83 29 28 30 29 31 30 32 77 33
REMARK SMILES IDX 31 34 82 35 76 36 78 37 32 38 81 39 75 40 74 41 33 43 63 44
REMARK SMILES IDX 44 45 62 46 45 47 48 48 61 49 79 50 46 51 47 52 60 54 80 55
REMARK SMILES IDX 49 56 34 57 35 58 43 59 36 60 42 61 37 62 38 63 39 64 40 65
REMARK SMILES IDX 41 66 64 67 65 68 73 69 66 70 72 71 67 72 68 73 69 74 70 75
REMARK SMILES IDX 71 76 50 77 51 78 59 79 52 80 58 81 53 82 54 83 55 84 56 85
REMARK SMILES IDX 57 86
REMARK H PARENT 78 42 48 53
REMARK Flexibility Score: inf
ROOT
ATOM      1  C   UNL A   1      33.658  31.509  27.972  1.00  0.00     0.274 C 
ENDROOT
BRANCH   1   2
ATOM      2  O   UNL A   1      32.560  31.592  27.010  1.00  0.00    -0.461 OA
BRANCH   2   3
ATOM      3  C   UNL A   1      32.118  30.425  26.464  1.00  0.00     0.319 C 
ATOM      4  O   UNL A   1      31.398  30.386  25.460  1.00  0.00    -0.251 OA
BRANCH   3   5
ATOM      5  C   UNL A   1      32.558  29.168  27.212  1.00  0.00     0.158 C 
ATOM      6  C   UNL A   1      31.476  28.271  27.801  1.00  0.00     0.032 C 
BRANCH   5   7
ATOM      7  S   UNL A   1      33.922  28.163  26.417  1.00  0.00    -0.109 SA
BRANCH   7   8
ATOM      8  C   UNL A   1      33.524  27.724  24.716  1.00  0.00     0.032 A 
ATOM      9  C   UNL A   1      33.059  26.431  24.358  1.00  0.00     0.059 A 
ATOM     10  C   UNL A   1      32.947  26.024  23.010  1.00  0.00     0.028 A 
ATOM     11  C   UNL A   1      33.327  26.883  21.988  1.00  0.00     0.002 A 
ATOM     12  C   UNL A   1      33.929  28.538  23.651  1.00  0.00     0.017 A 
ATOM     13  C   UNL A   1      33.828  28.135  22.311  1.00  0.00     0.001 A 
BRANCH   9  14
ATOM     14  N   UNL A   1      32.817  25.418  25.327  1.00  0.00    -0.317 N 
ATOM     15  C   UNL A   1      30.306  25.775  25.563  1.00  0.00     0.065 C 
ATOM     16  C   UNL A   1      31.585  25.082  25.875  1.00  0.00     0.020 A 
ATOM     17  C   UNL A   1      31.773  23.999  26.715  1.00  0.00     0.023 A 
ATOM     18  C   UNL A   1      33.125  23.617  26.634  1.00  0.00     0.023 A 
ATOM     19  C   UNL A   1      33.753  24.477  25.753  1.00  0.00     0.020 A 
ATOM     20  C   UNL A   1      35.194  24.480  25.368  1.00  0.00     0.065 C 
ENDBRANCH   9  14
ENDBRANCH   7   8
ENDBRANCH   5   7
ENDBRANCH   3   5
ENDBRANCH   2   3
ENDBRANCH   1   2
BRANCH   1  21
ATOM     21  C   UNL A   1      34.600  32.754  27.971  1.00  0.00     0.275 C 
BRANCH  21  22
ATOM     22  O   UNL A   1      34.441  33.805  29.008  1.00  0.00    -0.458 OA
BRANCH  22  23
ATOM     23  C   UNL A   1      34.721  33.449  30.314  1.00  0.00     0.338 C 
ATOM     24  O   UNL A   1      34.033  33.854  31.244  1.00  0.00    -0.246 OA
BRANCH  23  25
ATOM     25  C   UNL A   1      35.875  32.429  30.547  1.00  0.00     0.060 A 
ATOM     26  C   UNL A   1      36.934  32.419  29.655  1.00  0.00     0.016 A 
ATOM     27  C   UNL A   1      35.890  31.316  31.425  1.00  0.00     0.016 A 
ATOM     28  C   UNL A   1      37.971  31.402  29.700  1.00  0.00     0.010 A 
ATOM     29  C   UNL A   1      36.932  30.221  31.409  1.00  0.00     0.010 A 
ATOM     30  C   UNL A   1      38.039  30.207  30.535  1.00  0.00    -0.014 A 
BRANCH  30  31
ATOM     31  C   UNL A   1      39.141  28.969  30.076  1.00  0.00     0.031 A 
ATOM     32  C   UNL A   1      39.973  28.875  31.302  1.00  0.00     0.074 A 
ATOM     33  C   UNL A   1      39.708  28.138  29.065  1.00  0.00     0.049 A 
ATOM     34  N   UNL A   1      40.592  29.956  31.666  1.00  0.00    -0.248 NA
ATOM     35  C   UNL A   1      39.845  27.861  32.346  1.00  0.00     0.031 C 
ATOM     36  C   UNL A   1      39.418  28.096  27.615  1.00  0.00     0.029 A 
ATOM     37  N   UNL A   1      40.750  27.100  29.085  1.00  0.00    -0.354 N 
ATOM     38  C   UNL A   1      41.139  29.722  32.894  1.00  0.00     0.074 A 
ATOM     39  C   UNL A   1      40.518  28.474  33.332  1.00  0.00     0.031 C 
ATOM     40  C   UNL A   1      40.064  27.070  26.968  1.00  0.00     0.029 A 
ATOM     41  C   UNL A   1      40.946  26.307  27.862  1.00  0.00     0.049 A 
ATOM     42  H   UNL A   1      41.295  26.942  29.889  1.00  0.00     0.167 HD
ATOM     43  C   UNL A   1      42.420  30.165  33.029  1.00  0.00     0.031 A 
ATOM     44  C   UNL A   1      41.806  25.222  27.546  1.00  0.00     0.031 A 
ATOM     45  C   UNL A   1      43.346  29.091  32.782  1.00  0.00     0.049 A 
ATOM     46  C   UNL A   1      43.015  25.453  28.350  1.00  0.00     0.074 A 
ATOM     47  C   UNL A   1      43.365  27.769  33.185  1.00  0.00     0.029 A 
ATOM     48  N   UNL A   1      44.105  29.173  31.629  1.00  0.00    -0.354 N 
ATOM     49  N   UNL A   1      43.876  26.366  28.017  1.00  0.00    -0.248 NA
ATOM     50  C   UNL A   1      43.426  24.579  29.443  1.00  0.00     0.031 C 
ATOM     51  C   UNL A   1      43.662  27.051  32.009  1.00  0.00     0.029 A 
ATOM     52  C   UNL A   1      44.202  27.919  31.065  1.00  0.00     0.049 A 
ATOM     53  H   UNL A   1      44.509  29.994  31.269  1.00  0.00     0.167 HD
ATOM     54  C   UNL A   1      44.586  26.540  29.165  1.00  0.00     0.074 A 
ATOM     55  C   UNL A   1      44.488  25.270  29.865  1.00  0.00     0.031 C 
ATOM     56  C   UNL A   1      44.588  27.797  29.679  1.00  0.00     0.031 A 
BRANCH  43  57
ATOM     57  C   UNL A   1      42.628  31.578  32.516  1.00  0.00    -0.014 A 
ATOM     58  C   UNL A   1      43.399  31.781  31.364  1.00  0.00     0.010 A 
ATOM     59  C   UNL A   1      42.175  32.719  33.224  1.00  0.00     0.010 A 
ATOM     60  C   UNL A   1      43.745  33.081  30.967  1.00  0.00     0.020 A 
ATOM     61  C   UNL A   1      42.547  34.013  32.856  1.00  0.00     0.020 A 
ATOM     62  C   UNL A   1      43.334  34.185  31.724  1.00  0.00     0.054 A 
BRANCH  62  63
ATOM     63  S   UNL A   1      43.894  35.839  31.236  1.00  0.00     0.124 S 
ATOM     64  O   UNL A   1      43.152  36.076  29.998  1.00  0.00    -0.237 OA
ATOM     65  O   UNL A   1      43.468  36.652  32.373  1.00  0.00    -0.237 OA
ATOM     66  O   UNL A   1      45.336  35.693  31.058  1.00  0.00    -0.744 OA
ENDBRANCH  62  63
ENDBRANCH  43  57
BRANCH  44  67
ATOM     67  C   UNL A   1      42.193  24.021  26.539  1.00  0.00    -0.014 A 
ATOM     68  C   UNL A   1      43.238  24.199  25.547  1.00  0.00     0.010 A 
ATOM     69  C   UNL A   1      41.938  22.662  26.809  1.00  0.00     0.010 A 
ATOM     70  C   UNL A   1      44.041  23.152  24.998  1.00  0.00     0.020 A 
ATOM     71  C   UNL A   1      42.722  21.592  26.234  1.00  0.00     0.020 A 
ATOM     72  C   UNL A   1      43.799  21.841  25.373  1.00  0.00     0.054 A 
BRANCH  72  73
ATOM     73  S   UNL A   1      44.977  20.516  24.860  1.00  0.00     0.124 S 
ATOM     74  O   UNL A   1      44.425  19.316  25.480  1.00  0.00    -0.237 OA
ATOM     75  O   UNL A   1      44.899  20.556  23.400  1.00  0.00    -0.237 OA
ATOM     76  O   UNL A   1      46.257  20.962  25.410  1.00  0.00    -0.744 OA
ENDBRANCH  72  73
ENDBRANCH  44  67
BRANCH  56  77
ATOM     77  C   UNL A   1      44.742  28.955  28.699  1.00  0.00    -0.014 A 
ATOM     78  C   UNL A   1      45.969  29.384  28.135  1.00  0.00     0.010 A 
ATOM     79  C   UNL A   1      43.600  29.710  28.383  1.00  0.00     0.010 A 
ATOM     80  C   UNL A   1      46.066  30.558  27.372  1.00  0.00     0.020 A 
ATOM     81  C   UNL A   1      43.680  30.857  27.578  1.00  0.00     0.020 A 
ATOM     82  C   UNL A   1      44.918  31.297  27.110  1.00  0.00     0.054 A 
BRANCH  82  83
ATOM     83  S   UNL A   1      45.066  32.855  26.191  1.00  0.00     0.124 S 
ATOM     84  O   UNL A   1      44.327  33.787  27.040  1.00  0.00    -0.237 OA
ATOM     85  O   UNL A   1      46.510  33.070  26.145  1.00  0.00    -0.237 OA
ATOM     86  O   UNL A   1      44.431  32.562  24.909  1.00  0.00    -0.744 OA
ENDBRANCH  82  83
ENDBRANCH  56  77
ENDBRANCH  30  31
ENDBRANCH  23  25
ENDBRANCH  22  23
ENDBRANCH  21  22
ENDBRANCH   1  21
TORSDOF 17
ENDMDL
MODEL 2
REMARK VINA RESULT:     -11.0      1.089      1.851
REMARK SMILES Cc1ccc(C)n1-c1ccccc1S[C@H](C)C(=O)OCCOC(=O)c1ccc(-c2c3nc(c(-c4ccc(S(=O)(=O)[O-])cc4)c4ccc([nH]4)c(-c4ccc(S(=O)(=O)[O-])cc4)c4nc(c(-c5ccc(S(=O)(=O)[O-])cc5)c5ccc2[nH]5)C=C4)C=C3)cc1
REMARK SMILES IDX 20 1 19 2 17 3 18 4 15 5 16 6 14 7 13 8 8 9 9 10 10 11 12 12
REMARK SMILES IDX 11 13 7 14 1 15 2 16 3 17 4 18 5 19 6 20 21 21 22 22 23 23
REMARK SMILES IDX 24 24 25 25 26 26 84 27 27 28 83 29 28 30 29 31 30 32 77 33
REMARK SMILES IDX 31 34 82 35 76 36 78 37 32 38 81 39 75 40 74 41 33 43 63 44
REMARK SMILES IDX 44 45 62 46 45 47 48 48 61 49 79 50 46 51 47 52 60 54 80 55
REMARK SMILES IDX 49 56 34 57 35 58 43 59 36 60 42 61 37 62 38 63 39 64 40 65
REMARK SMILES IDX 41 66 64 67 65 68 73 69 66 70 72 71 67 72 68 73 69 74 70 75
REMARK SMILES IDX 71 76 50 77 51 78 59 79 52 80 58 81 53 82 54 83 55 84 56 85
REMARK SMILES IDX 57 86
REMARK H PARENT 78 42 48 53
REMARK Flexibility Score: inf
ROOT
ATOM      1  C   UNL A   1      33.597  32.926  27.481  1.00  0.00     0.274 C 
ENDROOT
BRANCH   1   2
ATOM      2  O   UNL A   1      33.574  31.509  27.844  1.00  0.00    -0.461 OA
BRANCH   2   3
ATOM      3  C   UNL A   1      32.984  30.649  26.968  1.00  0.00     0.319 C 
ATOM      4  O   UNL A   1      31.867  30.852  26.479  1.00  0.00    -0.251 OA
BRANCH   3   5
ATOM      5  C   UNL A   1      33.803  29.397  26.660  1.00  0.00     0.158 C 
ATOM      6  C   UNL A   1      35.207  29.299  27.246  1.00  0.00     0.032 C 
BRANCH   5   7
ATOM      7  S   UNL A   1      32.898  27.762  26.775  1.00  0.00    -0.109 SA
BRANCH   7   8
ATOM      8  C   UNL A   1      33.500  26.580  25.557  1.00  0.00     0.032 A 
ATOM      9  C   UNL A   1      32.932  26.476  24.260  1.00  0.00     0.059 A 
ATOM     10  C   UNL A   1      33.259  25.417  23.385  1.00  0.00     0.028 A 
ATOM     11  C   UNL A   1      34.134  24.418  23.792  1.00  0.00     0.002 A 
ATOM     12  C   UNL A   1      34.346  25.529  25.935  1.00  0.00     0.017 A 
ATOM     13  C   UNL A   1      34.667  24.471  25.071  1.00  0.00     0.001 A 
BRANCH   9  14
ATOM     14  N   UNL A   1      31.894  27.341  23.815  1.00  0.00    -0.317 N 
ATOM     15  C   UNL A   1      29.929  25.993  24.714  1.00  0.00     0.065 C 
ATOM     16  C   UNL A   1      30.532  27.164  24.021  1.00  0.00     0.020 A 
ATOM     17  C   UNL A   1      29.875  28.264  23.499  1.00  0.00     0.023 A 
ATOM     18  C   UNL A   1      30.847  29.164  23.024  1.00  0.00     0.023 A 
ATOM     19  C   UNL A   1      32.089  28.600  23.251  1.00  0.00     0.020 A 
ATOM     20  C   UNL A   1      33.419  29.173  22.893  1.00  0.00     0.065 C 
ENDBRANCH   9  14
ENDBRANCH   7   8
ENDBRANCH   5   7
ENDBRANCH   3   5
ENDBRANCH   2   3
ENDBRANCH   1   2
BRANCH   1  21
ATOM     21  C   UNL A   1      33.716  33.893  28.700  1.00  0.00     0.275 C 
BRANCH  21  22
ATOM     22  O   UNL A   1      33.709  33.349  30.082  1.00  0.00    -0.458 OA
BRANCH  22  23
ATOM     23  C   UNL A   1      34.770  33.691  30.899  1.00  0.00     0.338 C 
ATOM     24  O   UNL A   1      34.768  34.736  31.537  1.00  0.00    -0.246 OA
BRANCH  23  25
ATOM     25  C   UNL A   1      35.915  32.647  31.059  1.00  0.00     0.060 A 
ATOM     26  C   UNL A   1      36.981  32.699  30.178  1.00  0.00     0.016 A 
ATOM     27  C   UNL A   1      35.915  31.469  31.847  1.00  0.00     0.016 A 
ATOM     28  C   UNL A   1      38.010  31.673  30.151  1.00  0.00     0.010 A 
ATOM     29  C   UNL A   1      36.950  30.370  31.753  1.00  0.00     0.010 A 
ATOM     30  C   UNL A   1      38.064  30.416  30.890  1.00  0.00    -0.014 A 
BRANCH  30  31
ATOM     31  C   UNL A   1      39.160  29.210  30.344  1.00  0.00     0.031 A 
ATOM     32  C   UNL A   1      39.924  28.950  31.590  1.00  0.00     0.074 A 
ATOM     33  C   UNL A   1      39.762  28.488  29.270  1.00  0.00     0.049 A 
ATOM     34  N   UNL A   1      40.546  29.962  32.110  1.00  0.00    -0.248 NA
ATOM     35  C   UNL A   1      39.717  27.824  32.498  1.00  0.00     0.031 C 
ATOM     36  C   UNL A   1      39.549  28.624  27.813  1.00  0.00     0.029 A 
ATOM     37  N   UNL A   1      40.778  27.425  29.220  1.00  0.00    -0.354 N 
ATOM     38  C   UNL A   1      41.022  29.570  33.327  1.00  0.00     0.074 A 
ATOM     39  C   UNL A   1      40.350  28.298  33.583  1.00  0.00     0.031 C 
ATOM     40  C   UNL A   1      40.206  27.663  27.082  1.00  0.00     0.029 A 
ATOM     41  C   UNL A   1      41.021  26.776  27.923  1.00  0.00     0.049 A 
ATOM     42  H   UNL A   1      41.276  27.159  30.026  1.00  0.00     0.167 HD
ATOM     43  C   UNL A   1      42.303  29.958  33.579  1.00  0.00     0.031 A 
ATOM     44  C   UNL A   1      41.872  25.711  27.525  1.00  0.00     0.031 A 
ATOM     45  C   UNL A   1      43.217  28.894  33.252  1.00  0.00     0.049 A 
ATOM     46  C   UNL A   1      43.042  25.812  28.410  1.00  0.00     0.074 A 
ATOM     47  C   UNL A   1      43.185  27.534  33.496  1.00  0.00     0.029 A 
ATOM     48  N   UNL A   1      44.038  29.089  32.157  1.00  0.00    -0.354 N 
ATOM     49  N   UNL A   1      43.940  26.733  28.231  1.00  0.00    -0.248 NA
ATOM     50  C   UNL A   1      43.374  24.804  29.411  1.00  0.00     0.031 C 
ATOM     51  C   UNL A   1      43.528  26.951  32.261  1.00  0.00     0.029 A 
ATOM     52  C   UNL A   1      44.137  27.908  31.455  1.00  0.00     0.049 A 
ATOM     53  H   UNL A   1      44.479  29.935  31.918  1.00  0.00     0.167 HD
ATOM     54  C   UNL A   1      44.591  26.751  29.426  1.00  0.00     0.074 A 
ATOM     55  C   UNL A   1      44.428  25.411  29.965  1.00  0.00     0.031 C 
ATOM     56  C   UNL A   1      44.593  27.938  30.085  1.00  0.00     0.031 A 
BRANCH  43  57
ATOM     57  C   UNL A   1      42.570  31.415  33.247  1.00  0.00    -0.014 A 
ATOM     58  C   UNL A   1      43.358  31.730  32.133  1.00  0.00     0.010 A 
ATOM     59  C   UNL A   1      42.155  32.475  34.092  1.00  0.00     0.010 A 
ATOM     60  C   UNL A   1      43.756  33.055  31.903  1.00  0.00     0.020 A 
ATOM     61  C   UNL A   1      42.580  33.790  33.891  1.00  0.00     0.020 A 
ATOM     62  C   UNL A   1      43.382  34.071  32.792  1.00  0.00     0.054 A 
BRANCH  62  63
ATOM     63  S   UNL A   1      44.009  35.750  32.518  1.00  0.00     0.124 S 
ATOM     64  O   UNL A   1      43.972  35.872  31.061  1.00  0.00    -0.237 OA
ATOM     65  O   UNL A   1      43.025  36.562  33.228  1.00  0.00    -0.237 OA
ATOM     66  O   UNL A   1      45.354  35.729  33.088  1.00  0.00    -0.744 OA
ENDBRANCH  62  63
ENDBRANCH  43  57
BRANCH  44  67
ATOM     67  C   UNL A   1      42.286  24.626  26.403  1.00  0.00    -0.014 A 
ATOM     68  C   UNL A   1      43.509  24.787  25.638  1.00  0.00     0.010 A 
ATOM     69  C   UNL A   1      41.819  23.297  26.392  1.00  0.00     0.010 A 
ATOM     70  C   UNL A   1      44.263  23.721  25.055  1.00  0.00     0.020 A 
ATOM     71  C   UNL A   1      42.556  22.216  25.776  1.00  0.00     0.020 A 
ATOM     72  C   UNL A   1      43.795  22.422  25.157  1.00  0.00     0.054 A 
BRANCH  72  73
ATOM     73  S   UNL A   1      44.874  21.023  24.622  1.00  0.00     0.124 S 
ATOM     74  O   UNL A   1      44.356  19.889  25.382  1.00  0.00    -0.237 OA
ATOM     75  O   UNL A   1      44.642  20.964  23.179  1.00  0.00    -0.237 OA
ATOM     76  O   UNL A   1      46.217  21.459  25.001  1.00  0.00    -0.744 OA
ENDBRANCH  72  73
ENDBRANCH  44  67
BRANCH  56  77
ATOM     77  C   UNL A   1      44.825  29.199  29.258  1.00  0.00    -0.014 A 
ATOM     78  C   UNL A   1      43.889  29.761  28.354  1.00  0.00     0.010 A 
ATOM     79  C   UNL A   1      46.085  29.815  29.332  1.00  0.00     0.010 A 
ATOM     80  C   UNL A   1      44.226  30.824  27.503  1.00  0.00     0.020 A 
ATOM     81  C   UNL A   1      46.414  30.911  28.520  1.00  0.00     0.020 A 
ATOM     82  C   UNL A   1      45.496  31.384  27.581  1.00  0.00     0.054 A 
BRANCH  82  83
ATOM     83  S   UNL A   1      45.948  32.705  26.421  1.00  0.00     0.124 S 
ATOM     84  O   UNL A   1      45.715  33.909  27.217  1.00  0.00    -0.237 OA
ATOM     85  O   UNL A   1      47.350  32.418  26.130  1.00  0.00    -0.237 OA
ATOM     86  O   UNL A   1      45.021  32.521  25.308  1.00  0.00    -0.744 OA
ENDBRANCH  82  83
ENDBRANCH  56  77
ENDBRANCH  30  31
ENDBRANCH  23  25
ENDBRANCH  22  23
ENDBRANCH  21  22
ENDBRANCH   1  21
TORSDOF 17
ENDMDL
MODEL 3
REMARK VINA RESULT:     -11.0      1.513      2.079
REMARK SMILES Cc1ccc(C)n1-c1ccccc1S[C@H](C)C(=O)OCCOC(=O)c1ccc(-c2c3nc(c(-c4ccc(S(=O)(=O)[O-])cc4)c4ccc([nH]4)c(-c4ccc(S(=O)(=O)[O-])cc4)c4nc(c(-c5ccc(S(=O)(=O)[O-])cc5)c5ccc2[nH]5)C=C4)C=C3)cc1
REMARK SMILES IDX 20 1 19 2 17 3 18 4 15 5 16 6 14 7 13 8 8 9 9 10 10 11 12 12
REMARK SMILES IDX 11 13 7 14 1 15 2 16 3 17 4 18 5 19 6 20 21 21 22 22 23 23
REMARK SMILES IDX 24 24 25 25 26 26 84 27 27 28 83 29 28 30 29 31 30 32 77 33
REMARK SMILES IDX 31 34 82 35 76 36 78 37 32 38 81 39 75 40 74 41 33 43 63 44
REMARK SMILES IDX 44 45 62 46 45 47 48 48 61 49 79 50 46 51 47 52 60 54 80 55
REMARK SMILES IDX 49 56 34 57 35 58 43 59 36 60 42 61 37 62 38 63 39 64 40 65
REMARK SMILES IDX 41 66 64 67 65 68 73 69 66 70 72 71 67 72 68 73 69 74 70 75
REMARK SMILES IDX 71 76 50 77 51 78 59 79 52 80 58 81 53 82 54 83 55 84 56 85
REMARK SMILES IDX 57 86
REMARK H PARENT 78 42 48 53
REMARK Flexibility Score: inf
ROOT
ATOM      1  C   UNL A   1      33.268  33.603  27.639  1.00  0.00     0.274 C 
ENDROOT
BRANCH   1   2
ATOM      2  O   UNL A   1      33.542  32.168  27.691  1.00  0.00    -0.461 OA
BRANCH   2   3
ATOM      3  C   UNL A   1      32.659  31.340  27.067  1.00  0.00     0.319 C 
ATOM      4  O   UNL A   1      31.494  31.670  26.817  1.00  0.00    -0.251 OA
BRANCH   3   5
ATOM      5  C   UNL A   1      33.215  29.958  26.728  1.00  0.00     0.158 C 
ATOM      6  C   UNL A   1      34.554  29.557  27.337  1.00  0.00     0.032 C 
BRANCH   5   7
ATOM      7  S   UNL A   1      31.995  28.539  26.762  1.00  0.00    -0.109 SA
BRANCH   7   8
ATOM      8  C   UNL A   1      31.274  28.240  25.139  1.00  0.00     0.032 A 
ATOM      9  C   UNL A   1      31.215  26.942  24.565  1.00  0.00     0.059 A 
ATOM     10  C   UNL A   1      30.844  26.738  23.218  1.00  0.00     0.028 A 
ATOM     11  C   UNL A   1      30.557  27.822  22.400  1.00  0.00     0.002 A 
ATOM     12  C   UNL A   1      31.011  29.302  24.263  1.00  0.00     0.017 A 
ATOM     13  C   UNL A   1      30.651  29.103  22.922  1.00  0.00     0.001 A 
BRANCH   9  14
ATOM     14  N   UNL A   1      31.663  25.785  25.261  1.00  0.00    -0.317 N 
ATOM     15  C   UNL A   1      34.130  25.966  24.654  1.00  0.00     0.065 C 
ATOM     16  C   UNL A   1      32.973  25.329  25.339  1.00  0.00     0.020 A 
ATOM     17  C   UNL A   1      32.990  24.224  26.170  1.00  0.00     0.023 A 
ATOM     18  C   UNL A   1      31.687  24.033  26.666  1.00  0.00     0.023 A 
ATOM     19  C   UNL A   1      30.883  25.019  26.125  1.00  0.00     0.020 A 
ATOM     20  C   UNL A   1      29.419  25.208  26.340  1.00  0.00     0.065 C 
ENDBRANCH   9  14
ENDBRANCH   7   8
ENDBRANCH   5   7
ENDBRANCH   3   5
ENDBRANCH   2   3
ENDBRANCH   1   2
BRANCH   1  21
ATOM     21  C   UNL A   1      33.354  34.318  29.024  1.00  0.00     0.275 C 
BRANCH  21  22
ATOM     22  O   UNL A   1      33.770  33.554  30.228  1.00  0.00    -0.458 OA
BRANCH  22  23
ATOM     23  C   UNL A   1      34.767  34.105  31.010  1.00  0.00     0.338 C 
ATOM     24  O   UNL A   1      34.560  35.098  31.698  1.00  0.00    -0.246 OA
BRANCH  23  25
ATOM     25  C   UNL A   1      36.130  33.354  31.066  1.00  0.00     0.060 A 
ATOM     26  C   UNL A   1      36.770  33.062  29.874  1.00  0.00     0.016 A 
ATOM     27  C   UNL A   1      36.716  32.694  32.176  1.00  0.00     0.016 A 
ATOM     28  C   UNL A   1      37.960  32.228  29.821  1.00  0.00     0.010 A 
ATOM     29  C   UNL A   1      37.906  31.765  32.096  1.00  0.00     0.010 A 
ATOM     30  C   UNL A   1      38.597  31.481  30.900  1.00  0.00    -0.014 A 
BRANCH  30  31
ATOM     31  C   UNL A   1      39.715  30.247  30.471  1.00  0.00     0.031 A 
ATOM     32  C   UNL A   1      40.717  30.396  31.555  1.00  0.00     0.074 A 
ATOM     33  C   UNL A   1      40.196  29.297  29.521  1.00  0.00     0.049 A 
ATOM     34  N   UNL A   1      41.296  31.553  31.655  1.00  0.00    -0.248 NA
ATOM     35  C   UNL A   1      40.817  29.556  32.747  1.00  0.00     0.031 C 
ATOM     36  C   UNL A   1      39.709  29.008  28.155  1.00  0.00     0.029 A 
ATOM     37  N   UNL A   1      41.308  28.333  29.538  1.00  0.00    -0.354 N 
ATOM     38  C   UNL A   1      42.028  31.549  32.806  1.00  0.00     0.074 A 
ATOM     39  C   UNL A   1      41.574  30.355  33.516  1.00  0.00     0.031 C 
ATOM     40  C   UNL A   1      40.334  27.928  27.579  1.00  0.00     0.029 A 
ATOM     41  C   UNL A   1      41.390  27.367  28.433  1.00  0.00     0.049 A 
ATOM     42  H   UNL A   1      41.972  28.336  30.264  1.00  0.00     0.167 HD
ATOM     43  C   UNL A   1      43.277  32.076  32.677  1.00  0.00     0.031 A 
ATOM     44  C   UNL A   1      42.277  26.294  28.157  1.00  0.00     0.031 A 
ATOM     45  C   UNL A   1      44.240  31.029  32.456  1.00  0.00     0.049 A 
ATOM     46  C   UNL A   1      43.567  26.716  28.723  1.00  0.00     0.074 A 
ATOM     47  C   UNL A   1      44.418  29.792  33.045  1.00  0.00     0.029 A 
ATOM     48  N   UNL A   1      44.818  30.966  31.202  1.00  0.00    -0.354 N 
ATOM     49  N   UNL A   1      44.299  27.609  28.130  1.00  0.00    -0.248 NA
ATOM     50  C   UNL A   1      44.195  26.052  29.860  1.00  0.00     0.031 C 
ATOM     51  C   UNL A   1      44.600  28.912  31.960  1.00  0.00     0.029 A 
ATOM     52  C   UNL A   1      44.932  29.646  30.825  1.00  0.00     0.049 A 
ATOM     53  H   UNL A   1      45.103  31.740  30.666  1.00  0.00     0.167 HD
ATOM     54  C   UNL A   1      45.148  28.003  29.118  1.00  0.00     0.074 A 
ATOM     55  C   UNL A   1      45.249  26.859  30.007  1.00  0.00     0.031 C 
ATOM     56  C   UNL A   1      45.125  29.325  29.431  1.00  0.00     0.031 A 
BRANCH  43  57
ATOM     57  C   UNL A   1      43.300  33.398  31.932  1.00  0.00    -0.014 A 
ATOM     58  C   UNL A   1      43.639  33.412  30.573  1.00  0.00     0.010 A 
ATOM     59  C   UNL A   1      43.112  34.643  32.584  1.00  0.00     0.010 A 
ATOM     60  C   UNL A   1      43.830  34.630  29.905  1.00  0.00     0.020 A 
ATOM     61  C   UNL A   1      43.339  35.859  31.936  1.00  0.00     0.020 A 
ATOM     62  C   UNL A   1      43.699  35.843  30.594  1.00  0.00     0.054 A 
BRANCH  62  63
ATOM     63  S   UNL A   1      44.062  37.390  29.721  1.00  0.00     0.124 S 
ATOM     64  O   UNL A   1      42.974  37.471  28.748  1.00  0.00    -0.237 OA
ATOM     65  O   UNL A   1      43.995  38.371  30.801  1.00  0.00    -0.237 OA
ATOM     66  O   UNL A   1      45.382  37.171  29.136  1.00  0.00    -0.744 OA
ENDBRANCH  62  63
ENDBRANCH  43  57
BRANCH  44  67
ATOM     67  C   UNL A   1      42.610  24.970  27.294  1.00  0.00    -0.014 A 
ATOM     68  C   UNL A   1      42.670  25.031  25.846  1.00  0.00     0.010 A 
ATOM     69  C   UNL A   1      43.293  23.852  27.812  1.00  0.00     0.010 A 
ATOM     70  C   UNL A   1      43.447  24.163  25.016  1.00  0.00     0.020 A 
ATOM     71  C   UNL A   1      44.054  22.948  26.979  1.00  0.00     0.020 A 
ATOM     72  C   UNL A   1      44.170  23.135  25.595  1.00  0.00     0.054 A 
BRANCH  72  73
ATOM     73  S   UNL A   1      45.358  22.166  24.566  1.00  0.00     0.124 S 
ATOM     74  O   UNL A   1      45.916  23.168  23.664  1.00  0.00    -0.237 OA
ATOM     75  O   UNL A   1      46.290  21.631  25.558  1.00  0.00    -0.237 OA
ATOM     76  O   UNL A   1      44.514  21.159  23.924  1.00  0.00    -0.744 OA
ENDBRANCH  72  73
ENDBRANCH  44  67
BRANCH  56  77
ATOM     77  C   UNL A   1      45.049  30.318  28.276  1.00  0.00    -0.014 A 
ATOM     78  C   UNL A   1      46.168  30.903  27.632  1.00  0.00     0.010 A 
ATOM     79  C   UNL A   1      43.780  30.752  27.861  1.00  0.00     0.010 A 
ATOM     80  C   UNL A   1      46.029  31.933  26.690  1.00  0.00     0.020 A 
ATOM     81  C   UNL A   1      43.629  31.747  26.882  1.00  0.00     0.020 A 
ATOM     82  C   UNL A   1      44.755  32.359  26.331  1.00  0.00     0.054 A 
BRANCH  82  83
ATOM     83  S   UNL A   1      44.587  33.746  25.172  1.00  0.00     0.124 S 
ATOM     84  O   UNL A   1      45.934  34.315  25.173  1.00  0.00    -0.237 OA
ATOM     85  O   UNL A   1      44.195  33.087  23.929  1.00  0.00    -0.237 OA
ATOM     86  O   UNL A   1      43.567  34.591  25.787  1.00  0.00    -0.744 OA
ENDBRANCH  82  83
ENDBRANCH  56  77
ENDBRANCH  30  31
ENDBRANCH  23  25
ENDBRANCH  22  23
ENDBRANCH  21  22
ENDBRANCH   1  21
TORSDOF 17
ENDMDL
