MODEL 1
REMARK VINA RESULT:     -10.0      0.000      0.000
REMARK SMILES Nc1c(Cl)ccc2c1C=C(C(=O)OCCOC(=O)c1ccc(-c3c4nc(c(-c5ccc(S(=O)(=O)[O-])cc5)c5ccc([nH]5)c(-c5ccc(S(=O)(=O)[O-])cc5)c5nc(c(-c6ccc(S(=O)(=O)[O-])cc6)c6ccc3[nH]6)C=C5)C=C4)cc1)[C@@H](C(F)(F)F)O2
REMARK SMILES IDX 15 1 14 2 13 3 11 4 12 5 10 6 2 7 3 8 8 9 4 10 5 11 7 12
REMARK SMILES IDX 9 13 6 14 84 15 79 16 1 17 80 20 81 21 82 22 83 23 16 24
REMARK SMILES IDX 17 25 18 26 19 27 20 28 78 29 21 30 77 31 22 32 23 33 24 34
REMARK SMILES IDX 71 35 25 36 76 37 70 38 72 39 26 40 75 41 69 42 68 43 27 45
REMARK SMILES IDX 57 46 38 47 56 48 39 49 42 50 55 51 73 52 40 53 41 54 54 56
REMARK SMILES IDX 74 57 43 58 28 59 29 60 37 61 30 62 36 63 31 64 32 65 33 66
REMARK SMILES IDX 34 67 35 68 58 69 59 70 67 71 60 72 66 73 61 74 62 75 63 76
REMARK SMILES IDX 64 77 65 78 44 79 45 80 53 81 46 82 52 83 47 84 48 85 49 86
REMARK SMILES IDX 50 87 51 88
REMARK H PARENT 1 18 1 19 72 44 42 55
REMARK Flexibility Score: inf
ROOT
ATOM      1  C   UNL A   1      33.280  33.906  27.964  1.00  0.00     0.275 C 
ENDROOT
BRANCH   1   2
ATOM      2  C   UNL A   1      33.447  34.627  29.303  1.00  0.00     0.275 C 
BRANCH   2   3
ATOM      3  O   UNL A   1      34.804  34.529  29.782  1.00  0.00    -0.459 OA
BRANCH   3   4
ATOM      4  C   UNL A   1      35.004  33.645  30.792  1.00  0.00     0.338 C 
ATOM      5  O   UNL A   1      34.370  32.627  30.998  1.00  0.00    -0.246 OA
BRANCH   4   6
ATOM      6  C   UNL A   1      36.146  34.075  31.624  1.00  0.00     0.088 C 
ATOM      7  C   UNL A   1      39.861  33.968  31.530  1.00  0.00     0.061 A 
ATOM      8  C   UNL A   1      40.907  34.142  32.458  1.00  0.00     0.064 A 
ATOM      9  C   UNL A   1      38.534  34.190  31.974  1.00  0.00     0.042 A 
ATOM     10  Cl  UNL A   1      42.546  33.800  32.016  1.00  0.00    -0.082 Cl
ATOM     11  C   UNL A   1      40.660  34.614  33.747  1.00  0.00     0.026 A 
ATOM     12  C   UNL A   1      38.296  34.688  33.262  1.00  0.00     0.130 A 
ATOM     13  C   UNL A   1      37.378  33.866  31.146  1.00  0.00     0.029 C 
ATOM     14  C   UNL A   1      39.357  34.908  34.139  1.00  0.00     0.049 A 
ATOM     15  O   UNL A   1      37.055  34.999  33.750  1.00  0.00    -0.475 OA
ATOM     16  C   UNL A   1      35.877  34.608  32.997  1.00  0.00     0.316 C 
BRANCH   7  17
ATOM     17  N   UNL A   1      40.134  33.491  30.240  1.00  0.00    -0.397 N 
ATOM     18  H   UNL A   1      39.948  34.058  29.456  1.00  0.00     0.156 HD
ATOM     19  H   UNL A   1      40.511  32.590  30.117  1.00  0.00     0.156 HD
ENDBRANCH   7  17
BRANCH  16  20
ATOM     20  C   UNL A   1      35.075  33.602  33.840  1.00  0.00     0.430 C 
ATOM     21  F   UNL A   1      35.211  33.852  35.165  1.00  0.00    -0.167 F 
ATOM     22  F   UNL A   1      33.748  33.668  33.574  1.00  0.00    -0.167 F 
ATOM     23  F   UNL A   1      35.467  32.326  33.628  1.00  0.00    -0.167 F 
ENDBRANCH  16  20
ENDBRANCH   4   6
ENDBRANCH   3   4
ENDBRANCH   2   3
ENDBRANCH   1   2
BRANCH   1  24
ATOM     24  O   UNL A   1      34.473  33.174  27.634  1.00  0.00    -0.458 OA
BRANCH  24  25
ATOM     25  C   UNL A   1      34.319  31.833  27.573  1.00  0.00     0.338 C 
ATOM     26  O   UNL A   1      33.337  31.218  27.186  1.00  0.00    -0.246 OA
BRANCH  25  27
ATOM     27  C   UNL A   1      35.551  31.157  27.997  1.00  0.00     0.060 A 
ATOM     28  C   UNL A   1      35.476  29.865  28.507  1.00  0.00     0.016 A 
ATOM     29  C   UNL A   1      36.745  31.873  28.070  1.00  0.00     0.016 A 
ATOM     30  C   UNL A   1      36.543  29.344  29.232  1.00  0.00     0.010 A 
ATOM     31  C   UNL A   1      37.858  31.291  28.683  1.00  0.00     0.010 A 
ATOM     32  C   UNL A   1      37.753  30.044  29.326  1.00  0.00    -0.014 A 
BRANCH  32  33
ATOM     33  C   UNL A   1      38.892  29.491  30.111  1.00  0.00     0.031 A 
ATOM     34  C   UNL A   1      39.104  29.905  31.547  1.00  0.00     0.074 A 
ATOM     35  C   UNL A   1      39.739  28.608  29.543  1.00  0.00     0.049 A 
ATOM     36  N   UNL A   1      40.118  29.652  32.335  1.00  0.00    -0.248 NA
ATOM     37  C   UNL A   1      38.048  30.716  32.177  1.00  0.00     0.031 C 
ATOM     38  C   UNL A   1      39.624  28.079  28.182  1.00  0.00     0.029 A 
ATOM     39  N   UNL A   1      40.858  27.989  30.042  1.00  0.00    -0.354 N 
ATOM     40  C   UNL A   1      39.850  30.317  33.528  1.00  0.00     0.074 A 
ATOM     41  C   UNL A   1      38.580  30.987  33.362  1.00  0.00     0.031 C 
ATOM     42  C   UNL A   1      40.599  27.183  27.972  1.00  0.00     0.029 A 
ATOM     43  C   UNL A   1      41.468  27.147  29.142  1.00  0.00     0.049 A 
ATOM     44  H   UNL A   1      41.193  28.136  30.957  1.00  0.00     0.167 HD
ATOM     45  C   UNL A   1      40.599  30.367  34.656  1.00  0.00     0.031 A 
ATOM     46  C   UNL A   1      42.620  26.455  29.217  1.00  0.00     0.031 A 
ATOM     47  C   UNL A   1      41.844  29.667  34.828  1.00  0.00     0.049 A 
ATOM     48  C   UNL A   1      43.460  26.562  30.453  1.00  0.00     0.074 A 
ATOM     49  C   UNL A   1      42.663  29.637  35.943  1.00  0.00     0.029 A 
ATOM     50  N   UNL A   1      42.447  28.870  33.866  1.00  0.00    -0.354 N 
ATOM     51  N   UNL A   1      43.216  27.239  31.549  1.00  0.00    -0.248 NA
ATOM     52  C   UNL A   1      44.735  25.835  30.460  1.00  0.00     0.031 C 
ATOM     53  C   UNL A   1      43.788  28.865  35.638  1.00  0.00     0.029 A 
ATOM     54  C   UNL A   1      43.640  28.365  34.353  1.00  0.00     0.049 A 
ATOM     55  H   UNL A   1      42.080  28.690  32.971  1.00  0.00     0.167 HD
ATOM     56  C   UNL A   1      44.305  27.014  32.382  1.00  0.00     0.074 A 
ATOM     57  C   UNL A   1      45.204  26.131  31.666  1.00  0.00     0.031 C 
ATOM     58  C   UNL A   1      44.531  27.496  33.628  1.00  0.00     0.031 A 
BRANCH  45  59
ATOM     59  C   UNL A   1      40.120  31.241  35.786  1.00  0.00    -0.014 A 
ATOM     60  C   UNL A   1      38.802  31.170  36.267  1.00  0.00     0.010 A 
ATOM     61  C   UNL A   1      41.033  32.105  36.421  1.00  0.00     0.010 A 
ATOM     62  C   UNL A   1      38.399  31.965  37.344  1.00  0.00     0.020 A 
ATOM     63  C   UNL A   1      40.642  32.883  37.513  1.00  0.00     0.020 A 
ATOM     64  C   UNL A   1      39.322  32.814  37.963  1.00  0.00     0.054 A 
BRANCH  64  65
ATOM     65  S   UNL A   1      38.770  33.825  39.365  1.00  0.00     0.124 S 
ATOM     66  O   UNL A   1      39.701  33.422  40.416  1.00  0.00    -0.237 OA
ATOM     67  O   UNL A   1      38.943  35.184  38.860  1.00  0.00    -0.237 OA
ATOM     68  O   UNL A   1      37.386  33.408  39.573  1.00  0.00    -0.744 OA
ENDBRANCH  64  65
ENDBRANCH  45  59
BRANCH  46  69
ATOM     69  C   UNL A   1      43.039  25.633  28.050  1.00  0.00    -0.014 A 
ATOM     70  C   UNL A   1      43.830  26.193  27.034  1.00  0.00     0.010 A 
ATOM     71  C   UNL A   1      42.748  24.255  28.015  1.00  0.00     0.010 A 
ATOM     72  C   UNL A   1      44.350  25.384  26.020  1.00  0.00     0.020 A 
ATOM     73  C   UNL A   1      43.286  23.440  27.018  1.00  0.00     0.020 A 
ATOM     74  C   UNL A   1      44.092  24.008  26.031  1.00  0.00     0.054 A 
BRANCH  74  75
ATOM     75  S   UNL A   1      44.872  22.968  24.765  1.00  0.00     0.124 S 
ATOM     76  O   UNL A   1      45.436  21.882  25.561  1.00  0.00    -0.237 OA
ATOM     77  O   UNL A   1      43.736  22.609  23.919  1.00  0.00    -0.237 OA
ATOM     78  O   UNL A   1      45.849  23.857  24.141  1.00  0.00    -0.744 OA
ENDBRANCH  74  75
ENDBRANCH  46  69
BRANCH  58  79
ATOM     79  C   UNL A   1      45.795  27.076  34.322  1.00  0.00    -0.014 A 
ATOM     80  C   UNL A   1      46.956  27.864  34.249  1.00  0.00     0.010 A 
ATOM     81  C   UNL A   1      45.786  25.938  35.149  1.00  0.00     0.010 A 
ATOM     82  C   UNL A   1      48.087  27.520  34.991  1.00  0.00     0.020 A 
ATOM     83  C   UNL A   1      46.907  25.602  35.910  1.00  0.00     0.020 A 
ATOM     84  C   UNL A   1      48.052  26.398  35.825  1.00  0.00     0.054 A 
BRANCH  84  85
ATOM     85  S   UNL A   1      49.516  26.014  36.823  1.00  0.00     0.124 S 
ATOM     86  O   UNL A   1      49.952  24.741  36.254  1.00  0.00    -0.237 OA
ATOM     87  O   UNL A   1      50.388  27.154  36.553  1.00  0.00    -0.237 OA
ATOM     88  O   UNL A   1      49.000  25.937  38.188  1.00  0.00    -0.744 OA
ENDBRANCH  84  85
ENDBRANCH  58  79
ENDBRANCH  32  33
ENDBRANCH  25  27
ENDBRANCH  24  25
ENDBRANCH   1  24
TORSDOF 16
ENDMDL
MODEL 2
REMARK VINA RESULT:      -9.9      5.670      8.051
REMARK SMILES Nc1c(Cl)ccc2c1C=C(C(=O)OCCOC(=O)c1ccc(-c3c4nc(c(-c5ccc(S(=O)(=O)[O-])cc5)c5ccc([nH]5)c(-c5ccc(S(=O)(=O)[O-])cc5)c5nc(c(-c6ccc(S(=O)(=O)[O-])cc6)c6ccc3[nH]6)C=C5)C=C4)cc1)[C@@H](C(F)(F)F)O2
REMARK SMILES IDX 15 1 14 2 13 3 11 4 12 5 10 6 2 7 3 8 8 9 4 10 5 11 7 12
REMARK SMILES IDX 9 13 6 14 84 15 79 16 1 17 80 20 81 21 82 22 83 23 16 24
REMARK SMILES IDX 17 25 18 26 19 27 20 28 78 29 21 30 77 31 22 32 23 33 24 34
REMARK SMILES IDX 71 35 25 36 76 37 70 38 72 39 26 40 75 41 69 42 68 43 27 45
REMARK SMILES IDX 57 46 38 47 56 48 39 49 42 50 55 51 73 52 40 53 41 54 54 56
REMARK SMILES IDX 74 57 43 58 28 59 29 60 37 61 30 62 36 63 31 64 32 65 33 66
REMARK SMILES IDX 34 67 35 68 58 69 59 70 67 71 60 72 66 73 61 74 62 75 63 76
REMARK SMILES IDX 64 77 65 78 44 79 45 80 53 81 46 82 52 83 47 84 48 85 49 86
REMARK SMILES IDX 50 87 51 88
REMARK H PARENT 1 18 1 19 72 44 42 55
REMARK Flexibility Score: inf
ROOT
ATOM      1  C   UNL A   1      33.500  28.691  25.871  1.00  0.00     0.275 C 
ENDROOT
BRANCH   1   2
ATOM      2  C   UNL A   1      33.923  27.415  25.143  1.00  0.00     0.275 C 
BRANCH   2   3
ATOM      3  O   UNL A   1      32.942  26.370  25.310  1.00  0.00    -0.459 OA
BRANCH   3   4
ATOM      4  C   UNL A   1      32.456  25.837  24.162  1.00  0.00     0.338 C 
ATOM      5  O   UNL A   1      32.985  24.977  23.481  1.00  0.00    -0.246 OA
BRANCH   4   6
ATOM      6  C   UNL A   1      31.143  26.432  23.842  1.00  0.00     0.088 C 
ATOM      7  C   UNL A   1      29.786  29.484  22.210  1.00  0.00     0.061 A 
ATOM      8  C   UNL A   1      28.543  30.145  22.163  1.00  0.00     0.064 A 
ATOM      9  C   UNL A   1      29.859  28.251  22.905  1.00  0.00     0.042 A 
ATOM     10  Cl  UNL A   1      28.395  31.699  21.412  1.00  0.00    -0.082 Cl
ATOM     11  C   UNL A   1      27.393  29.563  22.696  1.00  0.00     0.026 A 
ATOM     12  C   UNL A   1      28.695  27.661  23.416  1.00  0.00     0.130 A 
ATOM     13  C   UNL A   1      31.130  27.583  23.160  1.00  0.00     0.029 C 
ATOM     14  C   UNL A   1      27.467  28.311  23.302  1.00  0.00     0.049 A 
ATOM     15  O   UNL A   1      28.659  26.442  24.037  1.00  0.00    -0.475 OA
ATOM     16  C   UNL A   1      29.907  25.789  24.392  1.00  0.00     0.316 C 
BRANCH   7  17
ATOM     17  N   UNL A   1      30.928  30.091  21.667  1.00  0.00    -0.397 N 
ATOM     18  H   UNL A   1      31.328  30.872  22.113  1.00  0.00     0.156 HD
ATOM     19  H   UNL A   1      31.330  29.736  20.842  1.00  0.00     0.156 HD
ENDBRANCH   7  17
BRANCH  16  20
ATOM     20  C   UNL A   1      29.973  25.671  25.924  1.00  0.00     0.430 C 
ATOM     21  F   UNL A   1      30.753  24.629  26.304  1.00  0.00    -0.167 F 
ATOM     22  F   UNL A   1      30.514  26.777  26.491  1.00  0.00    -0.167 F 
ATOM     23  F   UNL A   1      28.755  25.487  26.479  1.00  0.00    -0.167 F 
ENDBRANCH  16  20
ENDBRANCH   4   6
ENDBRANCH   3   4
ENDBRANCH   2   3
ENDBRANCH   1   2
BRANCH   1  24
ATOM     24  O   UNL A   1      33.965  28.674  27.232  1.00  0.00    -0.458 OA
BRANCH  24  25
ATOM     25  C   UNL A   1      34.311  29.881  27.730  1.00  0.00     0.338 C 
ATOM     26  O   UNL A   1      33.584  30.847  27.902  1.00  0.00    -0.246 OA
BRANCH  25  27
ATOM     27  C   UNL A   1      35.728  29.887  28.114  1.00  0.00     0.060 A 
ATOM     28  C   UNL A   1      36.692  30.163  27.148  1.00  0.00     0.016 A 
ATOM     29  C   UNL A   1      36.108  29.431  29.375  1.00  0.00     0.016 A 
ATOM     30  C   UNL A   1      38.023  29.835  27.385  1.00  0.00     0.010 A 
ATOM     31  C   UNL A   1      37.463  29.229  29.653  1.00  0.00     0.010 A 
ATOM     32  C   UNL A   1      38.431  29.369  28.643  1.00  0.00    -0.014 A 
BRANCH  32  33
ATOM     33  C   UNL A   1      39.855  29.007  28.893  1.00  0.00     0.031 A 
ATOM     34  C   UNL A   1      40.803  30.011  29.502  1.00  0.00     0.074 A 
ATOM     35  C   UNL A   1      40.303  27.774  28.581  1.00  0.00     0.049 A 
ATOM     36  N   UNL A   1      42.101  29.932  29.650  1.00  0.00    -0.248 NA
ATOM     37  C   UNL A   1      40.222  31.270  30.001  1.00  0.00     0.031 C 
ATOM     38  C   UNL A   1      39.487  26.688  28.035  1.00  0.00     0.029 A 
ATOM     39  N   UNL A   1      41.556  27.221  28.689  1.00  0.00    -0.354 N 
ATOM     40  C   UNL A   1      42.498  31.146  30.203  1.00  0.00     0.074 A 
ATOM     41  C   UNL A   1      41.305  31.947  30.362  1.00  0.00     0.031 C 
ATOM     42  C   UNL A   1      40.243  25.589  27.902  1.00  0.00     0.029 A 
ATOM     43  C   UNL A   1      41.620  25.918  28.255  1.00  0.00     0.049 A 
ATOM     44  H   UNL A   1      42.333  27.712  29.041  1.00  0.00     0.167 HD
ATOM     45  C   UNL A   1      43.744  31.556  30.540  1.00  0.00     0.031 A 
ATOM     46  C   UNL A   1      42.666  25.084  28.107  1.00  0.00     0.031 A 
ATOM     47  C   UNL A   1      44.922  30.740  30.413  1.00  0.00     0.049 A 
ATOM     48  C   UNL A   1      44.043  25.571  28.438  1.00  0.00     0.074 A 
ATOM     49  C   UNL A   1      46.226  31.059  30.752  1.00  0.00     0.029 A 
ATOM     50  N   UNL A   1      44.942  29.445  29.918  1.00  0.00    -0.354 N 
ATOM     51  N   UNL A   1      44.404  26.741  28.907  1.00  0.00    -0.248 NA
ATOM     52  C   UNL A   1      45.155  24.643  28.202  1.00  0.00     0.031 C 
ATOM     53  C   UNL A   1      47.042  29.976  30.411  1.00  0.00     0.029 A 
ATOM     54  C   UNL A   1      46.239  28.961  29.916  1.00  0.00     0.049 A 
ATOM     55  H   UNL A   1      44.151  28.945  29.613  1.00  0.00     0.167 HD
ATOM     56  C   UNL A   1      45.786  26.688  29.032  1.00  0.00     0.074 A 
ATOM     57  C   UNL A   1      46.195  25.367  28.596  1.00  0.00     0.031 C 
ATOM     58  C   UNL A   1      46.634  27.648  29.471  1.00  0.00     0.031 A 
BRANCH  45  59
ATOM     59  C   UNL A   1      43.914  32.966  31.041  1.00  0.00    -0.014 A 
ATOM     60  C   UNL A   1      44.202  34.031  30.171  1.00  0.00     0.010 A 
ATOM     61  C   UNL A   1      43.714  33.238  32.409  1.00  0.00     0.010 A 
ATOM     62  C   UNL A   1      44.315  35.335  30.661  1.00  0.00     0.020 A 
ATOM     63  C   UNL A   1      43.801  34.543  32.900  1.00  0.00     0.020 A 
ATOM     64  C   UNL A   1      44.110  35.584  32.022  1.00  0.00     0.054 A 
BRANCH  64  65
ATOM     65  S   UNL A   1      44.253  37.289  32.625  1.00  0.00     0.124 S 
ATOM     66  O   UNL A   1      45.663  37.363  33.001  1.00  0.00    -0.237 OA
ATOM     67  O   UNL A   1      43.874  38.071  31.452  1.00  0.00    -0.237 OA
ATOM     68  O   UNL A   1      43.313  37.345  33.742  1.00  0.00    -0.744 OA
ENDBRANCH  64  65
ENDBRANCH  45  59
BRANCH  46  69
ATOM     69  C   UNL A   1      42.420  23.714  27.583  1.00  0.00    -0.014 A 
ATOM     70  C   UNL A   1      42.504  23.454  26.206  1.00  0.00     0.010 A 
ATOM     71  C   UNL A   1      42.223  22.641  28.474  1.00  0.00     0.010 A 
ATOM     72  C   UNL A   1      42.426  22.142  25.730  1.00  0.00     0.020 A 
ATOM     73  C   UNL A   1      42.171  21.326  28.004  1.00  0.00     0.020 A 
ATOM     74  C   UNL A   1      42.282  21.085  26.635  1.00  0.00     0.054 A 
BRANCH  74  75
ATOM     75  S   UNL A   1      42.296  19.387  25.997  1.00  0.00     0.124 S 
ATOM     76  O   UNL A   1      40.898  19.184  25.626  1.00  0.00    -0.237 OA
ATOM     77  O   UNL A   1      43.238  19.484  24.884  1.00  0.00    -0.237 OA
ATOM     78  O   UNL A   1      42.762  18.594  27.133  1.00  0.00    -0.744 OA
ENDBRANCH  74  75
ENDBRANCH  46  69
BRANCH  58  79
ATOM     79  C   UNL A   1      48.099  27.319  29.524  1.00  0.00    -0.014 A 
ATOM     80  C   UNL A   1      48.981  27.793  28.538  1.00  0.00     0.010 A 
ATOM     81  C   UNL A   1      48.613  26.625  30.634  1.00  0.00     0.010 A 
ATOM     82  C   UNL A   1      50.355  27.575  28.661  1.00  0.00     0.020 A 
ATOM     83  C   UNL A   1      49.988  26.424  30.772  1.00  0.00     0.020 A 
ATOM     84  C   UNL A   1      50.850  26.902  29.783  1.00  0.00     0.054 A 
BRANCH  84  85
ATOM     85  S   UNL A   1      52.644  26.689  29.944  1.00  0.00     0.124 S 
ATOM     86  O   UNL A   1      52.985  25.996  28.704  1.00  0.00    -0.237 OA
ATOM     87  O   UNL A   1      53.115  28.069  30.043  1.00  0.00    -0.237 OA
ATOM     88  O   UNL A   1      52.795  25.894  31.160  1.00  0.00    -0.744 OA
ENDBRANCH  84  85
ENDBRANCH  58  79
ENDBRANCH  32  33
ENDBRANCH  25  27
ENDBRANCH  24  25
ENDBRANCH   1  24
TORSDOF 16
ENDMDL
MODEL 3
REMARK VINA RESULT:      -9.8      5.211      7.584
REMARK SMILES Nc1c(Cl)ccc2c1C=C(C(=O)OCCOC(=O)c1ccc(-c3c4nc(c(-c5ccc(S(=O)(=O)[O-])cc5)c5ccc([nH]5)c(-c5ccc(S(=O)(=O)[O-])cc5)c5nc(c(-c6ccc(S(=O)(=O)[O-])cc6)c6ccc3[nH]6)C=C5)C=C4)cc1)[C@@H](C(F)(F)F)O2
REMARK SMILES IDX 15 1 14 2 13 3 11 4 12 5 10 6 2 7 3 8 8 9 4 10 5 11 7 12
REMARK SMILES IDX 9 13 6 14 84 15 79 16 1 17 80 20 81 21 82 22 83 23 16 24
REMARK SMILES IDX 17 25 18 26 19 27 20 28 78 29 21 30 77 31 22 32 23 33 24 34
REMARK SMILES IDX 71 35 25 36 76 37 70 38 72 39 26 40 75 41 69 42 68 43 27 45
REMARK SMILES IDX 57 46 38 47 56 48 39 49 42 50 55 51 73 52 40 53 41 54 54 56
REMARK SMILES IDX 74 57 43 58 28 59 29 60 37 61 30 62 36 63 31 64 32 65 33 66
REMARK SMILES IDX 34 67 35 68 58 69 59 70 67 71 60 72 66 73 61 74 62 75 63 76
REMARK SMILES IDX 64 77 65 78 44 79 45 80 53 81 46 82 52 83 47 84 48 85 49 86
REMARK SMILES IDX 50 87 51 88
REMARK H PARENT 1 18 1 19 72 44 42 55
REMARK Flexibility Score: inf
ROOT
ATOM      1  C   UNL A   1      33.000  29.287  25.614  1.00  0.00     0.275 C 
ENDROOT
BRANCH   1   2
ATOM      2  C   UNL A   1      31.885  28.244  25.701  1.00  0.00     0.275 C 
BRANCH   2   3
ATOM      3  O   UNL A   1      32.419  26.934  25.990  1.00  0.00    -0.459 OA
BRANCH   3   4
ATOM      4  C   UNL A   1      31.835  25.907  25.324  1.00  0.00     0.338 C 
ATOM      5  O   UNL A   1      30.641  25.689  25.233  1.00  0.00    -0.246 OA
BRANCH   4   6
ATOM      6  C   UNL A   1      32.865  25.073  24.675  1.00  0.00     0.088 C 
ATOM      7  C   UNL A   1      35.871  23.105  25.632  1.00  0.00     0.061 A 
ATOM      8  C   UNL A   1      36.979  22.548  24.962  1.00  0.00     0.064 A 
ATOM      9  C   UNL A   1      34.865  23.728  24.853  1.00  0.00     0.042 A 
ATOM     10  Cl  UNL A   1      38.292  21.852  25.851  1.00  0.00    -0.082 Cl
ATOM     11  C   UNL A   1      37.041  22.519  23.569  1.00  0.00     0.026 A 
ATOM     12  C   UNL A   1      34.923  23.673  23.454  1.00  0.00     0.130 A 
ATOM     13  C   UNL A   1      33.776  24.485  25.459  1.00  0.00     0.029 C 
ATOM     14  C   UNL A   1      36.002  23.061  22.817  1.00  0.00     0.049 A 
ATOM     15  O   UNL A   1      33.962  24.183  22.623  1.00  0.00    -0.475 OA
ATOM     16  C   UNL A   1      32.914  25.020  23.179  1.00  0.00     0.316 C 
BRANCH   7  17
ATOM     17  N   UNL A   1      35.831  23.123  27.034  1.00  0.00    -0.397 N 
ATOM     18  H   UNL A   1      36.554  23.560  27.541  1.00  0.00     0.156 HD
ATOM     19  H   UNL A   1      35.082  22.699  27.511  1.00  0.00     0.156 HD
ENDBRANCH   7  17
BRANCH  16  20
ATOM     20  C   UNL A   1      33.047  26.428  22.575  1.00  0.00     0.430 C 
ATOM     21  F   UNL A   1      33.948  27.174  23.259  1.00  0.00    -0.167 F 
ATOM     22  F   UNL A   1      33.482  26.387  21.292  1.00  0.00    -0.167 F 
ATOM     23  F   UNL A   1      31.876  27.104  22.582  1.00  0.00    -0.167 F 
ENDBRANCH  16  20
ENDBRANCH   4   6
ENDBRANCH   3   4
ENDBRANCH   2   3
ENDBRANCH   1   2
BRANCH   1  24
ATOM     24  O   UNL A   1      34.021  29.017  26.590  1.00  0.00    -0.458 OA
BRANCH  24  25
ATOM     25  C   UNL A   1      34.242  30.016  27.473  1.00  0.00     0.338 C 
ATOM     26  O   UNL A   1      33.433  30.834  27.883  1.00  0.00    -0.246 OA
BRANCH  25  27
ATOM     27  C   UNL A   1      35.629  29.975  27.953  1.00  0.00     0.060 A 
ATOM     28  C   UNL A   1      36.665  30.210  27.054  1.00  0.00     0.016 A 
ATOM     29  C   UNL A   1      35.905  29.517  29.240  1.00  0.00     0.016 A 
ATOM     30  C   UNL A   1      37.965  29.837  27.384  1.00  0.00     0.010 A 
ATOM     31  C   UNL A   1      37.230  29.269  29.611  1.00  0.00     0.010 A 
ATOM     32  C   UNL A   1      38.269  29.367  28.669  1.00  0.00    -0.014 A 
BRANCH  32  33
ATOM     33  C   UNL A   1      39.659  28.957  29.018  1.00  0.00     0.031 A 
ATOM     34  C   UNL A   1      40.579  29.912  29.740  1.00  0.00     0.074 A 
ATOM     35  C   UNL A   1      40.101  27.725  28.695  1.00  0.00     0.049 A 
ATOM     36  N   UNL A   1      41.858  29.792  29.988  1.00  0.00    -0.248 NA
ATOM     37  C   UNL A   1      39.990  31.166  30.240  1.00  0.00     0.031 C 
ATOM     38  C   UNL A   1      39.305  26.682  28.043  1.00  0.00     0.029 A 
ATOM     39  N   UNL A   1      41.327  27.134  28.881  1.00  0.00    -0.354 N 
ATOM     40  C   UNL A   1      42.238  30.973  30.618  1.00  0.00     0.074 A 
ATOM     41  C   UNL A   1      41.055  31.800  30.713  1.00  0.00     0.031 C 
ATOM     42  C   UNL A   1      40.043  25.569  27.929  1.00  0.00     0.029 A 
ATOM     43  C   UNL A   1      41.394  25.847  28.403  1.00  0.00     0.049 A 
ATOM     44  H   UNL A   1      42.085  27.590  29.313  1.00  0.00     0.167 HD
ATOM     45  C   UNL A   1      43.462  31.336  31.070  1.00  0.00     0.031 A 
ATOM     46  C   UNL A   1      42.428  24.990  28.307  1.00  0.00     0.031 A 
ATOM     47  C   UNL A   1      44.626  30.493  31.006  1.00  0.00     0.049 A 
ATOM     48  C   UNL A   1      43.785  25.427  28.766  1.00  0.00     0.074 A 
ATOM     49  C   UNL A   1      45.906  30.764  31.461  1.00  0.00     0.029 A 
ATOM     50  N   UNL A   1      44.655  29.218  30.464  1.00  0.00    -0.354 N 
ATOM     51  N   UNL A   1      44.135  26.569  29.308  1.00  0.00    -0.248 NA
ATOM     52  C   UNL A   1      44.891  24.478  28.584  1.00  0.00     0.031 C 
ATOM     53  C   UNL A   1      46.720  29.673  31.144  1.00  0.00     0.029 A 
ATOM     54  C   UNL A   1      45.935  28.699  30.547  1.00  0.00     0.049 A 
ATOM     55  H   UNL A   1      43.880  28.751  30.077  1.00  0.00     0.167 HD
ATOM     56  C   UNL A   1      45.501  26.473  29.541  1.00  0.00     0.074 A 
ATOM     57  C   UNL A   1      45.912  25.159  29.088  1.00  0.00     0.031 C 
ATOM     58  C   UNL A   1      46.334  27.393  30.084  1.00  0.00     0.031 A 
BRANCH  45  59
ATOM     59  C   UNL A   1      43.625  32.722  31.638  1.00  0.00    -0.014 A 
ATOM     60  C   UNL A   1      43.739  33.851  30.811  1.00  0.00     0.010 A 
ATOM     61  C   UNL A   1      43.596  32.899  33.035  1.00  0.00     0.010 A 
ATOM     62  C   UNL A   1      43.849  35.128  31.369  1.00  0.00     0.020 A 
ATOM     63  C   UNL A   1      43.681  34.175  33.597  1.00  0.00     0.020 A 
ATOM     64  C   UNL A   1      43.816  35.283  32.758  1.00  0.00     0.054 A 
BRANCH  64  65
ATOM     65  S   UNL A   1      43.950  36.955  33.450  1.00  0.00     0.124 S 
ATOM     66  O   UNL A   1      45.072  36.813  34.376  1.00  0.00    -0.237 OA
ATOM     67  O   UNL A   1      44.213  37.766  32.265  1.00  0.00    -0.237 OA
ATOM     68  O   UNL A   1      42.653  37.176  34.084  1.00  0.00    -0.744 OA
ENDBRANCH  64  65
ENDBRANCH  45  59
BRANCH  46  69
ATOM     69  C   UNL A   1      42.193  23.648  27.711  1.00  0.00    -0.014 A 
ATOM     70  C   UNL A   1      42.459  23.417  26.352  1.00  0.00     0.010 A 
ATOM     71  C   UNL A   1      41.819  22.566  28.533  1.00  0.00     0.010 A 
ATOM     72  C   UNL A   1      42.385  22.122  25.830  1.00  0.00     0.020 A 
ATOM     73  C   UNL A   1      41.769  21.268  28.020  1.00  0.00     0.020 A 
ATOM     74  C   UNL A   1      42.062  21.053  26.673  1.00  0.00     0.054 A 
BRANCH  74  75
ATOM     75  S   UNL A   1      42.083  19.372  25.991  1.00  0.00     0.124 S 
ATOM     76  O   UNL A   1      42.645  18.597  27.094  1.00  0.00    -0.237 OA
ATOM     77  O   UNL A   1      40.669  19.137  25.708  1.00  0.00    -0.237 OA
ATOM     78  O   UNL A   1      42.937  19.489  24.811  1.00  0.00    -0.744 OA
ENDBRANCH  74  75
ENDBRANCH  46  69
BRANCH  58  79
ATOM     79  C   UNL A   1      47.781  27.023  30.241  1.00  0.00    -0.014 A 
ATOM     80  C   UNL A   1      48.738  27.431  29.296  1.00  0.00     0.010 A 
ATOM     81  C   UNL A   1      48.203  26.356  31.406  1.00  0.00     0.010 A 
ATOM     82  C   UNL A   1      50.093  27.177  29.514  1.00  0.00     0.020 A 
ATOM     83  C   UNL A   1      49.559  26.119  31.638  1.00  0.00     0.020 A 
ATOM     84  C   UNL A   1      50.496  26.533  30.689  1.00  0.00     0.054 A 
BRANCH  84  85
ATOM     85  S   UNL A   1      52.268  26.273  30.970  1.00  0.00     0.124 S 
ATOM     86  O   UNL A   1      52.280  25.034  31.745  1.00  0.00    -0.237 OA
ATOM     87  O   UNL A   1      52.790  26.168  29.610  1.00  0.00    -0.237 OA
ATOM     88  O   UNL A   1      52.685  27.466  31.704  1.00  0.00    -0.744 OA
ENDBRANCH  84  85
ENDBRANCH  58  79
ENDBRANCH  32  33
ENDBRANCH  25  27
ENDBRANCH  24  25
ENDBRANCH   1  24
TORSDOF 16
ENDMDL
