MODEL 1
REMARK VINA RESULT:     -12.0      0.000      0.000
REMARK SMILES NC(=O)c1c(-c2ccc(Cl)cc2)csc1NC(=O)[C@H]1[C@@H](C(=O)OCCOC(=O)c2ccc(-c3c4nc(c(-c5ccc(S(=O)(=O)[O-])cc5)c5ccc([nH]5)c(-c5ccc(S(=O)(=O)[O-])cc5)c5nc(c(-c6ccc(S(=O)(=O)[O-])cc6)c6ccc3[nH]6)C=C5)C=C4)cc2)[C@@H]2CC[C@H]1O2
REMARK SMILES IDX 24 1 23 2 21 3 22 4 20 5 19 6 92 7 89 8 91 9 93 10 90 11
REMARK SMILES IDX 17 12 16 13 18 15 15 16 4 17 5 18 13 19 14 20 2 21 1 22 3 25
REMARK SMILES IDX 6 26 7 27 12 28 8 29 11 30 9 31 10 32 25 33 26 34 27 35
REMARK SMILES IDX 28 36 29 37 30 38 88 39 31 40 87 41 32 42 33 43 34 44 81 45
REMARK SMILES IDX 35 46 86 47 80 48 82 49 36 50 85 51 79 52 78 53 37 55 67 56
REMARK SMILES IDX 48 57 66 58 49 59 52 60 65 61 83 62 50 63 51 64 64 66 84 67
REMARK SMILES IDX 53 68 38 69 39 70 47 71 40 72 46 73 41 74 42 75 43 76 44 77
REMARK SMILES IDX 45 78 68 79 69 80 77 81 70 82 76 83 71 84 72 85 73 86 74 87
REMARK SMILES IDX 75 88 54 89 55 90 63 91 56 92 62 93 57 94 58 95 59 96 60 97
REMARK SMILES IDX 61 98
REMARK H PARENT 16 14 1 23 1 24 82 54 52 65
REMARK Flexibility Score: inf
ROOT
ATOM      1  C   UNL A   1      31.729  31.627  26.513  1.00  0.00     0.274 C 
ENDROOT
BRANCH   1   2
ATOM      2  O   UNL A   1      31.820  30.166  26.751  1.00  0.00    -0.462 OA
BRANCH   2   3
ATOM      3  C   UNL A   1      32.455  29.294  25.849  1.00  0.00     0.312 C 
ATOM      4  O   UNL A   1      33.647  29.030  25.874  1.00  0.00    -0.252 OA
BRANCH   3   5
ATOM      5  C   UNL A   1      31.411  28.723  24.832  1.00  0.00     0.143 C 
ATOM      6  C   UNL A   1      30.647  27.611  25.506  1.00  0.00     0.124 C 
ATOM      7  C   UNL A   1      30.348  26.563  24.482  1.00  0.00     0.132 C 
ATOM      8  C   UNL A   1      31.729  27.952  23.515  1.00  0.00     0.133 C 
ATOM      9  C   UNL A   1      29.470  27.130  23.382  1.00  0.00     0.035 C 
ATOM     10  O   UNL A   1      31.634  26.533  23.856  1.00  0.00    -0.373 OA
ATOM     11  C   UNL A   1      30.507  27.922  22.569  1.00  0.00     0.036 C 
BRANCH   6  12
ATOM     12  C   UNL A   1      31.404  26.950  26.600  1.00  0.00     0.231 C 
ATOM     13  N   UNL A   1      32.448  26.070  26.566  1.00  0.00    -0.317 N 
ATOM     14  H   UNL A   1      32.880  26.191  27.442  1.00  0.00     0.170 HD
ATOM     15  O   UNL A   1      31.094  27.429  27.709  1.00  0.00    -0.274 OA
BRANCH  13  16
ATOM     16  C   UNL A   1      33.225  25.098  25.952  1.00  0.00     0.108 A 
ATOM     17  C   UNL A   1      33.034  23.707  26.068  1.00  0.00     0.082 A 
ATOM     18  C   UNL A   1      33.635  22.994  24.971  1.00  0.00     0.007 A 
ATOM     19  C   UNL A   1      34.454  23.816  24.235  1.00  0.00     0.076 A 
ATOM     20  S   UNL A   1      34.386  25.439  24.780  1.00  0.00    -0.125 S 
BRANCH  17  21
ATOM     21  C   UNL A   1      32.250  22.956  27.052  1.00  0.00     0.252 C 
ATOM     22  N   UNL A   1      30.917  22.854  26.765  1.00  0.00    -0.365 N 
ATOM     23  H   UNL A   1      30.319  22.364  27.375  1.00  0.00     0.159 HD
ATOM     24  H   UNL A   1      30.557  23.271  25.949  1.00  0.00     0.159 HD
ATOM     25  O   UNL A   1      32.675  22.559  28.132  1.00  0.00    -0.269 OA
ENDBRANCH  17  21
BRANCH  18  26
ATOM     26  C   UNL A   1      33.401  21.580  24.674  1.00  0.00    -0.017 A 
ATOM     27  C   UNL A   1      32.356  21.176  23.843  1.00  0.00     0.010 A 
ATOM     28  C   UNL A   1      34.335  20.620  25.110  1.00  0.00     0.010 A 
ATOM     29  C   UNL A   1      32.263  19.839  23.435  1.00  0.00     0.021 A 
ATOM     30  C   UNL A   1      34.254  19.291  24.690  1.00  0.00     0.021 A 
ATOM     31  C   UNL A   1      33.217  18.907  23.849  1.00  0.00     0.041 A 
ATOM     32  Cl  UNL A   1      33.126  17.281  23.294  1.00  0.00    -0.084 Cl
ENDBRANCH  18  26
ENDBRANCH  13  16
ENDBRANCH   6  12
ENDBRANCH   3   5
ENDBRANCH   2   3
ENDBRANCH   1   2
BRANCH   1  33
ATOM     33  C   UNL A   1      32.852  32.568  27.246  1.00  0.00     0.275 C 
BRANCH  33  34
ATOM     34  O   UNL A   1      32.318  33.829  27.877  1.00  0.00    -0.458 OA
BRANCH  34  35
ATOM     35  C   UNL A   1      32.999  34.802  28.596  1.00  0.00     0.338 C 
ATOM     36  O   UNL A   1      32.597  35.943  28.763  1.00  0.00    -0.246 OA
BRANCH  35  37
ATOM     37  C   UNL A   1      34.266  34.207  29.306  1.00  0.00     0.060 A 
ATOM     38  C   UNL A   1      34.141  33.366  30.431  1.00  0.00     0.016 A 
ATOM     39  C   UNL A   1      35.582  34.441  28.897  1.00  0.00     0.016 A 
ATOM     40  C   UNL A   1      35.219  32.640  31.002  1.00  0.00     0.010 A 
ATOM     41  C   UNL A   1      36.698  33.815  29.560  1.00  0.00     0.010 A 
ATOM     42  C   UNL A   1      36.536  32.883  30.611  1.00  0.00    -0.014 A 
BRANCH  42  43
ATOM     43  C   UNL A   1      37.661  32.442  31.536  1.00  0.00     0.031 A 
ATOM     44  C   UNL A   1      38.590  31.354  31.019  1.00  0.00     0.074 A 
ATOM     45  C   UNL A   1      37.999  32.999  32.726  1.00  0.00     0.049 A 
ATOM     46  N   UNL A   1      39.614  30.773  31.597  1.00  0.00    -0.248 NA
ATOM     47  C   UNL A   1      38.331  30.883  29.650  1.00  0.00     0.031 C 
ATOM     48  C   UNL A   1      37.363  34.153  33.351  1.00  0.00     0.029 A 
ATOM     49  N   UNL A   1      39.006  32.666  33.626  1.00  0.00    -0.354 N 
ATOM     50  C   UNL A   1      40.111  29.865  30.667  1.00  0.00     0.074 A 
ATOM     51  C   UNL A   1      39.278  29.975  29.489  1.00  0.00     0.031 C 
ATOM     52  C   UNL A   1      37.980  34.428  34.519  1.00  0.00     0.029 A 
ATOM     53  C   UNL A   1      39.044  33.449  34.763  1.00  0.00     0.049 A 
ATOM     54  H   UNL A   1      39.641  31.930  33.464  1.00  0.00     0.167 HD
ATOM     55  C   UNL A   1      41.151  29.000  30.762  1.00  0.00     0.031 A 
ATOM     56  C   UNL A   1      39.819  33.387  35.877  1.00  0.00     0.031 A 
ATOM     57  C   UNL A   1      41.994  28.828  31.912  1.00  0.00     0.049 A 
ATOM     58  C   UNL A   1      40.882  32.311  36.029  1.00  0.00     0.074 A 
ATOM     59  C   UNL A   1      43.028  27.922  32.088  1.00  0.00     0.029 A 
ATOM     60  N   UNL A   1      41.910  29.565  33.079  1.00  0.00    -0.354 N 
ATOM     61  N   UNL A   1      41.290  31.421  35.158  1.00  0.00    -0.248 NA
ATOM     62  C   UNL A   1      41.584  32.230  37.327  1.00  0.00     0.031 C 
ATOM     63  C   UNL A   1      43.533  28.075  33.383  1.00  0.00     0.029 A 
ATOM     64  C   UNL A   1      42.856  29.118  33.989  1.00  0.00     0.049 A 
ATOM     65  H   UNL A   1      41.272  30.298  33.241  1.00  0.00     0.167 HD
ATOM     66  C   UNL A   1      42.308  30.703  35.790  1.00  0.00     0.074 A 
ATOM     67  C   UNL A   1      42.466  31.263  37.111  1.00  0.00     0.031 C 
ATOM     68  C   UNL A   1      43.041  29.669  35.306  1.00  0.00     0.031 A 
BRANCH  55  69
ATOM     69  C   UNL A   1      41.385  28.096  29.583  1.00  0.00    -0.014 A 
ATOM     70  C   UNL A   1      40.673  26.893  29.430  1.00  0.00     0.010 A 
ATOM     71  C   UNL A   1      42.331  28.469  28.611  1.00  0.00     0.010 A 
ATOM     72  C   UNL A   1      40.939  26.056  28.344  1.00  0.00     0.020 A 
ATOM     73  C   UNL A   1      42.578  27.648  27.511  1.00  0.00     0.020 A 
ATOM     74  C   UNL A   1      41.894  26.436  27.395  1.00  0.00     0.054 A 
BRANCH  74  75
ATOM     75  S   UNL A   1      42.216  25.334  25.992  1.00  0.00     0.124 S 
ATOM     76  O   UNL A   1      41.377  24.183  26.316  1.00  0.00    -0.237 OA
ATOM     77  O   UNL A   1      41.776  26.130  24.850  1.00  0.00    -0.237 OA
ATOM     78  O   UNL A   1      43.655  25.094  26.063  1.00  0.00    -0.744 OA
ENDBRANCH  74  75
ENDBRANCH  55  69
BRANCH  56  79
ATOM     79  C   UNL A   1      39.610  34.338  37.021  1.00  0.00    -0.014 A 
ATOM     80  C   UNL A   1      40.169  35.632  37.007  1.00  0.00     0.010 A 
ATOM     81  C   UNL A   1      38.932  33.916  38.178  1.00  0.00     0.010 A 
ATOM     82  C   UNL A   1      40.065  36.472  38.125  1.00  0.00     0.020 A 
ATOM     83  C   UNL A   1      38.801  34.761  39.288  1.00  0.00     0.020 A 
ATOM     84  C   UNL A   1      39.377  36.032  39.259  1.00  0.00     0.054 A 
BRANCH  84  85
ATOM     85  S   UNL A   1      39.205  37.151  40.681  1.00  0.00     0.124 S 
ATOM     86  O   UNL A   1      40.595  37.482  40.981  1.00  0.00    -0.237 OA
ATOM     87  O   UNL A   1      38.400  38.238  40.132  1.00  0.00    -0.237 OA
ATOM     88  O   UNL A   1      38.527  36.328  41.681  1.00  0.00    -0.744 OA
ENDBRANCH  84  85
ENDBRANCH  56  79
BRANCH  68  89
ATOM     89  C   UNL A   1      44.127  29.077  36.174  1.00  0.00    -0.014 A 
ATOM     90  C   UNL A   1      43.915  27.904  36.921  1.00  0.00     0.010 A 
ATOM     91  C   UNL A   1      45.412  29.654  36.173  1.00  0.00     0.010 A 
ATOM     92  C   UNL A   1      44.958  27.335  37.666  1.00  0.00     0.020 A 
ATOM     93  C   UNL A   1      46.462  29.077  36.896  1.00  0.00     0.020 A 
ATOM     94  C   UNL A   1      46.225  27.925  37.649  1.00  0.00     0.054 A 
BRANCH  94  95
ATOM     95  S   UNL A   1      47.574  27.140  38.578  1.00  0.00     0.124 S 
ATOM     96  O   UNL A   1      48.722  27.376  37.708  1.00  0.00    -0.237 OA
ATOM     97  O   UNL A   1      47.576  27.884  39.835  1.00  0.00    -0.237 OA
ATOM     98  O   UNL A   1      47.154  25.744  38.689  1.00  0.00    -0.744 OA
ENDBRANCH  94  95
ENDBRANCH  68  89
ENDBRANCH  42  43
ENDBRANCH  35  37
ENDBRANCH  34  35
ENDBRANCH  33  34
ENDBRANCH   1  33
TORSDOF 18
ENDMDL
MODEL 2
REMARK VINA RESULT:     -11.9      6.212      8.463
REMARK SMILES NC(=O)c1c(-c2ccc(Cl)cc2)csc1NC(=O)[C@H]1[C@@H](C(=O)OCCOC(=O)c2ccc(-c3c4nc(c(-c5ccc(S(=O)(=O)[O-])cc5)c5ccc([nH]5)c(-c5ccc(S(=O)(=O)[O-])cc5)c5nc(c(-c6ccc(S(=O)(=O)[O-])cc6)c6ccc3[nH]6)C=C5)C=C4)cc2)[C@@H]2CC[C@H]1O2
REMARK SMILES IDX 24 1 23 2 21 3 22 4 20 5 19 6 92 7 89 8 91 9 93 10 90 11
REMARK SMILES IDX 17 12 16 13 18 15 15 16 4 17 5 18 13 19 14 20 2 21 1 22 3 25
REMARK SMILES IDX 6 26 7 27 12 28 8 29 11 30 9 31 10 32 25 33 26 34 27 35
REMARK SMILES IDX 28 36 29 37 30 38 88 39 31 40 87 41 32 42 33 43 34 44 81 45
REMARK SMILES IDX 35 46 86 47 80 48 82 49 36 50 85 51 79 52 78 53 37 55 67 56
REMARK SMILES IDX 48 57 66 58 49 59 52 60 65 61 83 62 50 63 51 64 64 66 84 67
REMARK SMILES IDX 53 68 38 69 39 70 47 71 40 72 46 73 41 74 42 75 43 76 44 77
REMARK SMILES IDX 45 78 68 79 69 80 77 81 70 82 76 83 71 84 72 85 73 86 74 87
REMARK SMILES IDX 75 88 54 89 55 90 63 91 56 92 62 93 57 94 58 95 59 96 60 97
REMARK SMILES IDX 61 98
REMARK H PARENT 16 14 1 23 1 24 82 54 52 65
REMARK Flexibility Score: inf
ROOT
ATOM      1  C   UNL A   1      33.555  30.595  27.220  1.00  0.00     0.274 C 
ENDROOT
BRANCH   1   2
ATOM      2  O   UNL A   1      32.627  30.036  26.207  1.00  0.00    -0.462 OA
BRANCH   2   3
ATOM      3  C   UNL A   1      33.001  28.999  25.335  1.00  0.00     0.312 C 
ATOM      4  O   UNL A   1      34.135  28.557  25.241  1.00  0.00    -0.252 OA
BRANCH   3   5
ATOM      5  C   UNL A   1      31.756  28.505  24.524  1.00  0.00     0.143 C 
ATOM      6  C   UNL A   1      30.900  27.658  25.433  1.00  0.00     0.124 C 
ATOM      7  C   UNL A   1      30.300  26.559  24.617  1.00  0.00     0.132 C 
ATOM      8  C   UNL A   1      31.769  27.519  23.318  1.00  0.00     0.133 C 
ATOM      9  C   UNL A   1      29.403  27.130  23.534  1.00  0.00     0.035 C 
ATOM     10  O   UNL A   1      31.473  26.203  23.881  1.00  0.00    -0.373 OA
ATOM     11  C   UNL A   1      30.453  27.595  22.511  1.00  0.00     0.036 C 
BRANCH   6  12
ATOM     12  C   UNL A   1      31.661  27.018  26.537  1.00  0.00     0.231 C 
ATOM     13  N   UNL A   1      32.674  26.102  26.517  1.00  0.00    -0.317 N 
ATOM     14  H   UNL A   1      33.131  26.244  27.377  1.00  0.00     0.170 HD
ATOM     15  O   UNL A   1      31.395  27.554  27.631  1.00  0.00    -0.274 OA
BRANCH  13  16
ATOM     16  C   UNL A   1      33.402  25.078  25.927  1.00  0.00     0.108 A 
ATOM     17  C   UNL A   1      33.106  23.705  26.025  1.00  0.00     0.082 A 
ATOM     18  C   UNL A   1      33.697  22.954  24.948  1.00  0.00     0.007 A 
ATOM     19  C   UNL A   1      34.603  23.717  24.251  1.00  0.00     0.076 A 
ATOM     20  S   UNL A   1      34.631  25.338  24.805  1.00  0.00    -0.125 S 
BRANCH  17  21
ATOM     21  C   UNL A   1      32.230  23.008  26.972  1.00  0.00     0.252 C 
ATOM     22  N   UNL A   1      30.897  23.074  26.675  1.00  0.00    -0.365 N 
ATOM     23  H   UNL A   1      30.240  22.632  27.259  1.00  0.00     0.159 HD
ATOM     24  H   UNL A   1      30.596  23.565  25.876  1.00  0.00     0.159 HD
ATOM     25  O   UNL A   1      32.595  22.519  28.036  1.00  0.00    -0.269 OA
ENDBRANCH  17  21
BRANCH  18  26
ATOM     26  C   UNL A   1      33.373  21.562  24.632  1.00  0.00    -0.017 A 
ATOM     27  C   UNL A   1      32.383  21.240  23.704  1.00  0.00     0.010 A 
ATOM     28  C   UNL A   1      34.175  20.530  25.159  1.00  0.00     0.010 A 
ATOM     29  C   UNL A   1      32.216  19.912  23.291  1.00  0.00     0.021 A 
ATOM     30  C   UNL A   1      34.021  19.210  24.735  1.00  0.00     0.021 A 
ATOM     31  C   UNL A   1      33.042  18.906  23.797  1.00  0.00     0.041 A 
ATOM     32  Cl  UNL A   1      32.867  17.288  23.239  1.00  0.00    -0.084 Cl
ENDBRANCH  18  26
ENDBRANCH  13  16
ENDBRANCH   6  12
ENDBRANCH   3   5
ENDBRANCH   2   3
ENDBRANCH   1   2
BRANCH   1  33
ATOM     33  C   UNL A   1      34.596  29.546  27.928  1.00  0.00     0.275 C 
BRANCH  33  34
ATOM     34  O   UNL A   1      35.826  30.175  28.532  1.00  0.00    -0.458 OA
BRANCH  34  35
ATOM     35  C   UNL A   1      36.521  29.810  29.678  1.00  0.00     0.338 C 
ATOM     36  O   UNL A   1      35.992  29.461  30.723  1.00  0.00    -0.246 OA
BRANCH  35  37
ATOM     37  C   UNL A   1      38.066  29.740  29.413  1.00  0.00     0.060 A 
ATOM     38  C   UNL A   1      38.572  29.568  28.108  1.00  0.00     0.016 A 
ATOM     39  C   UNL A   1      39.043  29.849  30.407  1.00  0.00     0.016 A 
ATOM     40  C   UNL A   1      39.945  29.689  27.767  1.00  0.00     0.010 A 
ATOM     41  C   UNL A   1      40.447  29.835  30.085  1.00  0.00     0.010 A 
ATOM     42  C   UNL A   1      40.925  29.779  28.756  1.00  0.00    -0.014 A 
BRANCH  42  43
ATOM     43  C   UNL A   1      42.363  29.450  28.383  1.00  0.00     0.031 A 
ATOM     44  C   UNL A   1      42.664  28.007  28.008  1.00  0.00     0.074 A 
ATOM     45  C   UNL A   1      43.385  30.330  28.232  1.00  0.00     0.049 A 
ATOM     46  N   UNL A   1      43.798  27.440  27.670  1.00  0.00    -0.248 NA
ATOM     47  C   UNL A   1      41.513  27.092  27.993  1.00  0.00     0.031 C 
ATOM     48  C   UNL A   1      43.304  31.780  28.377  1.00  0.00     0.029 A 
ATOM     49  N   UNL A   1      44.717  30.119  27.893  1.00  0.00    -0.354 N 
ATOM     50  C   UNL A   1      43.496  26.107  27.413  1.00  0.00     0.074 A 
ATOM     51  C   UNL A   1      42.074  25.951  27.631  1.00  0.00     0.031 C 
ATOM     52  C   UNL A   1      44.516  32.323  28.136  1.00  0.00     0.029 A 
ATOM     53  C   UNL A   1      45.490  31.264  27.852  1.00  0.00     0.049 A 
ATOM     54  H   UNL A   1      45.079  29.225  27.697  1.00  0.00     0.167 HD
ATOM     55  C   UNL A   1      44.306  25.085  27.043  1.00  0.00     0.031 A 
ATOM     56  C   UNL A   1      46.818  31.450  27.635  1.00  0.00     0.031 A 
ATOM     57  C   UNL A   1      45.725  25.173  26.837  1.00  0.00     0.049 A 
ATOM     58  C   UNL A   1      47.738  30.270  27.370  1.00  0.00     0.074 A 
ATOM     59  C   UNL A   1      46.609  24.154  26.520  1.00  0.00     0.029 A 
ATOM     60  N   UNL A   1      46.472  26.333  26.928  1.00  0.00    -0.354 N 
ATOM     61  N   UNL A   1      47.436  29.007  27.195  1.00  0.00    -0.248 NA
ATOM     62  C   UNL A   1      49.187  30.547  27.282  1.00  0.00     0.031 C 
ATOM     63  C   UNL A   1      47.900  24.689  26.471  1.00  0.00     0.029 A 
ATOM     64  C   UNL A   1      47.810  26.051  26.697  1.00  0.00     0.049 A 
ATOM     65  H   UNL A   1      46.109  27.227  27.128  1.00  0.00     0.167 HD
ATOM     66  C   UNL A   1      48.645  28.352  26.948  1.00  0.00     0.074 A 
ATOM     67  C   UNL A   1      49.685  29.354  26.984  1.00  0.00     0.031 C 
ATOM     68  C   UNL A   1      48.862  27.034  26.714  1.00  0.00     0.031 A 
BRANCH  55  69
ATOM     69  C   UNL A   1      43.664  23.730  26.912  1.00  0.00    -0.014 A 
ATOM     70  C   UNL A   1      43.374  22.945  28.041  1.00  0.00     0.010 A 
ATOM     71  C   UNL A   1      43.343  23.246  25.631  1.00  0.00     0.010 A 
ATOM     72  C   UNL A   1      42.811  21.676  27.886  1.00  0.00     0.020 A 
ATOM     73  C   UNL A   1      42.756  21.991  25.475  1.00  0.00     0.020 A 
ATOM     74  C   UNL A   1      42.512  21.205  26.603  1.00  0.00     0.054 A 
BRANCH  74  75
ATOM     75  S   UNL A   1      41.778  19.556  26.429  1.00  0.00     0.124 S 
ATOM     76  O   UNL A   1      42.435  19.061  25.222  1.00  0.00    -0.237 OA
ATOM     77  O   UNL A   1      42.169  18.898  27.672  1.00  0.00    -0.237 OA
ATOM     78  O   UNL A   1      40.349  19.825  26.293  1.00  0.00    -0.744 OA
ENDBRANCH  74  75
ENDBRANCH  55  69
BRANCH  56  79
ATOM     79  C   UNL A   1      47.431  32.820  27.711  1.00  0.00    -0.014 A 
ATOM     80  C   UNL A   1      47.764  33.405  28.949  1.00  0.00     0.010 A 
ATOM     81  C   UNL A   1      47.591  33.588  26.543  1.00  0.00     0.010 A 
ATOM     82  C   UNL A   1      48.230  34.725  29.018  1.00  0.00     0.020 A 
ATOM     83  C   UNL A   1      48.083  34.899  26.604  1.00  0.00     0.020 A 
ATOM     84  C   UNL A   1      48.390  35.464  27.842  1.00  0.00     0.054 A 
BRANCH  84  85
ATOM     85  S   UNL A   1      49.045  37.157  27.942  1.00  0.00     0.124 S 
ATOM     86  O   UNL A   1      48.102  37.797  28.854  1.00  0.00    -0.237 OA
ATOM     87  O   UNL A   1      50.390  36.945  28.468  1.00  0.00    -0.237 OA
ATOM     88  O   UNL A   1      48.993  37.624  26.558  1.00  0.00    -0.744 OA
ENDBRANCH  84  85
ENDBRANCH  56  79
BRANCH  68  89
ATOM     89  C   UNL A   1      50.271  26.567  26.430  1.00  0.00    -0.014 A 
ATOM     90  C   UNL A   1      50.788  26.538  25.122  1.00  0.00     0.010 A 
ATOM     91  C   UNL A   1      51.124  26.236  27.501  1.00  0.00     0.010 A 
ATOM     92  C   UNL A   1      52.119  26.166  24.890  1.00  0.00     0.020 A 
ATOM     93  C   UNL A   1      52.461  25.886  27.276  1.00  0.00     0.020 A 
ATOM     94  C   UNL A   1      52.947  25.842  25.968  1.00  0.00     0.054 A 
BRANCH  94  95
ATOM     95  S   UNL A   1      54.683  25.415  25.647  1.00  0.00     0.124 S 
ATOM     96  O   UNL A   1      54.867  25.887  24.278  1.00  0.00    -0.237 OA
ATOM     97  O   UNL A   1      55.397  26.173  26.673  1.00  0.00    -0.237 OA
ATOM     98  O   UNL A   1      54.722  23.964  25.816  1.00  0.00    -0.744 OA
ENDBRANCH  94  95
ENDBRANCH  68  89
ENDBRANCH  42  43
ENDBRANCH  35  37
ENDBRANCH  34  35
ENDBRANCH  33  34
ENDBRANCH   1  33
TORSDOF 18
ENDMDL
MODEL 3
REMARK VINA RESULT:     -10.5      6.718     11.439
REMARK SMILES NC(=O)c1c(-c2ccc(Cl)cc2)csc1NC(=O)[C@H]1[C@@H](C(=O)OCCOC(=O)c2ccc(-c3c4nc(c(-c5ccc(S(=O)(=O)[O-])cc5)c5ccc([nH]5)c(-c5ccc(S(=O)(=O)[O-])cc5)c5nc(c(-c6ccc(S(=O)(=O)[O-])cc6)c6ccc3[nH]6)C=C5)C=C4)cc2)[C@@H]2CC[C@H]1O2
REMARK SMILES IDX 24 1 23 2 21 3 22 4 20 5 19 6 92 7 89 8 91 9 93 10 90 11
REMARK SMILES IDX 17 12 16 13 18 15 15 16 4 17 5 18 13 19 14 20 2 21 1 22 3 25
REMARK SMILES IDX 6 26 7 27 12 28 8 29 11 30 9 31 10 32 25 33 26 34 27 35
REMARK SMILES IDX 28 36 29 37 30 38 88 39 31 40 87 41 32 42 33 43 34 44 81 45
REMARK SMILES IDX 35 46 86 47 80 48 82 49 36 50 85 51 79 52 78 53 37 55 67 56
REMARK SMILES IDX 48 57 66 58 49 59 52 60 65 61 83 62 50 63 51 64 64 66 84 67
REMARK SMILES IDX 53 68 38 69 39 70 47 71 40 72 46 73 41 74 42 75 43 76 44 77
REMARK SMILES IDX 45 78 68 79 69 80 77 81 70 82 76 83 71 84 72 85 73 86 74 87
REMARK SMILES IDX 75 88 54 89 55 90 63 91 56 92 62 93 57 94 58 95 59 96 60 97
REMARK SMILES IDX 61 98
REMARK H PARENT 16 14 1 23 1 24 82 54 52 65
REMARK Flexibility Score: inf
ROOT
ATOM      1  C   UNL A   1      34.776  33.903  29.593  1.00  0.00     0.274 C 
ENDROOT
BRANCH   1   2
ATOM      2  O   UNL A   1      35.519  33.652  30.852  1.00  0.00    -0.462 OA
BRANCH   2   3
ATOM      3  C   UNL A   1      34.880  33.236  32.033  1.00  0.00     0.312 C 
ATOM      4  O   UNL A   1      33.831  33.704  32.447  1.00  0.00    -0.252 OA
BRANCH   3   5
ATOM      5  C   UNL A   1      35.709  32.099  32.719  1.00  0.00     0.143 C 
ATOM      6  C   UNL A   1      36.656  32.730  33.709  1.00  0.00     0.124 C 
ATOM      7  C   UNL A   1      37.924  31.938  33.710  1.00  0.00     0.132 C 
ATOM      8  C   UNL A   1      36.756  31.173  32.031  1.00  0.00     0.133 C 
ATOM      9  C   UNL A   1      37.661  30.513  34.162  1.00  0.00     0.035 C 
ATOM     10  O   UNL A   1      38.057  31.785  32.294  1.00  0.00    -0.373 OA
ATOM     11  C   UNL A   1      37.048  29.917  32.884  1.00  0.00     0.036 C 
BRANCH   6  12
ATOM     12  C   UNL A   1      37.017  34.132  33.375  1.00  0.00     0.231 C 
ATOM     13  N   UNL A   1      37.898  34.639  32.463  1.00  0.00    -0.317 N 
ATOM     14  H   UNL A   1      37.556  35.547  32.293  1.00  0.00     0.170 HD
ATOM     15  O   UNL A   1      36.249  34.936  33.939  1.00  0.00    -0.274 OA
BRANCH  13  16
ATOM     16  C   UNL A   1      39.018  34.555  31.649  1.00  0.00     0.108 A 
ATOM     17  C   UNL A   1      40.320  34.236  32.081  1.00  0.00     0.082 A 
ATOM     18  C   UNL A   1      41.135  33.743  31.001  1.00  0.00     0.007 A 
ATOM     19  C   UNL A   1      40.525  33.951  29.786  1.00  0.00     0.076 A 
ATOM     20  S   UNL A   1      38.950  34.600  29.966  1.00  0.00    -0.125 S 
BRANCH  17  21
ATOM     21  C   UNL A   1      40.875  34.239  33.437  1.00  0.00     0.252 C 
ATOM     22  N   UNL A   1      41.523  35.391  33.788  1.00  0.00    -0.365 N 
ATOM     23  H   UNL A   1      41.925  35.476  34.683  1.00  0.00     0.159 HD
ATOM     24  H   UNL A   1      41.587  36.134  33.146  1.00  0.00     0.159 HD
ATOM     25  O   UNL A   1      40.915  33.264  34.181  1.00  0.00    -0.269 OA
ENDBRANCH  17  21
BRANCH  18  26
ATOM     26  C   UNL A   1      42.438  33.100  31.171  1.00  0.00    -0.017 A 
ATOM     27  C   UNL A   1      42.549  31.722  31.357  1.00  0.00     0.010 A 
ATOM     28  C   UNL A   1      43.611  33.861  30.996  1.00  0.00     0.010 A 
ATOM     29  C   UNL A   1      43.810  31.113  31.340  1.00  0.00     0.021 A 
ATOM     30  C   UNL A   1      44.866  33.253  30.960  1.00  0.00     0.021 A 
ATOM     31  C   UNL A   1      44.960  31.877  31.130  1.00  0.00     0.041 A 
ATOM     32  Cl  UNL A   1      46.499  31.111  31.053  1.00  0.00    -0.084 Cl
ENDBRANCH  18  26
ENDBRANCH  13  16
ENDBRANCH   6  12
ENDBRANCH   3   5
ENDBRANCH   2   3
ENDBRANCH   1   2
BRANCH   1  33
ATOM     33  C   UNL A   1      35.188  32.990  28.296  1.00  0.00     0.275 C 
BRANCH  33  34
ATOM     34  O   UNL A   1      36.435  32.160  28.469  1.00  0.00    -0.458 OA
BRANCH  34  35
ATOM     35  C   UNL A   1      36.553  30.788  28.645  1.00  0.00     0.338 C 
ATOM     36  O   UNL A   1      35.616  30.040  28.879  1.00  0.00    -0.246 OA
BRANCH  35  37
ATOM     37  C   UNL A   1      38.012  30.295  28.342  1.00  0.00     0.060 A 
ATOM     38  C   UNL A   1      39.036  30.420  29.303  1.00  0.00     0.016 A 
ATOM     39  C   UNL A   1      38.411  29.702  27.141  1.00  0.00     0.016 A 
ATOM     40  C   UNL A   1      40.320  29.828  29.177  1.00  0.00     0.010 A 
ATOM     41  C   UNL A   1      39.755  29.219  26.951  1.00  0.00     0.010 A 
ATOM     42  C   UNL A   1      40.730  29.251  27.975  1.00  0.00    -0.014 A 
BRANCH  42  43
ATOM     43  C   UNL A   1      42.219  29.050  27.737  1.00  0.00     0.031 A 
ATOM     44  C   UNL A   1      42.682  27.634  27.433  1.00  0.00     0.074 A 
ATOM     45  C   UNL A   1      43.165  30.019  27.645  1.00  0.00     0.049 A 
ATOM     46  N   UNL A   1      43.889  27.169  27.210  1.00  0.00    -0.248 NA
ATOM     47  C   UNL A   1      41.625  26.615  27.348  1.00  0.00     0.031 C 
ATOM     48  C   UNL A   1      42.939  31.457  27.737  1.00  0.00     0.029 A 
ATOM     49  N   UNL A   1      44.535  29.926  27.427  1.00  0.00    -0.354 N 
ATOM     50  C   UNL A   1      43.733  25.807  26.971  1.00  0.00     0.074 A 
ATOM     51  C   UNL A   1      42.318  25.523  27.072  1.00  0.00     0.031 C 
ATOM     52  C   UNL A   1      44.113  32.107  27.583  1.00  0.00     0.029 A 
ATOM     53  C   UNL A   1      45.200  31.137  27.417  1.00  0.00     0.049 A 
ATOM     54  H   UNL A   1      44.994  29.066  27.290  1.00  0.00     0.167 HD
ATOM     55  C   UNL A   1      44.663  24.857  26.702  1.00  0.00     0.031 A 
ATOM     56  C   UNL A   1      46.519  31.443  27.308  1.00  0.00     0.031 A 
ATOM     57  C   UNL A   1      46.080  25.074  26.616  1.00  0.00     0.049 A 
ATOM     58  C   UNL A   1      47.563  30.349  27.159  1.00  0.00     0.074 A 
ATOM     59  C   UNL A   1      47.078  24.136  26.406  1.00  0.00     0.029 A 
ATOM     60  N   UNL A   1      46.707  26.301  26.733  1.00  0.00    -0.354 N 
ATOM     61  N   UNL A   1      47.395  29.059  26.998  1.00  0.00    -0.248 NA
ATOM     62  C   UNL A   1      48.983  30.758  27.186  1.00  0.00     0.031 C 
ATOM     63  C   UNL A   1      48.314  24.788  26.451  1.00  0.00     0.029 A 
ATOM     64  C   UNL A   1      48.081  26.141  26.625  1.00  0.00     0.049 A 
ATOM     65  H   UNL A   1      46.248  27.161  26.874  1.00  0.00     0.167 HD
ATOM     66  C   UNL A   1      48.676  28.515  26.875  1.00  0.00     0.074 A 
ATOM     67  C   UNL A   1      49.613  29.611  26.969  1.00  0.00     0.031 C 
ATOM     68  C   UNL A   1      49.033  27.218  26.702  1.00  0.00     0.031 A 
BRANCH  55  69
ATOM     69  C   UNL A   1      44.162  23.446  26.559  1.00  0.00    -0.014 A 
ATOM     70  C   UNL A   1      44.308  22.735  25.355  1.00  0.00     0.010 A 
ATOM     71  C   UNL A   1      43.542  22.825  27.659  1.00  0.00     0.010 A 
ATOM     72  C   UNL A   1      43.799  21.439  25.241  1.00  0.00     0.020 A 
ATOM     73  C   UNL A   1      43.058  21.521  27.555  1.00  0.00     0.020 A 
ATOM     74  C   UNL A   1      43.173  20.843  26.340  1.00  0.00     0.054 A 
BRANCH  74  75
ATOM     75  S   UNL A   1      42.526  19.159  26.167  1.00  0.00     0.124 S 
ATOM     76  O   UNL A   1      42.360  18.755  27.561  1.00  0.00    -0.237 OA
ATOM     77  O   UNL A   1      41.287  19.366  25.422  1.00  0.00    -0.237 OA
ATOM     78  O   UNL A   1      43.578  18.456  25.436  1.00  0.00    -0.744 OA
ENDBRANCH  74  75
ENDBRANCH  55  69
BRANCH  56  79
ATOM     79  C   UNL A   1      46.995  32.865  27.393  1.00  0.00    -0.014 A 
ATOM     80  C   UNL A   1      47.370  33.439  28.624  1.00  0.00     0.010 A 
ATOM     81  C   UNL A   1      46.979  33.686  26.250  1.00  0.00     0.010 A 
ATOM     82  C   UNL A   1      47.705  34.798  28.712  1.00  0.00     0.020 A 
ATOM     83  C   UNL A   1      47.340  35.037  26.327  1.00  0.00     0.020 A 
ATOM     84  C   UNL A   1      47.691  35.588  27.560  1.00  0.00     0.054 A 
BRANCH  84  85
ATOM     85  S   UNL A   1      48.177  37.336  27.679  1.00  0.00     0.124 S 
ATOM     86  O   UNL A   1      46.998  38.020  27.159  1.00  0.00    -0.237 OA
ATOM     87  O   UNL A   1      48.423  37.499  29.110  1.00  0.00    -0.237 OA
ATOM     88  O   UNL A   1      49.370  37.416  26.838  1.00  0.00    -0.744 OA
ENDBRANCH  84  85
ENDBRANCH  56  79
BRANCH  68  89
ATOM     89  C   UNL A   1      50.498  26.879  26.553  1.00  0.00    -0.014 A 
ATOM     90  C   UNL A   1      51.271  26.455  27.648  1.00  0.00     0.010 A 
ATOM     91  C   UNL A   1      51.090  26.899  25.274  1.00  0.00     0.010 A 
ATOM     92  C   UNL A   1      52.610  26.081  27.473  1.00  0.00     0.020 A 
ATOM     93  C   UNL A   1      52.420  26.504  25.091  1.00  0.00     0.020 A 
ATOM     94  C   UNL A   1      53.177  26.107  26.195  1.00  0.00     0.054 A 
BRANCH  94  95
ATOM     95  S   UNL A   1      54.898  25.567  25.984  1.00  0.00     0.124 S 
ATOM     96  O   UNL A   1      55.270  25.191  27.344  1.00  0.00    -0.237 OA
ATOM     97  O   UNL A   1      54.775  24.460  25.038  1.00  0.00    -0.237 OA
ATOM     98  O   UNL A   1      55.573  26.752  25.459  1.00  0.00    -0.744 OA
ENDBRANCH  94  95
ENDBRANCH  68  89
ENDBRANCH  42  43
ENDBRANCH  35  37
ENDBRANCH  34  35
ENDBRANCH  33  34
ENDBRANCH   1  33
TORSDOF 18
ENDMDL
