MODEL 1
REMARK VINA RESULT:     -12.6      0.000      0.000
REMARK SMILES Cc1ccc(C(=O)OCCOC(=O)c2ccc(-c3c4nc(c(-c5ccc(S(=O)(=O)[O-])cc5)c5ccc([nH]5)c(-c5ccc(S(=O)(=O)[O-])cc5)c5nc(c(-c6ccc(S(=O)(=O)[O-])cc6)c6ccc3[nH]6)C=C5)C=C4)cc2)cc1NC(=O)c1ccc(Br)o1
REMARK SMILES IDX 10 1 9 2 8 3 6 4 7 5 5 6 1 7 2 8 3 9 75 10 4 11 74 12 76 13
REMARK SMILES IDX 77 14 78 16 79 17 80 18 84 19 81 20 82 21 83 22 11 23 12 24
REMARK SMILES IDX 13 25 14 26 15 27 73 28 16 29 72 30 17 31 18 32 19 33 66 34
REMARK SMILES IDX 20 35 71 36 65 37 67 38 21 39 70 40 64 41 63 42 22 44 52 45
REMARK SMILES IDX 33 46 51 47 34 48 37 49 50 50 68 51 35 52 36 53 49 55 69 56
REMARK SMILES IDX 38 57 23 58 24 59 32 60 25 61 31 62 26 63 27 64 28 65 29 66
REMARK SMILES IDX 30 67 53 68 54 69 62 70 55 71 61 72 56 73 57 74 58 75 59 76
REMARK SMILES IDX 60 77 39 78 40 79 48 80 41 81 47 82 42 83 43 84 44 85 45 86
REMARK SMILES IDX 46 87
REMARK H PARENT 76 15 67 43 37 54
REMARK Flexibility Score: inf
ROOT
ATOM      1  C   UNL A   1      34.863  29.732  27.304  1.00  0.00     0.275 C 
ENDROOT
BRANCH   1   2
ATOM      2  C   UNL A   1      33.670  30.690  27.468  1.00  0.00     0.275 C 
BRANCH   2   3
ATOM      3  O   UNL A   1      32.408  30.021  27.299  1.00  0.00    -0.458 OA
BRANCH   3   4
ATOM      4  C   UNL A   1      31.768  30.346  26.153  1.00  0.00     0.338 C 
ATOM      5  O   UNL A   1      31.217  31.410  25.911  1.00  0.00    -0.246 OA
BRANCH   4   6
ATOM      6  C   UNL A   1      31.511  29.200  25.277  1.00  0.00     0.062 A 
ATOM      7  C   UNL A   1      29.164  25.863  23.930  1.00  0.00     0.046 C 
ATOM      8  C   UNL A   1      30.043  26.972  24.439  1.00  0.00    -0.027 A 
ATOM      9  C   UNL A   1      30.077  28.154  23.667  1.00  0.00     0.006 A 
ATOM     10  C   UNL A   1      30.767  26.931  25.648  1.00  0.00     0.045 A 
ATOM     11  C   UNL A   1      30.763  29.287  24.111  1.00  0.00     0.016 A 
ATOM     12  C   UNL A   1      31.603  27.995  25.960  1.00  0.00     0.042 A 
BRANCH  10  13
ATOM     13  N   UNL A   1      30.626  25.868  26.565  1.00  0.00    -0.319 N 
ATOM     14  C   UNL A   1      31.179  24.590  26.550  1.00  0.00     0.291 C 
ATOM     15  H   UNL A   1      30.045  26.060  27.336  1.00  0.00     0.170 HD
ATOM     16  O   UNL A   1      30.702  23.762  27.330  1.00  0.00    -0.265 OA
BRANCH  14  17
ATOM     17  C   UNL A   1      32.311  24.284  25.693  1.00  0.00     0.193 A 
ATOM     18  C   UNL A   1      33.677  24.446  25.856  1.00  0.00     0.057 A 
ATOM     19  O   UNL A   1      32.063  23.798  24.432  1.00  0.00    -0.444 OA
ATOM     20  C   UNL A   1      34.283  24.065  24.629  1.00  0.00     0.059 A 
ATOM     21  C   UNL A   1      33.260  23.702  23.791  1.00  0.00     0.170 A 
ATOM     22  Br  UNL A   1      33.475  23.206  22.006  1.00  0.00    -0.008 Br
ENDBRANCH  14  17
ENDBRANCH  10  13
ENDBRANCH   4   6
ENDBRANCH   3   4
ENDBRANCH   2   3
ENDBRANCH   1   2
BRANCH   1  23
ATOM     23  O   UNL A   1      36.172  30.283  27.032  1.00  0.00    -0.458 OA
BRANCH  23  24
ATOM     24  C   UNL A   1      36.944  30.598  28.100  1.00  0.00     0.338 C 
ATOM     25  O   UNL A   1      36.614  31.405  28.967  1.00  0.00    -0.246 OA
BRANCH  24  26
ATOM     26  C   UNL A   1      38.023  29.588  28.216  1.00  0.00     0.060 A 
ATOM     27  C   UNL A   1      38.961  29.450  27.183  1.00  0.00     0.016 A 
ATOM     28  C   UNL A   1      38.280  29.055  29.485  1.00  0.00     0.016 A 
ATOM     29  C   UNL A   1      40.204  28.885  27.439  1.00  0.00     0.010 A 
ATOM     30  C   UNL A   1      39.544  28.628  29.781  1.00  0.00     0.010 A 
ATOM     31  C   UNL A   1      40.482  28.505  28.750  1.00  0.00    -0.014 A 
BRANCH  31  32
ATOM     32  C   UNL A   1      41.570  27.625  29.116  1.00  0.00     0.031 A 
ATOM     33  C   UNL A   1      41.550  26.198  28.738  1.00  0.00     0.074 A 
ATOM     34  C   UNL A   1      42.601  28.357  29.601  1.00  0.00     0.049 A 
ATOM     35  N   UNL A   1      42.254  25.274  29.287  1.00  0.00    -0.248 NA
ATOM     36  C   UNL A   1      40.681  25.665  27.687  1.00  0.00     0.031 C 
ATOM     37  C   UNL A   1      43.988  28.023  29.842  1.00  0.00     0.029 A 
ATOM     38  N   UNL A   1      42.511  29.662  30.134  1.00  0.00    -0.354 N 
ATOM     39  C   UNL A   1      42.250  24.194  28.417  1.00  0.00     0.074 A 
ATOM     40  C   UNL A   1      41.127  24.409  27.544  1.00  0.00     0.031 C 
ATOM     41  C   UNL A   1      44.451  28.861  30.796  1.00  0.00     0.029 A 
ATOM     42  C   UNL A   1      43.307  29.642  31.270  1.00  0.00     0.049 A 
ATOM     43  H   UNL A   1      41.996  30.421  29.778  1.00  0.00     0.167 HD
ATOM     44  C   UNL A   1      43.349  23.386  28.373  1.00  0.00     0.031 A 
ATOM     45  C   UNL A   1      42.728  29.534  32.509  1.00  0.00     0.031 A 
ATOM     46  C   UNL A   1      44.319  23.847  29.364  1.00  0.00     0.049 A 
ATOM     47  C   UNL A   1      43.149  28.216  33.132  1.00  0.00     0.074 A 
ATOM     48  C   UNL A   1      45.413  24.687  29.238  1.00  0.00     0.029 A 
ATOM     49  N   UNL A   1      43.978  23.831  30.711  1.00  0.00    -0.354 N 
ATOM     50  N   UNL A   1      43.261  27.090  32.473  1.00  0.00    -0.248 NA
ATOM     51  C   UNL A   1      43.624  28.124  34.508  1.00  0.00     0.031 C 
ATOM     52  C   UNL A   1      45.640  25.284  30.507  1.00  0.00     0.029 A 
ATOM     53  C   UNL A   1      44.679  24.814  31.388  1.00  0.00     0.049 A 
ATOM     54  H   UNL A   1      43.333  23.213  31.123  1.00  0.00     0.167 HD
ATOM     55  C   UNL A   1      43.959  26.197  33.249  1.00  0.00     0.074 A 
ATOM     56  C   UNL A   1      44.109  26.870  34.532  1.00  0.00     0.031 C 
ATOM     57  C   UNL A   1      44.469  25.007  32.811  1.00  0.00     0.031 A 
BRANCH  44  58
ATOM     58  C   UNL A   1      43.723  22.467  27.225  1.00  0.00    -0.014 A 
ATOM     59  C   UNL A   1      42.895  21.350  26.961  1.00  0.00     0.010 A 
ATOM     60  C   UNL A   1      44.858  22.598  26.401  1.00  0.00     0.010 A 
ATOM     61  C   UNL A   1      43.209  20.383  25.999  1.00  0.00     0.020 A 
ATOM     62  C   UNL A   1      45.193  21.626  25.433  1.00  0.00     0.020 A 
ATOM     63  C   UNL A   1      44.370  20.517  25.246  1.00  0.00     0.054 A 
BRANCH  63  64
ATOM     64  S   UNL A   1      44.757  19.234  24.024  1.00  0.00     0.124 S 
ATOM     65  O   UNL A   1      43.817  18.171  24.375  1.00  0.00    -0.237 OA
ATOM     66  O   UNL A   1      44.491  19.913  22.759  1.00  0.00    -0.237 OA
ATOM     67  O   UNL A   1      46.162  18.924  24.278  1.00  0.00    -0.744 OA
ENDBRANCH  63  64
ENDBRANCH  44  58
BRANCH  45  68
ATOM     68  C   UNL A   1      41.393  30.210  32.704  1.00  0.00    -0.014 A 
ATOM     69  C   UNL A   1      40.338  29.452  33.271  1.00  0.00     0.010 A 
ATOM     70  C   UNL A   1      41.187  31.595  32.565  1.00  0.00     0.010 A 
ATOM     71  C   UNL A   1      39.187  30.058  33.795  1.00  0.00     0.020 A 
ATOM     72  C   UNL A   1      40.017  32.209  33.070  1.00  0.00     0.020 A 
ATOM     73  C   UNL A   1      39.040  31.440  33.710  1.00  0.00     0.054 A 
BRANCH  73  74
ATOM     74  S   UNL A   1      37.677  32.224  34.640  1.00  0.00     0.124 S 
ATOM     75  O   UNL A   1      36.538  32.025  33.751  1.00  0.00    -0.237 OA
ATOM     76  O   UNL A   1      37.659  31.441  35.873  1.00  0.00    -0.237 OA
ATOM     77  O   UNL A   1      38.130  33.607  34.788  1.00  0.00    -0.744 OA
ENDBRANCH  73  74
ENDBRANCH  45  68
BRANCH  57  78
ATOM     78  C   UNL A   1      44.944  23.904  33.716  1.00  0.00    -0.014 A 
ATOM     79  C   UNL A   1      44.129  22.832  34.099  1.00  0.00     0.010 A 
ATOM     80  C   UNL A   1      46.318  23.836  34.055  1.00  0.00     0.010 A 
ATOM     81  C   UNL A   1      44.641  21.779  34.859  1.00  0.00     0.020 A 
ATOM     82  C   UNL A   1      46.851  22.760  34.756  1.00  0.00     0.020 A 
ATOM     83  C   UNL A   1      45.998  21.753  35.185  1.00  0.00     0.054 A 
BRANCH  83  84
ATOM     84  S   UNL A   1      46.650  20.363  36.133  1.00  0.00     0.124 S 
ATOM     85  O   UNL A   1      46.325  20.762  37.500  1.00  0.00    -0.237 OA
ATOM     86  O   UNL A   1      45.890  19.229  35.611  1.00  0.00    -0.237 OA
ATOM     87  O   UNL A   1      48.072  20.357  35.801  1.00  0.00    -0.744 OA
ENDBRANCH  83  84
ENDBRANCH  57  78
ENDBRANCH  31  32
ENDBRANCH  24  26
ENDBRANCH  23  24
ENDBRANCH   1  23
TORSDOF 16
ENDMDL
MODEL 2
REMARK VINA RESULT:     -12.4      4.831     11.377
REMARK SMILES Cc1ccc(C(=O)OCCOC(=O)c2ccc(-c3c4nc(c(-c5ccc(S(=O)(=O)[O-])cc5)c5ccc([nH]5)c(-c5ccc(S(=O)(=O)[O-])cc5)c5nc(c(-c6ccc(S(=O)(=O)[O-])cc6)c6ccc3[nH]6)C=C5)C=C4)cc2)cc1NC(=O)c1ccc(Br)o1
REMARK SMILES IDX 10 1 9 2 8 3 6 4 7 5 5 6 1 7 2 8 3 9 75 10 4 11 74 12 76 13
REMARK SMILES IDX 77 14 78 16 79 17 80 18 84 19 81 20 82 21 83 22 11 23 12 24
REMARK SMILES IDX 13 25 14 26 15 27 73 28 16 29 72 30 17 31 18 32 19 33 66 34
REMARK SMILES IDX 20 35 71 36 65 37 67 38 21 39 70 40 64 41 63 42 22 44 52 45
REMARK SMILES IDX 33 46 51 47 34 48 37 49 50 50 68 51 35 52 36 53 49 55 69 56
REMARK SMILES IDX 38 57 23 58 24 59 32 60 25 61 31 62 26 63 27 64 28 65 29 66
REMARK SMILES IDX 30 67 53 68 54 69 62 70 55 71 61 72 56 73 57 74 58 75 59 76
REMARK SMILES IDX 60 77 39 78 40 79 48 80 41 81 47 82 42 83 43 84 44 85 45 86
REMARK SMILES IDX 46 87
REMARK H PARENT 76 15 67 43 37 54
REMARK Flexibility Score: inf
ROOT
ATOM      1  C   UNL A   1      37.572  23.872  26.153  1.00  0.00     0.275 C 
ENDROOT
BRANCH   1   2
ATOM      2  C   UNL A   1      37.403  22.528  25.423  1.00  0.00     0.275 C 
BRANCH   2   3
ATOM      3  O   UNL A   1      36.067  22.343  24.925  1.00  0.00    -0.458 OA
BRANCH   3   4
ATOM      4  C   UNL A   1      35.927  22.651  23.616  1.00  0.00     0.338 C 
ATOM      5  O   UNL A   1      36.799  23.085  22.878  1.00  0.00    -0.246 OA
BRANCH   4   6
ATOM      6  C   UNL A   1      34.531  22.707  23.171  1.00  0.00     0.062 A 
ATOM      7  C   UNL A   1      30.613  24.467  23.073  1.00  0.00     0.046 C 
ATOM      8  C   UNL A   1      31.951  23.785  23.160  1.00  0.00    -0.027 A 
ATOM      9  C   UNL A   1      32.806  23.929  22.043  1.00  0.00     0.006 A 
ATOM     10  C   UNL A   1      32.422  23.083  24.287  1.00  0.00     0.045 A 
ATOM     11  C   UNL A   1      34.114  23.441  22.069  1.00  0.00     0.016 A 
ATOM     12  C   UNL A   1      33.647  22.433  24.204  1.00  0.00     0.042 A 
BRANCH  10  13
ATOM     13  N   UNL A   1      31.708  23.065  25.505  1.00  0.00    -0.319 N 
ATOM     14  C   UNL A   1      31.727  23.960  26.570  1.00  0.00     0.291 C 
ATOM     15  H   UNL A   1      31.102  22.297  25.618  1.00  0.00     0.170 HD
ATOM     16  O   UNL A   1      31.207  23.591  27.625  1.00  0.00    -0.265 OA
BRANCH  14  17
ATOM     17  C   UNL A   1      32.282  25.293  26.406  1.00  0.00     0.193 A 
ATOM     18  C   UNL A   1      33.505  25.745  25.937  1.00  0.00     0.057 A 
ATOM     19  O   UNL A   1      31.540  26.366  26.835  1.00  0.00    -0.444 OA
ATOM     20  C   UNL A   1      33.515  27.154  26.114  1.00  0.00     0.059 A 
ATOM     21  C   UNL A   1      32.310  27.478  26.683  1.00  0.00     0.170 A 
ATOM     22  Br  UNL A   1      31.821  29.195  27.227  1.00  0.00    -0.008 Br
ENDBRANCH  14  17
ENDBRANCH  10  13
ENDBRANCH   4   6
ENDBRANCH   3   4
ENDBRANCH   2   3
ENDBRANCH   1   2
BRANCH   1  23
ATOM     23  O   UNL A   1      38.887  24.468  26.229  1.00  0.00    -0.458 OA
BRANCH  23  24
ATOM     24  C   UNL A   1      39.477  24.512  27.447  1.00  0.00     0.338 C 
ATOM     25  O   UNL A   1      40.239  23.642  27.869  1.00  0.00    -0.246 OA
BRANCH  24  26
ATOM     26  C   UNL A   1      39.338  25.885  27.990  1.00  0.00     0.060 A 
ATOM     27  C   UNL A   1      38.954  26.068  29.326  1.00  0.00     0.016 A 
ATOM     28  C   UNL A   1      39.924  26.931  27.269  1.00  0.00     0.016 A 
ATOM     29  C   UNL A   1      39.257  27.254  29.984  1.00  0.00     0.010 A 
ATOM     30  C   UNL A   1      40.351  28.041  27.942  1.00  0.00     0.010 A 
ATOM     31  C   UNL A   1      39.978  28.215  29.280  1.00  0.00    -0.014 A 
BRANCH  31  32
ATOM     32  C   UNL A   1      40.088  29.597  29.693  1.00  0.00     0.031 A 
ATOM     33  C   UNL A   1      39.015  30.565  29.392  1.00  0.00     0.074 A 
ATOM     34  C   UNL A   1      41.143  29.735  30.532  1.00  0.00     0.049 A 
ATOM     35  N   UNL A   1      39.147  31.843  29.392  1.00  0.00    -0.248 NA
ATOM     36  C   UNL A   1      37.657  30.160  29.026  1.00  0.00     0.031 C 
ATOM     37  C   UNL A   1      41.523  30.806  31.427  1.00  0.00     0.029 A 
ATOM     38  N   UNL A   1      42.246  28.859  30.628  1.00  0.00    -0.354 N 
ATOM     39  C   UNL A   1      37.869  32.379  29.458  1.00  0.00     0.074 A 
ATOM     40  C   UNL A   1      36.987  31.320  29.044  1.00  0.00     0.031 C 
ATOM     41  C   UNL A   1      42.860  30.728  31.613  1.00  0.00     0.029 A 
ATOM     42  C   UNL A   1      43.356  29.685  30.713  1.00  0.00     0.049 A 
ATOM     43  H   UNL A   1      42.230  27.874  30.634  1.00  0.00     0.167 HD
ATOM     44  C   UNL A   1      37.692  33.568  30.103  1.00  0.00     0.031 A 
ATOM     45  C   UNL A   1      44.138  29.896  29.605  1.00  0.00     0.031 A 
ATOM     46  C   UNL A   1      38.991  34.062  30.557  1.00  0.00     0.049 A 
ATOM     47  C   UNL A   1      44.043  31.358  29.210  1.00  0.00     0.074 A 
ATOM     48  C   UNL A   1      39.629  33.938  31.780  1.00  0.00     0.029 A 
ATOM     49  N   UNL A   1      39.971  34.363  29.620  1.00  0.00    -0.354 N 
ATOM     50  N   UNL A   1      42.941  32.063  29.251  1.00  0.00    -0.248 NA
ATOM     51  C   UNL A   1      45.222  32.156  28.895  1.00  0.00     0.031 C 
ATOM     52  C   UNL A   1      41.026  34.033  31.541  1.00  0.00     0.029 A 
ATOM     53  C   UNL A   1      41.226  34.200  30.180  1.00  0.00     0.049 A 
ATOM     54  H   UNL A   1      39.799  34.649  28.694  1.00  0.00     0.167 HD
ATOM     55  C   UNL A   1      43.269  33.393  29.145  1.00  0.00     0.074 A 
ATOM     56  C   UNL A   1      44.698  33.393  28.863  1.00  0.00     0.031 C 
ATOM     57  C   UNL A   1      42.415  34.434  29.381  1.00  0.00     0.031 A 
BRANCH  44  58
ATOM     58  C   UNL A   1      36.378  34.081  30.662  1.00  0.00    -0.014 A 
ATOM     59  C   UNL A   1      35.309  34.310  29.764  1.00  0.00     0.010 A 
ATOM     60  C   UNL A   1      36.124  34.394  32.013  1.00  0.00     0.010 A 
ATOM     61  C   UNL A   1      34.094  34.884  30.161  1.00  0.00     0.020 A 
ATOM     62  C   UNL A   1      34.908  34.980  32.426  1.00  0.00     0.020 A 
ATOM     63  C   UNL A   1      33.904  35.232  31.493  1.00  0.00     0.054 A 
BRANCH  63  64
ATOM     64  S   UNL A   1      32.327  35.993  31.967  1.00  0.00     0.124 S 
ATOM     65  O   UNL A   1      32.756  37.100  32.821  1.00  0.00    -0.237 OA
ATOM     66  O   UNL A   1      31.762  36.379  30.677  1.00  0.00    -0.237 OA
ATOM     67  O   UNL A   1      31.617  34.920  32.660  1.00  0.00    -0.744 OA
ENDBRANCH  63  64
ENDBRANCH  44  58
BRANCH  45  68
ATOM     68  C   UNL A   1      44.303  28.737  28.652  1.00  0.00    -0.014 A 
ATOM     69  C   UNL A   1      43.894  28.918  27.307  1.00  0.00     0.010 A 
ATOM     70  C   UNL A   1      45.033  27.572  28.951  1.00  0.00     0.010 A 
ATOM     71  C   UNL A   1      44.301  28.050  26.284  1.00  0.00     0.020 A 
ATOM     72  C   UNL A   1      45.426  26.680  27.927  1.00  0.00     0.020 A 
ATOM     73  C   UNL A   1      45.084  26.941  26.596  1.00  0.00     0.054 A 
BRANCH  73  74
ATOM     74  S   UNL A   1      45.827  25.991  25.224  1.00  0.00     0.124 S 
ATOM     75  O   UNL A   1      46.276  27.046  24.323  1.00  0.00    -0.237 OA
ATOM     76  O   UNL A   1      46.887  25.251  25.905  1.00  0.00    -0.237 OA
ATOM     77  O   UNL A   1      44.712  25.178  24.742  1.00  0.00    -0.744 OA
ENDBRANCH  73  74
ENDBRANCH  45  68
BRANCH  57  78
ATOM     78  C   UNL A   1      42.676  35.855  28.963  1.00  0.00    -0.014 A 
ATOM     79  C   UNL A   1      43.440  36.743  29.728  1.00  0.00     0.010 A 
ATOM     80  C   UNL A   1      42.295  36.270  27.663  1.00  0.00     0.010 A 
ATOM     81  C   UNL A   1      43.741  38.021  29.254  1.00  0.00     0.020 A 
ATOM     82  C   UNL A   1      42.645  37.517  27.156  1.00  0.00     0.020 A 
ATOM     83  C   UNL A   1      43.338  38.400  27.973  1.00  0.00     0.054 A 
BRANCH  83  84
ATOM     84  S   UNL A   1      43.771  40.042  27.361  1.00  0.00     0.124 S 
ATOM     85  O   UNL A   1      45.227  39.952  27.285  1.00  0.00    -0.237 OA
ATOM     86  O   UNL A   1      43.077  40.102  26.076  1.00  0.00    -0.237 OA
ATOM     87  O   UNL A   1      43.248  40.940  28.387  1.00  0.00    -0.744 OA
ENDBRANCH  83  84
ENDBRANCH  57  78
ENDBRANCH  31  32
ENDBRANCH  24  26
ENDBRANCH  23  24
ENDBRANCH   1  23
TORSDOF 16
ENDMDL
MODEL 3
REMARK VINA RESULT:     -12.4      1.109      1.399
REMARK SMILES Cc1ccc(C(=O)OCCOC(=O)c2ccc(-c3c4nc(c(-c5ccc(S(=O)(=O)[O-])cc5)c5ccc([nH]5)c(-c5ccc(S(=O)(=O)[O-])cc5)c5nc(c(-c6ccc(S(=O)(=O)[O-])cc6)c6ccc3[nH]6)C=C5)C=C4)cc2)cc1NC(=O)c1ccc(Br)o1
REMARK SMILES IDX 10 1 9 2 8 3 6 4 7 5 5 6 1 7 2 8 3 9 75 10 4 11 74 12 76 13
REMARK SMILES IDX 77 14 78 16 79 17 80 18 84 19 81 20 82 21 83 22 11 23 12 24
REMARK SMILES IDX 13 25 14 26 15 27 73 28 16 29 72 30 17 31 18 32 19 33 66 34
REMARK SMILES IDX 20 35 71 36 65 37 67 38 21 39 70 40 64 41 63 42 22 44 52 45
REMARK SMILES IDX 33 46 51 47 34 48 37 49 50 50 68 51 35 52 36 53 49 55 69 56
REMARK SMILES IDX 38 57 23 58 24 59 32 60 25 61 31 62 26 63 27 64 28 65 29 66
REMARK SMILES IDX 30 67 53 68 54 69 62 70 55 71 61 72 56 73 57 74 58 75 59 76
REMARK SMILES IDX 60 77 39 78 40 79 48 80 41 81 47 82 42 83 43 84 44 85 45 86
REMARK SMILES IDX 46 87
REMARK H PARENT 76 15 67 43 37 54
REMARK Flexibility Score: inf
ROOT
ATOM      1  C   UNL A   1      34.601  28.971  27.464  1.00  0.00     0.275 C 
ENDROOT
BRANCH   1   2
ATOM      2  C   UNL A   1      33.624  29.743  26.559  1.00  0.00     0.275 C 
BRANCH   2   3
ATOM      3  O   UNL A   1      32.274  29.698  27.053  1.00  0.00    -0.458 OA
BRANCH   3   4
ATOM      4  C   UNL A   1      31.783  28.445  27.182  1.00  0.00     0.338 C 
ATOM      5  O   UNL A   1      31.524  27.876  28.232  1.00  0.00    -0.246 OA
BRANCH   4   6
ATOM      6  C   UNL A   1      31.844  27.659  25.947  1.00  0.00     0.062 A 
ATOM      7  C   UNL A   1      30.347  24.700  23.216  1.00  0.00     0.046 C 
ATOM      8  C   UNL A   1      30.935  25.677  24.197  1.00  0.00    -0.027 A 
ATOM      9  C   UNL A   1      30.807  27.047  23.875  1.00  0.00     0.006 A 
ATOM     10  C   UNL A   1      31.534  25.321  25.422  1.00  0.00     0.045 A 
ATOM     11  C   UNL A   1      31.208  28.039  24.773  1.00  0.00     0.016 A 
ATOM     12  C   UNL A   1      32.108  26.320  26.197  1.00  0.00     0.042 A 
BRANCH  10  13
ATOM     13  N   UNL A   1      31.521  23.993  25.899  1.00  0.00    -0.319 N 
ATOM     14  C   UNL A   1      32.395  22.939  25.647  1.00  0.00     0.291 C 
ATOM     15  H   UNL A   1      30.776  23.779  26.507  1.00  0.00     0.170 HD
ATOM     16  O   UNL A   1      32.026  21.811  25.981  1.00  0.00    -0.265 OA
BRANCH  14  17
ATOM     17  C   UNL A   1      33.707  23.188  25.075  1.00  0.00     0.193 A 
ATOM     18  C   UNL A   1      34.185  23.138  23.776  1.00  0.00     0.057 A 
ATOM     19  O   UNL A   1      34.747  23.469  25.927  1.00  0.00    -0.444 OA
ATOM     20  C   UNL A   1      35.584  23.374  23.846  1.00  0.00     0.059 A 
ATOM     21  C   UNL A   1      35.878  23.546  25.175  1.00  0.00     0.170 A 
ATOM     22  Br  UNL A   1      37.597  23.790  25.857  1.00  0.00    -0.008 Br
ENDBRANCH  14  17
ENDBRANCH  10  13
ENDBRANCH   4   6
ENDBRANCH   3   4
ENDBRANCH   2   3
ENDBRANCH   1   2
BRANCH   1  23
ATOM     23  O   UNL A   1      35.420  29.708  28.401  1.00  0.00    -0.458 OA
BRANCH  23  24
ATOM     24  C   UNL A   1      36.518  30.329  27.908  1.00  0.00     0.338 C 
ATOM     25  O   UNL A   1      36.580  31.539  27.694  1.00  0.00    -0.246 OA
BRANCH  24  26
ATOM     26  C   UNL A   1      37.671  29.403  28.014  1.00  0.00     0.060 A 
ATOM     27  C   UNL A   1      38.660  29.407  27.019  1.00  0.00     0.016 A 
ATOM     28  C   UNL A   1      37.918  28.813  29.259  1.00  0.00     0.016 A 
ATOM     29  C   UNL A   1      39.934  28.929  27.299  1.00  0.00     0.010 A 
ATOM     30  C   UNL A   1      39.200  28.471  29.587  1.00  0.00     0.010 A 
ATOM     31  C   UNL A   1      40.188  28.490  28.596  1.00  0.00    -0.014 A 
BRANCH  31  32
ATOM     32  C   UNL A   1      41.328  27.678  28.959  1.00  0.00     0.031 A 
ATOM     33  C   UNL A   1      41.366  26.238  28.637  1.00  0.00     0.074 A 
ATOM     34  C   UNL A   1      42.337  28.478  29.380  1.00  0.00     0.049 A 
ATOM     35  N   UNL A   1      42.133  25.372  29.198  1.00  0.00    -0.248 NA
ATOM     36  C   UNL A   1      40.492  25.622  27.638  1.00  0.00     0.031 C 
ATOM     37  C   UNL A   1      43.745  28.220  29.587  1.00  0.00     0.029 A 
ATOM     38  N   UNL A   1      42.200  29.798  29.866  1.00  0.00    -0.354 N 
ATOM     39  C   UNL A   1      42.154  24.259  28.371  1.00  0.00     0.074 A 
ATOM     40  C   UNL A   1      40.995  24.384  27.529  1.00  0.00     0.031 C 
ATOM     41  C   UNL A   1      44.197  29.117  30.492  1.00  0.00     0.029 A 
ATOM     42  C   UNL A   1      43.032  29.862  30.974  1.00  0.00     0.049 A 
ATOM     43  H   UNL A   1      41.637  30.516  29.497  1.00  0.00     0.167 HD
ATOM     44  C   UNL A   1      43.289  23.503  28.321  1.00  0.00     0.031 A 
ATOM     45  C   UNL A   1      42.498  29.776  32.235  1.00  0.00     0.031 A 
ATOM     46  C   UNL A   1      44.267  24.050  29.261  1.00  0.00     0.049 A 
ATOM     47  C   UNL A   1      43.004  28.506  32.893  1.00  0.00     0.074 A 
ATOM     48  C   UNL A   1      45.313  24.935  29.065  1.00  0.00     0.029 A 
ATOM     49  N   UNL A   1      43.970  24.072  30.618  1.00  0.00    -0.354 N 
ATOM     50  N   UNL A   1      43.149  27.361  32.275  1.00  0.00    -0.248 NA
ATOM     51  C   UNL A   1      43.526  28.492  34.255  1.00  0.00     0.031 C 
ATOM     52  C   UNL A   1      45.551  25.593  30.301  1.00  0.00     0.029 A 
ATOM     53  C   UNL A   1      44.642  25.113  31.232  1.00  0.00     0.049 A 
ATOM     54  H   UNL A   1      43.369  23.440  31.075  1.00  0.00     0.167 HD
ATOM     55  C   UNL A   1      43.915  26.535  33.062  1.00  0.00     0.074 A 
ATOM     56  C   UNL A   1      44.072  27.265  34.311  1.00  0.00     0.031 C 
ATOM     57  C   UNL A   1      44.469  25.353  32.652  1.00  0.00     0.031 A 
BRANCH  44  58
ATOM     58  C   UNL A   1      43.671  22.557  27.198  1.00  0.00    -0.014 A 
ATOM     59  C   UNL A   1      42.823  21.457  26.928  1.00  0.00     0.010 A 
ATOM     60  C   UNL A   1      44.831  22.648  26.403  1.00  0.00     0.010 A 
ATOM     61  C   UNL A   1      43.140  20.467  25.989  1.00  0.00     0.020 A 
ATOM     62  C   UNL A   1      45.168  21.654  25.459  1.00  0.00     0.020 A 
ATOM     63  C   UNL A   1      44.323  20.562  25.267  1.00  0.00     0.054 A 
BRANCH  63  64
ATOM     64  S   UNL A   1      44.712  19.251  24.075  1.00  0.00     0.124 S 
ATOM     65  O   UNL A   1      43.752  18.207  24.431  1.00  0.00    -0.237 OA
ATOM     66  O   UNL A   1      44.475  19.910  22.793  1.00  0.00    -0.237 OA
ATOM     67  O   UNL A   1      46.108  18.926  24.357  1.00  0.00    -0.744 OA
ENDBRANCH  63  64
ENDBRANCH  44  58
BRANCH  45  68
ATOM     68  C   UNL A   1      41.138  30.395  32.448  1.00  0.00    -0.014 A 
ATOM     69  C   UNL A   1      40.155  29.627  33.119  1.00  0.00     0.010 A 
ATOM     70  C   UNL A   1      40.850  31.753  32.222  1.00  0.00     0.010 A 
ATOM     71  C   UNL A   1      38.998  30.209  33.657  1.00  0.00     0.020 A 
ATOM     72  C   UNL A   1      39.673  32.341  32.741  1.00  0.00     0.020 A 
ATOM     73  C   UNL A   1      38.770  31.571  33.482  1.00  0.00     0.054 A 
BRANCH  73  74
ATOM     74  S   UNL A   1      37.411  32.350  34.421  1.00  0.00     0.124 S 
ATOM     75  O   UNL A   1      37.493  31.670  35.708  1.00  0.00    -0.237 OA
ATOM     76  O   UNL A   1      37.810  33.756  34.425  1.00  0.00    -0.237 OA
ATOM     77  O   UNL A   1      36.231  32.041  33.615  1.00  0.00    -0.744 OA
ENDBRANCH  73  74
ENDBRANCH  45  68
BRANCH  57  78
ATOM     78  C   UNL A   1      45.026  24.312  33.584  1.00  0.00    -0.014 A 
ATOM     79  C   UNL A   1      44.290  23.199  34.005  1.00  0.00     0.010 A 
ATOM     80  C   UNL A   1      46.405  24.348  33.909  1.00  0.00     0.010 A 
ATOM     81  C   UNL A   1      44.879  22.205  34.789  1.00  0.00     0.020 A 
ATOM     82  C   UNL A   1      47.017  23.331  34.634  1.00  0.00     0.020 A 
ATOM     83  C   UNL A   1      46.238  22.281  35.100  1.00  0.00     0.054 A 
BRANCH  83  84
ATOM     84  S   UNL A   1      46.992  20.966  36.081  1.00  0.00     0.124 S 
ATOM     85  O   UNL A   1      45.825  20.383  36.737  1.00  0.00    -0.237 OA
ATOM     86  O   UNL A   1      47.627  20.128  35.065  1.00  0.00    -0.237 OA
ATOM     87  O   UNL A   1      47.917  21.679  36.958  1.00  0.00    -0.744 OA
ENDBRANCH  83  84
ENDBRANCH  57  78
ENDBRANCH  31  32
ENDBRANCH  24  26
ENDBRANCH  23  24
ENDBRANCH   1  23
TORSDOF 16
ENDMDL
