MODEL 1
REMARK VINA RESULT:     -12.4      0.000      0.000
REMARK SMILES Cc1cc(C(=O)OCCOC(=O)c2ccc(-c3c4nc(c(-c5ccc(S(=O)(=O)[O-])cc5)c5ccc([nH]5)c(-c5ccc(S(=O)(=O)[O-])cc5)c5nc(c(-c6ccc(S(=O)(=O)[O-])cc6)c6ccc3[nH]6)C=C5)C=C4)cc2)c2c(C)nn(-c3ccccc3)c2n1
REMARK SMILES IDX 9 1 8 2 7 3 5 4 6 5 4 6 1 7 2 8 3 9 85 10 84 11 73 12 77 13
REMARK SMILES IDX 74 14 76 15 75 16 78 17 79 18 83 19 80 20 82 21 81 22 10 23
REMARK SMILES IDX 11 24 12 25 13 26 14 27 72 28 15 29 71 30 16 31 17 32 18 33
REMARK SMILES IDX 65 34 19 35 70 36 64 37 66 38 20 39 69 40 63 41 62 42 21 44
REMARK SMILES IDX 51 45 32 46 50 47 33 48 36 49 49 50 67 51 34 52 35 53 48 55
REMARK SMILES IDX 68 56 37 57 22 58 23 59 31 60 24 61 30 62 25 63 26 64 27 65
REMARK SMILES IDX 28 66 29 67 52 68 53 69 61 70 54 71 60 72 55 73 56 74 57 75
REMARK SMILES IDX 58 76 59 77 38 78 39 79 47 80 40 81 46 82 41 83 42 84 43 85
REMARK SMILES IDX 44 86 45 87
REMARK H PARENT 66 43 36 54
REMARK Flexibility Score: inf
ROOT
ATOM      1  C   UNL A   1      43.877  22.177  25.353  1.00  0.00     0.275 C 
ENDROOT
BRANCH   1   2
ATOM      2  C   UNL A   1      43.106  21.025  25.988  1.00  0.00     0.275 C 
BRANCH   2   3
ATOM      3  O   UNL A   1      41.746  20.995  25.523  1.00  0.00    -0.458 OA
BRANCH   3   4
ATOM      4  C   UNL A   1      40.800  20.751  26.475  1.00  0.00     0.339 C 
ATOM      5  O   UNL A   1      40.751  19.782  27.195  1.00  0.00    -0.246 OA
BRANCH   4   6
ATOM      6  C   UNL A   1      39.841  21.881  26.536  1.00  0.00     0.074 A 
ATOM      7  C   UNL A   1      39.533  25.285  28.171  1.00  0.00     0.067 C 
ATOM      8  C   UNL A   1      39.261  24.100  27.288  1.00  0.00     0.041 A 
ATOM      9  C   UNL A   1      40.135  23.021  27.298  1.00  0.00     0.040 A 
ATOM     10  N   UNL A   1      38.123  24.141  26.568  1.00  0.00    -0.233 NA
ATOM     11  C   UNL A   1      37.825  22.992  25.919  1.00  0.00     0.164 A 
ATOM     12  C   UNL A   1      38.595  21.833  25.871  1.00  0.00     0.057 A 
ATOM     13  N   UNL A   1      36.658  22.721  25.229  1.00  0.00    -0.214 N 
ATOM     14  C   UNL A   1      37.787  20.914  25.134  1.00  0.00     0.070 A 
ATOM     15  N   UNL A   1      36.588  21.430  24.829  1.00  0.00    -0.171 NA
ATOM     16  C   UNL A   1      38.053  19.517  24.706  1.00  0.00     0.069 C 
BRANCH  13  17
ATOM     17  C   UNL A   1      35.644  23.625  24.849  1.00  0.00     0.067 A 
ATOM     18  C   UNL A   1      35.171  23.624  23.532  1.00  0.00     0.028 A 
ATOM     19  C   UNL A   1      35.072  24.461  25.815  1.00  0.00     0.028 A 
ATOM     20  C   UNL A   1      34.094  24.445  23.192  1.00  0.00     0.002 A 
ATOM     21  C   UNL A   1      34.040  25.325  25.448  1.00  0.00     0.002 A 
ATOM     22  C   UNL A   1      33.539  25.302  24.145  1.00  0.00     0.000 A 
ENDBRANCH  13  17
ENDBRANCH   4   6
ENDBRANCH   3   4
ENDBRANCH   2   3
ENDBRANCH   1   2
BRANCH   1  23
ATOM     23  O   UNL A   1      43.045  23.315  25.131  1.00  0.00    -0.458 OA
BRANCH  23  24
ATOM     24  C   UNL A   1      43.696  24.501  25.183  1.00  0.00     0.338 C 
ATOM     25  O   UNL A   1      44.808  24.750  24.746  1.00  0.00    -0.246 OA
BRANCH  24  26
ATOM     26  C   UNL A   1      42.944  25.434  26.022  1.00  0.00     0.060 A 
ATOM     27  C   UNL A   1      42.110  26.361  25.388  1.00  0.00     0.016 A 
ATOM     28  C   UNL A   1      43.281  25.546  27.379  1.00  0.00     0.016 A 
ATOM     29  C   UNL A   1      41.720  27.485  26.089  1.00  0.00     0.010 A 
ATOM     30  C   UNL A   1      42.922  26.683  28.061  1.00  0.00     0.010 A 
ATOM     31  C   UNL A   1      42.192  27.662  27.393  1.00  0.00    -0.014 A 
BRANCH  31  32
ATOM     32  C   UNL A   1      41.835  28.874  28.096  1.00  0.00     0.031 A 
ATOM     33  C   UNL A   1      42.844  29.945  27.958  1.00  0.00     0.074 A 
ATOM     34  C   UNL A   1      40.652  29.026  28.717  1.00  0.00     0.049 A 
ATOM     35  N   UNL A   1      43.717  30.314  28.833  1.00  0.00    -0.248 NA
ATOM     36  C   UNL A   1      43.024  30.555  26.629  1.00  0.00     0.031 C 
ATOM     37  C   UNL A   1      39.473  28.159  28.632  1.00  0.00     0.029 A 
ATOM     38  N   UNL A   1      40.222  30.060  29.486  1.00  0.00    -0.354 N 
ATOM     39  C   UNL A   1      44.403  31.366  28.239  1.00  0.00     0.074 A 
ATOM     40  C   UNL A   1      44.099  31.314  26.832  1.00  0.00     0.031 C 
ATOM     41  C   UNL A   1      38.401  28.814  29.141  1.00  0.00     0.029 A 
ATOM     42  C   UNL A   1      38.852  30.070  29.716  1.00  0.00     0.049 A 
ATOM     43  H   UNL A   1      40.829  30.743  29.851  1.00  0.00     0.167 HD
ATOM     44  C   UNL A   1      44.894  32.398  28.979  1.00  0.00     0.031 A 
ATOM     45  C   UNL A   1      38.151  31.081  30.290  1.00  0.00     0.031 A 
ATOM     46  C   UNL A   1      44.863  32.103  30.387  1.00  0.00     0.049 A 
ATOM     47  C   UNL A   1      39.114  31.853  31.114  1.00  0.00     0.074 A 
ATOM     48  C   UNL A   1      45.577  31.313  31.260  1.00  0.00     0.029 A 
ATOM     49  N   UNL A   1      43.662  32.394  30.983  1.00  0.00    -0.354 N 
ATOM     50  N   UNL A   1      39.744  31.347  32.139  1.00  0.00    -0.248 NA
ATOM     51  C   UNL A   1      39.669  33.098  30.596  1.00  0.00     0.031 C 
ATOM     52  C   UNL A   1      44.668  30.959  32.302  1.00  0.00     0.029 A 
ATOM     53  C   UNL A   1      43.440  31.572  32.057  1.00  0.00     0.049 A 
ATOM     54  H   UNL A   1      43.044  33.099  30.681  1.00  0.00     0.167 HD
ATOM     55  C   UNL A   1      40.983  31.962  32.126  1.00  0.00     0.074 A 
ATOM     56  C   UNL A   1      40.819  33.135  31.276  1.00  0.00     0.031 C 
ATOM     57  C   UNL A   1      42.102  31.309  32.551  1.00  0.00     0.031 A 
BRANCH  44  58
ATOM     58  C   UNL A   1      44.902  33.822  28.478  1.00  0.00    -0.014 A 
ATOM     59  C   UNL A   1      45.910  34.704  28.904  1.00  0.00     0.010 A 
ATOM     60  C   UNL A   1      43.792  34.389  27.813  1.00  0.00     0.010 A 
ATOM     61  C   UNL A   1      45.808  36.086  28.676  1.00  0.00     0.020 A 
ATOM     62  C   UNL A   1      43.700  35.754  27.543  1.00  0.00     0.020 A 
ATOM     63  C   UNL A   1      44.703  36.599  27.991  1.00  0.00     0.054 A 
BRANCH  63  64
ATOM     64  S   UNL A   1      44.544  38.387  27.759  1.00  0.00     0.124 S 
ATOM     65  O   UNL A   1      44.215  38.844  29.107  1.00  0.00    -0.237 OA
ATOM     66  O   UNL A   1      45.872  38.750  27.272  1.00  0.00    -0.237 OA
ATOM     67  O   UNL A   1      43.470  38.513  26.778  1.00  0.00    -0.744 OA
ENDBRANCH  63  64
ENDBRANCH  44  58
BRANCH  45  68
ATOM     68  C   UNL A   1      36.844  31.640  29.851  1.00  0.00    -0.014 A 
ATOM     69  C   UNL A   1      35.825  31.897  30.791  1.00  0.00     0.010 A 
ATOM     70  C   UNL A   1      36.710  32.215  28.571  1.00  0.00     0.010 A 
ATOM     71  C   UNL A   1      34.772  32.779  30.496  1.00  0.00     0.020 A 
ATOM     72  C   UNL A   1      35.658  33.088  28.266  1.00  0.00     0.020 A 
ATOM     73  C   UNL A   1      34.716  33.397  29.245  1.00  0.00     0.054 A 
BRANCH  73  74
ATOM     74  S   UNL A   1      33.469  34.685  28.941  1.00  0.00     0.124 S 
ATOM     75  O   UNL A   1      34.272  35.776  28.395  1.00  0.00    -0.237 OA
ATOM     76  O   UNL A   1      32.571  34.028  27.997  1.00  0.00    -0.237 OA
ATOM     77  O   UNL A   1      32.903  34.937  30.264  1.00  0.00    -0.744 OA
ENDBRANCH  73  74
ENDBRANCH  45  68
BRANCH  57  78
ATOM     78  C   UNL A   1      41.921  30.146  33.488  1.00  0.00    -0.014 A 
ATOM     79  C   UNL A   1      41.703  28.818  33.078  1.00  0.00     0.010 A 
ATOM     80  C   UNL A   1      42.077  30.414  34.858  1.00  0.00     0.010 A 
ATOM     81  C   UNL A   1      41.631  27.784  34.027  1.00  0.00     0.020 A 
ATOM     82  C   UNL A   1      42.021  29.390  35.804  1.00  0.00     0.020 A 
ATOM     83  C   UNL A   1      41.797  28.079  35.386  1.00  0.00     0.054 A 
BRANCH  83  84
ATOM     84  S   UNL A   1      41.723  26.741  36.612  1.00  0.00     0.124 S 
ATOM     85  O   UNL A   1      41.649  25.543  35.781  1.00  0.00    -0.237 OA
ATOM     86  O   UNL A   1      42.971  26.919  37.351  1.00  0.00    -0.237 OA
ATOM     87  O   UNL A   1      40.511  27.035  37.376  1.00  0.00    -0.744 OA
ENDBRANCH  83  84
ENDBRANCH  57  78
ENDBRANCH  31  32
ENDBRANCH  24  26
ENDBRANCH  23  24
ENDBRANCH   1  23
TORSDOF 15
ENDMDL
MODEL 2
REMARK VINA RESULT:     -11.8      3.269      4.860
REMARK SMILES Cc1cc(C(=O)OCCOC(=O)c2ccc(-c3c4nc(c(-c5ccc(S(=O)(=O)[O-])cc5)c5ccc([nH]5)c(-c5ccc(S(=O)(=O)[O-])cc5)c5nc(c(-c6ccc(S(=O)(=O)[O-])cc6)c6ccc3[nH]6)C=C5)C=C4)cc2)c2c(C)nn(-c3ccccc3)c2n1
REMARK SMILES IDX 9 1 8 2 7 3 5 4 6 5 4 6 1 7 2 8 3 9 85 10 84 11 73 12 77 13
REMARK SMILES IDX 74 14 76 15 75 16 78 17 79 18 83 19 80 20 82 21 81 22 10 23
REMARK SMILES IDX 11 24 12 25 13 26 14 27 72 28 15 29 71 30 16 31 17 32 18 33
REMARK SMILES IDX 65 34 19 35 70 36 64 37 66 38 20 39 69 40 63 41 62 42 21 44
REMARK SMILES IDX 51 45 32 46 50 47 33 48 36 49 49 50 67 51 34 52 35 53 48 55
REMARK SMILES IDX 68 56 37 57 22 58 23 59 31 60 24 61 30 62 25 63 26 64 27 65
REMARK SMILES IDX 28 66 29 67 52 68 53 69 61 70 54 71 60 72 55 73 56 74 57 75
REMARK SMILES IDX 58 76 59 77 38 78 39 79 47 80 40 81 46 82 41 83 42 84 43 85
REMARK SMILES IDX 44 86 45 87
REMARK H PARENT 66 43 36 54
REMARK Flexibility Score: inf
ROOT
ATOM      1  C   UNL A   1      36.378  23.331  26.115  1.00  0.00     0.275 C 
ENDROOT
BRANCH   1   2
ATOM      2  C   UNL A   1      35.193  23.675  25.221  1.00  0.00     0.275 C 
BRANCH   2   3
ATOM      3  O   UNL A   1      34.589  24.918  25.617  1.00  0.00    -0.458 OA
BRANCH   3   4
ATOM      4  C   UNL A   1      33.307  24.835  26.076  1.00  0.00     0.339 C 
ATOM      5  O   UNL A   1      32.812  23.883  26.631  1.00  0.00    -0.246 OA
BRANCH   4   6
ATOM      6  C   UNL A   1      32.598  26.115  25.831  1.00  0.00     0.074 A 
ATOM      7  C   UNL A   1      32.550  29.659  27.170  1.00  0.00     0.067 C 
ATOM      8  C   UNL A   1      32.286  28.461  26.303  1.00  0.00     0.041 A 
ATOM      9  C   UNL A   1      32.905  27.252  26.591  1.00  0.00     0.040 A 
ATOM     10  N   UNL A   1      31.393  28.631  25.307  1.00  0.00    -0.233 NA
ATOM     11  C   UNL A   1      31.051  27.496  24.657  1.00  0.00     0.164 A 
ATOM     12  C   UNL A   1      31.573  26.221  24.865  1.00  0.00     0.057 A 
ATOM     13  N   UNL A   1      30.064  27.367  23.697  1.00  0.00    -0.214 N 
ATOM     14  C   UNL A   1      30.813  25.391  23.985  1.00  0.00     0.070 A 
ATOM     15  N   UNL A   1      29.850  26.076  23.353  1.00  0.00    -0.171 NA
ATOM     16  C   UNL A   1      30.905  23.935  23.706  1.00  0.00     0.069 C 
BRANCH  13  17
ATOM     17  C   UNL A   1      29.370  28.394  23.023  1.00  0.00     0.067 A 
ATOM     18  C   UNL A   1      27.993  28.547  23.221  1.00  0.00     0.028 A 
ATOM     19  C   UNL A   1      30.083  29.294  22.222  1.00  0.00     0.028 A 
ATOM     20  C   UNL A   1      27.335  29.630  22.637  1.00  0.00     0.002 A 
ATOM     21  C   UNL A   1      29.403  30.335  21.591  1.00  0.00     0.002 A 
ATOM     22  C   UNL A   1      28.036  30.514  21.814  1.00  0.00     0.000 A 
ENDBRANCH  13  17
ENDBRANCH   4   6
ENDBRANCH   3   4
ENDBRANCH   2   3
ENDBRANCH   1   2
BRANCH   1  23
ATOM     23  O   UNL A   1      37.621  23.697  25.515  1.00  0.00    -0.458 OA
BRANCH  23  24
ATOM     24  C   UNL A   1      38.708  23.141  26.099  1.00  0.00     0.338 C 
ATOM     25  O   UNL A   1      38.956  21.951  26.209  1.00  0.00    -0.246 OA
BRANCH  24  26
ATOM     26  C   UNL A   1      39.489  24.181  26.768  1.00  0.00     0.060 A 
ATOM     27  C   UNL A   1      39.276  24.383  28.136  1.00  0.00     0.016 A 
ATOM     28  C   UNL A   1      40.206  25.098  25.986  1.00  0.00     0.016 A 
ATOM     29  C   UNL A   1      39.671  25.582  28.695  1.00  0.00     0.010 A 
ATOM     30  C   UNL A   1      40.564  26.304  26.536  1.00  0.00     0.010 A 
ATOM     31  C   UNL A   1      40.245  26.553  27.868  1.00  0.00    -0.014 A 
BRANCH  31  32
ATOM     32  C   UNL A   1      40.594  27.832  28.446  1.00  0.00     0.031 A 
ATOM     33  C   UNL A   1      41.877  28.366  27.946  1.00  0.00     0.074 A 
ATOM     34  C   UNL A   1      39.767  28.500  29.271  1.00  0.00     0.049 A 
ATOM     35  N   UNL A   1      43.014  28.369  28.556  1.00  0.00    -0.248 NA
ATOM     36  C   UNL A   1      41.948  28.782  26.534  1.00  0.00     0.031 C 
ATOM     37  C   UNL A   1      38.359  28.212  29.561  1.00  0.00     0.029 A 
ATOM     38  N   UNL A   1      39.996  29.652  29.954  1.00  0.00    -0.354 N 
ATOM     39  C   UNL A   1      43.892  29.002  27.685  1.00  0.00     0.074 A 
ATOM     40  C   UNL A   1      43.251  29.021  26.396  1.00  0.00     0.031 C 
ATOM     41  C   UNL A   1      37.805  29.282  30.181  1.00  0.00     0.029 A 
ATOM     42  C   UNL A   1      38.850  30.253  30.460  1.00  0.00     0.049 A 
ATOM     43  H   UNL A   1      40.896  30.028  30.081  1.00  0.00     0.167 HD
ATOM     44  C   UNL A   1      44.923  29.760  28.149  1.00  0.00     0.031 A 
ATOM     45  C   UNL A   1      38.782  31.490  31.015  1.00  0.00     0.031 A 
ATOM     46  C   UNL A   1      45.130  29.569  29.560  1.00  0.00     0.049 A 
ATOM     47  C   UNL A   1      40.147  31.816  31.498  1.00  0.00     0.074 A 
ATOM     48  C   UNL A   1      45.662  28.591  30.370  1.00  0.00     0.029 A 
ATOM     49  N   UNL A   1      44.338  30.369  30.344  1.00  0.00    -0.354 N 
ATOM     50  N   UNL A   1      40.756  31.137  32.432  1.00  0.00    -0.248 NA
ATOM     51  C   UNL A   1      41.006  32.683  30.699  1.00  0.00     0.031 C 
ATOM     52  C   UNL A   1      44.979  28.703  31.619  1.00  0.00     0.029 A 
ATOM     53  C   UNL A   1      44.082  29.768  31.548  1.00  0.00     0.049 A 
ATOM     54  H   UNL A   1      44.001  31.255  30.078  1.00  0.00     0.167 HD
ATOM     55  C   UNL A   1      42.091  31.167  32.071  1.00  0.00     0.074 A 
ATOM     56  C   UNL A   1      42.204  32.259  31.112  1.00  0.00     0.031 C 
ATOM     57  C   UNL A   1      42.921  30.120  32.344  1.00  0.00     0.031 A 
BRANCH  44  58
ATOM     58  C   UNL A   1      45.376  31.021  27.454  1.00  0.00    -0.014 A 
ATOM     59  C   UNL A   1      46.715  31.146  27.041  1.00  0.00     0.010 A 
ATOM     60  C   UNL A   1      44.589  32.194  27.441  1.00  0.00     0.010 A 
ATOM     61  C   UNL A   1      47.235  32.386  26.636  1.00  0.00     0.020 A 
ATOM     62  C   UNL A   1      45.083  33.421  27.000  1.00  0.00     0.020 A 
ATOM     63  C   UNL A   1      46.411  33.514  26.614  1.00  0.00     0.054 A 
BRANCH  63  64
ATOM     64  S   UNL A   1      47.105  35.122  26.156  1.00  0.00     0.124 S 
ATOM     65  O   UNL A   1      48.031  34.763  25.085  1.00  0.00    -0.237 OA
ATOM     66  O   UNL A   1      45.914  35.861  25.744  1.00  0.00    -0.237 OA
ATOM     67  O   UNL A   1      47.729  35.592  27.390  1.00  0.00    -0.744 OA
ENDBRANCH  63  64
ENDBRANCH  44  58
BRANCH  45  68
ATOM     68  C   UNL A   1      37.745  32.531  30.780  1.00  0.00    -0.014 A 
ATOM     69  C   UNL A   1      37.763  33.304  29.601  1.00  0.00     0.010 A 
ATOM     70  C   UNL A   1      36.567  32.548  31.553  1.00  0.00     0.010 A 
ATOM     71  C   UNL A   1      36.613  33.979  29.159  1.00  0.00     0.020 A 
ATOM     72  C   UNL A   1      35.419  33.227  31.124  1.00  0.00     0.020 A 
ATOM     73  C   UNL A   1      35.437  33.906  29.908  1.00  0.00     0.054 A 
BRANCH  73  74
ATOM     74  S   UNL A   1      33.904  34.612  29.232  1.00  0.00     0.124 S 
ATOM     75  O   UNL A   1      34.389  35.788  28.515  1.00  0.00    -0.237 OA
ATOM     76  O   UNL A   1      33.405  33.524  28.397  1.00  0.00    -0.237 OA
ATOM     77  O   UNL A   1      33.103  34.900  30.420  1.00  0.00    -0.744 OA
ENDBRANCH  73  74
ENDBRANCH  45  68
BRANCH  57  78
ATOM     78  C   UNL A   1      42.530  29.187  33.457  1.00  0.00    -0.014 A 
ATOM     79  C   UNL A   1      41.764  28.019  33.287  1.00  0.00     0.010 A 
ATOM     80  C   UNL A   1      43.053  29.473  34.729  1.00  0.00     0.010 A 
ATOM     81  C   UNL A   1      41.521  27.164  34.376  1.00  0.00     0.020 A 
ATOM     82  C   UNL A   1      42.829  28.621  35.810  1.00  0.00     0.020 A 
ATOM     83  C   UNL A   1      42.062  27.469  35.630  1.00  0.00     0.054 A 
BRANCH  83  84
ATOM     84  S   UNL A   1      41.764  26.356  37.033  1.00  0.00     0.124 S 
ATOM     85  O   UNL A   1      42.906  26.618  37.904  1.00  0.00    -0.237 OA
ATOM     86  O   UNL A   1      40.471  26.815  37.534  1.00  0.00    -0.237 OA
ATOM     87  O   UNL A   1      41.748  25.025  36.426  1.00  0.00    -0.744 OA
ENDBRANCH  83  84
ENDBRANCH  57  78
ENDBRANCH  31  32
ENDBRANCH  24  26
ENDBRANCH  23  24
ENDBRANCH   1  23
TORSDOF 15
ENDMDL
MODEL 3
REMARK VINA RESULT:     -11.8      2.444      3.897
REMARK SMILES Cc1cc(C(=O)OCCOC(=O)c2ccc(-c3c4nc(c(-c5ccc(S(=O)(=O)[O-])cc5)c5ccc([nH]5)c(-c5ccc(S(=O)(=O)[O-])cc5)c5nc(c(-c6ccc(S(=O)(=O)[O-])cc6)c6ccc3[nH]6)C=C5)C=C4)cc2)c2c(C)nn(-c3ccccc3)c2n1
REMARK SMILES IDX 9 1 8 2 7 3 5 4 6 5 4 6 1 7 2 8 3 9 85 10 84 11 73 12 77 13
REMARK SMILES IDX 74 14 76 15 75 16 78 17 79 18 83 19 80 20 82 21 81 22 10 23
REMARK SMILES IDX 11 24 12 25 13 26 14 27 72 28 15 29 71 30 16 31 17 32 18 33
REMARK SMILES IDX 65 34 19 35 70 36 64 37 66 38 20 39 69 40 63 41 62 42 21 44
REMARK SMILES IDX 51 45 32 46 50 47 33 48 36 49 49 50 67 51 34 52 35 53 48 55
REMARK SMILES IDX 68 56 37 57 22 58 23 59 31 60 24 61 30 62 25 63 26 64 27 65
REMARK SMILES IDX 28 66 29 67 52 68 53 69 61 70 54 71 60 72 55 73 56 74 57 75
REMARK SMILES IDX 58 76 59 77 38 78 39 79 47 80 40 81 46 82 41 83 42 84 43 85
REMARK SMILES IDX 44 86 45 87
REMARK H PARENT 66 43 36 54
REMARK Flexibility Score: inf
ROOT
ATOM      1  C   UNL A   1      37.990  21.908  25.268  1.00  0.00     0.275 C 
ENDROOT
BRANCH   1   2
ATOM      2  C   UNL A   1      36.949  20.806  25.422  1.00  0.00     0.275 C 
BRANCH   2   3
ATOM      3  O   UNL A   1      35.702  21.335  25.903  1.00  0.00    -0.458 OA
BRANCH   3   4
ATOM      4  C   UNL A   1      34.582  20.888  25.264  1.00  0.00     0.339 C 
ATOM      5  O   UNL A   1      34.401  19.768  24.851  1.00  0.00    -0.246 OA
BRANCH   4   6
ATOM      6  C   UNL A   1      33.579  21.978  25.180  1.00  0.00     0.074 A 
ATOM      7  C   UNL A   1      30.191  22.865  26.627  1.00  0.00     0.067 C 
ATOM      8  C   UNL A   1      31.499  22.972  25.894  1.00  0.00     0.041 A 
ATOM      9  C   UNL A   1      32.395  21.911  25.927  1.00  0.00     0.040 A 
ATOM     10  N   UNL A   1      31.694  24.101  25.185  1.00  0.00    -0.233 NA
ATOM     11  C   UNL A   1      32.799  24.092  24.404  1.00  0.00     0.164 A 
ATOM     12  C   UNL A   1      33.760  23.086  24.322  1.00  0.00     0.057 A 
ATOM     13  N   UNL A   1      33.157  25.057  23.481  1.00  0.00    -0.214 N 
ATOM     14  C   UNL A   1      34.648  23.543  23.302  1.00  0.00     0.070 A 
ATOM     15  N   UNL A   1      34.228  24.685  22.741  1.00  0.00    -0.171 NA
ATOM     16  C   UNL A   1      35.897  22.944  22.766  1.00  0.00     0.069 C 
BRANCH  13  17
ATOM     17  C   UNL A   1      32.604  26.343  23.312  1.00  0.00     0.067 A 
ATOM     18  C   UNL A   1      31.431  26.502  22.564  1.00  0.00     0.028 A 
ATOM     19  C   UNL A   1      33.195  27.436  23.957  1.00  0.00     0.028 A 
ATOM     20  C   UNL A   1      30.832  27.760  22.493  1.00  0.00     0.002 A 
ATOM     21  C   UNL A   1      32.623  28.701  23.824  1.00  0.00     0.002 A 
ATOM     22  C   UNL A   1      31.433  28.859  23.111  1.00  0.00     0.000 A 
ENDBRANCH  13  17
ENDBRANCH   4   6
ENDBRANCH   3   4
ENDBRANCH   2   3
ENDBRANCH   1   2
BRANCH   1  23
ATOM     23  O   UNL A   1      38.441  22.393  26.534  1.00  0.00    -0.458 OA
BRANCH  23  24
ATOM     24  C   UNL A   1      39.770  22.245  26.747  1.00  0.00     0.338 C 
ATOM     25  O   UNL A   1      40.377  21.199  26.910  1.00  0.00    -0.246 OA
BRANCH  24  26
ATOM     26  C   UNL A   1      40.381  23.559  26.946  1.00  0.00     0.060 A 
ATOM     27  C   UNL A   1      41.338  23.690  27.958  1.00  0.00     0.016 A 
ATOM     28  C   UNL A   1      39.810  24.673  26.315  1.00  0.00     0.016 A 
ATOM     29  C   UNL A   1      41.623  24.954  28.435  1.00  0.00     0.010 A 
ATOM     30  C   UNL A   1      40.068  25.926  26.817  1.00  0.00     0.010 A 
ATOM     31  C   UNL A   1      40.930  26.046  27.904  1.00  0.00    -0.014 A 
BRANCH  31  32
ATOM     32  C   UNL A   1      41.184  27.359  28.456  1.00  0.00     0.031 A 
ATOM     33  C   UNL A   1      42.458  27.947  27.993  1.00  0.00     0.074 A 
ATOM     34  C   UNL A   1      40.288  28.004  29.223  1.00  0.00     0.049 A 
ATOM     35  N   UNL A   1      43.565  28.029  28.650  1.00  0.00    -0.248 NA
ATOM     36  C   UNL A   1      42.567  28.325  26.573  1.00  0.00     0.031 C 
ATOM     37  C   UNL A   1      38.886  27.649  29.464  1.00  0.00     0.029 A 
ATOM     38  N   UNL A   1      40.425  29.186  29.879  1.00  0.00    -0.354 N 
ATOM     39  C   UNL A   1      44.445  28.684  27.798  1.00  0.00     0.074 A 
ATOM     40  C   UNL A   1      43.861  28.631  26.482  1.00  0.00     0.031 C 
ATOM     41  C   UNL A   1      38.250  28.705  30.026  1.00  0.00     0.029 A 
ATOM     42  C   UNL A   1      39.228  29.739  30.318  1.00  0.00     0.049 A 
ATOM     43  H   UNL A   1      41.298  29.614  30.032  1.00  0.00     0.167 HD
ATOM     44  C   UNL A   1      45.414  29.510  28.280  1.00  0.00     0.031 A 
ATOM     45  C   UNL A   1      39.070  30.986  30.830  1.00  0.00     0.031 A 
ATOM     46  C   UNL A   1      45.569  29.372  29.704  1.00  0.00     0.049 A 
ATOM     47  C   UNL A   1      40.394  31.399  31.360  1.00  0.00     0.074 A 
ATOM     48  C   UNL A   1      46.116  28.448  30.566  1.00  0.00     0.029 A 
ATOM     49  N   UNL A   1      44.702  30.150  30.428  1.00  0.00    -0.354 N 
ATOM     50  N   UNL A   1      40.996  30.782  32.339  1.00  0.00    -0.248 NA
ATOM     51  C   UNL A   1      41.239  32.289  30.571  1.00  0.00     0.031 C 
ATOM     52  C   UNL A   1      45.374  28.559  31.781  1.00  0.00     0.029 A 
ATOM     53  C   UNL A   1      44.426  29.571  31.639  1.00  0.00     0.049 A 
ATOM     54  H   UNL A   1      44.330  31.008  30.121  1.00  0.00     0.167 HD
ATOM     55  C   UNL A   1      42.342  30.874  32.034  1.00  0.00     0.074 A 
ATOM     56  C   UNL A   1      42.439  31.942  31.047  1.00  0.00     0.031 C 
ATOM     57  C   UNL A   1      43.214  29.882  32.374  1.00  0.00     0.031 A 
BRANCH  44  58
ATOM     58  C   UNL A   1      45.829  30.774  27.566  1.00  0.00    -0.014 A 
ATOM     59  C   UNL A   1      47.176  30.962  27.211  1.00  0.00     0.010 A 
ATOM     60  C   UNL A   1      44.979  31.898  27.477  1.00  0.00     0.010 A 
ATOM     61  C   UNL A   1      47.646  32.217  26.790  1.00  0.00     0.020 A 
ATOM     62  C   UNL A   1      45.425  33.138  27.020  1.00  0.00     0.020 A 
ATOM     63  C   UNL A   1      46.762  33.294  26.693  1.00  0.00     0.054 A 
BRANCH  63  64
ATOM     64  S   UNL A   1      47.387  34.925  26.214  1.00  0.00     0.124 S 
ATOM     65  O   UNL A   1      48.169  34.616  25.020  1.00  0.00    -0.237 OA
ATOM     66  O   UNL A   1      46.152  35.670  25.989  1.00  0.00    -0.237 OA
ATOM     67  O   UNL A   1      48.164  35.351  27.375  1.00  0.00    -0.744 OA
ENDBRANCH  63  64
ENDBRANCH  44  58
BRANCH  45  68
ATOM     68  C   UNL A   1      37.990  31.961  30.520  1.00  0.00    -0.014 A 
ATOM     69  C   UNL A   1      38.048  32.740  29.346  1.00  0.00     0.010 A 
ATOM     70  C   UNL A   1      36.759  31.900  31.203  1.00  0.00     0.010 A 
ATOM     71  C   UNL A   1      36.894  33.345  28.821  1.00  0.00     0.020 A 
ATOM     72  C   UNL A   1      35.606  32.509  30.690  1.00  0.00     0.020 A 
ATOM     73  C   UNL A   1      35.672  33.195  29.479  1.00  0.00     0.054 A 
BRANCH  73  74
ATOM     74  S   UNL A   1      34.152  33.808  28.691  1.00  0.00     0.124 S 
ATOM     75  O   UNL A   1      33.631  32.610  28.039  1.00  0.00    -0.237 OA
ATOM     76  O   UNL A   1      33.385  34.290  29.835  1.00  0.00    -0.237 OA
ATOM     77  O   UNL A   1      34.630  34.847  27.781  1.00  0.00    -0.744 OA
ENDBRANCH  73  74
ENDBRANCH  45  68
BRANCH  57  78
ATOM     78  C   UNL A   1      42.825  28.962  33.498  1.00  0.00    -0.014 A 
ATOM     79  C   UNL A   1      42.052  27.796  33.345  1.00  0.00     0.010 A 
ATOM     80  C   UNL A   1      43.358  29.257  34.765  1.00  0.00     0.010 A 
ATOM     81  C   UNL A   1      41.812  26.953  34.443  1.00  0.00     0.020 A 
ATOM     82  C   UNL A   1      43.135  28.417  35.855  1.00  0.00     0.020 A 
ATOM     83  C   UNL A   1      42.362  27.268  35.691  1.00  0.00     0.054 A 
BRANCH  83  84
ATOM     84  S   UNL A   1      42.067  26.169  37.106  1.00  0.00     0.124 S 
ATOM     85  O   UNL A   1      40.658  26.404  37.412  1.00  0.00    -0.237 OA
ATOM     86  O   UNL A   1      42.381  24.852  36.557  1.00  0.00    -0.237 OA
ATOM     87  O   UNL A   1      43.004  26.649  38.122  1.00  0.00    -0.744 OA
ENDBRANCH  83  84
ENDBRANCH  57  78
ENDBRANCH  31  32
ENDBRANCH  24  26
ENDBRANCH  23  24
ENDBRANCH   1  23
TORSDOF 15
ENDMDL
