MODEL 1
REMARK VINA RESULT:     -10.8      0.000      0.000
REMARK SMILES C[C@@H](C(=O)OCCOC(=O)c1ccc(-c2c3nc(c(-c4ccc(S(=O)(=O)[O-])cc4)c4ccc([nH]4)c(-c4ccc(S(=O)(=O)[O-])cc4)c4nc(c(-c5ccc(S(=O)(=O)[O-])cc5)c5ccc2[nH]5)C=C4)C=C3)cc1)N1C(=O)/C(=C/c2ccc(F)cc2)SC1=S
REMARK SMILES IDX 7 1 6 2 5 3 3 4 4 5 2 6 1 7 71 8 72 9 84 10 73 11 74 12
REMARK SMILES IDX 83 13 85 14 75 15 76 16 77 17 82 18 78 19 81 20 79 21 80 22
REMARK SMILES IDX 8 23 9 24 10 25 11 26 12 27 70 28 13 29 69 30 14 31 15 32
REMARK SMILES IDX 16 33 63 34 17 35 68 36 62 37 64 38 18 39 67 40 61 41 60 42
REMARK SMILES IDX 19 44 49 45 30 46 48 47 31 48 34 49 47 50 65 51 32 52 33 53
REMARK SMILES IDX 46 55 66 56 35 57 20 58 21 59 29 60 22 61 28 62 23 63 24 64
REMARK SMILES IDX 25 65 26 66 27 67 50 68 51 69 59 70 52 71 58 72 53 73 54 74
REMARK SMILES IDX 55 75 56 76 57 77 36 78 37 79 45 80 38 81 44 82 39 83 40 84
REMARK SMILES IDX 41 85 42 86 43 87
REMARK H PARENT 64 43 34 54
REMARK Flexibility Score: inf
ROOT
ATOM      1  C   UNL A   1      37.687  21.019  24.777  1.00  0.00     0.275 C 
ENDROOT
BRANCH   1   2
ATOM      2  C   UNL A   1      36.278  20.543  25.119  1.00  0.00     0.274 C 
BRANCH   2   3
ATOM      3  O   UNL A   1      35.290  21.496  24.674  1.00  0.00    -0.461 OA
BRANCH   3   4
ATOM      4  C   UNL A   1      34.296  21.802  25.555  1.00  0.00     0.329 C 
ATOM      5  O   UNL A   1      34.341  21.552  26.755  1.00  0.00    -0.250 OA
BRANCH   4   6
ATOM      6  C   UNL A   1      33.047  22.370  24.859  1.00  0.00     0.199 C 
ATOM      7  C   UNL A   1      33.080  22.235  23.336  1.00  0.00     0.044 C 
BRANCH   6   8
ATOM      8  N   UNL A   1      32.784  23.751  25.345  1.00  0.00    -0.279 N 
ATOM      9  C   UNL A   1      33.700  24.768  25.127  1.00  0.00     0.266 C 
ATOM     10  C   UNL A   1      31.696  24.089  26.131  1.00  0.00     0.149 C 
ATOM     11  O   UNL A   1      34.760  24.660  24.527  1.00  0.00    -0.268 OA
ATOM     12  C   UNL A   1      33.257  26.042  25.768  1.00  0.00     0.081 C 
ATOM     13  S   UNL A   1      31.763  25.792  26.565  1.00  0.00    -0.054 SA
ATOM     14  S   UNL A   1      30.432  23.114  26.624  1.00  0.00    -0.052 S 
ATOM     15  C   UNL A   1      34.002  27.157  25.700  1.00  0.00     0.029 C 
BRANCH  15  16
ATOM     16  C   UNL A   1      33.797  28.474  26.334  1.00  0.00    -0.024 A 
ATOM     17  C   UNL A   1      32.631  29.196  26.021  1.00  0.00     0.011 A 
ATOM     18  C   UNL A   1      34.775  29.099  27.121  1.00  0.00     0.011 A 
ATOM     19  C   UNL A   1      32.440  30.494  26.506  1.00  0.00     0.040 A 
ATOM     20  C   UNL A   1      34.580  30.396  27.611  1.00  0.00     0.040 A 
ATOM     21  C   UNL A   1      33.415  31.081  27.299  1.00  0.00     0.123 A 
ATOM     22  F   UNL A   1      33.231  32.322  27.767  1.00  0.00    -0.207 F 
ENDBRANCH  15  16
ENDBRANCH   6   8
ENDBRANCH   4   6
ENDBRANCH   3   4
ENDBRANCH   2   3
ENDBRANCH   1   2
BRANCH   1  23
ATOM     23  O   UNL A   1      38.100  22.002  25.739  1.00  0.00    -0.458 OA
BRANCH  23  24
ATOM     24  C   UNL A   1      39.349  21.858  26.237  1.00  0.00     0.338 C 
ATOM     25  O   UNL A   1      40.041  20.856  26.212  1.00  0.00    -0.246 OA
BRANCH  24  26
ATOM     26  C   UNL A   1      39.765  23.126  26.865  1.00  0.00     0.060 A 
ATOM     27  C   UNL A   1      39.252  24.337  26.403  1.00  0.00     0.016 A 
ATOM     28  C   UNL A   1      40.739  23.117  27.862  1.00  0.00     0.016 A 
ATOM     29  C   UNL A   1      39.787  25.537  26.865  1.00  0.00     0.010 A 
ATOM     30  C   UNL A   1      41.208  24.327  28.388  1.00  0.00     0.010 A 
ATOM     31  C   UNL A   1      40.776  25.555  27.859  1.00  0.00    -0.014 A 
BRANCH  31  32
ATOM     32  C   UNL A   1      41.400  26.848  28.270  1.00  0.00     0.031 A 
ATOM     33  C   UNL A   1      42.864  27.110  27.997  1.00  0.00     0.074 A 
ATOM     34  C   UNL A   1      40.648  27.833  28.804  1.00  0.00     0.049 A 
ATOM     35  N   UNL A   1      43.601  28.130  28.358  1.00  0.00    -0.248 NA
ATOM     36  C   UNL A   1      43.596  26.090  27.226  1.00  0.00     0.031 C 
ATOM     37  C   UNL A   1      39.206  27.762  29.053  1.00  0.00     0.029 A 
ATOM     38  N   UNL A   1      40.981  29.113  29.180  1.00  0.00    -0.354 N 
ATOM     39  C   UNL A   1      44.887  27.853  27.905  1.00  0.00     0.074 A 
ATOM     40  C   UNL A   1      44.834  26.565  27.251  1.00  0.00     0.031 C 
ATOM     41  C   UNL A   1      38.765  28.969  29.439  1.00  0.00     0.029 A 
ATOM     42  C   UNL A   1      39.902  29.874  29.568  1.00  0.00     0.049 A 
ATOM     43  H   UNL A   1      41.904  29.453  29.174  1.00  0.00     0.167 HD
ATOM     44  C   UNL A   1      46.010  28.600  28.020  1.00  0.00     0.031 A 
ATOM     45  C   UNL A   1      39.828  31.150  29.996  1.00  0.00     0.031 A 
ATOM     46  C   UNL A   1      46.060  29.907  28.621  1.00  0.00     0.049 A 
ATOM     47  C   UNL A   1      41.092  31.947  30.149  1.00  0.00     0.074 A 
ATOM     48  C   UNL A   1      47.164  30.714  28.841  1.00  0.00     0.029 A 
ATOM     49  N   UNL A   1      44.954  30.615  29.065  1.00  0.00    -0.354 N 
ATOM     50  N   UNL A   1      42.318  31.614  29.826  1.00  0.00    -0.248 NA
ATOM     51  C   UNL A   1      40.965  33.280  30.755  1.00  0.00     0.031 C 
ATOM     52  C   UNL A   1      46.729  31.893  29.458  1.00  0.00     0.029 A 
ATOM     53  C   UNL A   1      45.351  31.837  29.580  1.00  0.00     0.049 A 
ATOM     54  H   UNL A   1      44.024  30.294  29.022  1.00  0.00     0.167 HD
ATOM     55  C   UNL A   1      43.111  32.693  30.199  1.00  0.00     0.074 A 
ATOM     56  C   UNL A   1      42.222  33.703  30.736  1.00  0.00     0.031 C 
ATOM     57  C   UNL A   1      44.458  32.826  30.123  1.00  0.00     0.031 A 
BRANCH  44  58
ATOM     58  C   UNL A   1      47.299  27.996  27.535  1.00  0.00    -0.014 A 
ATOM     59  C   UNL A   1      47.810  28.276  26.255  1.00  0.00     0.010 A 
ATOM     60  C   UNL A   1      48.029  27.153  28.396  1.00  0.00     0.010 A 
ATOM     61  C   UNL A   1      49.011  27.697  25.833  1.00  0.00     0.020 A 
ATOM     62  C   UNL A   1      49.240  26.590  27.986  1.00  0.00     0.020 A 
ATOM     63  C   UNL A   1      49.714  26.853  26.699  1.00  0.00     0.054 A 
BRANCH  63  64
ATOM     64  S   UNL A   1      51.277  26.124  26.134  1.00  0.00     0.124 S 
ATOM     65  O   UNL A   1      51.111  26.147  24.682  1.00  0.00    -0.237 OA
ATOM     66  O   UNL A   1      52.275  27.049  26.665  1.00  0.00    -0.237 OA
ATOM     67  O   UNL A   1      51.279  24.795  26.740  1.00  0.00    -0.744 OA
ENDBRANCH  63  64
ENDBRANCH  44  58
BRANCH  45  68
ATOM     68  C   UNL A   1      38.507  31.742  30.346  1.00  0.00    -0.014 A 
ATOM     69  C   UNL A   1      37.992  31.616  31.648  1.00  0.00     0.010 A 
ATOM     70  C   UNL A   1      37.767  32.455  29.385  1.00  0.00     0.010 A 
ATOM     71  C   UNL A   1      36.762  32.192  31.983  1.00  0.00     0.020 A 
ATOM     72  C   UNL A   1      36.555  33.059  29.723  1.00  0.00     0.020 A 
ATOM     73  C   UNL A   1      36.054  32.915  31.018  1.00  0.00     0.054 A 
BRANCH  73  74
ATOM     74  S   UNL A   1      34.501  33.730  31.483  1.00  0.00     0.124 S 
ATOM     75  O   UNL A   1      33.877  32.725  32.339  1.00  0.00    -0.237 OA
ATOM     76  O   UNL A   1      34.960  34.940  32.161  1.00  0.00    -0.237 OA
ATOM     77  O   UNL A   1      33.843  33.958  30.199  1.00  0.00    -0.744 OA
ENDBRANCH  73  74
ENDBRANCH  45  68
BRANCH  57  78
ATOM     78  C   UNL A   1      45.054  34.104  30.647  1.00  0.00    -0.014 A 
ATOM     79  C   UNL A   1      45.276  35.197  29.790  1.00  0.00     0.010 A 
ATOM     80  C   UNL A   1      45.346  34.234  32.015  1.00  0.00     0.010 A 
ATOM     81  C   UNL A   1      45.810  36.388  30.286  1.00  0.00     0.020 A 
ATOM     82  C   UNL A   1      45.860  35.432  32.521  1.00  0.00     0.020 A 
ATOM     83  C   UNL A   1      46.102  36.498  31.649  1.00  0.00     0.054 A 
BRANCH  83  84
ATOM     84  S   UNL A   1      46.756  38.068  32.279  1.00  0.00     0.124 S 
ATOM     85  O   UNL A   1      45.534  38.824  32.539  1.00  0.00    -0.237 OA
ATOM     86  O   UNL A   1      47.503  37.655  33.466  1.00  0.00    -0.237 OA
ATOM     87  O   UNL A   1      47.576  38.569  31.179  1.00  0.00    -0.744 OA
ENDBRANCH  83  84
ENDBRANCH  57  78
ENDBRANCH  31  32
ENDBRANCH  24  26
ENDBRANCH  23  24
ENDBRANCH   1  23
TORSDOF 16
ENDMDL
MODEL 2
REMARK VINA RESULT:     -10.7      4.679     10.162
REMARK SMILES C[C@@H](C(=O)OCCOC(=O)c1ccc(-c2c3nc(c(-c4ccc(S(=O)(=O)[O-])cc4)c4ccc([nH]4)c(-c4ccc(S(=O)(=O)[O-])cc4)c4nc(c(-c5ccc(S(=O)(=O)[O-])cc5)c5ccc2[nH]5)C=C4)C=C3)cc1)N1C(=O)/C(=C/c2ccc(F)cc2)SC1=S
REMARK SMILES IDX 7 1 6 2 5 3 3 4 4 5 2 6 1 7 71 8 72 9 84 10 73 11 74 12
REMARK SMILES IDX 83 13 85 14 75 15 76 16 77 17 82 18 78 19 81 20 79 21 80 22
REMARK SMILES IDX 8 23 9 24 10 25 11 26 12 27 70 28 13 29 69 30 14 31 15 32
REMARK SMILES IDX 16 33 63 34 17 35 68 36 62 37 64 38 18 39 67 40 61 41 60 42
REMARK SMILES IDX 19 44 49 45 30 46 48 47 31 48 34 49 47 50 65 51 32 52 33 53
REMARK SMILES IDX 46 55 66 56 35 57 20 58 21 59 29 60 22 61 28 62 23 63 24 64
REMARK SMILES IDX 25 65 26 66 27 67 50 68 51 69 59 70 52 71 58 72 53 73 54 74
REMARK SMILES IDX 55 75 56 76 57 77 36 78 37 79 45 80 38 81 44 82 39 83 40 84
REMARK SMILES IDX 41 85 42 86 43 87
REMARK H PARENT 64 43 34 54
REMARK Flexibility Score: inf
ROOT
ATOM      1  C   UNL A   1      32.280  29.687  27.088  1.00  0.00     0.275 C 
ENDROOT
BRANCH   1   2
ATOM      2  C   UNL A   1      32.375  28.199  27.409  1.00  0.00     0.274 C 
BRANCH   2   3
ATOM      3  O   UNL A   1      31.533  27.427  26.527  1.00  0.00    -0.461 OA
BRANCH   3   4
ATOM      4  C   UNL A   1      32.162  26.550  25.695  1.00  0.00     0.329 C 
ATOM      5  O   UNL A   1      33.348  26.250  25.783  1.00  0.00    -0.250 OA
BRANCH   4   6
ATOM      6  C   UNL A   1      31.257  26.078  24.544  1.00  0.00     0.199 C 
ATOM      7  C   UNL A   1      29.767  26.107  24.886  1.00  0.00     0.044 C 
BRANCH   6   8
ATOM      8  N   UNL A   1      31.740  24.771  24.025  1.00  0.00    -0.279 N 
ATOM      9  C   UNL A   1      31.556  23.606  24.752  1.00  0.00     0.266 C 
ATOM     10  C   UNL A   1      32.494  24.639  22.872  1.00  0.00     0.149 C 
ATOM     11  O   UNL A   1      30.988  23.518  25.832  1.00  0.00    -0.268 OA
ATOM     12  C   UNL A   1      32.189  22.437  24.071  1.00  0.00     0.081 C 
ATOM     13  S   UNL A   1      32.938  22.956  22.622  1.00  0.00    -0.054 SA
ATOM     14  S   UNL A   1      32.944  25.828  21.787  1.00  0.00    -0.052 S 
ATOM     15  C   UNL A   1      32.149  21.207  24.608  1.00  0.00     0.029 C 
BRANCH  15  16
ATOM     16  C   UNL A   1      32.782  19.953  24.154  1.00  0.00    -0.024 A 
ATOM     17  C   UNL A   1      32.159  19.219  23.128  1.00  0.00     0.011 A 
ATOM     18  C   UNL A   1      33.896  19.389  24.792  1.00  0.00     0.011 A 
ATOM     19  C   UNL A   1      32.655  17.971  22.737  1.00  0.00     0.040 A 
ATOM     20  C   UNL A   1      34.396  18.144  24.395  1.00  0.00     0.040 A 
ATOM     21  C   UNL A   1      33.771  17.446  23.372  1.00  0.00     0.123 A 
ATOM     22  F   UNL A   1      34.249  16.254  22.995  1.00  0.00    -0.207 F 
ENDBRANCH  15  16
ENDBRANCH   6   8
ENDBRANCH   4   6
ENDBRANCH   3   4
ENDBRANCH   2   3
ENDBRANCH   1   2
BRANCH   1  23
ATOM     23  O   UNL A   1      33.583  30.179  26.738  1.00  0.00    -0.458 OA
BRANCH  23  24
ATOM     24  C   UNL A   1      34.094  31.136  27.546  1.00  0.00     0.338 C 
ATOM     25  O   UNL A   1      33.557  32.173  27.891  1.00  0.00    -0.246 OA
BRANCH  24  26
ATOM     26  C   UNL A   1      35.459  30.747  27.947  1.00  0.00     0.060 A 
ATOM     27  C   UNL A   1      35.767  29.407  28.176  1.00  0.00     0.016 A 
ATOM     28  C   UNL A   1      36.418  31.732  28.182  1.00  0.00     0.016 A 
ATOM     29  C   UNL A   1      36.994  29.064  28.737  1.00  0.00     0.010 A 
ATOM     30  C   UNL A   1      37.684  31.371  28.660  1.00  0.00     0.010 A 
ATOM     31  C   UNL A   1      37.971  30.037  28.994  1.00  0.00    -0.014 A 
BRANCH  31  32
ATOM     32  C   UNL A   1      39.242  29.658  29.681  1.00  0.00     0.031 A 
ATOM     33  C   UNL A   1      39.599  30.270  31.016  1.00  0.00     0.074 A 
ATOM     34  C   UNL A   1      40.039  28.697  29.167  1.00  0.00     0.049 A 
ATOM     35  N   UNL A   1      40.695  30.134  31.721  1.00  0.00    -0.248 NA
ATOM     36  C   UNL A   1      38.600  31.156  31.638  1.00  0.00     0.031 C 
ATOM     37  C   UNL A   1      39.787  27.956  27.930  1.00  0.00     0.029 A 
ATOM     38  N   UNL A   1      41.197  28.137  29.654  1.00  0.00    -0.354 N 
ATOM     39  C   UNL A   1      40.539  30.951  32.835  1.00  0.00     0.074 A 
ATOM     40  C   UNL A   1      39.247  31.589  32.711  1.00  0.00     0.031 C 
ATOM     41  C   UNL A   1      40.697  26.976  27.810  1.00  0.00     0.029 A 
ATOM     42  C   UNL A   1      41.659  27.082  28.901  1.00  0.00     0.049 A 
ATOM     43  H   UNL A   1      41.652  28.460  30.464  1.00  0.00     0.167 HD
ATOM     44  C   UNL A   1      41.390  31.154  33.868  1.00  0.00     0.031 A 
ATOM     45  C   UNL A   1      42.741  26.294  29.054  1.00  0.00     0.031 A 
ATOM     46  C   UNL A   1      42.653  30.483  34.026  1.00  0.00     0.049 A 
ATOM     47  C   UNL A   1      43.690  26.562  30.188  1.00  0.00     0.074 A 
ATOM     48  C   UNL A   1      43.614  30.670  35.006  1.00  0.00     0.029 A 
ATOM     49  N   UNL A   1      43.117  29.469  33.202  1.00  0.00    -0.354 N 
ATOM     50  N   UNL A   1      43.579  27.429  31.164  1.00  0.00    -0.248 NA
ATOM     51  C   UNL A   1      44.925  25.766  30.221  1.00  0.00     0.031 C 
ATOM     52  C   UNL A   1      44.677  29.798  34.750  1.00  0.00     0.029 A 
ATOM     53  C   UNL A   1      44.359  29.039  33.636  1.00  0.00     0.049 A 
ATOM     54  H   UNL A   1      42.635  29.110  32.422  1.00  0.00     0.167 HD
ATOM     55  C   UNL A   1      44.735  27.290  31.924  1.00  0.00     0.074 A 
ATOM     56  C   UNL A   1      45.513  26.230  31.315  1.00  0.00     0.031 C 
ATOM     57  C   UNL A   1      45.127  27.993  33.015  1.00  0.00     0.031 A 
BRANCH  44  58
ATOM     58  C   UNL A   1      41.009  32.193  34.888  1.00  0.00    -0.014 A 
ATOM     59  C   UNL A   1      40.321  31.852  36.065  1.00  0.00     0.010 A 
ATOM     60  C   UNL A   1      41.379  33.535  34.672  1.00  0.00     0.010 A 
ATOM     61  C   UNL A   1      39.980  32.842  36.993  1.00  0.00     0.020 A 
ATOM     62  C   UNL A   1      41.060  34.521  35.607  1.00  0.00     0.020 A 
ATOM     63  C   UNL A   1      40.346  34.171  36.755  1.00  0.00     0.054 A 
BRANCH  63  64
ATOM     64  S   UNL A   1      39.905  35.434  37.980  1.00  0.00     0.124 S 
ATOM     65  O   UNL A   1      41.068  35.414  38.864  1.00  0.00    -0.237 OA
ATOM     66  O   UNL A   1      39.758  36.637  37.165  1.00  0.00    -0.237 OA
ATOM     67  O   UNL A   1      38.666  34.929  38.568  1.00  0.00    -0.744 OA
ENDBRANCH  63  64
ENDBRANCH  44  58
BRANCH  45  68
ATOM     68  C   UNL A   1      43.006  25.196  28.084  1.00  0.00    -0.014 A 
ATOM     69  C   UNL A   1      43.731  25.446  26.905  1.00  0.00     0.010 A 
ATOM     70  C   UNL A   1      42.554  23.889  28.343  1.00  0.00     0.010 A 
ATOM     71  C   UNL A   1      43.999  24.410  26.005  1.00  0.00     0.020 A 
ATOM     72  C   UNL A   1      42.847  22.846  27.463  1.00  0.00     0.020 A 
ATOM     73  C   UNL A   1      43.560  23.114  26.293  1.00  0.00     0.054 A 
BRANCH  73  74
ATOM     74  S   UNL A   1      43.985  21.761  25.161  1.00  0.00     0.124 S 
ATOM     75  O   UNL A   1      43.896  22.416  23.860  1.00  0.00    -0.237 OA
ATOM     76  O   UNL A   1      45.330  21.389  25.593  1.00  0.00    -0.237 OA
ATOM     77  O   UNL A   1      42.955  20.760  25.433  1.00  0.00    -0.744 OA
ENDBRANCH  73  74
ENDBRANCH  45  68
BRANCH  57  78
ATOM     78  C   UNL A   1      46.464  27.648  33.612  1.00  0.00    -0.014 A 
ATOM     79  C   UNL A   1      46.574  26.652  34.598  1.00  0.00     0.010 A 
ATOM     80  C   UNL A   1      47.627  28.286  33.148  1.00  0.00     0.010 A 
ATOM     81  C   UNL A   1      47.821  26.321  35.133  1.00  0.00     0.020 A 
ATOM     82  C   UNL A   1      48.880  27.943  33.665  1.00  0.00     0.020 A 
ATOM     83  C   UNL A   1      48.967  26.971  34.665  1.00  0.00     0.054 A 
BRANCH  83  84
ATOM     84  S   UNL A   1      50.581  26.497  35.345  1.00  0.00     0.124 S 
ATOM     85  O   UNL A   1      50.370  25.090  35.676  1.00  0.00    -0.237 OA
ATOM     86  O   UNL A   1      51.489  26.750  34.228  1.00  0.00    -0.237 OA
ATOM     87  O   UNL A   1      50.750  27.388  36.490  1.00  0.00    -0.744 OA
ENDBRANCH  83  84
ENDBRANCH  57  78
ENDBRANCH  31  32
ENDBRANCH  24  26
ENDBRANCH  23  24
ENDBRANCH   1  23
TORSDOF 16
ENDMDL
MODEL 3
REMARK VINA RESULT:     -10.6      1.872      2.379
REMARK SMILES C[C@@H](C(=O)OCCOC(=O)c1ccc(-c2c3nc(c(-c4ccc(S(=O)(=O)[O-])cc4)c4ccc([nH]4)c(-c4ccc(S(=O)(=O)[O-])cc4)c4nc(c(-c5ccc(S(=O)(=O)[O-])cc5)c5ccc2[nH]5)C=C4)C=C3)cc1)N1C(=O)/C(=C/c2ccc(F)cc2)SC1=S
REMARK SMILES IDX 7 1 6 2 5 3 3 4 4 5 2 6 1 7 71 8 72 9 84 10 73 11 74 12
REMARK SMILES IDX 83 13 85 14 75 15 76 16 77 17 82 18 78 19 81 20 79 21 80 22
REMARK SMILES IDX 8 23 9 24 10 25 11 26 12 27 70 28 13 29 69 30 14 31 15 32
REMARK SMILES IDX 16 33 63 34 17 35 68 36 62 37 64 38 18 39 67 40 61 41 60 42
REMARK SMILES IDX 19 44 49 45 30 46 48 47 31 48 34 49 47 50 65 51 32 52 33 53
REMARK SMILES IDX 46 55 66 56 35 57 20 58 21 59 29 60 22 61 28 62 23 63 24 64
REMARK SMILES IDX 25 65 26 66 27 67 50 68 51 69 59 70 52 71 58 72 53 73 54 74
REMARK SMILES IDX 55 75 56 76 57 77 36 78 37 79 45 80 38 81 44 82 39 83 40 84
REMARK SMILES IDX 41 85 42 86 43 87
REMARK H PARENT 64 43 34 54
REMARK Flexibility Score: inf
ROOT
ATOM      1  C   UNL A   1      36.713  22.581  25.828  1.00  0.00     0.275 C 
ENDROOT
BRANCH   1   2
ATOM      2  C   UNL A   1      36.272  21.275  25.175  1.00  0.00     0.274 C 
BRANCH   2   3
ATOM      3  O   UNL A   1      35.077  21.469  24.390  1.00  0.00    -0.461 OA
BRANCH   3   4
ATOM      4  C   UNL A   1      33.891  21.420  25.060  1.00  0.00     0.329 C 
ATOM      5  O   UNL A   1      33.711  20.781  26.091  1.00  0.00    -0.250 OA
BRANCH   4   6
ATOM      6  C   UNL A   1      32.760  22.142  24.308  1.00  0.00     0.199 C 
ATOM      7  C   UNL A   1      32.933  22.135  22.788  1.00  0.00     0.044 C 
BRANCH   6   8
ATOM      8  N   UNL A   1      32.546  23.493  24.893  1.00  0.00    -0.279 N 
ATOM      9  C   UNL A   1      33.410  24.537  24.603  1.00  0.00     0.266 C 
ATOM     10  C   UNL A   1      31.573  23.770  25.837  1.00  0.00     0.149 C 
ATOM     11  O   UNL A   1      34.378  24.480  23.857  1.00  0.00    -0.268 OA
ATOM     12  C   UNL A   1      33.041  25.770  25.361  1.00  0.00     0.081 C 
ATOM     13  S   UNL A   1      31.676  25.452  26.342  1.00  0.00    -0.054 SA
ATOM     14  S   UNL A   1      30.403  22.747  26.450  1.00  0.00    -0.052 S 
ATOM     15  C   UNL A   1      33.754  26.902  25.247  1.00  0.00     0.029 C 
BRANCH  15  16
ATOM     16  C   UNL A   1      33.621  28.183  25.968  1.00  0.00    -0.024 A 
ATOM     17  C   UNL A   1      32.572  29.050  25.609  1.00  0.00     0.011 A 
ATOM     18  C   UNL A   1      34.571  28.638  26.893  1.00  0.00     0.011 A 
ATOM     19  C   UNL A   1      32.466  30.321  26.181  1.00  0.00     0.040 A 
ATOM     20  C   UNL A   1      34.460  29.908  27.470  1.00  0.00     0.040 A 
ATOM     21  C   UNL A   1      33.409  30.738  27.109  1.00  0.00     0.123 A 
ATOM     22  F   UNL A   1      33.305  31.953  27.660  1.00  0.00    -0.207 F 
ENDBRANCH  15  16
ENDBRANCH   6   8
ENDBRANCH   4   6
ENDBRANCH   3   4
ENDBRANCH   2   3
ENDBRANCH   1   2
BRANCH   1  23
ATOM     23  O   UNL A   1      38.030  22.919  25.365  1.00  0.00    -0.458 OA
BRANCH  23  24
ATOM     24  C   UNL A   1      39.021  22.837  26.282  1.00  0.00     0.338 C 
ATOM     25  O   UNL A   1      39.637  21.839  26.613  1.00  0.00    -0.246 OA
BRANCH  24  26
ATOM     26  C   UNL A   1      39.243  24.171  26.870  1.00  0.00     0.060 A 
ATOM     27  C   UNL A   1      39.895  25.160  26.136  1.00  0.00     0.016 A 
ATOM     28  C   UNL A   1      38.879  24.412  28.194  1.00  0.00     0.016 A 
ATOM     29  C   UNL A   1      40.273  26.348  26.756  1.00  0.00     0.010 A 
ATOM     30  C   UNL A   1      39.182  25.645  28.786  1.00  0.00     0.010 A 
ATOM     31  C   UNL A   1      39.930  26.610  28.090  1.00  0.00    -0.014 A 
BRANCH  31  32
ATOM     32  C   UNL A   1      40.426  27.849  28.761  1.00  0.00     0.031 A 
ATOM     33  C   UNL A   1      41.898  28.014  29.064  1.00  0.00     0.074 A 
ATOM     34  C   UNL A   1      39.586  28.873  29.019  1.00  0.00     0.049 A 
ATOM     35  N   UNL A   1      42.504  28.974  29.719  1.00  0.00    -0.248 NA
ATOM     36  C   UNL A   1      42.807  26.962  28.577  1.00  0.00     0.031 C 
ATOM     37  C   UNL A   1      38.155  28.896  28.710  1.00  0.00     0.029 A 
ATOM     38  N   UNL A   1      39.826  30.119  29.549  1.00  0.00    -0.354 N 
ATOM     39  C   UNL A   1      43.847  28.618  29.766  1.00  0.00     0.074 A 
ATOM     40  C   UNL A   1      43.970  27.349  29.083  1.00  0.00     0.031 C 
ATOM     41  C   UNL A   1      37.671  30.123  28.956  1.00  0.00     0.029 A 
ATOM     42  C   UNL A   1      38.725  30.945  29.540  1.00  0.00     0.049 A 
ATOM     43  H   UNL A   1      40.702  30.394  29.901  1.00  0.00     0.167 HD
ATOM     44  C   UNL A   1      44.886  29.283  30.324  1.00  0.00     0.031 A 
ATOM     45  C   UNL A   1      38.569  32.214  29.965  1.00  0.00     0.031 A 
ATOM     46  C   UNL A   1      44.781  30.571  30.957  1.00  0.00     0.049 A 
ATOM     47  C   UNL A   1      39.726  32.919  30.613  1.00  0.00     0.074 A 
ATOM     48  C   UNL A   1      45.766  31.295  31.608  1.00  0.00     0.029 A 
ATOM     49  N   UNL A   1      43.631  31.344  30.988  1.00  0.00    -0.354 N 
ATOM     50  N   UNL A   1      40.963  32.508  30.755  1.00  0.00    -0.248 NA
ATOM     51  C   UNL A   1      39.458  34.245  31.186  1.00  0.00     0.031 C 
ATOM     52  C   UNL A   1      45.199  32.489  32.069  1.00  0.00     0.029 A 
ATOM     53  C   UNL A   1      43.875  32.526  31.667  1.00  0.00     0.049 A 
ATOM     54  H   UNL A   1      42.769  31.090  30.587  1.00  0.00     0.167 HD
ATOM     55  C   UNL A   1      41.619  33.522  31.444  1.00  0.00     0.074 A 
ATOM     56  C   UNL A   1      40.652  34.581  31.656  1.00  0.00     0.031 C 
ATOM     57  C   UNL A   1      42.901  33.564  31.881  1.00  0.00     0.031 A 
BRANCH  44  58
ATOM     58  C   UNL A   1      46.227  28.600  30.328  1.00  0.00    -0.014 A 
ATOM     59  C   UNL A   1      46.591  27.695  31.340  1.00  0.00     0.010 A 
ATOM     60  C   UNL A   1      47.127  28.851  29.274  1.00  0.00     0.010 A 
ATOM     61  C   UNL A   1      47.845  27.078  31.315  1.00  0.00     0.020 A 
ATOM     62  C   UNL A   1      48.372  28.219  29.234  1.00  0.00     0.020 A 
ATOM     63  C   UNL A   1      48.730  27.349  30.266  1.00  0.00     0.054 A 
BRANCH  63  64
ATOM     64  S   UNL A   1      50.346  26.525  30.248  1.00  0.00     0.124 S 
ATOM     65  O   UNL A   1      50.463  26.122  28.849  1.00  0.00    -0.237 OA
ATOM     66  O   UNL A   1      51.255  27.587  30.673  1.00  0.00    -0.237 OA
ATOM     67  O   UNL A   1      50.187  25.428  31.201  1.00  0.00    -0.744 OA
ENDBRANCH  63  64
ENDBRANCH  44  58
BRANCH  45  68
ATOM     68  C   UNL A   1      37.249  32.889  29.824  1.00  0.00    -0.014 A 
ATOM     69  C   UNL A   1      36.359  32.950  30.910  1.00  0.00     0.010 A 
ATOM     70  C   UNL A   1      36.884  33.494  28.607  1.00  0.00     0.010 A 
ATOM     71  C   UNL A   1      35.130  33.604  30.784  1.00  0.00     0.020 A 
ATOM     72  C   UNL A   1      35.671  34.175  28.486  1.00  0.00     0.020 A 
ATOM     73  C   UNL A   1      34.796  34.218  29.573  1.00  0.00     0.054 A 
BRANCH  73  74
ATOM     74  S   UNL A   1      33.236  35.136  29.444  1.00  0.00     0.124 S 
ATOM     75  O   UNL A   1      32.682  34.980  30.786  1.00  0.00    -0.237 OA
ATOM     76  O   UNL A   1      33.681  36.483  29.096  1.00  0.00    -0.237 OA
ATOM     77  O   UNL A   1      32.519  34.433  28.382  1.00  0.00    -0.744 OA
ENDBRANCH  73  74
ENDBRANCH  45  68
BRANCH  57  78
ATOM     78  C   UNL A   1      43.329  34.786  32.645  1.00  0.00    -0.014 A 
ATOM     79  C   UNL A   1      43.757  35.943  31.969  1.00  0.00     0.010 A 
ATOM     80  C   UNL A   1      43.254  34.801  34.049  1.00  0.00     0.010 A 
ATOM     81  C   UNL A   1      44.132  37.082  32.683  1.00  0.00     0.020 A 
ATOM     82  C   UNL A   1      43.608  35.946  34.767  1.00  0.00     0.020 A 
ATOM     83  C   UNL A   1      44.059  37.077  34.079  1.00  0.00     0.054 A 
BRANCH  83  84
ATOM     84  S   UNL A   1      44.512  38.582  34.985  1.00  0.00     0.124 S 
ATOM     85  O   UNL A   1      43.960  38.317  36.311  1.00  0.00    -0.237 OA
ATOM     86  O   UNL A   1      45.971  38.583  34.900  1.00  0.00    -0.237 OA
ATOM     87  O   UNL A   1      43.851  39.649  34.237  1.00  0.00    -0.744 OA
ENDBRANCH  83  84
ENDBRANCH  57  78
ENDBRANCH  31  32
ENDBRANCH  24  26
ENDBRANCH  23  24
ENDBRANCH   1  23
TORSDOF 16
ENDMDL
