MODEL 1
REMARK VINA RESULT:     -11.9      0.000      0.000
REMARK SMILES CN(C)S(=O)(=O)c1ccc(-n2c(CCC(=O)OCCOC(=O)c3ccc(-c4c5nc(c(-c6ccc(S(=O)(=O)[O-])cc6)c6ccc([nH]6)c(-c6ccc(S(=O)(=O)[O-])cc6)c6nc(c(-c7ccc(S(=O)(=O)[O-])cc7)c7ccc4[nH]7)C=C6)C=C5)cc3)ccc2-c2ccc(F)cc2)cc1
REMARK SMILES IDX 18 1 17 2 15 3 16 4 14 5 13 6 12 7 11 8 85 9 83 10 84 11
REMARK SMILES IDX 10 12 7 13 8 14 94 15 9 16 93 17 4 18 5 19 6 20 2 21 1 22
REMARK SMILES IDX 3 23 86 24 87 25 92 26 88 27 91 28 89 29 90 30 19 31 20 32
REMARK SMILES IDX 21 33 22 34 23 35 24 36 82 37 25 38 81 39 26 40 27 41 28 42
REMARK SMILES IDX 75 43 29 44 80 45 74 46 76 47 30 48 79 49 73 50 72 51 31 53
REMARK SMILES IDX 61 54 42 55 60 56 43 57 46 58 59 59 77 60 44 61 45 62 58 64
REMARK SMILES IDX 78 65 47 66 32 67 33 68 41 69 34 70 40 71 35 72 36 73 37 74
REMARK SMILES IDX 38 75 39 76 62 77 63 78 71 79 64 80 70 81 65 82 66 83 67 84
REMARK SMILES IDX 68 85 69 86 48 87 49 88 57 89 50 90 56 91 51 92 52 93 53 94
REMARK SMILES IDX 54 95 55 96
REMARK H PARENT 76 52 46 63
REMARK Flexibility Score: inf
ROOT
ATOM      1  C   UNL A   1      35.348  32.383  28.152  1.00  0.00     0.274 C 
ENDROOT
BRANCH   1   2
ATOM      2  O   UNL A   1      35.478  31.014  28.635  1.00  0.00    -0.462 OA
BRANCH   2   3
ATOM      3  C   UNL A   1      35.961  30.098  27.749  1.00  0.00     0.306 C 
ATOM      4  O   UNL A   1      37.119  30.097  27.345  1.00  0.00    -0.252 OA
BRANCH   3   5
ATOM      5  C   UNL A   1      34.953  29.029  27.319  1.00  0.00     0.129 C 
BRANCH   5   6
ATOM      6  C   UNL A   1      33.474  29.144  27.727  1.00  0.00     0.066 C 
BRANCH   6   7
ATOM      7  C   UNL A   1      32.676  29.954  26.771  1.00  0.00     0.024 A 
ATOM      8  N   UNL A   1      32.208  29.519  25.536  1.00  0.00    -0.314 N 
ATOM      9  C   UNL A   1      31.212  30.433  25.143  1.00  0.00     0.053 A 
ATOM     10  C   UNL A   1      32.270  31.265  26.944  1.00  0.00     0.024 A 
ATOM     11  C   UNL A   1      31.354  31.566  25.925  1.00  0.00     0.029 A 
BRANCH   8  12
ATOM     12  C   UNL A   1      32.534  28.308  24.846  1.00  0.00     0.046 A 
ATOM     13  C   UNL A   1      33.450  25.125  23.397  1.00  0.00     0.082 A 
ATOM     14  C   UNL A   1      32.550  25.179  24.941  1.00  0.00     0.024 A 
ATOM     15  C   UNL A   1      33.896  26.635  22.540  1.00  0.00     0.024 A 
ATOM     16  C   UNL A   1      32.075  26.750  25.667  1.00  0.00     0.028 A 
ATOM     17  C   UNL A   1      33.382  28.234  23.217  1.00  0.00     0.028 A 
BRANCH  13  18
ATOM     18  S   UNL A   1      34.047  23.587  22.771  1.00  0.00     0.242 S 
ATOM     19  O   UNL A   1      35.455  23.523  23.109  1.00  0.00    -0.207 OA
ATOM     20  O   UNL A   1      33.579  23.483  21.411  1.00  0.00    -0.207 OA
BRANCH  18  21
ATOM     21  N   UNL A   1      33.245  22.404  23.723  1.00  0.00    -0.204 NA
ATOM     22  C   UNL A   1      31.939  21.994  23.148  1.00  0.00     0.124 C 
ATOM     23  C   UNL A   1      34.057  21.226  24.100  1.00  0.00     0.124 C 
ENDBRANCH  18  21
ENDBRANCH  13  18
ENDBRANCH   8  12
BRANCH   9  24
ATOM     24  C   UNL A   1      30.091  30.168  24.233  1.00  0.00    -0.001 A 
ATOM     25  C   UNL A   1      29.157  31.167  23.921  1.00  0.00     0.013 A 
ATOM     26  C   UNL A   1      29.924  28.882  23.694  1.00  0.00     0.013 A 
ATOM     27  C   UNL A   1      28.106  30.893  23.039  1.00  0.00     0.040 A 
ATOM     28  C   UNL A   1      28.876  28.610  22.815  1.00  0.00     0.040 A 
ATOM     29  C   UNL A   1      27.978  29.620  22.493  1.00  0.00     0.123 A 
ATOM     30  F   UNL A   1      26.971  29.359  21.650  1.00  0.00    -0.207 F 
ENDBRANCH   9  24
ENDBRANCH   6   7
ENDBRANCH   5   6
ENDBRANCH   3   5
ENDBRANCH   2   3
ENDBRANCH   1   2
BRANCH   1  31
ATOM     31  C   UNL A   1      34.463  33.486  29.096  1.00  0.00     0.275 C 
BRANCH  31  32
ATOM     32  O   UNL A   1      34.168  33.478  31.085  1.00  0.00    -0.458 OA
BRANCH  32  33
ATOM     33  C   UNL A   1      34.354  33.094  32.440  1.00  0.00     0.338 C 
ATOM     34  O   UNL A   1      33.529  33.058  33.350  1.00  0.00    -0.246 OA
BRANCH  33  35
ATOM     35  C   UNL A   1      35.652  32.505  32.712  1.00  0.00     0.060 A 
ATOM     36  C   UNL A   1      36.484  33.253  33.561  1.00  0.00     0.016 A 
ATOM     37  C   UNL A   1      36.131  31.564  31.807  1.00  0.00     0.016 A 
ATOM     38  C   UNL A   1      37.843  33.174  33.376  1.00  0.00     0.010 A 
ATOM     39  C   UNL A   1      37.490  31.483  31.626  1.00  0.00     0.010 A 
ATOM     40  C   UNL A   1      38.320  32.343  32.358  1.00  0.00    -0.014 A 
BRANCH  40  41
ATOM     41  C   UNL A   1      39.751  32.377  32.054  1.00  0.00     0.031 A 
ATOM     42  C   UNL A   1      40.503  31.308  32.850  1.00  0.00     0.074 A 
ATOM     43  C   UNL A   1      40.112  33.360  31.175  1.00  0.00     0.049 A 
ATOM     44  N   UNL A   1      41.751  31.245  33.197  1.00  0.00    -0.248 NA
ATOM     45  C   UNL A   1      39.725  30.164  33.413  1.00  0.00     0.031 C 
ATOM     46  C   UNL A   1      39.182  34.315  30.510  1.00  0.00     0.029 A 
ATOM     47  N   UNL A   1      41.314  33.772  30.661  1.00  0.00    -0.354 N 
ATOM     48  C   UNL A   1      41.937  30.013  33.859  1.00  0.00     0.074 A 
ATOM     49  C   UNL A   1      40.643  29.433  34.042  1.00  0.00     0.031 C 
ATOM     50  C   UNL A   1      39.857  35.214  29.759  1.00  0.00     0.029 A 
ATOM     51  C   UNL A   1      41.274  34.938  29.855  1.00  0.00     0.049 A 
ATOM     52  H   UNL A   1      42.153  33.288  30.840  1.00  0.00     0.167 HD
ATOM     53  C   UNL A   1      43.159  29.472  34.121  1.00  0.00     0.031 A 
ATOM     54  C   UNL A   1      42.329  35.663  29.372  1.00  0.00     0.031 A 
ATOM     55  C   UNL A   1      44.205  30.347  33.715  1.00  0.00     0.049 A 
ATOM     56  C   UNL A   1      43.516  34.941  29.857  1.00  0.00     0.074 A 
ATOM     57  C   UNL A   1      44.944  31.340  34.301  1.00  0.00     0.029 A 
ATOM     58  N   UNL A   1      44.544  30.292  32.389  1.00  0.00    -0.354 N 
ATOM     59  N   UNL A   1      43.957  33.813  29.397  1.00  0.00    -0.248 NA
ATOM     60  C   UNL A   1      44.157  35.435  31.075  1.00  0.00     0.031 C 
ATOM     61  C   UNL A   1      45.530  32.054  33.225  1.00  0.00     0.029 A 
ATOM     62  C   UNL A   1      45.012  31.536  32.039  1.00  0.00     0.049 A 
ATOM     63  H   UNL A   1      44.468  29.510  31.798  1.00  0.00     0.167 HD
ATOM     64  C   UNL A   1      44.704  33.305  30.435  1.00  0.00     0.074 A 
ATOM     65  C   UNL A   1      44.971  34.416  31.328  1.00  0.00     0.031 C 
ATOM     66  C   UNL A   1      44.731  31.973  30.694  1.00  0.00     0.031 A 
BRANCH  53  67
ATOM     67  C   UNL A   1      43.548  28.067  34.504  1.00  0.00    -0.014 A 
ATOM     68  C   UNL A   1      44.076  27.251  33.473  1.00  0.00     0.010 A 
ATOM     69  C   UNL A   1      43.104  27.426  35.672  1.00  0.00     0.010 A 
ATOM     70  C   UNL A   1      44.023  25.859  33.534  1.00  0.00     0.020 A 
ATOM     71  C   UNL A   1      43.087  26.021  35.759  1.00  0.00     0.020 A 
ATOM     72  C   UNL A   1      43.491  25.250  34.664  1.00  0.00     0.054 A 
BRANCH  72  73
ATOM     73  S   UNL A   1      43.262  23.451  34.635  1.00  0.00     0.124 S 
ATOM     74  O   UNL A   1      44.335  22.989  35.510  1.00  0.00    -0.237 OA
ATOM     75  O   UNL A   1      41.910  23.295  35.169  1.00  0.00    -0.237 OA
ATOM     76  O   UNL A   1      43.406  23.109  33.222  1.00  0.00    -0.744 OA
ENDBRANCH  72  73
ENDBRANCH  53  67
BRANCH  54  77
ATOM     77  C   UNL A   1      42.571  36.999  28.713  1.00  0.00    -0.014 A 
ATOM     78  C   UNL A   1      43.126  38.140  29.308  1.00  0.00     0.010 A 
ATOM     79  C   UNL A   1      42.284  37.110  27.323  1.00  0.00     0.010 A 
ATOM     80  C   UNL A   1      43.499  39.264  28.526  1.00  0.00     0.020 A 
ATOM     81  C   UNL A   1      42.681  38.193  26.535  1.00  0.00     0.020 A 
ATOM     82  C   UNL A   1      43.315  39.262  27.139  1.00  0.00     0.054 A 
BRANCH  82  83
ATOM     83  S   UNL A   1      44.007  40.576  26.090  1.00  0.00     0.124 S 
ATOM     84  O   UNL A   1      42.931  40.816  25.133  1.00  0.00    -0.237 OA
ATOM     85  O   UNL A   1      44.259  41.654  27.042  1.00  0.00    -0.237 OA
ATOM     86  O   UNL A   1      45.213  39.964  25.531  1.00  0.00    -0.744 OA
ENDBRANCH  82  83
ENDBRANCH  54  77
BRANCH  66  87
ATOM     87  C   UNL A   1      44.021  31.108  29.657  1.00  0.00    -0.014 A 
ATOM     88  C   UNL A   1      44.675  30.716  28.482  1.00  0.00     0.010 A 
ATOM     89  C   UNL A   1      42.663  30.738  29.802  1.00  0.00     0.010 A 
ATOM     90  C   UNL A   1      44.005  29.969  27.498  1.00  0.00     0.020 A 
ATOM     91  C   UNL A   1      41.985  29.988  28.829  1.00  0.00     0.020 A 
ATOM     92  C   UNL A   1      42.666  29.604  27.677  1.00  0.00     0.054 A 
BRANCH  92  93
ATOM     93  S   UNL A   1      41.830  28.643  26.380  1.00  0.00     0.124 S 
ATOM     94  O   UNL A   1      42.219  27.269  26.694  1.00  0.00    -0.237 OA
ATOM     95  O   UNL A   1      40.424  28.961  26.609  1.00  0.00    -0.237 OA
ATOM     96  O   UNL A   1      42.388  29.167  25.134  1.00  0.00    -0.744 OA
ENDBRANCH  92  93
ENDBRANCH  66  87
ENDBRANCH  40  41
ENDBRANCH  33  35
ENDBRANCH  32  33
ENDBRANCH  31  32
ENDBRANCH   1  31
TORSDOF 20
ENDMDL
MODEL 2
REMARK VINA RESULT:     -11.5      5.092      9.029
REMARK SMILES CN(C)S(=O)(=O)c1ccc(-n2c(CCC(=O)OCCOC(=O)c3ccc(-c4c5nc(c(-c6ccc(S(=O)(=O)[O-])cc6)c6ccc([nH]6)c(-c6ccc(S(=O)(=O)[O-])cc6)c6nc(c(-c7ccc(S(=O)(=O)[O-])cc7)c7ccc4[nH]7)C=C6)C=C5)cc3)ccc2-c2ccc(F)cc2)cc1
REMARK SMILES IDX 18 1 17 2 15 3 16 4 14 5 13 6 12 7 11 8 85 9 83 10 84 11
REMARK SMILES IDX 10 12 7 13 8 14 94 15 9 16 93 17 4 18 5 19 6 20 2 21 1 22
REMARK SMILES IDX 3 23 86 24 87 25 92 26 88 27 91 28 89 29 90 30 19 31 20 32
REMARK SMILES IDX 21 33 22 34 23 35 24 36 82 37 25 38 81 39 26 40 27 41 28 42
REMARK SMILES IDX 75 43 29 44 80 45 74 46 76 47 30 48 79 49 73 50 72 51 31 53
REMARK SMILES IDX 61 54 42 55 60 56 43 57 46 58 59 59 77 60 44 61 45 62 58 64
REMARK SMILES IDX 78 65 47 66 32 67 33 68 41 69 34 70 40 71 35 72 36 73 37 74
REMARK SMILES IDX 38 75 39 76 62 77 63 78 71 79 64 80 70 81 65 82 66 83 67 84
REMARK SMILES IDX 68 85 69 86 48 87 49 88 57 89 50 90 56 91 51 92 52 93 53 94
REMARK SMILES IDX 54 95 55 96
REMARK H PARENT 76 52 46 63
REMARK Flexibility Score: inf
ROOT
ATOM      1  C   UNL A   1      36.784  29.598  28.226  1.00  0.00     0.274 C 
ENDROOT
BRANCH   1   2
ATOM      2  O   UNL A   1      36.822  29.205  29.629  1.00  0.00    -0.462 OA
BRANCH   2   3
ATOM      3  C   UNL A   1      38.011  28.736  30.100  1.00  0.00     0.306 C 
ATOM      4  O   UNL A   1      38.354  28.828  31.275  1.00  0.00    -0.252 OA
BRANCH   3   5
ATOM      5  C   UNL A   1      38.886  28.040  29.055  1.00  0.00     0.129 C 
BRANCH   5   6
ATOM      6  C   UNL A   1      39.636  26.743  29.406  1.00  0.00     0.066 C 
BRANCH   6   7
ATOM      7  C   UNL A   1      39.818  25.849  28.233  1.00  0.00     0.024 A 
ATOM      8  N   UNL A   1      40.931  25.826  27.399  1.00  0.00    -0.314 N 
ATOM      9  C   UNL A   1      40.865  24.618  26.680  1.00  0.00     0.053 A 
ATOM     10  C   UNL A   1      38.921  24.902  27.774  1.00  0.00     0.024 A 
ATOM     11  C   UNL A   1      39.575  24.131  26.801  1.00  0.00     0.029 A 
BRANCH   8  12
ATOM     12  C   UNL A   1      42.026  26.748  27.364  1.00  0.00     0.046 A 
ATOM     13  C   UNL A   1      44.736  29.104  26.948  1.00  0.00     0.082 A 
ATOM     14  C   UNL A   1      43.176  29.381  26.121  1.00  0.00     0.024 A 
ATOM     15  C   UNL A   1      44.976  27.674  28.003  1.00  0.00     0.024 A 
ATOM     16  C   UNL A   1      41.815  28.229  26.327  1.00  0.00     0.028 A 
ATOM     17  C   UNL A   1      43.605  26.524  28.277  1.00  0.00     0.028 A 
BRANCH  13  18
ATOM     18  S   UNL A   1      46.115  30.154  26.618  1.00  0.00     0.242 S 
ATOM     19  O   UNL A   1      46.759  30.401  27.892  1.00  0.00    -0.207 OA
ATOM     20  O   UNL A   1      45.629  31.227  25.784  1.00  0.00    -0.207 OA
BRANCH  18  21
ATOM     21  N   UNL A   1      47.180  29.175  25.693  1.00  0.00    -0.204 NA
ATOM     22  C   UNL A   1      48.219  28.515  26.524  1.00  0.00     0.124 C 
ATOM     23  C   UNL A   1      46.532  28.209  24.779  1.00  0.00     0.124 C 
ENDBRANCH  18  21
ENDBRANCH  13  18
ENDBRANCH   8  12
BRANCH   9  24
ATOM     24  C   UNL A   1      41.993  23.887  26.091  1.00  0.00    -0.001 A 
ATOM     25  C   UNL A   1      42.920  24.530  25.258  1.00  0.00     0.013 A 
ATOM     26  C   UNL A   1      42.130  22.511  26.333  1.00  0.00     0.013 A 
ATOM     27  C   UNL A   1      43.996  23.814  24.722  1.00  0.00     0.040 A 
ATOM     28  C   UNL A   1      43.203  21.798  25.798  1.00  0.00     0.040 A 
ATOM     29  C   UNL A   1      44.128  22.458  25.000  1.00  0.00     0.123 A 
ATOM     30  F   UNL A   1      45.158  21.774  24.485  1.00  0.00    -0.207 F 
ENDBRANCH   9  24
ENDBRANCH   6   7
ENDBRANCH   5   6
ENDBRANCH   3   5
ENDBRANCH   2   3
ENDBRANCH   1   2
BRANCH   1  31
ATOM     31  C   UNL A   1      35.412  30.429  27.662  1.00  0.00     0.275 C 
BRANCH  31  32
ATOM     32  O   UNL A   1      34.348  31.863  28.587  1.00  0.00    -0.458 OA
BRANCH  32  33
ATOM     33  C   UNL A   1      34.110  33.039  29.347  1.00  0.00     0.338 C 
ATOM     34  O   UNL A   1      33.295  33.936  29.142  1.00  0.00    -0.246 OA
BRANCH  33  35
ATOM     35  C   UNL A   1      34.809  33.070  30.618  1.00  0.00     0.060 A 
ATOM     36  C   UNL A   1      35.074  34.352  31.125  1.00  0.00     0.016 A 
ATOM     37  C   UNL A   1      35.536  31.941  30.978  1.00  0.00     0.016 A 
ATOM     38  C   UNL A   1      36.206  34.532  31.883  1.00  0.00     0.010 A 
ATOM     39  C   UNL A   1      36.665  32.121  31.739  1.00  0.00     0.010 A 
ATOM     40  C   UNL A   1      37.024  33.422  32.115  1.00  0.00    -0.014 A 
BRANCH  40  41
ATOM     41  C   UNL A   1      38.307  33.638  32.784  1.00  0.00     0.031 A 
ATOM     42  C   UNL A   1      38.117  33.774  34.297  1.00  0.00     0.074 A 
ATOM     43  C   UNL A   1      39.375  33.713  31.934  1.00  0.00     0.049 A 
ATOM     44  N   UNL A   1      38.863  34.352  35.186  1.00  0.00    -0.248 NA
ATOM     45  C   UNL A   1      36.858  33.249  34.904  1.00  0.00     0.031 C 
ATOM     46  C   UNL A   1      39.320  33.549  30.454  1.00  0.00     0.029 A 
ATOM     47  N   UNL A   1      40.714  33.944  32.118  1.00  0.00    -0.354 N 
ATOM     48  C   UNL A   1      38.263  34.124  36.443  1.00  0.00     0.074 A 
ATOM     49  C   UNL A   1      36.990  33.521  36.200  1.00  0.00     0.031 C 
ATOM     50  C   UNL A   1      40.533  33.757  29.893  1.00  0.00     0.029 A 
ATOM     51  C   UNL A   1      41.487  34.068  30.935  1.00  0.00     0.049 A 
ATOM     52  H   UNL A   1      41.113  34.019  33.014  1.00  0.00     0.167 HD
ATOM     53  C   UNL A   1      38.895  34.336  37.631  1.00  0.00     0.031 A 
ATOM     54  C   UNL A   1      42.788  34.473  30.820  1.00  0.00     0.031 A 
ATOM     55  C   UNL A   1      40.191  34.888  37.433  1.00  0.00     0.049 A 
ATOM     56  C   UNL A   1      43.212  34.725  32.207  1.00  0.00     0.074 A 
ATOM     57  C   UNL A   1      40.727  36.146  37.361  1.00  0.00     0.029 A 
ATOM     58  N   UNL A   1      41.183  33.987  37.148  1.00  0.00    -0.354 N 
ATOM     59  N   UNL A   1      43.473  33.819  33.095  1.00  0.00    -0.248 NA
ATOM     60  C   UNL A   1      43.168  36.106  32.688  1.00  0.00     0.031 C 
ATOM     61  C   UNL A   1      41.999  35.976  36.757  1.00  0.00     0.029 A 
ATOM     62  C   UNL A   1      42.113  34.639  36.375  1.00  0.00     0.049 A 
ATOM     63  H   UNL A   1      41.222  33.048  37.441  1.00  0.00     0.167 HD
ATOM     64  C   UNL A   1      43.310  34.477  34.293  1.00  0.00     0.074 A 
ATOM     65  C   UNL A   1      43.346  35.895  33.988  1.00  0.00     0.031 C 
ATOM     66  C   UNL A   1      42.785  33.849  35.375  1.00  0.00     0.031 A 
BRANCH  53  67
ATOM     67  C   UNL A   1      38.557  33.857  39.020  1.00  0.00    -0.014 A 
ATOM     68  C   UNL A   1      37.906  32.602  39.118  1.00  0.00     0.010 A 
ATOM     69  C   UNL A   1      38.516  34.696  40.146  1.00  0.00     0.010 A 
ATOM     70  C   UNL A   1      37.123  32.262  40.221  1.00  0.00     0.020 A 
ATOM     71  C   UNL A   1      37.763  34.340  41.281  1.00  0.00     0.020 A 
ATOM     72  C   UNL A   1      37.025  33.153  41.283  1.00  0.00     0.054 A 
BRANCH  72  73
ATOM     73  S   UNL A   1      35.853  32.767  42.612  1.00  0.00     0.124 S 
ATOM     74  O   UNL A   1      35.665  34.069  43.246  1.00  0.00    -0.237 OA
ATOM     75  O   UNL A   1      34.696  32.258  41.877  1.00  0.00    -0.237 OA
ATOM     76  O   UNL A   1      36.558  31.770  43.413  1.00  0.00    -0.744 OA
ENDBRANCH  72  73
ENDBRANCH  53  67
BRANCH  54  77
ATOM     77  C   UNL A   1      43.747  34.893  29.732  1.00  0.00    -0.014 A 
ATOM     78  C   UNL A   1      44.700  35.917  29.802  1.00  0.00     0.010 A 
ATOM     79  C   UNL A   1      43.751  34.131  28.529  1.00  0.00     0.010 A 
ATOM     80  C   UNL A   1      45.684  36.070  28.791  1.00  0.00     0.020 A 
ATOM     81  C   UNL A   1      44.736  34.245  27.545  1.00  0.00     0.020 A 
ATOM     82  C   UNL A   1      45.721  35.203  27.693  1.00  0.00     0.054 A 
BRANCH  82  83
ATOM     83  S   UNL A   1      47.109  35.220  26.520  1.00  0.00     0.124 S 
ATOM     84  O   UNL A   1      47.172  36.623  26.125  1.00  0.00    -0.237 OA
ATOM     85  O   UNL A   1      48.226  34.740  27.329  1.00  0.00    -0.237 OA
ATOM     86  O   UNL A   1      46.678  34.295  25.471  1.00  0.00    -0.744 OA
ENDBRANCH  82  83
ENDBRANCH  54  77
BRANCH  66  87
ATOM     87  C   UNL A   1      42.564  32.350  35.194  1.00  0.00    -0.014 A 
ATOM     88  C   UNL A   1      41.348  31.859  34.704  1.00  0.00     0.010 A 
ATOM     89  C   UNL A   1      43.541  31.403  35.584  1.00  0.00     0.010 A 
ATOM     90  C   UNL A   1      41.120  30.476  34.592  1.00  0.00     0.020 A 
ATOM     91  C   UNL A   1      43.327  30.020  35.472  1.00  0.00     0.020 A 
ATOM     92  C   UNL A   1      42.111  29.563  34.971  1.00  0.00     0.054 A 
BRANCH  92  93
ATOM     93  S   UNL A   1      41.779  27.783  34.817  1.00  0.00     0.124 S 
ATOM     94  O   UNL A   1      40.695  27.740  33.837  1.00  0.00    -0.237 OA
ATOM     95  O   UNL A   1      43.061  27.263  34.352  1.00  0.00    -0.237 OA
ATOM     96  O   UNL A   1      41.400  27.374  36.168  1.00  0.00    -0.744 OA
ENDBRANCH  92  93
ENDBRANCH  66  87
ENDBRANCH  40  41
ENDBRANCH  33  35
ENDBRANCH  32  33
ENDBRANCH  31  32
ENDBRANCH   1  31
TORSDOF 20
ENDMDL
MODEL 3
REMARK VINA RESULT:     -11.3      6.146     11.808
REMARK SMILES CN(C)S(=O)(=O)c1ccc(-n2c(CCC(=O)OCCOC(=O)c3ccc(-c4c5nc(c(-c6ccc(S(=O)(=O)[O-])cc6)c6ccc([nH]6)c(-c6ccc(S(=O)(=O)[O-])cc6)c6nc(c(-c7ccc(S(=O)(=O)[O-])cc7)c7ccc4[nH]7)C=C6)C=C5)cc3)ccc2-c2ccc(F)cc2)cc1
REMARK SMILES IDX 18 1 17 2 15 3 16 4 14 5 13 6 12 7 11 8 85 9 83 10 84 11
REMARK SMILES IDX 10 12 7 13 8 14 94 15 9 16 93 17 4 18 5 19 6 20 2 21 1 22
REMARK SMILES IDX 3 23 86 24 87 25 92 26 88 27 91 28 89 29 90 30 19 31 20 32
REMARK SMILES IDX 21 33 22 34 23 35 24 36 82 37 25 38 81 39 26 40 27 41 28 42
REMARK SMILES IDX 75 43 29 44 80 45 74 46 76 47 30 48 79 49 73 50 72 51 31 53
REMARK SMILES IDX 61 54 42 55 60 56 43 57 46 58 59 59 77 60 44 61 45 62 58 64
REMARK SMILES IDX 78 65 47 66 32 67 33 68 41 69 34 70 40 71 35 72 36 73 37 74
REMARK SMILES IDX 38 75 39 76 62 77 63 78 71 79 64 80 70 81 65 82 66 83 67 84
REMARK SMILES IDX 68 85 69 86 48 87 49 88 57 89 50 90 56 91 51 92 52 93 53 94
REMARK SMILES IDX 54 95 55 96
REMARK H PARENT 76 52 46 63
REMARK Flexibility Score: inf
ROOT
ATOM      1  C   UNL A   1      44.496  29.797  37.379  1.00  0.00     0.274 C 
ENDROOT
BRANCH   1   2
ATOM      2  O   UNL A   1      43.039  29.814  37.343  1.00  0.00    -0.462 OA
BRANCH   2   3
ATOM      3  C   UNL A   1      42.455  29.589  36.132  1.00  0.00     0.306 C 
ATOM      4  O   UNL A   1      42.879  28.770  35.323  1.00  0.00    -0.252 OA
BRANCH   3   5
ATOM      5  C   UNL A   1      41.193  30.411  35.865  1.00  0.00     0.129 C 
BRANCH   5   6
ATOM      6  C   UNL A   1      40.946  31.033  34.479  1.00  0.00     0.066 C 
BRANCH   6   7
ATOM      7  C   UNL A   1      39.502  31.184  34.165  1.00  0.00     0.024 A 
ATOM      8  N   UNL A   1      38.663  32.170  34.671  1.00  0.00    -0.314 N 
ATOM      9  C   UNL A   1      37.519  32.180  33.852  1.00  0.00     0.053 A 
ATOM     10  C   UNL A   1      38.753  30.375  33.329  1.00  0.00     0.024 A 
ATOM     11  C   UNL A   1      37.511  30.997  33.133  1.00  0.00     0.029 A 
BRANCH   8  12
ATOM     12  C   UNL A   1      38.938  33.113  35.713  1.00  0.00     0.046 A 
ATOM     13  C   UNL A   1      39.338  35.414  38.473  1.00  0.00     0.082 A 
ATOM     14  C   UNL A   1      38.672  33.780  38.760  1.00  0.00     0.024 A 
ATOM     15  C   UNL A   1      39.830  35.930  36.828  1.00  0.00     0.024 A 
ATOM     16  C   UNL A   1      38.480  32.620  37.404  1.00  0.00     0.028 A 
ATOM     17  C   UNL A   1      39.702  34.763  35.449  1.00  0.00     0.028 A 
BRANCH  13  18
ATOM     18  S   UNL A   1      39.378  36.598  39.780  1.00  0.00     0.242 S 
ATOM     19  O   UNL A   1      38.668  36.005  40.895  1.00  0.00    -0.207 OA
ATOM     20  O   UNL A   1      38.987  37.862  39.207  1.00  0.00    -0.207 OA
BRANCH  18  21
ATOM     21  N   UNL A   1      41.035  36.681  40.223  1.00  0.00    -0.204 NA
ATOM     22  C   UNL A   1      41.232  37.110  41.631  1.00  0.00     0.124 C 
ATOM     23  C   UNL A   1      41.844  35.482  39.911  1.00  0.00     0.124 C 
ENDBRANCH  18  21
ENDBRANCH  13  18
ENDBRANCH   8  12
BRANCH   9  24
ATOM     24  C   UNL A   1      36.613  33.313  33.625  1.00  0.00    -0.001 A 
ATOM     25  C   UNL A   1      36.669  34.062  32.441  1.00  0.00     0.013 A 
ATOM     26  C   UNL A   1      35.699  33.681  34.626  1.00  0.00     0.013 A 
ATOM     27  C   UNL A   1      35.785  35.128  32.244  1.00  0.00     0.040 A 
ATOM     28  C   UNL A   1      34.818  34.744  34.428  1.00  0.00     0.040 A 
ATOM     29  C   UNL A   1      34.867  35.456  33.236  1.00  0.00     0.123 A 
ATOM     30  F   UNL A   1      34.022  36.476  33.046  1.00  0.00    -0.207 F 
ENDBRANCH   9  24
ENDBRANCH   6   7
ENDBRANCH   5   6
ENDBRANCH   3   5
ENDBRANCH   2   3
ENDBRANCH   1   2
BRANCH   1  31
ATOM     31  C   UNL A   1      45.266  28.431  38.033  1.00  0.00     0.275 C 
BRANCH  31  32
ATOM     32  O   UNL A   1      45.211  26.529  37.382  1.00  0.00    -0.458 OA
BRANCH  32  33
ATOM     33  C   UNL A   1      44.881  25.440  36.532  1.00  0.00     0.338 C 
ATOM     34  O   UNL A   1      44.104  24.510  36.738  1.00  0.00    -0.246 OA
BRANCH  33  35
ATOM     35  C   UNL A   1      45.408  25.563  35.185  1.00  0.00     0.060 A 
ATOM     36  C   UNL A   1      45.933  26.825  34.861  1.00  0.00     0.016 A 
ATOM     37  C   UNL A   1      44.956  24.656  34.234  1.00  0.00     0.016 A 
ATOM     38  C   UNL A   1      45.845  27.251  33.559  1.00  0.00     0.010 A 
ATOM     39  C   UNL A   1      44.872  25.083  32.931  1.00  0.00     0.010 A 
ATOM     40  C   UNL A   1      45.246  26.398  32.626  1.00  0.00    -0.014 A 
BRANCH  40  41
ATOM     41  C   UNL A   1      45.008  26.910  31.277  1.00  0.00     0.031 A 
ATOM     42  C   UNL A   1      46.255  26.751  30.405  1.00  0.00     0.074 A 
ATOM     43  C   UNL A   1      43.763  27.447  31.095  1.00  0.00     0.049 A 
ATOM     44  N   UNL A   1      46.622  27.396  29.342  1.00  0.00    -0.248 NA
ATOM     45  C   UNL A   1      47.296  25.767  30.828  1.00  0.00     0.031 C 
ATOM     46  C   UNL A   1      42.681  27.497  32.117  1.00  0.00     0.029 A 
ATOM     47  N   UNL A   1      43.146  28.062  30.037  1.00  0.00    -0.354 N 
ATOM     48  C   UNL A   1      47.820  26.804  28.889  1.00  0.00     0.074 A 
ATOM     49  C   UNL A   1      48.234  25.870  29.889  1.00  0.00     0.031 C 
ATOM     50  C   UNL A   1      41.599  28.161  31.653  1.00  0.00     0.029 A 
ATOM     51  C   UNL A   1      41.861  28.601  30.300  1.00  0.00     0.049 A 
ATOM     52  H   UNL A   1      43.569  28.125  29.150  1.00  0.00     0.167 HD
ATOM     53  C   UNL A   1      48.354  27.026  27.656  1.00  0.00     0.031 A 
ATOM     54  C   UNL A   1      41.109  29.412  29.495  1.00  0.00     0.031 A 
ATOM     55  C   UNL A   1      47.592  27.985  26.932  1.00  0.00     0.049 A 
ATOM     56  C   UNL A   1      41.926  29.576  28.282  1.00  0.00     0.074 A 
ATOM     57  C   UNL A   1      47.618  29.344  26.766  1.00  0.00     0.029 A 
ATOM     58  N   UNL A   1      46.485  27.500  26.287  1.00  0.00    -0.354 N 
ATOM     59  N   UNL A   1      42.110  28.678  27.366  1.00  0.00    -0.248 NA
ATOM     60  C   UNL A   1      42.745  30.782  28.176  1.00  0.00     0.031 C 
ATOM     61  C   UNL A   1      46.346  29.681  26.236  1.00  0.00     0.029 A 
ATOM     62  C   UNL A   1      45.569  28.523  26.230  1.00  0.00     0.049 A 
ATOM     63  H   UNL A   1      46.367  26.591  25.930  1.00  0.00     0.167 HD
ATOM     64  C   UNL A   1      43.284  29.064  26.760  1.00  0.00     0.074 A 
ATOM     65  C   UNL A   1      43.502  30.447  27.136  1.00  0.00     0.031 C 
ATOM     66  C   UNL A   1      44.180  28.146  26.317  1.00  0.00     0.031 A 
BRANCH  53  67
ATOM     67  C   UNL A   1      49.404  26.263  26.890  1.00  0.00    -0.014 A 
ATOM     68  C   UNL A   1      50.523  25.807  27.630  1.00  0.00     0.010 A 
ATOM     69  C   UNL A   1      49.521  26.287  25.491  1.00  0.00     0.010 A 
ATOM     70  C   UNL A   1      51.749  25.538  27.021  1.00  0.00     0.020 A 
ATOM     71  C   UNL A   1      50.743  25.974  24.866  1.00  0.00     0.020 A 
ATOM     72  C   UNL A   1      51.862  25.661  25.642  1.00  0.00     0.054 A 
BRANCH  72  73
ATOM     73  S   UNL A   1      53.511  25.489  24.904  1.00  0.00     0.124 S 
ATOM     74  O   UNL A   1      53.356  26.192  23.635  1.00  0.00    -0.237 OA
ATOM     75  O   UNL A   1      54.368  26.153  25.885  1.00  0.00    -0.237 OA
ATOM     76  O   UNL A   1      53.695  24.043  24.808  1.00  0.00    -0.744 OA
ENDBRANCH  72  73
ENDBRANCH  53  67
BRANCH  54  77
ATOM     77  C   UNL A   1      39.873  30.273  29.601  1.00  0.00    -0.014 A 
ATOM     78  C   UNL A   1      39.809  31.599  30.047  1.00  0.00     0.010 A 
ATOM     79  C   UNL A   1      38.646  29.724  29.130  1.00  0.00     0.010 A 
ATOM     80  C   UNL A   1      38.625  32.365  29.895  1.00  0.00     0.020 A 
ATOM     81  C   UNL A   1      37.485  30.476  28.939  1.00  0.00     0.020 A 
ATOM     82  C   UNL A   1      37.486  31.810  29.301  1.00  0.00     0.054 A 
BRANCH  82  83
ATOM     83  S   UNL A   1      36.047  32.834  28.871  1.00  0.00     0.124 S 
ATOM     84  O   UNL A   1      35.734  32.388  27.518  1.00  0.00    -0.237 OA
ATOM     85  O   UNL A   1      35.072  32.475  29.897  1.00  0.00    -0.237 OA
ATOM     86  O   UNL A   1      36.561  34.201  28.974  1.00  0.00    -0.744 OA
ENDBRANCH  82  83
ENDBRANCH  54  77
BRANCH  66  87
ATOM     87  C   UNL A   1      43.701  26.700  26.394  1.00  0.00    -0.014 A 
ATOM     88  C   UNL A   1      43.174  26.058  25.267  1.00  0.00     0.010 A 
ATOM     89  C   UNL A   1      43.696  25.983  27.615  1.00  0.00     0.010 A 
ATOM     90  C   UNL A   1      42.678  24.746  25.349  1.00  0.00     0.020 A 
ATOM     91  C   UNL A   1      43.209  24.670  27.708  1.00  0.00     0.020 A 
ATOM     92  C   UNL A   1      42.702  24.056  26.566  1.00  0.00     0.054 A 
BRANCH  92  93
ATOM     93  S   UNL A   1      42.046  22.362  26.636  1.00  0.00     0.124 S 
ATOM     94  O   UNL A   1      42.483  21.793  25.363  1.00  0.00    -0.237 OA
ATOM     95  O   UNL A   1      42.703  21.819  27.821  1.00  0.00    -0.237 OA
ATOM     96  O   UNL A   1      40.600  22.546  26.760  1.00  0.00    -0.744 OA
ENDBRANCH  92  93
ENDBRANCH  66  87
ENDBRANCH  40  41
ENDBRANCH  33  35
ENDBRANCH  32  33
ENDBRANCH  31  32
ENDBRANCH   1  31
TORSDOF 20
ENDMDL
