MODEL 1
REMARK VINA RESULT:     -11.1      0.000      0.000
REMARK SMILES O=C(OCCOC(=O)c1cccnc1Nc1cccc(C(F)(F)F)c1)c1ccc(-c2c3nc(c(-c4ccc(S(=O)(=O)[O-])cc4)c4ccc([nH]4)c(-c4ccc(S(=O)(=O)[O-])cc4)c4nc(c(-c5ccc(S(=O)(=O)[O-])cc5)c5ccc2[nH]5)C=C4)C=C3)cc1
REMARK SMILES IDX 4 1 3 2 2 3 1 4 26 5 27 6 85 7 28 8 84 9 29 10 30 11 31 12
REMARK SMILES IDX 78 13 32 14 83 15 77 16 79 17 33 18 82 19 76 20 75 21 34 23
REMARK SMILES IDX 64 24 45 25 63 26 46 27 49 28 62 29 80 30 47 31 48 32 61 34
REMARK SMILES IDX 81 35 50 36 35 37 36 38 44 39 37 40 43 41 38 42 39 43 40 44
REMARK SMILES IDX 41 45 42 46 65 47 66 48 74 49 67 50 73 51 68 52 69 53 70 54
REMARK SMILES IDX 71 55 72 56 51 57 52 58 60 59 53 60 59 61 54 62 55 63 56 64
REMARK SMILES IDX 57 65 58 66 5 67 6 68 7 69 8 70 9 71 10 72 14 73 11 74 13 75
REMARK SMILES IDX 12 76 15 77 16 79 17 80 25 81 18 82 20 83 19 84 21 85 22 86
REMARK SMILES IDX 23 87 24 88
REMARK H PARENT 79 22 49 33 15 78
REMARK Flexibility Score: inf
ROOT
ATOM      1  C   UNL A   1      45.245  25.027  25.390  1.00  0.00     0.275 C 
ENDROOT
BRANCH   1   2
ATOM      2  O   UNL A   1      44.375  26.171  25.341  1.00  0.00    -0.458 OA
BRANCH   2   3
ATOM      3  C   UNL A   1      43.090  26.328  25.731  1.00  0.00     0.338 C 
ATOM      4  O   UNL A   1      42.200  25.941  24.973  1.00  0.00    -0.246 OA
BRANCH   3   5
ATOM      5  C   UNL A   1      42.669  27.071  26.960  1.00  0.00     0.060 A 
ATOM      6  C   UNL A   1      43.112  28.336  27.338  1.00  0.00     0.016 A 
ATOM      7  C   UNL A   1      41.724  26.432  27.786  1.00  0.00     0.016 A 
ATOM      8  C   UNL A   1      42.572  28.977  28.452  1.00  0.00     0.010 A 
ATOM      9  C   UNL A   1      41.158  27.075  28.887  1.00  0.00     0.010 A 
ATOM     10  C   UNL A   1      41.592  28.353  29.228  1.00  0.00    -0.014 A 
BRANCH  10  11
ATOM     11  C   UNL A   1      41.160  29.016  30.473  1.00  0.00     0.031 A 
ATOM     12  C   UNL A   1      41.962  28.781  31.715  1.00  0.00     0.074 A 
ATOM     13  C   UNL A   1      40.159  29.915  30.438  1.00  0.00     0.049 A 
ATOM     14  N   UNL A   1      41.899  29.408  32.858  1.00  0.00    -0.248 NA
ATOM     15  C   UNL A   1      43.000  27.738  31.653  1.00  0.00     0.031 C 
ATOM     16  C   UNL A   1      39.375  30.252  29.250  1.00  0.00     0.029 A 
ATOM     17  N   UNL A   1      39.646  30.730  31.411  1.00  0.00    -0.354 N 
ATOM     18  C   UNL A   1      42.922  28.874  33.628  1.00  0.00     0.074 A 
ATOM     19  C   UNL A   1      43.542  27.821  32.859  1.00  0.00     0.031 C 
ATOM     20  C   UNL A   1      38.464  31.186  29.566  1.00  0.00     0.029 A 
ATOM     21  C   UNL A   1      38.611  31.524  30.976  1.00  0.00     0.049 A 
ATOM     22  H   UNL A   1      39.986  30.745  32.335  1.00  0.00     0.167 HD
ATOM     23  C   UNL A   1      43.333  29.261  34.856  1.00  0.00     0.031 A 
ATOM     24  C   UNL A   1      37.877  32.434  31.643  1.00  0.00     0.031 A 
ATOM     25  C   UNL A   1      42.671  30.279  35.624  1.00  0.00     0.049 A 
ATOM     26  C   UNL A   1      38.272  32.752  33.059  1.00  0.00     0.074 A 
ATOM     27  C   UNL A   1      42.961  30.724  36.899  1.00  0.00     0.029 A 
ATOM     28  N   UNL A   1      41.569  31.001  35.184  1.00  0.00    -0.354 N 
ATOM     29  N   UNL A   1      39.268  32.263  33.762  1.00  0.00    -0.248 NA
ATOM     30  C   UNL A   1      37.477  33.768  33.759  1.00  0.00     0.031 C 
ATOM     31  C   UNL A   1      42.000  31.677  37.253  1.00  0.00     0.029 A 
ATOM     32  C   UNL A   1      41.151  31.872  36.172  1.00  0.00     0.049 A 
ATOM     33  H   UNL A   1      41.149  30.906  34.299  1.00  0.00     0.167 HD
ATOM     34  C   UNL A   1      39.239  32.934  34.977  1.00  0.00     0.074 A 
ATOM     35  C   UNL A   1      38.142  33.880  34.900  1.00  0.00     0.031 C 
ATOM     36  C   UNL A   1      40.044  32.789  36.060  1.00  0.00     0.031 A 
BRANCH  23  37
ATOM     37  C   UNL A   1      44.535  28.564  35.428  1.00  0.00    -0.014 A 
ATOM     38  C   UNL A   1      45.829  29.082  35.226  1.00  0.00     0.010 A 
ATOM     39  C   UNL A   1      44.378  27.384  36.173  1.00  0.00     0.010 A 
ATOM     40  C   UNL A   1      46.945  28.415  35.736  1.00  0.00     0.020 A 
ATOM     41  C   UNL A   1      45.490  26.727  36.705  1.00  0.00     0.020 A 
ATOM     42  C   UNL A   1      46.768  27.241  36.474  1.00  0.00     0.054 A 
BRANCH  42  43
ATOM     43  S   UNL A   1      48.233  26.415  37.152  1.00  0.00     0.124 S 
ATOM     44  O   UNL A   1      47.670  25.682  38.283  1.00  0.00    -0.237 OA
ATOM     45  O   UNL A   1      48.682  25.592  36.032  1.00  0.00    -0.237 OA
ATOM     46  O   UNL A   1      49.122  27.518  37.507  1.00  0.00    -0.744 OA
ENDBRANCH  42  43
ENDBRANCH  23  37
BRANCH  24  47
ATOM     47  C   UNL A   1      36.709  33.092  30.991  1.00  0.00    -0.014 A 
ATOM     48  C   UNL A   1      36.843  33.819  29.796  1.00  0.00     0.010 A 
ATOM     49  C   UNL A   1      35.440  33.009  31.596  1.00  0.00     0.010 A 
ATOM     50  C   UNL A   1      35.742  34.483  29.242  1.00  0.00     0.020 A 
ATOM     51  C   UNL A   1      34.331  33.646  31.031  1.00  0.00     0.020 A 
ATOM     52  C   UNL A   1      34.494  34.397  29.867  1.00  0.00     0.054 A 
BRANCH  52  53
ATOM     53  S   UNL A   1      33.080  35.263  29.131  1.00  0.00     0.124 S 
ATOM     54  O   UNL A   1      32.612  34.296  28.144  1.00  0.00    -0.237 OA
ATOM     55  O   UNL A   1      32.205  35.469  30.283  1.00  0.00    -0.237 OA
ATOM     56  O   UNL A   1      33.674  36.481  28.585  1.00  0.00    -0.744 OA
ENDBRANCH  52  53
ENDBRANCH  24  47
BRANCH  36  57
ATOM     57  C   UNL A   1      39.767  33.688  37.232  1.00  0.00    -0.014 A 
ATOM     58  C   UNL A   1      38.929  33.276  38.283  1.00  0.00     0.010 A 
ATOM     59  C   UNL A   1      40.381  34.953  37.294  1.00  0.00     0.010 A 
ATOM     60  C   UNL A   1      38.669  34.134  39.352  1.00  0.00     0.020 A 
ATOM     61  C   UNL A   1      40.152  35.799  38.379  1.00  0.00     0.020 A 
ATOM     62  C   UNL A   1      39.281  35.391  39.391  1.00  0.00     0.054 A 
BRANCH  62  63
ATOM     63  S   UNL A   1      38.943  36.478  40.801  1.00  0.00     0.124 S 
ATOM     64  O   UNL A   1      40.262  36.594  41.415  1.00  0.00    -0.237 OA
ATOM     65  O   UNL A   1      38.439  37.689  40.158  1.00  0.00    -0.237 OA
ATOM     66  O   UNL A   1      37.955  35.736  41.581  1.00  0.00    -0.744 OA
ENDBRANCH  62  63
ENDBRANCH  36  57
ENDBRANCH  10  11
ENDBRANCH   3   5
ENDBRANCH   2   3
ENDBRANCH   1   2
BRANCH   1  67
ATOM     67  C   UNL A   1      44.872  23.953  26.417  1.00  0.00     0.275 C 
BRANCH  67  68
ATOM     68  O   UNL A   1      44.844  22.614  25.902  1.00  0.00    -0.458 OA
BRANCH  68  69
ATOM     69  C   UNL A   1      43.658  22.223  25.361  1.00  0.00     0.342 C 
ATOM     70  O   UNL A   1      42.998  22.858  24.557  1.00  0.00    -0.246 OA
BRANCH  69  71
ATOM     71  C   UNL A   1      43.325  20.866  25.828  1.00  0.00     0.102 A 
ATOM     72  C   UNL A   1      43.989  19.764  25.268  1.00  0.00     0.021 A 
ATOM     73  C   UNL A   1      42.356  20.655  26.819  1.00  0.00     0.144 A 
ATOM     74  C   UNL A   1      43.665  18.481  25.690  1.00  0.00     0.021 A 
ATOM     75  N   UNL A   1      42.057  19.394  27.230  1.00  0.00    -0.238 NA
ATOM     76  C   UNL A   1      42.690  18.347  26.657  1.00  0.00     0.113 A 
BRANCH  73  77
ATOM     77  N   UNL A   1      41.642  21.721  27.401  1.00  0.00    -0.340 N 
ATOM     78  H   UNL A   1      42.053  22.143  28.190  1.00  0.00     0.168 HD
BRANCH  77  79
ATOM     79  C   UNL A   1      40.410  22.248  26.983  1.00  0.00     0.040 A 
ATOM     80  C   UNL A   1      40.027  23.539  27.365  1.00  0.00     0.026 A 
ATOM     81  C   UNL A   1      39.573  21.527  26.127  1.00  0.00     0.039 A 
ATOM     82  C   UNL A   1      38.836  24.100  26.901  1.00  0.00     0.003 A 
ATOM     83  C   UNL A   1      38.342  22.050  25.704  1.00  0.00     0.058 A 
ATOM     84  C   UNL A   1      37.992  23.354  26.084  1.00  0.00     0.013 A 
BRANCH  83  85
ATOM     85  C   UNL A   1      37.389  21.214  24.898  1.00  0.00     0.416 C 
ATOM     86  F   UNL A   1      37.900  19.977  24.625  1.00  0.00    -0.166 F 
ATOM     87  F   UNL A   1      36.208  20.987  25.537  1.00  0.00    -0.166 F 
ATOM     88  F   UNL A   1      37.064  21.745  23.687  1.00  0.00    -0.166 F 
ENDBRANCH  83  85
ENDBRANCH  77  79
ENDBRANCH  73  77
ENDBRANCH  69  71
ENDBRANCH  68  69
ENDBRANCH  67  68
ENDBRANCH   1  67
TORSDOF 17
ENDMDL
MODEL 2
REMARK VINA RESULT:     -10.9      4.641     10.759
REMARK SMILES O=C(OCCOC(=O)c1cccnc1Nc1cccc(C(F)(F)F)c1)c1ccc(-c2c3nc(c(-c4ccc(S(=O)(=O)[O-])cc4)c4ccc([nH]4)c(-c4ccc(S(=O)(=O)[O-])cc4)c4nc(c(-c5ccc(S(=O)(=O)[O-])cc5)c5ccc2[nH]5)C=C4)C=C3)cc1
REMARK SMILES IDX 4 1 3 2 2 3 1 4 26 5 27 6 85 7 28 8 84 9 29 10 30 11 31 12
REMARK SMILES IDX 78 13 32 14 83 15 77 16 79 17 33 18 82 19 76 20 75 21 34 23
REMARK SMILES IDX 64 24 45 25 63 26 46 27 49 28 62 29 80 30 47 31 48 32 61 34
REMARK SMILES IDX 81 35 50 36 35 37 36 38 44 39 37 40 43 41 38 42 39 43 40 44
REMARK SMILES IDX 41 45 42 46 65 47 66 48 74 49 67 50 73 51 68 52 69 53 70 54
REMARK SMILES IDX 71 55 72 56 51 57 52 58 60 59 53 60 59 61 54 62 55 63 56 64
REMARK SMILES IDX 57 65 58 66 5 67 6 68 7 69 8 70 9 71 10 72 14 73 11 74 13 75
REMARK SMILES IDX 12 76 15 77 16 79 17 80 25 81 18 82 20 83 19 84 21 85 22 86
REMARK SMILES IDX 23 87 24 88
REMARK H PARENT 79 22 49 33 15 78
REMARK Flexibility Score: inf
ROOT
ATOM      1  C   UNL A   1      32.663  29.353  26.614  1.00  0.00     0.275 C 
ENDROOT
BRANCH   1   2
ATOM      2  O   UNL A   1      33.828  30.189  26.725  1.00  0.00    -0.458 OA
BRANCH   2   3
ATOM      3  C   UNL A   1      34.499  30.638  27.810  1.00  0.00     0.338 C 
ATOM      4  O   UNL A   1      34.007  31.564  28.456  1.00  0.00    -0.246 OA
BRANCH   3   5
ATOM      5  C   UNL A   1      35.871  30.184  28.198  1.00  0.00     0.060 A 
ATOM      6  C   UNL A   1      36.242  29.689  29.445  1.00  0.00     0.016 A 
ATOM      7  C   UNL A   1      36.860  30.250  27.197  1.00  0.00     0.016 A 
ATOM      8  C   UNL A   1      37.528  29.198  29.664  1.00  0.00     0.010 A 
ATOM      9  C   UNL A   1      38.142  29.737  27.396  1.00  0.00     0.010 A 
ATOM     10  C   UNL A   1      38.481  29.215  28.642  1.00  0.00    -0.014 A 
BRANCH  10  11
ATOM     11  C   UNL A   1      39.863  28.815  28.969  1.00  0.00     0.031 A 
ATOM     12  C   UNL A   1      40.714  29.778  29.738  1.00  0.00     0.074 A 
ATOM     13  C   UNL A   1      40.277  27.563  28.702  1.00  0.00     0.049 A 
ATOM     14  N   UNL A   1      41.869  29.568  30.310  1.00  0.00    -0.248 NA
ATOM     15  C   UNL A   1      40.182  31.138  29.929  1.00  0.00     0.031 C 
ATOM     16  C   UNL A   1      39.480  26.544  28.019  1.00  0.00     0.029 A 
ATOM     17  N   UNL A   1      41.450  26.921  28.993  1.00  0.00    -0.354 N 
ATOM     18  C   UNL A   1      42.172  30.750  30.972  1.00  0.00     0.074 A 
ATOM     19  C   UNL A   1      41.125  31.697  30.671  1.00  0.00     0.031 C 
ATOM     20  C   UNL A   1      40.193  25.411  27.921  1.00  0.00     0.029 A 
ATOM     21  C   UNL A   1      41.491  25.620  28.549  1.00  0.00     0.049 A 
ATOM     22  H   UNL A   1      42.193  27.351  29.475  1.00  0.00     0.167 HD
ATOM     23  C   UNL A   1      43.215  31.004  31.793  1.00  0.00     0.031 A 
ATOM     24  C   UNL A   1      42.468  24.699  28.653  1.00  0.00     0.031 A 
ATOM     25  C   UNL A   1      44.271  30.062  32.040  1.00  0.00     0.049 A 
ATOM     26  C   UNL A   1      43.683  25.055  29.465  1.00  0.00     0.074 A 
ATOM     27  C   UNL A   1      45.406  30.221  32.812  1.00  0.00     0.029 A 
ATOM     28  N   UNL A   1      44.323  28.783  31.500  1.00  0.00    -0.354 N 
ATOM     29  N   UNL A   1      43.938  26.167  30.117  1.00  0.00    -0.248 NA
ATOM     30  C   UNL A   1      44.722  24.027  29.591  1.00  0.00     0.031 C 
ATOM     31  C   UNL A   1      46.173  29.056  32.694  1.00  0.00     0.029 A 
ATOM     32  C   UNL A   1      45.484  28.149  31.902  1.00  0.00     0.049 A 
ATOM     33  H   UNL A   1      43.635  28.388  30.918  1.00  0.00     0.167 HD
ATOM     34  C   UNL A   1      45.153  25.960  30.757  1.00  0.00     0.074 A 
ATOM     35  C   UNL A   1      45.566  24.608  30.432  1.00  0.00     0.031 C 
ATOM     36  C   UNL A   1      45.865  26.806  31.544  1.00  0.00     0.031 A 
BRANCH  23  37
ATOM     37  C   UNL A   1      43.252  32.352  32.456  1.00  0.00    -0.014 A 
ATOM     38  C   UNL A   1      42.638  32.555  33.707  1.00  0.00     0.010 A 
ATOM     39  C   UNL A   1      43.905  33.427  31.830  1.00  0.00     0.010 A 
ATOM     40  C   UNL A   1      42.652  33.817  34.305  1.00  0.00     0.020 A 
ATOM     41  C   UNL A   1      43.942  34.685  32.437  1.00  0.00     0.020 A 
ATOM     42  C   UNL A   1      43.305  34.874  33.666  1.00  0.00     0.054 A 
BRANCH  42  43
ATOM     43  S   UNL A   1      43.336  36.494  34.482  1.00  0.00     0.124 S 
ATOM     44  O   UNL A   1      43.466  37.402  33.345  1.00  0.00    -0.237 OA
ATOM     45  O   UNL A   1      42.048  36.529  35.169  1.00  0.00    -0.237 OA
ATOM     46  O   UNL A   1      44.505  36.420  35.356  1.00  0.00    -0.744 OA
ENDBRANCH  42  43
ENDBRANCH  23  37
BRANCH  24  47
ATOM     47  C   UNL A   1      42.338  23.378  27.977  1.00  0.00    -0.014 A 
ATOM     48  C   UNL A   1      41.680  22.296  28.587  1.00  0.00     0.010 A 
ATOM     49  C   UNL A   1      42.912  23.192  26.704  1.00  0.00     0.010 A 
ATOM     50  C   UNL A   1      41.633  21.047  27.957  1.00  0.00     0.020 A 
ATOM     51  C   UNL A   1      42.842  21.954  26.058  1.00  0.00     0.020 A 
ATOM     52  C   UNL A   1      42.220  20.883  26.698  1.00  0.00     0.054 A 
BRANCH  52  53
ATOM     53  S   UNL A   1      42.146  19.255  25.898  1.00  0.00     0.124 S 
ATOM     54  O   UNL A   1      40.716  19.106  25.648  1.00  0.00    -0.237 OA
ATOM     55  O   UNL A   1      42.981  19.449  24.716  1.00  0.00    -0.237 OA
ATOM     56  O   UNL A   1      42.704  18.356  26.905  1.00  0.00    -0.744 OA
ENDBRANCH  52  53
ENDBRANCH  24  47
BRANCH  36  57
ATOM     57  C   UNL A   1      47.150  26.274  32.114  1.00  0.00    -0.014 A 
ATOM     58  C   UNL A   1      48.372  26.450  31.439  1.00  0.00     0.010 A 
ATOM     59  C   UNL A   1      47.137  25.617  33.358  1.00  0.00     0.010 A 
ATOM     60  C   UNL A   1      49.551  25.932  31.975  1.00  0.00     0.020 A 
ATOM     61  C   UNL A   1      48.320  25.130  33.914  1.00  0.00     0.020 A 
ATOM     62  C   UNL A   1      49.516  25.273  33.208  1.00  0.00     0.054 A 
BRANCH  62  63
ATOM     63  S   UNL A   1      51.064  24.628  33.893  1.00  0.00     0.124 S 
ATOM     64  O   UNL A   1      51.991  24.827  32.782  1.00  0.00    -0.237 OA
ATOM     65  O   UNL A   1      51.282  25.485  35.056  1.00  0.00    -0.237 OA
ATOM     66  O   UNL A   1      50.752  23.235  34.202  1.00  0.00    -0.744 OA
ENDBRANCH  62  63
ENDBRANCH  36  57
ENDBRANCH  10  11
ENDBRANCH   3   5
ENDBRANCH   2   3
ENDBRANCH   1   2
BRANCH   1  67
ATOM     67  C   UNL A   1      32.761  28.208  25.601  1.00  0.00     0.275 C 
BRANCH  67  68
ATOM     68  O   UNL A   1      31.757  27.193  25.744  1.00  0.00    -0.458 OA
BRANCH  68  69
ATOM     69  C   UNL A   1      32.167  25.925  25.467  1.00  0.00     0.342 C 
ATOM     70  O   UNL A   1      32.261  25.015  26.272  1.00  0.00    -0.246 OA
BRANCH  69  71
ATOM     71  C   UNL A   1      32.403  25.787  24.019  1.00  0.00     0.102 A 
ATOM     72  C   UNL A   1      31.390  26.150  23.120  1.00  0.00     0.021 A 
ATOM     73  C   UNL A   1      33.619  25.296  23.524  1.00  0.00     0.144 A 
ATOM     74  C   UNL A   1      31.599  26.003  21.755  1.00  0.00     0.021 A 
ATOM     75  N   UNL A   1      33.814  25.168  22.184  1.00  0.00    -0.238 NA
ATOM     76  C   UNL A   1      32.814  25.499  21.339  1.00  0.00     0.113 A 
BRANCH  73  77
ATOM     77  N   UNL A   1      34.664  24.896  24.380  1.00  0.00    -0.340 N 
ATOM     78  H   UNL A   1      35.084  25.604  24.919  1.00  0.00     0.168 HD
BRANCH  77  79
ATOM     79  C   UNL A   1      35.175  23.599  24.549  1.00  0.00     0.040 A 
ATOM     80  C   UNL A   1      36.549  23.397  24.728  1.00  0.00     0.026 A 
ATOM     81  C   UNL A   1      34.322  22.493  24.608  1.00  0.00     0.039 A 
ATOM     82  C   UNL A   1      37.061  22.121  24.964  1.00  0.00     0.003 A 
ATOM     83  C   UNL A   1      34.827  21.196  24.780  1.00  0.00     0.058 A 
ATOM     84  C   UNL A   1      36.205  21.023  24.978  1.00  0.00     0.013 A 
BRANCH  83  85
ATOM     85  C   UNL A   1      33.917  20.002  24.704  1.00  0.00     0.416 C 
ATOM     86  F   UNL A   1      33.321  19.737  25.904  1.00  0.00    -0.166 F 
ATOM     87  F   UNL A   1      32.895  20.167  23.818  1.00  0.00    -0.166 F 
ATOM     88  F   UNL A   1      34.540  18.844  24.346  1.00  0.00    -0.166 F 
ENDBRANCH  83  85
ENDBRANCH  77  79
ENDBRANCH  73  77
ENDBRANCH  69  71
ENDBRANCH  68  69
ENDBRANCH  67  68
ENDBRANCH   1  67
TORSDOF 17
ENDMDL
MODEL 3
REMARK VINA RESULT:     -10.8      5.055     10.211
REMARK SMILES O=C(OCCOC(=O)c1cccnc1Nc1cccc(C(F)(F)F)c1)c1ccc(-c2c3nc(c(-c4ccc(S(=O)(=O)[O-])cc4)c4ccc([nH]4)c(-c4ccc(S(=O)(=O)[O-])cc4)c4nc(c(-c5ccc(S(=O)(=O)[O-])cc5)c5ccc2[nH]5)C=C4)C=C3)cc1
REMARK SMILES IDX 4 1 3 2 2 3 1 4 26 5 27 6 85 7 28 8 84 9 29 10 30 11 31 12
REMARK SMILES IDX 78 13 32 14 83 15 77 16 79 17 33 18 82 19 76 20 75 21 34 23
REMARK SMILES IDX 64 24 45 25 63 26 46 27 49 28 62 29 80 30 47 31 48 32 61 34
REMARK SMILES IDX 81 35 50 36 35 37 36 38 44 39 37 40 43 41 38 42 39 43 40 44
REMARK SMILES IDX 41 45 42 46 65 47 66 48 74 49 67 50 73 51 68 52 69 53 70 54
REMARK SMILES IDX 71 55 72 56 51 57 52 58 60 59 53 60 59 61 54 62 55 63 56 64
REMARK SMILES IDX 57 65 58 66 5 67 6 68 7 69 8 70 9 71 10 72 14 73 11 74 13 75
REMARK SMILES IDX 12 76 15 77 16 79 17 80 25 81 18 82 20 83 19 84 21 85 22 86
REMARK SMILES IDX 23 87 24 88
REMARK H PARENT 79 22 49 33 15 78
REMARK Flexibility Score: inf
ROOT
ATOM      1  C   UNL A   1      33.421  35.749  28.947  1.00  0.00     0.275 C 
ENDROOT
BRANCH   1   2
ATOM      2  O   UNL A   1      32.817  34.953  29.981  1.00  0.00    -0.458 OA
BRANCH   2   3
ATOM      3  C   UNL A   1      32.976  34.970  31.323  1.00  0.00     0.338 C 
ATOM      4  O   UNL A   1      32.163  35.601  31.997  1.00  0.00    -0.246 OA
BRANCH   3   5
ATOM      5  C   UNL A   1      34.158  34.393  32.037  1.00  0.00     0.060 A 
ATOM      6  C   UNL A   1      34.360  33.044  32.318  1.00  0.00     0.016 A 
ATOM      7  C   UNL A   1      35.155  35.304  32.438  1.00  0.00     0.016 A 
ATOM      8  C   UNL A   1      35.550  32.608  32.899  1.00  0.00     0.010 A 
ATOM      9  C   UNL A   1      36.360  34.875  32.995  1.00  0.00     0.010 A 
ATOM     10  C   UNL A   1      36.555  33.517  33.237  1.00  0.00    -0.014 A 
BRANCH  10  11
ATOM     11  C   UNL A   1      37.729  33.018  33.976  1.00  0.00     0.031 A 
ATOM     12  C   UNL A   1      38.895  32.505  33.188  1.00  0.00     0.074 A 
ATOM     13  C   UNL A   1      37.789  33.163  35.312  1.00  0.00     0.049 A 
ATOM     14  N   UNL A   1      40.097  32.215  33.606  1.00  0.00    -0.248 NA
ATOM     15  C   UNL A   1      38.701  32.340  31.737  1.00  0.00     0.031 C 
ATOM     16  C   UNL A   1      36.721  33.720  36.144  1.00  0.00     0.029 A 
ATOM     17  N   UNL A   1      38.789  32.886  36.205  1.00  0.00    -0.354 N 
ATOM     18  C   UNL A   1      40.814  31.887  32.464  1.00  0.00     0.074 A 
ATOM     19  C   UNL A   1      39.901  31.936  31.347  1.00  0.00     0.031 C 
ATOM     20  C   UNL A   1      37.112  33.723  37.428  1.00  0.00     0.029 A 
ATOM     21  C   UNL A   1      38.463  33.183  37.507  1.00  0.00     0.049 A 
ATOM     22  H   UNL A   1      39.659  32.510  35.938  1.00  0.00     0.167 HD
ATOM     23  C   UNL A   1      42.132  31.608  32.357  1.00  0.00     0.031 A 
ATOM     24  C   UNL A   1      39.186  33.045  38.635  1.00  0.00     0.031 A 
ATOM     25  C   UNL A   1      43.013  31.516  33.488  1.00  0.00     0.049 A 
ATOM     26  C   UNL A   1      40.617  32.604  38.500  1.00  0.00     0.074 A 
ATOM     27  C   UNL A   1      44.356  31.193  33.512  1.00  0.00     0.029 A 
ATOM     28  N   UNL A   1      42.626  31.737  34.803  1.00  0.00    -0.354 N 
ATOM     29  N   UNL A   1      41.292  32.332  37.406  1.00  0.00    -0.248 NA
ATOM     30  C   UNL A   1      41.396  32.489  39.738  1.00  0.00     0.031 C 
ATOM     31  C   UNL A   1      44.768  31.163  34.849  1.00  0.00     0.029 A 
ATOM     32  C   UNL A   1      43.698  31.533  35.651  1.00  0.00     0.049 A 
ATOM     33  H   UNL A   1      41.722  32.000  35.089  1.00  0.00     0.167 HD
ATOM     34  C   UNL A   1      42.586  32.044  37.822  1.00  0.00     0.074 A 
ATOM     35  C   UNL A   1      42.600  32.200  39.264  1.00  0.00     0.031 C 
ATOM     36  C   UNL A   1      43.667  31.685  37.084  1.00  0.00     0.031 A 
BRANCH  23  37
ATOM     37  C   UNL A   1      42.673  31.374  30.974  1.00  0.00    -0.014 A 
ATOM     38  C   UNL A   1      43.303  32.414  30.263  1.00  0.00     0.010 A 
ATOM     39  C   UNL A   1      42.554  30.108  30.377  1.00  0.00     0.010 A 
ATOM     40  C   UNL A   1      43.778  32.197  28.968  1.00  0.00     0.020 A 
ATOM     41  C   UNL A   1      43.050  29.882  29.090  1.00  0.00     0.020 A 
ATOM     42  C   UNL A   1      43.649  30.932  28.390  1.00  0.00     0.054 A 
BRANCH  42  43
ATOM     43  S   UNL A   1      44.306  30.671  26.719  1.00  0.00     0.124 S 
ATOM     44  O   UNL A   1      45.728  30.467  26.982  1.00  0.00    -0.237 OA
ATOM     45  O   UNL A   1      43.575  29.490  26.270  1.00  0.00    -0.237 OA
ATOM     46  O   UNL A   1      43.975  31.910  26.018  1.00  0.00    -0.744 OA
ENDBRANCH  42  43
ENDBRANCH  23  37
BRANCH  24  47
ATOM     47  C   UNL A   1      38.573  33.318  39.966  1.00  0.00    -0.014 A 
ATOM     48  C   UNL A   1      38.007  32.293  40.743  1.00  0.00     0.010 A 
ATOM     49  C   UNL A   1      38.533  34.639  40.453  1.00  0.00     0.010 A 
ATOM     50  C   UNL A   1      37.378  32.588  41.958  1.00  0.00     0.020 A 
ATOM     51  C   UNL A   1      37.932  34.935  41.680  1.00  0.00     0.020 A 
ATOM     52  C   UNL A   1      37.339  33.909  42.416  1.00  0.00     0.054 A 
BRANCH  52  53
ATOM     53  S   UNL A   1      36.521  34.270  43.995  1.00  0.00     0.124 S 
ATOM     54  O   UNL A   1      37.079  35.574  44.334  1.00  0.00    -0.237 OA
ATOM     55  O   UNL A   1      35.108  34.260  43.625  1.00  0.00    -0.237 OA
ATOM     56  O   UNL A   1      36.940  33.165  44.854  1.00  0.00    -0.744 OA
ENDBRANCH  52  53
ENDBRANCH  24  47
BRANCH  36  57
ATOM     57  C   UNL A   1      44.949  31.457  37.834  1.00  0.00    -0.014 A 
ATOM     58  C   UNL A   1      45.288  30.183  38.324  1.00  0.00     0.010 A 
ATOM     59  C   UNL A   1      45.841  32.529  38.023  1.00  0.00     0.010 A 
ATOM     60  C   UNL A   1      46.474  29.996  39.034  1.00  0.00     0.020 A 
ATOM     61  C   UNL A   1      47.044  32.338  38.702  1.00  0.00     0.020 A 
ATOM     62  C   UNL A   1      47.343  31.076  39.221  1.00  0.00     0.054 A 
BRANCH  62  63
ATOM     63  S   UNL A   1      48.886  30.803  40.129  1.00  0.00     0.124 S 
ATOM     64  O   UNL A   1      49.526  32.112  40.037  1.00  0.00    -0.237 OA
ATOM     65  O   UNL A   1      48.413  30.426  41.459  1.00  0.00    -0.237 OA
ATOM     66  O   UNL A   1      49.543  29.734  39.381  1.00  0.00    -0.744 OA
ENDBRANCH  62  63
ENDBRANCH  36  57
ENDBRANCH  10  11
ENDBRANCH   3   5
ENDBRANCH   2   3
ENDBRANCH   1   2
BRANCH   1  67
ATOM     67  C   UNL A   1      34.525  35.062  28.137  1.00  0.00     0.275 C 
BRANCH  67  68
ATOM     68  O   UNL A   1      34.234  33.711  27.750  1.00  0.00    -0.458 OA
BRANCH  68  69
ATOM     69  C   UNL A   1      35.027  32.760  28.315  1.00  0.00     0.342 C 
ATOM     70  O   UNL A   1      35.913  32.961  29.128  1.00  0.00    -0.246 OA
BRANCH  69  71
ATOM     71  C   UNL A   1      34.598  31.425  27.861  1.00  0.00     0.102 A 
ATOM     72  C   UNL A   1      33.245  31.204  27.562  1.00  0.00     0.021 A 
ATOM     73  C   UNL A   1      35.514  30.374  27.726  1.00  0.00     0.144 A 
ATOM     74  C   UNL A   1      32.831  29.942  27.153  1.00  0.00     0.021 A 
ATOM     75  N   UNL A   1      35.096  29.147  27.314  1.00  0.00    -0.238 NA
ATOM     76  C   UNL A   1      33.785  28.950  27.057  1.00  0.00     0.113 A 
BRANCH  73  77
ATOM     77  N   UNL A   1      36.880  30.532  28.033  1.00  0.00    -0.340 N 
ATOM     78  H   UNL A   1      37.310  31.353  27.702  1.00  0.00     0.168 HD
BRANCH  77  79
ATOM     79  C   UNL A   1      37.697  29.649  28.756  1.00  0.00     0.040 A 
ATOM     80  C   UNL A   1      38.691  28.908  28.105  1.00  0.00     0.026 A 
ATOM     81  C   UNL A   1      37.582  29.538  30.145  1.00  0.00     0.039 A 
ATOM     82  C   UNL A   1      39.553  28.079  28.823  1.00  0.00     0.003 A 
ATOM     83  C   UNL A   1      38.397  28.660  30.873  1.00  0.00     0.058 A 
ATOM     84  C   UNL A   1      39.399  27.946  30.200  1.00  0.00     0.013 A 
BRANCH  83  85
ATOM     85  C   UNL A   1      38.173  28.446  32.344  1.00  0.00     0.416 C 
ATOM     86  F   UNL A   1      39.172  28.994  33.097  1.00  0.00    -0.166 F 
ATOM     87  F   UNL A   1      37.021  29.016  32.795  1.00  0.00    -0.166 F 
ATOM     88  F   UNL A   1      38.115  27.137  32.718  1.00  0.00    -0.166 F 
ENDBRANCH  83  85
ENDBRANCH  77  79
ENDBRANCH  73  77
ENDBRANCH  69  71
ENDBRANCH  68  69
ENDBRANCH  67  68
ENDBRANCH   1  67
TORSDOF 17
ENDMDL
