MODEL 1
REMARK VINA RESULT:     -11.1      0.000      0.000
REMARK SMILES O=C(OCCOC(=O)c1cc(-c2cc(Cl)ccc2Cl)cc([N+](=O)[O-])c1)c1ccc(-c2c3nc(c(-c4ccc(S(=O)(=O)[O-])cc4)c4ccc([nH]4)c(-c4ccc(S(=O)(=O)[O-])cc4)c4nc(c(-c5ccc(S(=O)(=O)[O-])cc5)c5ccc2[nH]5)C=C4)C=C3)cc1
REMARK SMILES IDX 4 1 3 2 2 3 1 4 26 5 27 6 85 7 28 8 84 9 29 10 30 11 31 12
REMARK SMILES IDX 78 13 32 14 83 15 77 16 79 17 33 18 82 19 76 20 75 21 34 23
REMARK SMILES IDX 64 24 45 25 63 26 46 27 49 28 62 29 80 30 47 31 48 32 61 34
REMARK SMILES IDX 81 35 50 36 35 37 36 38 44 39 37 40 43 41 38 42 39 43 40 44
REMARK SMILES IDX 41 45 42 46 65 47 66 48 74 49 67 50 73 51 68 52 69 53 70 54
REMARK SMILES IDX 71 55 72 56 51 57 52 58 60 59 53 60 59 61 54 62 55 63 56 64
REMARK SMILES IDX 57 65 58 66 5 67 6 68 7 69 8 70 9 71 10 72 25 73 11 74 21 75
REMARK SMILES IDX 20 76 12 77 13 78 18 79 14 80 17 81 19 82 15 83 16 84 22 85
REMARK SMILES IDX 23 86 24 87
REMARK H PARENT 79 22 49 33
REMARK Flexibility Score: inf
ROOT
ATOM      1  C   UNL A   1      32.307  29.771  27.041  1.00  0.00     0.275 C 
ENDROOT
BRANCH   1   2
ATOM      2  O   UNL A   1      33.646  29.548  27.517  1.00  0.00    -0.458 OA
BRANCH   2   3
ATOM      3  C   UNL A   1      34.592  30.429  27.915  1.00  0.00     0.338 C 
ATOM      4  O   UNL A   1      34.355  31.632  27.799  1.00  0.00    -0.246 OA
BRANCH   3   5
ATOM      5  C   UNL A   1      35.971  30.037  28.356  1.00  0.00     0.060 A 
ATOM      6  C   UNL A   1      36.365  29.690  29.650  1.00  0.00     0.016 A 
ATOM      7  C   UNL A   1      36.955  30.020  27.350  1.00  0.00     0.016 A 
ATOM      8  C   UNL A   1      37.669  29.255  29.919  1.00  0.00     0.010 A 
ATOM      9  C   UNL A   1      38.255  29.577  27.609  1.00  0.00     0.010 A 
ATOM     10  C   UNL A   1      38.619  29.184  28.901  1.00  0.00    -0.014 A 
BRANCH  10  11
ATOM     11  C   UNL A   1      40.023  28.827  29.202  1.00  0.00     0.031 A 
ATOM     12  C   UNL A   1      40.956  29.909  29.660  1.00  0.00     0.074 A 
ATOM     13  C   UNL A   1      40.463  27.559  29.078  1.00  0.00     0.049 A 
ATOM     14  N   UNL A   1      42.229  29.830  29.931  1.00  0.00    -0.248 NA
ATOM     15  C   UNL A   1      40.371  31.244  29.885  1.00  0.00     0.031 C 
ATOM     16  C   UNL A   1      39.633  26.395  28.775  1.00  0.00     0.029 A 
ATOM     17  N   UNL A   1      41.733  27.042  29.156  1.00  0.00    -0.354 N 
ATOM     18  C   UNL A   1      42.588  31.083  30.406  1.00  0.00     0.074 A 
ATOM     19  C   UNL A   1      41.420  31.929  30.318  1.00  0.00     0.031 C 
ATOM     20  C   UNL A   1      40.427  25.325  28.587  1.00  0.00     0.029 A 
ATOM     21  C   UNL A   1      41.814  25.731  28.738  1.00  0.00     0.049 A 
ATOM     22  H   UNL A   1      42.508  27.556  29.479  1.00  0.00     0.167 HD
ATOM     23  C   UNL A   1      43.779  31.475  30.914  1.00  0.00     0.031 A 
ATOM     24  C   UNL A   1      42.887  24.963  28.469  1.00  0.00     0.031 A 
ATOM     25  C   UNL A   1      44.935  30.627  30.977  1.00  0.00     0.049 A 
ATOM     26  C   UNL A   1      44.247  25.504  28.801  1.00  0.00     0.074 A 
ATOM     27  C   UNL A   1      46.175  30.901  31.524  1.00  0.00     0.029 A 
ATOM     28  N   UNL A   1      45.003  29.347  30.446  1.00  0.00    -0.354 N 
ATOM     29  N   UNL A   1      44.555  26.664  29.328  1.00  0.00    -0.248 NA
ATOM     30  C   UNL A   1      45.393  24.617  28.561  1.00  0.00     0.031 C 
ATOM     31  C   UNL A   1      47.014  29.813  31.262  1.00  0.00     0.029 A 
ATOM     32  C   UNL A   1      46.280  28.841  30.600  1.00  0.00     0.049 A 
ATOM     33  H   UNL A   1      44.252  28.870  30.023  1.00  0.00     0.167 HD
ATOM     34  C   UNL A   1      45.925  26.622  29.544  1.00  0.00     0.074 A 
ATOM     35  C   UNL A   1      46.387  25.332  29.070  1.00  0.00     0.031 C 
ATOM     36  C   UNL A   1      46.721  27.557  30.119  1.00  0.00     0.031 A 
BRANCH  23  37
ATOM     37  C   UNL A   1      43.882  32.877  31.439  1.00  0.00    -0.014 A 
ATOM     38  C   UNL A   1      44.258  33.936  30.593  1.00  0.00     0.010 A 
ATOM     39  C   UNL A   1      43.550  33.148  32.777  1.00  0.00     0.010 A 
ATOM     40  C   UNL A   1      44.316  35.242  31.082  1.00  0.00     0.020 A 
ATOM     41  C   UNL A   1      43.589  34.456  33.265  1.00  0.00     0.020 A 
ATOM     42  C   UNL A   1      43.977  35.494  32.415  1.00  0.00     0.054 A 
BRANCH  42  43
ATOM     43  S   UNL A   1      44.011  37.208  33.009  1.00  0.00     0.124 S 
ATOM     44  O   UNL A   1      45.299  37.264  33.695  1.00  0.00    -0.237 OA
ATOM     45  O   UNL A   1      43.926  37.976  31.770  1.00  0.00    -0.237 OA
ATOM     46  O   UNL A   1      42.839  37.298  33.877  1.00  0.00    -0.744 OA
ENDBRANCH  42  43
ENDBRANCH  23  37
BRANCH  24  47
ATOM     47  C   UNL A   1      42.745  23.639  27.801  1.00  0.00    -0.014 A 
ATOM     48  C   UNL A   1      42.365  22.488  28.509  1.00  0.00     0.010 A 
ATOM     49  C   UNL A   1      43.071  23.520  26.437  1.00  0.00     0.010 A 
ATOM     50  C   UNL A   1      42.338  21.241  27.870  1.00  0.00     0.020 A 
ATOM     51  C   UNL A   1      43.020  22.282  25.788  1.00  0.00     0.020 A 
ATOM     52  C   UNL A   1      42.671  21.144  26.514  1.00  0.00     0.054 A 
BRANCH  52  53
ATOM     53  S   UNL A   1      42.633  19.517  25.708  1.00  0.00     0.124 S 
ATOM     54  O   UNL A   1      43.544  19.714  24.584  1.00  0.00    -0.237 OA
ATOM     55  O   UNL A   1      43.117  18.628  26.762  1.00  0.00    -0.237 OA
ATOM     56  O   UNL A   1      41.227  19.339  25.350  1.00  0.00    -0.744 OA
ENDBRANCH  52  53
ENDBRANCH  24  47
BRANCH  36  57
ATOM     57  C   UNL A   1      48.166  27.202  30.307  1.00  0.00    -0.014 A 
ATOM     58  C   UNL A   1      49.139  27.601  29.376  1.00  0.00     0.010 A 
ATOM     59  C   UNL A   1      48.559  26.510  31.467  1.00  0.00     0.010 A 
ATOM     60  C   UNL A   1      50.484  27.297  29.596  1.00  0.00     0.020 A 
ATOM     61  C   UNL A   1      49.905  26.232  31.705  1.00  0.00     0.020 A 
ATOM     62  C   UNL A   1      50.858  26.620  30.762  1.00  0.00     0.054 A 
BRANCH  62  63
ATOM     63  S   UNL A   1      52.618  26.303  31.056  1.00  0.00     0.124 S 
ATOM     64  O   UNL A   1      53.141  26.202  29.698  1.00  0.00    -0.237 OA
ATOM     65  O   UNL A   1      53.035  27.485  31.806  1.00  0.00    -0.237 OA
ATOM     66  O   UNL A   1      52.621  25.056  31.820  1.00  0.00    -0.744 OA
ENDBRANCH  62  63
ENDBRANCH  36  57
ENDBRANCH  10  11
ENDBRANCH   3   5
ENDBRANCH   2   3
ENDBRANCH   1   2
BRANCH   1  67
ATOM     67  C   UNL A   1      31.435  28.515  26.945  1.00  0.00     0.275 C 
BRANCH  67  68
ATOM     68  O   UNL A   1      32.180  27.289  26.913  1.00  0.00    -0.458 OA
BRANCH  68  69
ATOM     69  C   UNL A   1      31.550  26.251  26.306  1.00  0.00     0.338 C 
ATOM     70  O   UNL A   1      30.420  25.851  26.519  1.00  0.00    -0.246 OA
BRANCH  69  71
ATOM     71  C   UNL A   1      32.414  25.714  25.235  1.00  0.00     0.067 A 
ATOM     72  C   UNL A   1      33.315  24.679  25.546  1.00  0.00     0.025 A 
ATOM     73  C   UNL A   1      32.400  26.284  23.963  1.00  0.00     0.101 A 
ATOM     74  C   UNL A   1      34.157  24.143  24.560  1.00  0.00    -0.009 A 
ATOM     75  C   UNL A   1      33.264  25.770  22.993  1.00  0.00     0.270 A 
ATOM     76  C   UNL A   1      34.064  24.656  23.258  1.00  0.00     0.094 A 
BRANCH  74  77
ATOM     77  C   UNL A   1      35.217  23.167  24.869  1.00  0.00     0.002 A 
ATOM     78  C   UNL A   1      36.469  23.586  25.350  1.00  0.00     0.030 A 
ATOM     79  C   UNL A   1      35.002  21.774  24.724  1.00  0.00     0.048 A 
ATOM     80  C   UNL A   1      37.452  22.653  25.692  1.00  0.00     0.041 A 
ATOM     81  C   UNL A   1      35.980  20.848  25.088  1.00  0.00     0.023 A 
ATOM     82  Cl  UNL A   1      33.537  21.126  24.055  1.00  0.00    -0.084 Cl
ATOM     83  Cl  UNL A   1      38.981  23.188  26.269  1.00  0.00    -0.084 Cl
ATOM     84  C   UNL A   1      37.208  21.287  25.575  1.00  0.00     0.022 A 
ENDBRANCH  74  77
BRANCH  75  85
ATOM     85  N   UNL A   1      33.455  26.485  21.729  1.00  0.00     0.062 N 
ATOM     86  O   UNL A   1      33.241  25.860  20.683  1.00  0.00    -0.258 OA
ATOM     87  O   UNL A   1      33.856  27.655  21.799  1.00  0.00    -0.258 OA
ENDBRANCH  75  85
ENDBRANCH  69  71
ENDBRANCH  68  69
ENDBRANCH  67  68
ENDBRANCH   1  67
TORSDOF 16
ENDMDL
MODEL 2
REMARK VINA RESULT:     -10.9      3.126      9.467
REMARK SMILES O=C(OCCOC(=O)c1cc(-c2cc(Cl)ccc2Cl)cc([N+](=O)[O-])c1)c1ccc(-c2c3nc(c(-c4ccc(S(=O)(=O)[O-])cc4)c4ccc([nH]4)c(-c4ccc(S(=O)(=O)[O-])cc4)c4nc(c(-c5ccc(S(=O)(=O)[O-])cc5)c5ccc2[nH]5)C=C4)C=C3)cc1
REMARK SMILES IDX 4 1 3 2 2 3 1 4 26 5 27 6 85 7 28 8 84 9 29 10 30 11 31 12
REMARK SMILES IDX 78 13 32 14 83 15 77 16 79 17 33 18 82 19 76 20 75 21 34 23
REMARK SMILES IDX 64 24 45 25 63 26 46 27 49 28 62 29 80 30 47 31 48 32 61 34
REMARK SMILES IDX 81 35 50 36 35 37 36 38 44 39 37 40 43 41 38 42 39 43 40 44
REMARK SMILES IDX 41 45 42 46 65 47 66 48 74 49 67 50 73 51 68 52 69 53 70 54
REMARK SMILES IDX 71 55 72 56 51 57 52 58 60 59 53 60 59 61 54 62 55 63 56 64
REMARK SMILES IDX 57 65 58 66 5 67 6 68 7 69 8 70 9 71 10 72 25 73 11 74 21 75
REMARK SMILES IDX 20 76 12 77 13 78 18 79 14 80 17 81 19 82 15 83 16 84 22 85
REMARK SMILES IDX 23 86 24 87
REMARK H PARENT 79 22 49 33
REMARK Flexibility Score: inf
ROOT
ATOM      1  C   UNL A   1      37.209  22.103  24.705  1.00  0.00     0.275 C 
ENDROOT
BRANCH   1   2
ATOM      2  O   UNL A   1      37.756  23.058  25.632  1.00  0.00    -0.458 OA
BRANCH   2   3
ATOM      3  C   UNL A   1      39.010  23.184  26.122  1.00  0.00     0.338 C 
ATOM      4  O   UNL A   1      39.736  22.190  26.130  1.00  0.00    -0.246 OA
BRANCH   3   5
ATOM      5  C   UNL A   1      39.529  24.422  26.792  1.00  0.00     0.060 A 
ATOM      6  C   UNL A   1      40.436  25.340  26.259  1.00  0.00     0.016 A 
ATOM      7  C   UNL A   1      39.040  24.668  28.088  1.00  0.00     0.016 A 
ATOM      8  C   UNL A   1      40.777  26.509  26.952  1.00  0.00     0.010 A 
ATOM      9  C   UNL A   1      39.367  25.837  28.781  1.00  0.00     0.010 A 
ATOM     10  C   UNL A   1      40.238  26.772  28.209  1.00  0.00    -0.014 A 
BRANCH  10  11
ATOM     11  C   UNL A   1      40.677  27.952  28.988  1.00  0.00     0.031 A 
ATOM     12  C   UNL A   1      41.930  27.845  29.805  1.00  0.00     0.074 A 
ATOM     13  C   UNL A   1      39.978  29.104  28.964  1.00  0.00     0.049 A 
ATOM     14  N   UNL A   1      42.469  28.732  30.595  1.00  0.00    -0.248 NA
ATOM     15  C   UNL A   1      42.701  26.593  29.686  1.00  0.00     0.031 C 
ATOM     16  C   UNL A   1      38.824  29.383  28.110  1.00  0.00     0.029 A 
ATOM     17  N   UNL A   1      40.115  30.248  29.710  1.00  0.00    -0.354 N 
ATOM     18  C   UNL A   1      43.663  28.173  31.025  1.00  0.00     0.074 A 
ATOM     19  C   UNL A   1      43.740  26.840  30.472  1.00  0.00     0.031 C 
ATOM     20  C   UNL A   1      38.298  30.572  28.457  1.00  0.00     0.029 A 
ATOM     21  C   UNL A   1      39.061  31.125  29.562  1.00  0.00     0.049 A 
ATOM     22  H   UNL A   1      40.889  30.425  30.292  1.00  0.00     0.167 HD
ATOM     23  C   UNL A   1      44.630  28.744  31.778  1.00  0.00     0.031 A 
ATOM     24  C   UNL A   1      38.731  32.223  30.268  1.00  0.00     0.031 A 
ATOM     25  C   UNL A   1      44.530  30.063  32.335  1.00  0.00     0.049 A 
ATOM     26  C   UNL A   1      39.703  32.722  31.298  1.00  0.00     0.074 A 
ATOM     27  C   UNL A   1      45.474  30.764  33.064  1.00  0.00     0.029 A 
ATOM     28  N   UNL A   1      43.406  30.870  32.251  1.00  0.00    -0.354 N 
ATOM     29  N   UNL A   1      40.867  32.220  31.630  1.00  0.00    -0.248 NA
ATOM     30  C   UNL A   1      39.348  33.960  32.003  1.00  0.00     0.031 C 
ATOM     31  C   UNL A   1      44.894  31.966  33.480  1.00  0.00     0.029 A 
ATOM     32  C   UNL A   1      43.609  32.037  32.964  1.00  0.00     0.049 A 
ATOM     33  H   UNL A   1      42.585  30.646  31.756  1.00  0.00     0.167 HD
ATOM     34  C   UNL A   1      41.415  33.117  32.535  1.00  0.00     0.074 A 
ATOM     35  C   UNL A   1      40.444  34.179  32.716  1.00  0.00     0.031 C 
ATOM     36  C   UNL A   1      42.630  33.080  33.135  1.00  0.00     0.031 A 
BRANCH  23  37
ATOM     37  C   UNL A   1      45.873  27.944  32.036  1.00  0.00    -0.014 A 
ATOM     38  C   UNL A   1      45.965  27.101  33.159  1.00  0.00     0.010 A 
ATOM     39  C   UNL A   1      46.939  27.993  31.122  1.00  0.00     0.010 A 
ATOM     40  C   UNL A   1      47.111  26.333  33.371  1.00  0.00     0.020 A 
ATOM     41  C   UNL A   1      48.079  27.212  31.321  1.00  0.00     0.020 A 
ATOM     42  C   UNL A   1      48.160  26.390  32.448  1.00  0.00     0.054 A 
BRANCH  42  43
ATOM     43  S   UNL A   1      49.614  25.341  32.721  1.00  0.00     0.124 S 
ATOM     44  O   UNL A   1      49.938  24.915  31.362  1.00  0.00    -0.237 OA
ATOM     45  O   UNL A   1      50.565  26.267  33.331  1.00  0.00    -0.237 OA
ATOM     46  O   UNL A   1      49.122  24.287  33.604  1.00  0.00    -0.744 OA
ENDBRANCH  42  43
ENDBRANCH  23  37
BRANCH  24  47
ATOM     47  C   UNL A   1      37.415  32.895  30.087  1.00  0.00    -0.014 A 
ATOM     48  C   UNL A   1      36.285  32.527  30.835  1.00  0.00     0.010 A 
ATOM     49  C   UNL A   1      37.277  33.878  29.089  1.00  0.00     0.010 A 
ATOM     50  C   UNL A   1      35.039  33.112  30.569  1.00  0.00     0.020 A 
ATOM     51  C   UNL A   1      36.041  34.484  28.837  1.00  0.00     0.020 A 
ATOM     52  C   UNL A   1      34.923  34.084  29.568  1.00  0.00     0.054 A 
BRANCH  52  53
ATOM     53  S   UNL A   1      33.298  34.824  29.239  1.00  0.00     0.124 S 
ATOM     54  O   UNL A   1      32.709  34.869  30.574  1.00  0.00    -0.237 OA
ATOM     55  O   UNL A   1      33.649  36.120  28.662  1.00  0.00    -0.237 OA
ATOM     56  O   UNL A   1      32.671  33.886  28.310  1.00  0.00    -0.744 OA
ENDBRANCH  52  53
ENDBRANCH  24  47
BRANCH  36  57
ATOM     57  C   UNL A   1      42.998  34.244  34.007  1.00  0.00    -0.014 A 
ATOM     58  C   UNL A   1      42.746  34.223  35.389  1.00  0.00     0.010 A 
ATOM     59  C   UNL A   1      43.660  35.347  33.439  1.00  0.00     0.010 A 
ATOM     60  C   UNL A   1      43.137  35.299  36.187  1.00  0.00     0.020 A 
ATOM     61  C   UNL A   1      44.080  36.409  34.239  1.00  0.00     0.020 A 
ATOM     62  C   UNL A   1      43.807  36.382  35.608  1.00  0.00     0.054 A 
BRANCH  62  63
ATOM     63  S   UNL A   1      44.368  37.732  36.679  1.00  0.00     0.124 S 
ATOM     64  O   UNL A   1      44.322  38.877  35.776  1.00  0.00    -0.237 OA
ATOM     65  O   UNL A   1      43.369  37.730  37.746  1.00  0.00    -0.237 OA
ATOM     66  O   UNL A   1      45.708  37.314  37.089  1.00  0.00    -0.744 OA
ENDBRANCH  62  63
ENDBRANCH  36  57
ENDBRANCH  10  11
ENDBRANCH   3   5
ENDBRANCH   2   3
ENDBRANCH   1   2
BRANCH   1  67
ATOM     67  C   UNL A   1      36.600  22.707  23.436  1.00  0.00     0.275 C 
BRANCH  67  68
ATOM     68  O   UNL A   1      35.815  23.884  23.668  1.00  0.00    -0.458 OA
BRANCH  68  69
ATOM     69  C   UNL A   1      34.515  23.792  23.285  1.00  0.00     0.338 C 
ATOM     70  O   UNL A   1      34.084  23.283  22.267  1.00  0.00    -0.246 OA
BRANCH  69  71
ATOM     71  C   UNL A   1      33.650  24.320  24.360  1.00  0.00     0.067 A 
ATOM     72  C   UNL A   1      33.556  25.713  24.531  1.00  0.00     0.025 A 
ATOM     73  C   UNL A   1      33.011  23.451  25.243  1.00  0.00     0.101 A 
ATOM     74  C   UNL A   1      32.749  26.257  25.543  1.00  0.00    -0.009 A 
ATOM     75  C   UNL A   1      32.235  23.996  26.270  1.00  0.00     0.270 A 
ATOM     76  C   UNL A   1      32.030  25.376  26.364  1.00  0.00     0.094 A 
BRANCH  74  77
ATOM     77  C   UNL A   1      32.735  27.697  25.856  1.00  0.00     0.002 A 
ATOM     78  C   UNL A   1      33.710  28.264  26.694  1.00  0.00     0.030 A 
ATOM     79  C   UNL A   1      31.761  28.562  25.300  1.00  0.00     0.048 A 
ATOM     80  C   UNL A   1      33.723  29.640  26.945  1.00  0.00     0.041 A 
ATOM     81  C   UNL A   1      31.794  29.938  25.538  1.00  0.00     0.023 A 
ATOM     82  Cl  UNL A   1      30.449  27.980  24.325  1.00  0.00    -0.084 Cl
ATOM     83  Cl  UNL A   1      34.920  30.312  27.982  1.00  0.00    -0.084 Cl
ATOM     84  C   UNL A   1      32.778  30.479  26.361  1.00  0.00     0.022 A 
ENDBRANCH  74  77
BRANCH  75  85
ATOM     85  N   UNL A   1      31.749  23.141  27.353  1.00  0.00     0.062 N 
ATOM     86  O   UNL A   1      30.523  23.025  27.481  1.00  0.00    -0.258 OA
ATOM     87  O   UNL A   1      32.600  22.624  28.090  1.00  0.00    -0.258 OA
ENDBRANCH  75  85
ENDBRANCH  69  71
ENDBRANCH  68  69
ENDBRANCH  67  68
ENDBRANCH   1  67
TORSDOF 16
ENDMDL
MODEL 3
REMARK VINA RESULT:     -10.9      3.170      4.180
REMARK SMILES O=C(OCCOC(=O)c1cc(-c2cc(Cl)ccc2Cl)cc([N+](=O)[O-])c1)c1ccc(-c2c3nc(c(-c4ccc(S(=O)(=O)[O-])cc4)c4ccc([nH]4)c(-c4ccc(S(=O)(=O)[O-])cc4)c4nc(c(-c5ccc(S(=O)(=O)[O-])cc5)c5ccc2[nH]5)C=C4)C=C3)cc1
REMARK SMILES IDX 4 1 3 2 2 3 1 4 26 5 27 6 85 7 28 8 84 9 29 10 30 11 31 12
REMARK SMILES IDX 78 13 32 14 83 15 77 16 79 17 33 18 82 19 76 20 75 21 34 23
REMARK SMILES IDX 64 24 45 25 63 26 46 27 49 28 62 29 80 30 47 31 48 32 61 34
REMARK SMILES IDX 81 35 50 36 35 37 36 38 44 39 37 40 43 41 38 42 39 43 40 44
REMARK SMILES IDX 41 45 42 46 65 47 66 48 74 49 67 50 73 51 68 52 69 53 70 54
REMARK SMILES IDX 71 55 72 56 51 57 52 58 60 59 53 60 59 61 54 62 55 63 56 64
REMARK SMILES IDX 57 65 58 66 5 67 6 68 7 69 8 70 9 71 10 72 25 73 11 74 21 75
REMARK SMILES IDX 20 76 12 77 13 78 18 79 14 80 17 81 19 82 15 83 16 84 22 85
REMARK SMILES IDX 23 86 24 87
REMARK H PARENT 79 22 49 33
REMARK Flexibility Score: inf
ROOT
ATOM      1  C   UNL A   1      34.862  30.161  27.448  1.00  0.00     0.275 C 
ENDROOT
BRANCH   1   2
ATOM      2  O   UNL A   1      36.196  29.627  27.501  1.00  0.00    -0.458 OA
BRANCH   2   3
ATOM      3  C   UNL A   1      36.988  29.350  28.562  1.00  0.00     0.338 C 
ATOM      4  O   UNL A   1      36.488  29.382  29.687  1.00  0.00    -0.246 OA
BRANCH   3   5
ATOM      5  C   UNL A   1      38.470  29.145  28.471  1.00  0.00     0.060 A 
ATOM      6  C   UNL A   1      39.330  28.800  29.516  1.00  0.00     0.016 A 
ATOM      7  C   UNL A   1      39.037  29.321  27.195  1.00  0.00     0.016 A 
ATOM      8  C   UNL A   1      40.689  28.551  29.286  1.00  0.00     0.010 A 
ATOM      9  C   UNL A   1      40.390  29.064  26.955  1.00  0.00     0.010 A 
ATOM     10  C   UNL A   1      41.226  28.669  28.005  1.00  0.00    -0.014 A 
BRANCH  10  11
ATOM     11  C   UNL A   1      42.680  28.510  27.778  1.00  0.00     0.031 A 
ATOM     12  C   UNL A   1      43.556  29.725  27.862  1.00  0.00     0.074 A 
ATOM     13  C   UNL A   1      43.217  27.303  27.508  1.00  0.00     0.049 A 
ATOM     14  N   UNL A   1      44.840  29.823  27.652  1.00  0.00    -0.248 NA
ATOM     15  C   UNL A   1      42.912  30.985  28.278  1.00  0.00     0.031 C 
ATOM     16  C   UNL A   1      42.501  26.028  27.531  1.00  0.00     0.029 A 
ATOM     17  N   UNL A   1      44.488  26.956  27.122  1.00  0.00    -0.354 N 
ATOM     18  C   UNL A   1      45.169  31.135  27.960  1.00  0.00     0.074 A 
ATOM     19  C   UNL A   1      43.942  31.820  28.298  1.00  0.00     0.031 C 
ATOM     20  C   UNL A   1      43.315  25.059  27.073  1.00  0.00     0.029 A 
ATOM     21  C   UNL A   1      44.593  25.645  26.709  1.00  0.00     0.049 A 
ATOM     22  H   UNL A   1      45.248  27.581  27.140  1.00  0.00     0.167 HD
ATOM     23  C   UNL A   1      46.396  31.701  28.000  1.00  0.00     0.031 A 
ATOM     24  C   UNL A   1      45.594  25.006  26.072  1.00  0.00     0.031 A 
ATOM     25  C   UNL A   1      47.603  31.012  27.643  1.00  0.00     0.049 A 
ATOM     26  C   UNL A   1      46.894  25.733  25.887  1.00  0.00     0.074 A 
ATOM     27  C   UNL A   1      48.906  31.470  27.702  1.00  0.00     0.029 A 
ATOM     28  N   UNL A   1      47.652  29.724  27.129  1.00  0.00    -0.354 N 
ATOM     29  N   UNL A   1      47.207  26.949  26.260  1.00  0.00    -0.248 NA
ATOM     30  C   UNL A   1      47.988  24.987  25.251  1.00  0.00     0.031 C 
ATOM     31  C   UNL A   1      49.736  30.485  27.158  1.00  0.00     0.029 A 
ATOM     32  C   UNL A   1      48.955  29.393  26.812  1.00  0.00     0.049 A 
ATOM     33  H   UNL A   1      46.873  29.134  27.009  1.00  0.00     0.167 HD
ATOM     34  C   UNL A   1      48.555  27.093  25.966  1.00  0.00     0.074 A 
ATOM     35  C   UNL A   1      48.990  25.849  25.361  1.00  0.00     0.031 C 
ATOM     36  C   UNL A   1      49.368  28.151  26.208  1.00  0.00     0.031 A 
BRANCH  23  37
ATOM     37  C   UNL A   1      46.486  33.131  28.446  1.00  0.00    -0.014 A 
ATOM     38  C   UNL A   1      46.691  33.450  29.801  1.00  0.00     0.010 A 
ATOM     39  C   UNL A   1      46.419  34.165  27.496  1.00  0.00     0.010 A 
ATOM     40  C   UNL A   1      46.810  34.782  30.201  1.00  0.00     0.020 A 
ATOM     41  C   UNL A   1      46.557  35.497  27.891  1.00  0.00     0.020 A 
ATOM     42  C   UNL A   1      46.746  35.798  29.242  1.00  0.00     0.054 A 
BRANCH  42  43
ATOM     43  S   UNL A   1      46.957  37.516  29.783  1.00  0.00     0.124 S 
ATOM     44  O   UNL A   1      48.393  37.715  29.601  1.00  0.00    -0.237 OA
ATOM     45  O   UNL A   1      46.100  38.250  28.856  1.00  0.00    -0.237 OA
ATOM     46  O   UNL A   1      46.502  37.502  31.171  1.00  0.00    -0.744 OA
ENDBRANCH  42  43
ENDBRANCH  23  37
BRANCH  24  47
ATOM     47  C   UNL A   1      45.406  23.641  25.507  1.00  0.00    -0.014 A 
ATOM     48  C   UNL A   1      44.821  23.434  24.247  1.00  0.00     0.010 A 
ATOM     49  C   UNL A   1      45.757  22.522  26.284  1.00  0.00     0.010 A 
ATOM     50  C   UNL A   1      44.570  22.134  23.789  1.00  0.00     0.020 A 
ATOM     51  C   UNL A   1      45.533  21.221  25.820  1.00  0.00     0.020 A 
ATOM     52  C   UNL A   1      44.923  21.034  24.580  1.00  0.00     0.054 A 
BRANCH  52  53
ATOM     53  S   UNL A   1      44.583  19.359  23.967  1.00  0.00     0.124 S 
ATOM     54  O   UNL A   1      43.389  18.996  24.725  1.00  0.00    -0.237 OA
ATOM     55  O   UNL A   1      44.378  19.578  22.537  1.00  0.00    -0.237 OA
ATOM     56  O   UNL A   1      45.792  18.612  24.310  1.00  0.00    -0.744 OA
ENDBRANCH  52  53
ENDBRANCH  24  47
BRANCH  36  57
ATOM     57  C   UNL A   1      50.818  27.993  25.862  1.00  0.00    -0.014 A 
ATOM     58  C   UNL A   1      51.715  27.379  26.752  1.00  0.00     0.010 A 
ATOM     59  C   UNL A   1      51.273  28.412  24.598  1.00  0.00     0.010 A 
ATOM     60  C   UNL A   1      53.051  27.203  26.389  1.00  0.00     0.020 A 
ATOM     61  C   UNL A   1      52.600  28.210  24.221  1.00  0.00     0.020 A 
ATOM     62  C   UNL A   1      53.483  27.614  25.123  1.00  0.00     0.054 A 
BRANCH  62  63
ATOM     63  S   UNL A   1      55.206  27.308  24.651  1.00  0.00     0.124 S 
ATOM     64  O   UNL A   1      55.939  28.021  25.691  1.00  0.00    -0.237 OA
ATOM     65  O   UNL A   1      55.297  25.850  24.702  1.00  0.00    -0.237 OA
ATOM     66  O   UNL A   1      55.304  27.885  23.311  1.00  0.00    -0.744 OA
ENDBRANCH  62  63
ENDBRANCH  36  57
ENDBRANCH  10  11
ENDBRANCH   3   5
ENDBRANCH   2   3
ENDBRANCH   1   2
BRANCH   1  67
ATOM     67  C   UNL A   1      33.901  29.417  26.516  1.00  0.00     0.275 C 
BRANCH  67  68
ATOM     68  O   UNL A   1      33.338  28.228  27.088  1.00  0.00    -0.458 OA
BRANCH  68  69
ATOM     69  C   UNL A   1      32.305  27.690  26.389  1.00  0.00     0.338 C 
ATOM     70  O   UNL A   1      31.419  28.290  25.809  1.00  0.00    -0.246 OA
BRANCH  69  71
ATOM     71  C   UNL A   1      32.462  26.221  26.338  1.00  0.00     0.067 A 
ATOM     72  C   UNL A   1      33.672  25.685  25.860  1.00  0.00     0.025 A 
ATOM     73  C   UNL A   1      31.397  25.386  26.671  1.00  0.00     0.101 A 
ATOM     74  C   UNL A   1      33.861  24.297  25.791  1.00  0.00    -0.009 A 
ATOM     75  C   UNL A   1      31.578  24.004  26.569  1.00  0.00     0.270 A 
ATOM     76  C   UNL A   1      32.820  23.463  26.224  1.00  0.00     0.094 A 
BRANCH  74  77
ATOM     77  C   UNL A   1      35.047  23.690  25.162  1.00  0.00     0.002 A 
ATOM     78  C   UNL A   1      36.193  23.389  25.920  1.00  0.00     0.030 A 
ATOM     79  C   UNL A   1      35.065  23.359  23.785  1.00  0.00     0.048 A 
ATOM     80  C   UNL A   1      37.295  22.764  25.330  1.00  0.00     0.041 A 
ATOM     81  C   UNL A   1      36.162  22.716  23.208  1.00  0.00     0.023 A 
ATOM     82  Cl  UNL A   1      33.757  23.759  22.718  1.00  0.00    -0.084 Cl
ATOM     83  Cl  UNL A   1      38.690  22.414  26.273  1.00  0.00    -0.084 Cl
ATOM     84  C   UNL A   1      37.279  22.416  23.982  1.00  0.00     0.022 A 
ENDBRANCH  74  77
BRANCH  75  85
ATOM     85  N   UNL A   1      30.427  23.105  26.675  1.00  0.00     0.062 N 
ATOM     86  O   UNL A   1      29.580  23.364  27.538  1.00  0.00    -0.258 OA
ATOM     87  O   UNL A   1      30.405  22.126  25.916  1.00  0.00    -0.258 OA
ENDBRANCH  75  85
ENDBRANCH  69  71
ENDBRANCH  68  69
ENDBRANCH  67  68
ENDBRANCH   1  67
TORSDOF 16
ENDMDL
