MODEL 1
REMARK VINA RESULT:     -13.1      0.000      0.000
REMARK SMILES Cc1coc2cc3c(cc12)[C@@H](C)[C@H](CCC(=O)N[C@@H](Cc1c[nH]c2ccccc12)C(=O)OCCOC(=O)c1ccc(-c2c4nc(c(-c5ccc(S(=O)(=O)[O-])cc5)c5ccc([nH]5)c(-c5ccc(S(=O)(=O)[O-])cc5)c5nc(c(-c6ccc(S(=O)(=O)[O-])cc6)c6ccc2[nH]6)C=C5)C=C4)cc1)C(=O)O3
REMARK SMILES IDX 33 1 32 2 30 3 31 4 19 5 18 6 16 7 17 8 15 10 14 11 13 12
REMARK SMILES IDX 1 13 2 14 3 15 10 16 4 17 5 18 9 19 6 20 8 21 7 22 11 23
REMARK SMILES IDX 100 24 12 25 98 26 99 27 20 28 21 29 22 30 29 31 23 32 24 33
REMARK SMILES IDX 28 34 25 36 27 37 26 38 34 39 35 40 36 41 37 42 38 43 39 44
REMARK SMILES IDX 97 45 40 46 96 47 41 48 42 49 43 50 90 51 44 52 95 53 89 54
REMARK SMILES IDX 91 55 45 56 94 57 88 58 87 59 46 61 76 62 57 63 75 64 58 65
REMARK SMILES IDX 61 66 74 67 92 68 59 69 60 70 73 72 93 73 62 74 47 75 48 76
REMARK SMILES IDX 56 77 49 78 55 79 50 80 51 81 52 82 53 83 54 84 77 85 78 86
REMARK SMILES IDX 86 87 79 88 85 89 80 90 81 91 82 92 83 93 84 94 63 95 64 96
REMARK SMILES IDX 72 97 65 98 71 99 66 100 67 101 68 102 69 103 70 104
REMARK H PARENT 18 9 23 35 91 60 61 71
REMARK Flexibility Score: inf
ROOT
ATOM      1  C   UNL A   1      33.688  29.819  26.941  1.00  0.00     0.274 C 
ENDROOT
BRANCH   1   2
ATOM      2  O   UNL A   1      32.604  29.376  26.103  1.00  0.00    -0.461 OA
BRANCH   2   3
ATOM      3  C   UNL A   1      32.769  28.137  25.568  1.00  0.00     0.329 C 
ATOM      4  O   UNL A   1      33.518  27.278  26.021  1.00  0.00    -0.250 OA
BRANCH   3   5
ATOM      5  C   UNL A   1      31.992  27.961  24.262  1.00  0.00     0.196 C 
BRANCH   5   6
ATOM      6  N   UNL A   1      32.766  27.357  23.144  1.00  0.00    -0.342 N 
ATOM      7  C   UNL A   1      33.531  26.264  22.873  1.00  0.00     0.220 C 
ATOM      8  O   UNL A   1      33.908  26.194  21.691  1.00  0.00    -0.275 OA
ATOM      9  H   UNL A   1      32.707  27.931  22.346  1.00  0.00     0.164 HD
BRANCH   7  10
ATOM     10  C   UNL A   1      33.989  25.097  23.803  1.00  0.00     0.101 C 
BRANCH  10  11
ATOM     11  C   UNL A   1      34.267  23.641  23.364  1.00  0.00     0.026 C 
BRANCH  11  12
ATOM     12  C   UNL A   1      34.821  22.785  24.475  1.00  0.00     0.107 C 
ATOM     13  C   UNL A   1      40.849  19.624  26.424  1.00  0.00     0.048 C 
ATOM     14  C   UNL A   1      40.302  20.959  26.745  1.00  0.00    -0.005 A 
ATOM     15  C   UNL A   1      40.745  21.836  27.713  1.00  0.00     0.199 A 
ATOM     16  C   UNL A   1      39.220  21.614  26.091  1.00  0.00     0.024 A 
ATOM     17  O   UNL A   1      40.069  23.008  27.657  1.00  0.00    -0.464 OA
ATOM     18  C   UNL A   1      39.171  22.887  26.647  1.00  0.00     0.137 A 
ATOM     19  C   UNL A   1      38.276  21.254  25.107  1.00  0.00     0.020 A 
ATOM     20  C   UNL A   1      38.318  23.886  26.230  1.00  0.00     0.095 A 
ATOM     21  C   UNL A   1      37.283  22.180  24.762  1.00  0.00    -0.001 A 
ATOM     22  C   UNL A   1      37.393  23.495  25.267  1.00  0.00     0.138 A 
ATOM     23  C   UNL A   1      35.934  21.751  24.167  1.00  0.00     0.034 C 
ATOM     24  O   UNL A   1      36.409  24.419  24.994  1.00  0.00    -0.426 OA
ATOM     25  C   UNL A   1      35.481  20.476  24.882  1.00  0.00     0.014 C 
ATOM     26  C   UNL A   1      35.407  23.675  25.522  1.00  0.00     0.314 C 
ATOM     27  O   UNL A   1      35.169  23.594  26.704  1.00  0.00    -0.251 OA
ENDBRANCH  11  12
ENDBRANCH  10  11
ENDBRANCH   7  10
ENDBRANCH   5   6
BRANCH   5  28
ATOM     28  C   UNL A   1      30.670  27.304  24.702  1.00  0.00     0.074 C 
BRANCH  28  29
ATOM     29  C   UNL A   1      30.479  25.832  24.476  1.00  0.00    -0.020 A 
ATOM     30  C   UNL A   1      29.995  25.297  23.294  1.00  0.00     0.087 A 
ATOM     31  C   UNL A   1      30.877  24.720  25.293  1.00  0.00     0.003 A 
ATOM     32  N   UNL A   1      30.160  23.942  23.331  1.00  0.00    -0.361 N 
ATOM     33  C   UNL A   1      30.742  23.566  24.516  1.00  0.00     0.046 A 
ATOM     34  C   UNL A   1      31.406  24.559  26.589  1.00  0.00     0.010 A 
ATOM     35  H   UNL A   1      29.897  23.324  22.611  1.00  0.00     0.166 HD
ATOM     36  C   UNL A   1      31.176  22.306  24.948  1.00  0.00     0.026 A 
ATOM     37  C   UNL A   1      31.889  23.324  27.022  1.00  0.00     0.001 A 
ATOM     38  C   UNL A   1      31.783  22.213  26.204  1.00  0.00     0.002 A 
ENDBRANCH  28  29
ENDBRANCH   5  28
ENDBRANCH   3   5
ENDBRANCH   2   3
ENDBRANCH   1   2
BRANCH   1  39
ATOM     39  C   UNL A   1      33.348  31.211  27.473  1.00  0.00     0.275 C 
BRANCH  39  40
ATOM     40  O   UNL A   1      34.313  31.571  28.489  1.00  0.00    -0.458 OA
BRANCH  40  41
ATOM     41  C   UNL A   1      35.431  32.206  28.060  1.00  0.00     0.338 C 
ATOM     42  O   UNL A   1      35.504  33.371  27.701  1.00  0.00    -0.246 OA
BRANCH  41  43
ATOM     43  C   UNL A   1      36.611  31.403  28.483  1.00  0.00     0.060 A 
ATOM     44  C   UNL A   1      37.664  31.831  29.287  1.00  0.00     0.016 A 
ATOM     45  C   UNL A   1      36.740  30.188  27.834  1.00  0.00     0.016 A 
ATOM     46  C   UNL A   1      38.900  31.135  29.269  1.00  0.00     0.010 A 
ATOM     47  C   UNL A   1      37.963  29.519  27.807  1.00  0.00     0.010 A 
ATOM     48  C   UNL A   1      39.105  30.040  28.416  1.00  0.00    -0.014 A 
BRANCH  48  49
ATOM     49  C   UNL A   1      40.322  29.177  28.404  1.00  0.00     0.031 A 
ATOM     50  C   UNL A   1      40.585  28.725  29.788  1.00  0.00     0.074 A 
ATOM     51  C   UNL A   1      41.118  28.670  27.418  1.00  0.00     0.049 A 
ATOM     52  N   UNL A   1      41.214  29.448  30.652  1.00  0.00    -0.248 NA
ATOM     53  C   UNL A   1      39.893  27.563  30.367  1.00  0.00     0.031 C 
ATOM     54  C   UNL A   1      41.018  28.832  25.960  1.00  0.00     0.029 A 
ATOM     55  N   UNL A   1      42.190  27.792  27.526  1.00  0.00    -0.354 N 
ATOM     56  C   UNL A   1      41.267  28.674  31.791  1.00  0.00     0.074 A 
ATOM     57  C   UNL A   1      40.195  27.722  31.660  1.00  0.00     0.031 C 
ATOM     58  C   UNL A   1      41.857  27.961  25.329  1.00  0.00     0.029 A 
ATOM     59  C   UNL A   1      42.652  27.230  26.320  1.00  0.00     0.049 A 
ATOM     60  H   UNL A   1      42.601  27.575  28.394  1.00  0.00     0.167 HD
ATOM     61  C   UNL A   1      42.407  28.639  32.532  1.00  0.00     0.031 A 
ATOM     62  C   UNL A   1      43.797  26.511  26.072  1.00  0.00     0.031 A 
ATOM     63  C   UNL A   1      43.372  29.587  32.016  1.00  0.00     0.049 A 
ATOM     64  C   UNL A   1      44.768  26.946  27.092  1.00  0.00     0.074 A 
ATOM     65  C   UNL A   1      43.475  30.960  31.933  1.00  0.00     0.029 A 
ATOM     66  N   UNL A   1      44.207  29.056  31.060  1.00  0.00    -0.354 N 
ATOM     67  N   UNL A   1      45.287  28.138  27.095  1.00  0.00    -0.248 NA
ATOM     68  C   UNL A   1      44.933  26.175  28.317  1.00  0.00     0.031 C 
ATOM     69  C   UNL A   1      44.230  31.228  30.755  1.00  0.00     0.029 A 
ATOM     70  C   UNL A   1      44.637  30.021  30.189  1.00  0.00     0.049 A 
ATOM     71  H   UNL A   1      44.462  28.107  31.010  1.00  0.00     0.167 HD
ATOM     72  C   UNL A   1      45.392  28.435  28.435  1.00  0.00     0.074 A 
ATOM     73  C   UNL A   1      45.353  27.151  29.124  1.00  0.00     0.031 C 
ATOM     74  C   UNL A   1      45.159  29.701  28.874  1.00  0.00     0.031 A 
BRANCH  61  75
ATOM     75  C   UNL A   1      42.851  27.469  33.372  1.00  0.00    -0.014 A 
ATOM     76  C   UNL A   1      43.805  26.516  32.967  1.00  0.00     0.010 A 
ATOM     77  C   UNL A   1      42.445  27.427  34.722  1.00  0.00     0.010 A 
ATOM     78  C   UNL A   1      44.310  25.554  33.841  1.00  0.00     0.020 A 
ATOM     79  C   UNL A   1      42.972  26.488  35.620  1.00  0.00     0.020 A 
ATOM     80  C   UNL A   1      43.890  25.547  35.164  1.00  0.00     0.054 A 
BRANCH  80  81
ATOM     81  S   UNL A   1      44.597  24.304  36.266  1.00  0.00     0.124 S 
ATOM     82  O   UNL A   1      46.025  24.448  35.998  1.00  0.00    -0.237 OA
ATOM     83  O   UNL A   1      44.152  24.765  37.578  1.00  0.00    -0.237 OA
ATOM     84  O   UNL A   1      43.996  23.055  35.804  1.00  0.00    -0.744 OA
ENDBRANCH  80  81
ENDBRANCH  61  75
BRANCH  62  85
ATOM     85  C   UNL A   1      44.011  25.138  25.485  1.00  0.00    -0.014 A 
ATOM     86  C   UNL A   1      43.074  24.120  25.706  1.00  0.00     0.010 A 
ATOM     87  C   UNL A   1      45.283  24.725  25.015  1.00  0.00     0.010 A 
ATOM     88  C   UNL A   1      43.376  22.762  25.495  1.00  0.00     0.020 A 
ATOM     89  C   UNL A   1      45.595  23.361  24.788  1.00  0.00     0.020 A 
ATOM     90  C   UNL A   1      44.635  22.383  25.038  1.00  0.00     0.054 A 
BRANCH  90  91
ATOM     91  S   UNL A   1      44.984  20.605  24.843  1.00  0.00     0.124 S 
ATOM     92  O   UNL A   1      44.766  20.400  23.414  1.00  0.00    -0.237 OA
ATOM     93  O   UNL A   1      46.375  20.516  25.280  1.00  0.00    -0.237 OA
ATOM     94  O   UNL A   1      44.016  19.957  25.722  1.00  0.00    -0.744 OA
ENDBRANCH  90  91
ENDBRANCH  62  85
BRANCH  74  95
ATOM     95  C   UNL A   1      45.286  30.832  27.884  1.00  0.00    -0.014 A 
ATOM     96  C   UNL A   1      46.557  31.416  27.765  1.00  0.00     0.010 A 
ATOM     97  C   UNL A   1      44.205  31.422  27.199  1.00  0.00     0.010 A 
ATOM     98  C   UNL A   1      46.738  32.599  27.053  1.00  0.00     0.020 A 
ATOM     99  C   UNL A   1      44.386  32.599  26.455  1.00  0.00     0.020 A 
ATOM    100  C   UNL A   1      45.647  33.198  26.420  1.00  0.00     0.054 A 
BRANCH 100 101
ATOM    101  S   UNL A   1      45.918  34.790  25.598  1.00  0.00     0.124 S 
ATOM    102  O   UNL A   1      45.024  35.675  26.342  1.00  0.00    -0.237 OA
ATOM    103  O   UNL A   1      47.345  35.024  25.812  1.00  0.00    -0.237 OA
ATOM    104  O   UNL A   1      45.533  34.543  24.210  1.00  0.00    -0.744 OA
ENDBRANCH 100 101
ENDBRANCH  74  95
ENDBRANCH  48  49
ENDBRANCH  41  43
ENDBRANCH  40  41
ENDBRANCH  39  40
ENDBRANCH   1  39
TORSDOF 20
ENDMDL
MODEL 2
REMARK VINA RESULT:     -12.8      2.807     10.123
REMARK SMILES Cc1coc2cc3c(cc12)[C@@H](C)[C@H](CCC(=O)N[C@@H](Cc1c[nH]c2ccccc12)C(=O)OCCOC(=O)c1ccc(-c2c4nc(c(-c5ccc(S(=O)(=O)[O-])cc5)c5ccc([nH]5)c(-c5ccc(S(=O)(=O)[O-])cc5)c5nc(c(-c6ccc(S(=O)(=O)[O-])cc6)c6ccc2[nH]6)C=C5)C=C4)cc1)C(=O)O3
REMARK SMILES IDX 33 1 32 2 30 3 31 4 19 5 18 6 16 7 17 8 15 10 14 11 13 12
REMARK SMILES IDX 1 13 2 14 3 15 10 16 4 17 5 18 9 19 6 20 8 21 7 22 11 23
REMARK SMILES IDX 100 24 12 25 98 26 99 27 20 28 21 29 22 30 29 31 23 32 24 33
REMARK SMILES IDX 28 34 25 36 27 37 26 38 34 39 35 40 36 41 37 42 38 43 39 44
REMARK SMILES IDX 97 45 40 46 96 47 41 48 42 49 43 50 90 51 44 52 95 53 89 54
REMARK SMILES IDX 91 55 45 56 94 57 88 58 87 59 46 61 76 62 57 63 75 64 58 65
REMARK SMILES IDX 61 66 74 67 92 68 59 69 60 70 73 72 93 73 62 74 47 75 48 76
REMARK SMILES IDX 56 77 49 78 55 79 50 80 51 81 52 82 53 83 54 84 77 85 78 86
REMARK SMILES IDX 86 87 79 88 85 89 80 90 81 91 82 92 83 93 84 94 63 95 64 96
REMARK SMILES IDX 72 97 65 98 71 99 66 100 67 101 68 102 69 103 70 104
REMARK H PARENT 18 9 23 35 91 60 61 71
REMARK Flexibility Score: inf
ROOT
ATOM      1  C   UNL A   1      39.488  21.878  26.631  1.00  0.00     0.274 C 
ENDROOT
BRANCH   1   2
ATOM      2  O   UNL A   1      38.462  21.769  25.627  1.00  0.00    -0.461 OA
BRANCH   2   3
ATOM      3  C   UNL A   1      37.542  22.771  25.644  1.00  0.00     0.329 C 
ATOM      4  O   UNL A   1      37.811  23.964  25.564  1.00  0.00    -0.250 OA
BRANCH   3   5
ATOM      5  C   UNL A   1      36.124  22.250  25.885  1.00  0.00     0.196 C 
BRANCH   5   6
ATOM      6  N   UNL A   1      35.122  23.290  26.244  1.00  0.00    -0.342 N 
ATOM      7  C   UNL A   1      34.407  24.296  25.668  1.00  0.00     0.220 C 
ATOM      8  O   UNL A   1      33.608  24.851  26.441  1.00  0.00    -0.275 OA
ATOM      9  H   UNL A   1      34.909  23.233  27.203  1.00  0.00     0.164 HD
BRANCH   7  10
ATOM     10  C   UNL A   1      34.430  24.841  24.205  1.00  0.00     0.101 C 
BRANCH  10  11
ATOM     11  C   UNL A   1      33.209  25.356  23.410  1.00  0.00     0.026 C 
BRANCH  11  12
ATOM     12  C   UNL A   1      32.668  26.661  23.937  1.00  0.00     0.107 C 
ATOM     13  C   UNL A   1      28.868  32.240  21.805  1.00  0.00     0.048 C 
ATOM     14  C   UNL A   1      28.460  30.975  22.452  1.00  0.00    -0.005 A 
ATOM     15  C   UNL A   1      27.237  30.678  23.015  1.00  0.00     0.199 A 
ATOM     16  C   UNL A   1      29.251  29.801  22.593  1.00  0.00     0.024 A 
ATOM     17  O   UNL A   1      27.189  29.388  23.426  1.00  0.00    -0.464 OA
ATOM     18  C   UNL A   1      28.398  28.846  23.133  1.00  0.00     0.137 A 
ATOM     19  C   UNL A   1      30.596  29.459  22.338  1.00  0.00     0.020 A 
ATOM     20  C   UNL A   1      28.741  27.528  23.349  1.00  0.00     0.095 A 
ATOM     21  C   UNL A   1      31.039  28.177  22.689  1.00  0.00    -0.001 A 
ATOM     22  C   UNL A   1      30.076  27.227  23.097  1.00  0.00     0.138 A 
ATOM     23  C   UNL A   1      32.516  27.872  22.982  1.00  0.00     0.034 C 
ATOM     24  O   UNL A   1      30.478  25.974  23.502  1.00  0.00    -0.426 OA
ATOM     25  C   UNL A   1      33.100  29.052  23.763  1.00  0.00     0.014 C 
ATOM     26  C   UNL A   1      31.296  26.429  24.481  1.00  0.00     0.314 C 
ATOM     27  O   UNL A   1      30.920  26.790  25.571  1.00  0.00    -0.251 OA
ENDBRANCH  11  12
ENDBRANCH  10  11
ENDBRANCH   7  10
ENDBRANCH   5   6
BRANCH   5  28
ATOM     28  C   UNL A   1      35.855  21.333  24.676  1.00  0.00     0.074 C 
BRANCH  28  29
ATOM     29  C   UNL A   1      34.567  20.563  24.619  1.00  0.00    -0.020 A 
ATOM     30  C   UNL A   1      33.326  21.161  24.476  1.00  0.00     0.087 A 
ATOM     31  C   UNL A   1      34.348  19.147  24.532  1.00  0.00     0.003 A 
ATOM     32  N   UNL A   1      32.401  20.187  24.230  1.00  0.00    -0.361 N 
ATOM     33  C   UNL A   1      33.004  18.954  24.208  1.00  0.00     0.046 A 
ATOM     34  C   UNL A   1      35.155  17.994  24.627  1.00  0.00     0.010 A 
ATOM     35  H   UNL A   1      31.440  20.347  24.089  1.00  0.00     0.166 HD
ATOM     36  C   UNL A   1      32.469  17.694  23.905  1.00  0.00     0.026 A 
ATOM     37  C   UNL A   1      34.657  16.737  24.283  1.00  0.00     0.001 A 
ATOM     38  C   UNL A   1      33.330  16.593  23.917  1.00  0.00     0.002 A 
ENDBRANCH  28  29
ENDBRANCH   5  28
ENDBRANCH   3   5
ENDBRANCH   2   3
ENDBRANCH   1   2
BRANCH   1  39
ATOM     39  C   UNL A   1      40.847  21.716  25.951  1.00  0.00     0.275 C 
BRANCH  39  40
ATOM     40  O   UNL A   1      41.886  22.072  26.893  1.00  0.00    -0.458 OA
BRANCH  40  41
ATOM     41  C   UNL A   1      42.933  22.776  26.398  1.00  0.00     0.338 C 
ATOM     42  O   UNL A   1      43.607  22.475  25.425  1.00  0.00    -0.246 OA
BRANCH  41  43
ATOM     43  C   UNL A   1      42.871  24.154  26.957  1.00  0.00     0.060 A 
ATOM     44  C   UNL A   1      43.414  24.587  28.165  1.00  0.00     0.016 A 
ATOM     45  C   UNL A   1      42.017  25.009  26.284  1.00  0.00     0.016 A 
ATOM     46  C   UNL A   1      42.938  25.779  28.770  1.00  0.00     0.010 A 
ATOM     47  C   UNL A   1      41.541  26.169  26.894  1.00  0.00     0.010 A 
ATOM     48  C   UNL A   1      41.890  26.516  28.199  1.00  0.00    -0.014 A 
BRANCH  48  49
ATOM     49  C   UNL A   1      41.397  27.833  28.695  1.00  0.00     0.031 A 
ATOM     50  C   UNL A   1      42.340  28.882  28.246  1.00  0.00     0.074 A 
ATOM     51  C   UNL A   1      40.266  28.244  29.342  1.00  0.00     0.049 A 
ATOM     52  N   UNL A   1      43.433  29.154  28.873  1.00  0.00    -0.248 NA
ATOM     53  C   UNL A   1      42.255  29.473  26.901  1.00  0.00     0.031 C 
ATOM     54  C   UNL A   1      39.107  27.458  29.786  1.00  0.00     0.029 A 
ATOM     55  N   UNL A   1      39.873  29.533  29.680  1.00  0.00    -0.354 N 
ATOM     56  C   UNL A   1      44.006  30.183  28.157  1.00  0.00     0.074 A 
ATOM     57  C   UNL A   1      43.433  30.100  26.838  1.00  0.00     0.031 C 
ATOM     58  C   UNL A   1      38.091  28.286  30.164  1.00  0.00     0.029 A 
ATOM     59  C   UNL A   1      38.537  29.681  30.100  1.00  0.00     0.049 A 
ATOM     60  H   UNL A   1      40.491  30.297  29.627  1.00  0.00     0.167 HD
ATOM     61  C   UNL A   1      44.588  31.222  28.815  1.00  0.00     0.031 A 
ATOM     62  C   UNL A   1      37.919  30.759  30.688  1.00  0.00     0.031 A 
ATOM     63  C   UNL A   1      44.607  30.968  30.240  1.00  0.00     0.049 A 
ATOM     64  C   UNL A   1      38.987  31.499  31.383  1.00  0.00     0.074 A 
ATOM     65  C   UNL A   1      45.242  30.084  31.086  1.00  0.00     0.029 A 
ATOM     66  N   UNL A   1      43.489  31.430  30.896  1.00  0.00    -0.354 N 
ATOM     67  N   UNL A   1      39.590  31.028  32.433  1.00  0.00    -0.248 NA
ATOM     68  C   UNL A   1      39.632  32.631  30.731  1.00  0.00     0.031 C 
ATOM     69  C   UNL A   1      44.350  29.872  32.177  1.00  0.00     0.029 A 
ATOM     70  C   UNL A   1      43.230  30.685  32.015  1.00  0.00     0.049 A 
ATOM     71  H   UNL A   1      42.948  32.197  30.600  1.00  0.00     0.167 HD
ATOM     72  C   UNL A   1      40.887  31.462  32.276  1.00  0.00     0.074 A 
ATOM     73  C   UNL A   1      40.814  32.583  31.348  1.00  0.00     0.031 C 
ATOM     74  C   UNL A   1      41.924  30.663  32.646  1.00  0.00     0.031 A 
BRANCH  61  75
ATOM     75  C   UNL A   1      44.687  32.628  28.282  1.00  0.00    -0.014 A 
ATOM     76  C   UNL A   1      43.715  33.626  28.484  1.00  0.00     0.010 A 
ATOM     77  C   UNL A   1      45.914  33.041  27.720  1.00  0.00     0.010 A 
ATOM     78  C   UNL A   1      43.930  34.955  28.123  1.00  0.00     0.020 A 
ATOM     79  C   UNL A   1      46.156  34.380  27.386  1.00  0.00     0.020 A 
ATOM     80  C   UNL A   1      45.151  35.324  27.576  1.00  0.00     0.054 A 
BRANCH  80  81
ATOM     81  S   UNL A   1      45.395  37.063  27.154  1.00  0.00     0.124 S 
ATOM     82  O   UNL A   1      46.388  36.972  26.086  1.00  0.00    -0.237 OA
ATOM     83  O   UNL A   1      44.057  37.471  26.737  1.00  0.00    -0.237 OA
ATOM     84  O   UNL A   1      45.871  37.655  28.402  1.00  0.00    -0.744 OA
ENDBRANCH  80  81
ENDBRANCH  61  75
BRANCH  62  85
ATOM     85  C   UNL A   1      36.701  31.555  30.291  1.00  0.00    -0.014 A 
ATOM     86  C   UNL A   1      36.551  32.010  28.973  1.00  0.00     0.010 A 
ATOM     87  C   UNL A   1      35.868  32.167  31.261  1.00  0.00     0.010 A 
ATOM     88  C   UNL A   1      35.644  33.029  28.629  1.00  0.00     0.020 A 
ATOM     89  C   UNL A   1      34.943  33.187  30.924  1.00  0.00     0.020 A 
ATOM     90  C   UNL A   1      34.842  33.617  29.604  1.00  0.00     0.054 A 
BRANCH  90  91
ATOM     91  S   UNL A   1      33.732  34.973  29.105  1.00  0.00     0.124 S 
ATOM     92  O   UNL A   1      34.577  35.755  28.207  1.00  0.00    -0.237 OA
ATOM     93  O   UNL A   1      32.638  34.251  28.458  1.00  0.00    -0.237 OA
ATOM     94  O   UNL A   1      33.384  35.626  30.363  1.00  0.00    -0.744 OA
ENDBRANCH  90  91
ENDBRANCH  62  85
BRANCH  74  95
ATOM     95  C   UNL A   1      41.658  29.571  33.651  1.00  0.00    -0.014 A 
ATOM     96  C   UNL A   1      41.828  29.913  35.003  1.00  0.00     0.010 A 
ATOM     97  C   UNL A   1      41.401  28.225  33.322  1.00  0.00     0.010 A 
ATOM     98  C   UNL A   1      41.825  28.935  35.994  1.00  0.00     0.020 A 
ATOM     99  C   UNL A   1      41.368  27.238  34.321  1.00  0.00     0.020 A 
ATOM    100  C   UNL A   1      41.618  27.599  35.647  1.00  0.00     0.054 A 
BRANCH 100 101
ATOM    101  S   UNL A   1      41.730  26.359  36.962  1.00  0.00     0.124 S 
ATOM    102  O   UNL A   1      40.476  26.562  37.684  1.00  0.00    -0.237 OA
ATOM    103  O   UNL A   1      41.822  25.106  36.216  1.00  0.00    -0.237 OA
ATOM    104  O   UNL A   1      42.937  26.730  37.699  1.00  0.00    -0.744 OA
ENDBRANCH 100 101
ENDBRANCH  74  95
ENDBRANCH  48  49
ENDBRANCH  41  43
ENDBRANCH  40  41
ENDBRANCH  39  40
ENDBRANCH   1  39
TORSDOF 20
ENDMDL
MODEL 3
REMARK VINA RESULT:     -12.5      2.373      3.924
REMARK SMILES Cc1coc2cc3c(cc12)[C@@H](C)[C@H](CCC(=O)N[C@@H](Cc1c[nH]c2ccccc12)C(=O)OCCOC(=O)c1ccc(-c2c4nc(c(-c5ccc(S(=O)(=O)[O-])cc5)c5ccc([nH]5)c(-c5ccc(S(=O)(=O)[O-])cc5)c5nc(c(-c6ccc(S(=O)(=O)[O-])cc6)c6ccc2[nH]6)C=C5)C=C4)cc1)C(=O)O3
REMARK SMILES IDX 33 1 32 2 30 3 31 4 19 5 18 6 16 7 17 8 15 10 14 11 13 12
REMARK SMILES IDX 1 13 2 14 3 15 10 16 4 17 5 18 9 19 6 20 8 21 7 22 11 23
REMARK SMILES IDX 100 24 12 25 98 26 99 27 20 28 21 29 22 30 29 31 23 32 24 33
REMARK SMILES IDX 28 34 25 36 27 37 26 38 34 39 35 40 36 41 37 42 38 43 39 44
REMARK SMILES IDX 97 45 40 46 96 47 41 48 42 49 43 50 90 51 44 52 95 53 89 54
REMARK SMILES IDX 91 55 45 56 94 57 88 58 87 59 46 61 76 62 57 63 75 64 58 65
REMARK SMILES IDX 61 66 74 67 92 68 59 69 60 70 73 72 93 73 62 74 47 75 48 76
REMARK SMILES IDX 56 77 49 78 55 79 50 80 51 81 52 82 53 83 54 84 77 85 78 86
REMARK SMILES IDX 86 87 79 88 85 89 80 90 81 91 82 92 83 93 84 94 63 95 64 96
REMARK SMILES IDX 72 97 65 98 71 99 66 100 67 101 68 102 69 103 70 104
REMARK H PARENT 18 9 23 35 91 60 61 71
REMARK Flexibility Score: inf
ROOT
ATOM      1  C   UNL A   1      34.415  31.426  27.555  1.00  0.00     0.274 C 
ENDROOT
BRANCH   1   2
ATOM      2  O   UNL A   1      33.189  30.817  27.109  1.00  0.00    -0.461 OA
BRANCH   2   3
ATOM      3  C   UNL A   1      33.266  29.476  26.897  1.00  0.00     0.329 C 
ATOM      4  O   UNL A   1      33.609  28.655  27.742  1.00  0.00    -0.250 OA
BRANCH   3   5
ATOM      5  C   UNL A   1      32.980  29.103  25.441  1.00  0.00     0.196 C 
BRANCH   5   6
ATOM      6  N   UNL A   1      33.679  27.884  24.953  1.00  0.00    -0.342 N 
ATOM      7  C   UNL A   1      33.631  26.529  25.080  1.00  0.00     0.220 C 
ATOM      8  O   UNL A   1      34.444  25.926  24.359  1.00  0.00    -0.275 OA
ATOM      9  H   UNL A   1      34.410  28.137  24.343  1.00  0.00     0.164 HD
BRANCH   7  10
ATOM     10  C   UNL A   1      32.716  25.631  25.972  1.00  0.00     0.101 C 
BRANCH  10  11
ATOM     11  C   UNL A   1      32.088  24.281  25.557  1.00  0.00     0.026 C 
BRANCH  11  12
ATOM     12  C   UNL A   1      33.102  23.173  25.425  1.00  0.00     0.107 C 
ATOM     13  C   UNL A   1      33.525  16.112  25.702  1.00  0.00     0.048 C 
ATOM     14  C   UNL A   1      33.305  17.030  24.564  1.00  0.00    -0.005 A 
ATOM     15  C   UNL A   1      33.362  16.727  23.220  1.00  0.00     0.199 A 
ATOM     16  C   UNL A   1      32.961  18.409  24.640  1.00  0.00     0.024 A 
ATOM     17  O   UNL A   1      33.007  17.794  22.464  1.00  0.00    -0.464 OA
ATOM     18  C   UNL A   1      32.726  18.801  23.328  1.00  0.00     0.137 A 
ATOM     19  C   UNL A   1      32.844  19.359  25.676  1.00  0.00     0.020 A 
ATOM     20  C   UNL A   1      32.276  20.051  22.957  1.00  0.00     0.095 A 
ATOM     21  C   UNL A   1      32.545  20.685  25.337  1.00  0.00    -0.001 A 
ATOM     22  C   UNL A   1      32.182  20.967  24.001  1.00  0.00     0.138 A 
ATOM     23  C   UNL A   1      32.926  21.868  26.241  1.00  0.00     0.034 C 
ATOM     24  O   UNL A   1      31.934  22.266  23.617  1.00  0.00    -0.426 OA
ATOM     25  C   UNL A   1      34.313  21.592  26.827  1.00  0.00     0.014 C 
ATOM     26  C   UNL A   1      33.148  22.730  23.999  1.00  0.00     0.314 C 
ATOM     27  O   UNL A   1      34.160  22.605  23.351  1.00  0.00    -0.251 OA
ENDBRANCH  11  12
ENDBRANCH  10  11
ENDBRANCH   7  10
ENDBRANCH   5   6
BRANCH   5  28
ATOM     28  C   UNL A   1      31.445  29.183  25.333  1.00  0.00     0.074 C 
BRANCH  28  29
ATOM     29  C   UNL A   1      30.815  29.279  23.973  1.00  0.00    -0.020 A 
ATOM     30  C   UNL A   1      31.045  28.363  22.959  1.00  0.00     0.087 A 
ATOM     31  C   UNL A   1      29.787  30.161  23.498  1.00  0.00     0.003 A 
ATOM     32  N   UNL A   1      30.158  28.603  21.949  1.00  0.00    -0.361 N 
ATOM     33  C   UNL A   1      29.345  29.661  22.271  1.00  0.00     0.046 A 
ATOM     34  C   UNL A   1      29.126  31.301  23.999  1.00  0.00     0.010 A 
ATOM     35  H   UNL A   1      30.110  28.090  21.110  1.00  0.00     0.166 HD
ATOM     36  C   UNL A   1      28.246  30.195  21.586  1.00  0.00     0.026 A 
ATOM     37  C   UNL A   1      28.000  31.820  23.360  1.00  0.00     0.001 A 
ATOM     38  C   UNL A   1      27.561  31.265  22.170  1.00  0.00     0.002 A 
ENDBRANCH  28  29
ENDBRANCH   5  28
ENDBRANCH   3   5
ENDBRANCH   2   3
ENDBRANCH   1   2
BRANCH   1  39
ATOM     39  C   UNL A   1      34.067  32.685  28.349  1.00  0.00     0.275 C 
BRANCH  39  40
ATOM     40  O   UNL A   1      35.272  33.200  28.959  1.00  0.00    -0.458 OA
BRANCH  40  41
ATOM     41  C   UNL A   1      35.603  32.685  30.169  1.00  0.00     0.338 C 
ATOM     42  O   UNL A   1      35.033  32.908  31.227  1.00  0.00    -0.246 OA
BRANCH  41  43
ATOM     43  C   UNL A   1      36.485  31.506  29.946  1.00  0.00     0.060 A 
ATOM     44  C   UNL A   1      36.285  30.215  30.427  1.00  0.00     0.016 A 
ATOM     45  C   UNL A   1      37.707  31.805  29.371  1.00  0.00     0.016 A 
ATOM     46  C   UNL A   1      37.375  29.310  30.505  1.00  0.00     0.010 A 
ATOM     47  C   UNL A   1      38.777  30.917  29.468  1.00  0.00     0.010 A 
ATOM     48  C   UNL A   1      38.673  29.703  30.148  1.00  0.00    -0.014 A 
BRANCH  48  49
ATOM     49  C   UNL A   1      39.858  28.800  30.087  1.00  0.00     0.031 A 
ATOM     50  C   UNL A   1      40.367  28.608  31.463  1.00  0.00     0.074 A 
ATOM     51  C   UNL A   1      40.455  28.078  29.093  1.00  0.00     0.049 A 
ATOM     52  N   UNL A   1      41.151  29.452  32.044  1.00  0.00    -0.248 NA
ATOM     53  C   UNL A   1      39.782  27.609  32.372  1.00  0.00     0.031 C 
ATOM     54  C   UNL A   1      40.091  27.965  27.674  1.00  0.00     0.029 A 
ATOM     55  N   UNL A   1      41.520  27.189  29.177  1.00  0.00    -0.354 N 
ATOM     56  C   UNL A   1      41.405  28.907  33.283  1.00  0.00     0.074 A 
ATOM     57  C   UNL A   1      40.317  27.996  33.534  1.00  0.00     0.031 C 
ATOM     58  C   UNL A   1      40.791  26.953  27.085  1.00  0.00     0.029 A 
ATOM     59  C   UNL A   1      41.747  26.389  28.042  1.00  0.00     0.049 A 
ATOM     60  H   UNL A   1      42.081  27.123  29.984  1.00  0.00     0.167 HD
ATOM     61  C   UNL A   1      42.661  28.962  33.802  1.00  0.00     0.031 A 
ATOM     62  C   UNL A   1      42.820  25.584  27.739  1.00  0.00     0.031 A 
ATOM     63  C   UNL A   1      43.524  29.750  32.947  1.00  0.00     0.049 A 
ATOM     64  C   UNL A   1      43.966  26.161  28.464  1.00  0.00     0.074 A 
ATOM     65  C   UNL A   1      43.623  31.075  32.581  1.00  0.00     0.029 A 
ATOM     66  N   UNL A   1      44.163  29.010  31.980  1.00  0.00    -0.354 N 
ATOM     67  N   UNL A   1      44.488  27.306  28.142  1.00  0.00    -0.248 NA
ATOM     68  C   UNL A   1      44.345  25.630  29.767  1.00  0.00     0.031 C 
ATOM     69  C   UNL A   1      44.152  31.080  31.257  1.00  0.00     0.029 A 
ATOM     70  C   UNL A   1      44.436  29.771  30.874  1.00  0.00     0.049 A 
ATOM     71  H   UNL A   1      44.396  28.057  32.071  1.00  0.00     0.167 HD
ATOM     72  C   UNL A   1      44.840  27.848  29.359  1.00  0.00     0.074 A 
ATOM     73  C   UNL A   1      44.916  26.721  30.280  1.00  0.00     0.031 C 
ATOM     74  C   UNL A   1      44.705  29.183  29.576  1.00  0.00     0.031 A 
BRANCH  61  75
ATOM     75  C   UNL A   1      43.239  27.953  34.761  1.00  0.00    -0.014 A 
ATOM     76  C   UNL A   1      43.919  26.784  34.371  1.00  0.00     0.010 A 
ATOM     77  C   UNL A   1      43.288  28.289  36.130  1.00  0.00     0.010 A 
ATOM     78  C   UNL A   1      44.587  25.973  35.287  1.00  0.00     0.020 A 
ATOM     79  C   UNL A   1      43.986  27.502  37.056  1.00  0.00     0.020 A 
ATOM     80  C   UNL A   1      44.616  26.338  36.626  1.00  0.00     0.054 A 
BRANCH  80  81
ATOM     81  S   UNL A   1      45.520  25.274  37.770  1.00  0.00     0.124 S 
ATOM     82  O   UNL A   1      44.693  25.362  38.972  1.00  0.00    -0.237 OA
ATOM     83  O   UNL A   1      45.496  23.987  37.081  1.00  0.00    -0.237 OA
ATOM     84  O   UNL A   1      46.832  25.909  37.866  1.00  0.00    -0.744 OA
ENDBRANCH  80  81
ENDBRANCH  61  75
BRANCH  62  85
ATOM     85  C   UNL A   1      42.909  24.117  27.402  1.00  0.00    -0.014 A 
ATOM     86  C   UNL A   1      42.804  23.688  26.071  1.00  0.00     0.010 A 
ATOM     87  C   UNL A   1      42.741  23.118  28.394  1.00  0.00     0.010 A 
ATOM     88  C   UNL A   1      42.528  22.351  25.732  1.00  0.00     0.020 A 
ATOM     89  C   UNL A   1      42.474  21.766  28.064  1.00  0.00     0.020 A 
ATOM     90  C   UNL A   1      42.363  21.392  26.727  1.00  0.00     0.054 A 
BRANCH  90  91
ATOM     91  S   UNL A   1      41.948  19.690  26.225  1.00  0.00     0.124 S 
ATOM     92  O   UNL A   1      40.501  19.761  26.046  1.00  0.00    -0.237 OA
ATOM     93  O   UNL A   1      42.721  19.537  24.993  1.00  0.00    -0.237 OA
ATOM     94  O   UNL A   1      42.401  18.871  27.345  1.00  0.00    -0.744 OA
ENDBRANCH  90  91
ENDBRANCH  62  85
BRANCH  74  95
ATOM     95  C   UNL A   1      44.659  30.098  28.378  1.00  0.00    -0.014 A 
ATOM     96  C   UNL A   1      45.825  30.833  28.109  1.00  0.00     0.010 A 
ATOM     97  C   UNL A   1      43.502  30.369  27.620  1.00  0.00     0.010 A 
ATOM     98  C   UNL A   1      45.824  31.862  27.171  1.00  0.00     0.020 A 
ATOM     99  C   UNL A   1      43.501  31.386  26.653  1.00  0.00     0.020 A 
ATOM    100  C   UNL A   1      44.656  32.149  26.463  1.00  0.00     0.054 A 
BRANCH 100 101
ATOM    101  S   UNL A   1      44.681  33.566  25.334  1.00  0.00     0.124 S 
ATOM    102  O   UNL A   1      43.717  34.472  25.957  1.00  0.00    -0.237 OA
ATOM    103  O   UNL A   1      46.074  34.003  25.396  1.00  0.00    -0.237 OA
ATOM    104  O   UNL A   1      44.266  33.005  24.051  1.00  0.00    -0.744 OA
ENDBRANCH 100 101
ENDBRANCH  74  95
ENDBRANCH  48  49
ENDBRANCH  41  43
ENDBRANCH  40  41
ENDBRANCH  39  40
ENDBRANCH   1  39
TORSDOF 20
ENDMDL
