MODEL 1
REMARK VINA RESULT:     -11.8      0.000      0.000
REMARK SMILES CCn1nc(C(=O)OCCOC(=O)c2ccc(-c3c4nc(c(-c5ccc(S(=O)(=O)[O-])cc5)c5ccc([nH]5)c(-c5ccc(S(=O)(=O)[O-])cc5)c5nc(c(-c6ccc(S(=O)(=O)[O-])cc6)c6ccc3[nH]6)C=C5)C=C4)cc2)c2c1CC[C@H]([NH2+]Cc1nn(CC)c3ccccc13)C2
REMARK SMILES IDX 9 1 8 2 6 3 7 4 5 5 3 6 4 7 75 8 74 9 76 10 92 11 77 12
REMARK SMILES IDX 78 13 2 14 1 15 79 16 80 19 81 20 82 21 91 22 83 23 86 24
REMARK SMILES IDX 90 25 87 26 89 27 88 28 84 29 85 30 10 31 11 32 12 33 13 34
REMARK SMILES IDX 14 35 15 36 73 37 16 38 72 39 17 40 18 41 19 42 66 43 20 44
REMARK SMILES IDX 71 45 65 46 67 47 21 48 70 49 64 50 63 51 22 53 52 54 33 55
REMARK SMILES IDX 51 56 34 57 37 58 50 59 68 60 35 61 36 62 49 64 69 65 38 66
REMARK SMILES IDX 23 67 24 68 32 69 25 70 31 71 26 72 27 73 28 74 29 75 30 76
REMARK SMILES IDX 53 77 54 78 62 79 55 80 61 81 56 82 57 83 58 84 59 85 60 86
REMARK SMILES IDX 39 87 40 88 48 89 41 90 47 91 42 92 43 93 44 94 45 95 46 96
REMARK H PARENT 79 17 79 18 67 52 37 63
REMARK Flexibility Score: inf
ROOT
ATOM      1  C   UNL A   1      39.318  21.172  25.909  1.00  0.00     0.275 C 
ENDROOT
BRANCH   1   2
ATOM      2  O   UNL A   1      38.195  22.026  26.170  1.00  0.00    -0.457 OA
BRANCH   2   3
ATOM      3  C   UNL A   1      37.313  22.500  25.240  1.00  0.00     0.359 C 
ATOM      4  O   UNL A   1      37.455  23.524  24.588  1.00  0.00    -0.244 OA
BRANCH   3   5
ATOM      5  C   UNL A   1      36.102  21.663  25.284  1.00  0.00     0.174 A 
ATOM      6  N   UNL A   1      34.586  20.175  25.031  1.00  0.00    -0.269 N 
ATOM      7  N   UNL A   1      35.897  20.445  24.756  1.00  0.00    -0.165 NA
ATOM      8  C   UNL A   1      33.930  21.236  25.601  1.00  0.00     0.043 A 
ATOM      9  C   UNL A   1      34.900  22.161  25.826  1.00  0.00     0.014 A 
ATOM     10  C   UNL A   1      32.504  21.494  25.916  1.00  0.00     0.062 C 
ATOM     11  C   UNL A   1      34.697  23.522  26.316  1.00  0.00     0.105 C 
ATOM     12  C   UNL A   1      32.222  23.044  25.852  1.00  0.00     0.072 C 
ATOM     13  C   UNL A   1      33.274  23.973  26.555  1.00  0.00     0.187 C 
BRANCH   6  14
ATOM     14  C   UNL A   1      34.059  18.882  24.639  1.00  0.00     0.141 C 
ATOM     15  C   UNL A   1      35.149  17.854  24.398  1.00  0.00     0.029 C 
ENDBRANCH   6  14
BRANCH  13  16
ATOM     16  N   UNL A   1      33.159  25.419  26.160  1.00  0.00    -0.338 N 
ATOM     17  H   UNL A   1      34.050  25.708  25.758  1.00  0.00     0.346 HD
ATOM     18  H   UNL A   1      32.913  25.927  27.009  1.00  0.00     0.346 HD
BRANCH  16  19
ATOM     19  C   UNL A   1      32.078  25.720  25.161  1.00  0.00     0.320 C 
BRANCH  19  20
ATOM     20  C   UNL A   1      31.725  27.213  24.968  1.00  0.00     0.124 A 
ATOM     21  N   UNL A   1      32.376  28.219  25.593  1.00  0.00    -0.171 NA
ATOM     22  C   UNL A   1      30.616  27.735  24.207  1.00  0.00     0.029 A 
ATOM     23  N   UNL A   1      31.634  29.328  25.314  1.00  0.00    -0.265 N 
ATOM     24  C   UNL A   1      30.710  29.120  24.318  1.00  0.00     0.069 A 
ATOM     25  C   UNL A   1      29.507  27.208  23.510  1.00  0.00     0.012 A 
ATOM     26  C   UNL A   1      29.876  30.007  23.620  1.00  0.00     0.028 A 
ATOM     27  C   UNL A   1      28.577  28.088  22.929  1.00  0.00     0.001 A 
ATOM     28  C   UNL A   1      28.784  29.465  22.949  1.00  0.00     0.002 A 
BRANCH  23  29
ATOM     29  C   UNL A   1      31.768  30.549  26.106  1.00  0.00     0.141 C 
ATOM     30  C   UNL A   1      32.947  30.615  27.092  1.00  0.00     0.029 C 
ENDBRANCH  23  29
ENDBRANCH  19  20
ENDBRANCH  16  19
ENDBRANCH  13  16
ENDBRANCH   3   5
ENDBRANCH   2   3
ENDBRANCH   1   2
BRANCH   1  31
ATOM     31  C   UNL A   1      40.655  21.859  26.091  1.00  0.00     0.275 C 
BRANCH  31  32
ATOM     32  O   UNL A   1      40.379  23.104  26.690  1.00  0.00    -0.458 OA
BRANCH  32  33
ATOM     33  C   UNL A   1      41.487  23.629  27.272  1.00  0.00     0.338 C 
ATOM     34  O   UNL A   1      41.974  23.288  28.340  1.00  0.00    -0.246 OA
BRANCH  33  35
ATOM     35  C   UNL A   1      42.056  24.663  26.361  1.00  0.00     0.060 A 
ATOM     36  C   UNL A   1      43.150  25.237  26.996  1.00  0.00     0.016 A 
ATOM     37  C   UNL A   1      41.057  25.448  25.776  1.00  0.00     0.016 A 
ATOM     38  C   UNL A   1      42.879  26.407  27.648  1.00  0.00     0.010 A 
ATOM     39  C   UNL A   1      40.745  26.595  26.451  1.00  0.00     0.010 A 
ATOM     40  C   UNL A   1      41.621  27.000  27.454  1.00  0.00    -0.014 A 
BRANCH  40  41
ATOM     41  C   UNL A   1      41.370  28.211  28.179  1.00  0.00     0.031 A 
ATOM     42  C   UNL A   1      42.470  29.162  27.970  1.00  0.00     0.074 A 
ATOM     43  C   UNL A   1      40.273  28.479  28.895  1.00  0.00     0.049 A 
ATOM     44  N   UNL A   1      43.455  29.393  28.767  1.00  0.00    -0.248 NA
ATOM     45  C   UNL A   1      42.629  29.694  26.609  1.00  0.00     0.031 C 
ATOM     46  C   UNL A   1      38.984  27.794  28.927  1.00  0.00     0.029 A 
ATOM     47  N   UNL A   1      40.084  29.555  29.694  1.00  0.00    -0.354 N 
ATOM     48  C   UNL A   1      44.267  30.272  28.074  1.00  0.00     0.074 A 
ATOM     49  C   UNL A   1      43.850  30.215  26.695  1.00  0.00     0.031 C 
ATOM     50  C   UNL A   1      38.079  28.612  29.519  1.00  0.00     0.029 A 
ATOM     51  C   UNL A   1      38.764  29.798  30.015  1.00  0.00     0.049 A 
ATOM     52  H   UNL A   1      40.826  30.117  30.018  1.00  0.00     0.167 HD
ATOM     53  C   UNL A   1      45.019  31.200  28.719  1.00  0.00     0.031 A 
ATOM     54  C   UNL A   1      38.298  30.956  30.543  1.00  0.00     0.031 A 
ATOM     55  C   UNL A   1      45.146  30.909  30.125  1.00  0.00     0.049 A 
ATOM     56  C   UNL A   1      39.459  31.669  31.149  1.00  0.00     0.074 A 
ATOM     57  C   UNL A   1      45.653  29.846  30.848  1.00  0.00     0.029 A 
ATOM     58  N   UNL A   1      44.324  31.600  30.987  1.00  0.00    -0.354 N 
ATOM     59  N   UNL A   1      40.118  31.225  32.185  1.00  0.00    -0.248 NA
ATOM     60  C   UNL A   1      40.178  32.645  30.338  1.00  0.00     0.031 C 
ATOM     61  C   UNL A   1      44.771  29.696  31.959  1.00  0.00     0.029 A 
ATOM     62  C   UNL A   1      43.801  30.698  31.879  1.00  0.00     0.049 A 
ATOM     63  H   UNL A   1      44.144  32.568  30.967  1.00  0.00     0.167 HD
ATOM     64  C   UNL A   1      41.450  31.537  31.934  1.00  0.00     0.074 A 
ATOM     65  C   UNL A   1      41.410  32.499  30.836  1.00  0.00     0.031 C 
ATOM     66  C   UNL A   1      42.469  30.785  32.451  1.00  0.00     0.031 A 
BRANCH  53  67
ATOM     67  C   UNL A   1      45.254  32.566  28.138  1.00  0.00    -0.014 A 
ATOM     68  C   UNL A   1      46.569  33.052  28.055  1.00  0.00     0.010 A 
ATOM     69  C   UNL A   1      44.210  33.491  27.910  1.00  0.00     0.010 A 
ATOM     70  C   UNL A   1      46.818  34.410  27.816  1.00  0.00     0.020 A 
ATOM     71  C   UNL A   1      44.446  34.828  27.618  1.00  0.00     0.020 A 
ATOM     72  C   UNL A   1      45.751  35.289  27.614  1.00  0.00     0.054 A 
BRANCH  72  73
ATOM     73  S   UNL A   1      46.070  37.057  27.429  1.00  0.00     0.124 S 
ATOM     74  O   UNL A   1      46.727  37.104  26.126  1.00  0.00    -0.237 OA
ATOM     75  O   UNL A   1      44.724  37.619  27.484  1.00  0.00    -0.237 OA
ATOM     76  O   UNL A   1      46.920  37.373  28.574  1.00  0.00    -0.744 OA
ENDBRANCH  72  73
ENDBRANCH  53  67
BRANCH  54  77
ATOM     77  C   UNL A   1      37.016  31.621  30.213  1.00  0.00    -0.014 A 
ATOM     78  C   UNL A   1      36.233  32.223  31.214  1.00  0.00     0.010 A 
ATOM     79  C   UNL A   1      36.684  31.894  28.869  1.00  0.00     0.010 A 
ATOM     80  C   UNL A   1      35.190  33.104  30.882  1.00  0.00     0.020 A 
ATOM     81  C   UNL A   1      35.640  32.761  28.530  1.00  0.00     0.020 A 
ATOM     82  C   UNL A   1      34.911  33.380  29.541  1.00  0.00     0.054 A 
BRANCH  82  83
ATOM     83  S   UNL A   1      33.671  34.640  29.122  1.00  0.00     0.124 S 
ATOM     84  O   UNL A   1      34.480  35.665  28.467  1.00  0.00    -0.237 OA
ATOM     85  O   UNL A   1      32.755  33.906  28.254  1.00  0.00    -0.237 OA
ATOM     86  O   UNL A   1      33.118  35.023  30.420  1.00  0.00    -0.744 OA
ENDBRANCH  82  83
ENDBRANCH  54  77
BRANCH  66  87
ATOM     87  C   UNL A   1      42.140  29.775  33.530  1.00  0.00    -0.014 A 
ATOM     88  C   UNL A   1      41.559  28.519  33.265  1.00  0.00     0.010 A 
ATOM     89  C   UNL A   1      42.588  30.041  34.836  1.00  0.00     0.010 A 
ATOM     90  C   UNL A   1      41.414  27.565  34.284  1.00  0.00     0.020 A 
ATOM     91  C   UNL A   1      42.461  29.089  35.852  1.00  0.00     0.020 A 
ATOM     92  C   UNL A   1      41.869  27.856  35.573  1.00  0.00     0.054 A 
BRANCH  92  93
ATOM     93  S   UNL A   1      41.739  26.595  36.873  1.00  0.00     0.124 S 
ATOM     94  O   UNL A   1      40.461  26.917  37.502  1.00  0.00    -0.237 OA
ATOM     95  O   UNL A   1      41.772  25.344  36.120  1.00  0.00    -0.237 OA
ATOM     96  O   UNL A   1      42.915  26.834  37.709  1.00  0.00    -0.744 OA
ENDBRANCH  92  93
ENDBRANCH  66  87
ENDBRANCH  40  41
ENDBRANCH  33  35
ENDBRANCH  32  33
ENDBRANCH  31  32
ENDBRANCH   1  31
TORSDOF 19
ENDMDL
MODEL 2
REMARK VINA RESULT:     -11.5      2.147      9.360
REMARK SMILES CCn1nc(C(=O)OCCOC(=O)c2ccc(-c3c4nc(c(-c5ccc(S(=O)(=O)[O-])cc5)c5ccc([nH]5)c(-c5ccc(S(=O)(=O)[O-])cc5)c5nc(c(-c6ccc(S(=O)(=O)[O-])cc6)c6ccc3[nH]6)C=C5)C=C4)cc2)c2c1CC[C@H]([NH2+]Cc1nn(CC)c3ccccc13)C2
REMARK SMILES IDX 9 1 8 2 6 3 7 4 5 5 3 6 4 7 75 8 74 9 76 10 92 11 77 12
REMARK SMILES IDX 78 13 2 14 1 15 79 16 80 19 81 20 82 21 91 22 83 23 86 24
REMARK SMILES IDX 90 25 87 26 89 27 88 28 84 29 85 30 10 31 11 32 12 33 13 34
REMARK SMILES IDX 14 35 15 36 73 37 16 38 72 39 17 40 18 41 19 42 66 43 20 44
REMARK SMILES IDX 71 45 65 46 67 47 21 48 70 49 64 50 63 51 22 53 52 54 33 55
REMARK SMILES IDX 51 56 34 57 37 58 50 59 68 60 35 61 36 62 49 64 69 65 38 66
REMARK SMILES IDX 23 67 24 68 32 69 25 70 31 71 26 72 27 73 28 74 29 75 30 76
REMARK SMILES IDX 53 77 54 78 62 79 55 80 61 81 56 82 57 83 58 84 59 85 60 86
REMARK SMILES IDX 39 87 40 88 48 89 41 90 47 91 42 92 43 93 44 94 45 95 46 96
REMARK H PARENT 79 17 79 18 67 52 37 63
REMARK Flexibility Score: inf
ROOT
ATOM      1  C   UNL A   1      34.208  31.184  27.505  1.00  0.00     0.275 C 
ENDROOT
BRANCH   1   2
ATOM      2  O   UNL A   1      33.103  30.460  26.947  1.00  0.00    -0.457 OA
BRANCH   2   3
ATOM      3  C   UNL A   1      33.116  29.153  26.550  1.00  0.00     0.359 C 
ATOM      4  O   UNL A   1      33.916  28.308  26.926  1.00  0.00    -0.244 OA
BRANCH   3   5
ATOM      5  C   UNL A   1      32.119  28.985  25.480  1.00  0.00     0.174 A 
ATOM      6  N   UNL A   1      30.619  29.219  23.972  1.00  0.00    -0.269 N 
ATOM      7  N   UNL A   1      31.476  29.926  24.769  1.00  0.00    -0.165 NA
ATOM      8  C   UNL A   1      30.614  27.876  24.253  1.00  0.00     0.043 A 
ATOM      9  C   UNL A   1      31.610  27.710  25.162  1.00  0.00     0.014 A 
ATOM     10  C   UNL A   1      29.760  26.751  23.800  1.00  0.00     0.062 C 
ATOM     11  C   UNL A   1      31.936  26.473  25.868  1.00  0.00     0.105 C 
ATOM     12  C   UNL A   1      29.697  25.651  24.929  1.00  0.00     0.072 C 
ATOM     13  C   UNL A   1      31.060  25.268  25.606  1.00  0.00     0.187 C 
BRANCH   6  14
ATOM     14  C   UNL A   1      29.808  29.954  23.021  1.00  0.00     0.141 C 
ATOM     15  C   UNL A   1      28.333  29.947  23.380  1.00  0.00     0.029 C 
ENDBRANCH   6  14
BRANCH  13  16
ATOM     16  N   UNL A   1      30.900  24.507  26.892  1.00  0.00    -0.338 N 
ATOM     17  H   UNL A   1      30.089  24.882  27.383  1.00  0.00     0.346 HD
ATOM     18  H   UNL A   1      31.775  24.626  27.404  1.00  0.00     0.346 HD
BRANCH  16  19
ATOM     19  C   UNL A   1      30.705  23.026  26.733  1.00  0.00     0.320 C 
BRANCH  19  20
ATOM     20  C   UNL A   1      31.775  22.282  25.900  1.00  0.00     0.124 A 
ATOM     21  N   UNL A   1      31.515  21.174  25.171  1.00  0.00    -0.171 NA
ATOM     22  C   UNL A   1      33.187  22.580  25.867  1.00  0.00     0.029 A 
ATOM     23  N   UNL A   1      32.743  20.732  24.777  1.00  0.00    -0.265 N 
ATOM     24  C   UNL A   1      33.739  21.657  24.982  1.00  0.00     0.069 A 
ATOM     25  C   UNL A   1      34.069  23.459  26.530  1.00  0.00     0.012 A 
ATOM     26  C   UNL A   1      35.082  21.683  24.581  1.00  0.00     0.028 A 
ATOM     27  C   UNL A   1      35.445  23.397  26.248  1.00  0.00     0.001 A 
ATOM     28  C   UNL A   1      35.936  22.550  25.257  1.00  0.00     0.002 A 
BRANCH  23  29
ATOM     29  C   UNL A   1      32.939  19.364  24.302  1.00  0.00     0.141 C 
ATOM     30  C   UNL A   1      32.294  18.994  22.956  1.00  0.00     0.029 C 
ENDBRANCH  23  29
ENDBRANCH  19  20
ENDBRANCH  16  19
ENDBRANCH  13  16
ENDBRANCH   3   5
ENDBRANCH   2   3
ENDBRANCH   1   2
BRANCH   1  31
ATOM     31  C   UNL A   1      33.836  32.564  28.007  1.00  0.00     0.275 C 
BRANCH  31  32
ATOM     32  O   UNL A   1      34.294  32.634  29.337  1.00  0.00    -0.458 OA
BRANCH  32  33
ATOM     33  C   UNL A   1      35.350  33.480  29.452  1.00  0.00     0.338 C 
ATOM     34  O   UNL A   1      35.777  34.227  28.583  1.00  0.00    -0.246 OA
BRANCH  33  35
ATOM     35  C   UNL A   1      35.877  33.394  30.843  1.00  0.00     0.060 A 
ATOM     36  C   UNL A   1      37.133  33.986  30.862  1.00  0.00     0.016 A 
ATOM     37  C   UNL A   1      35.656  32.133  31.407  1.00  0.00     0.016 A 
ATOM     38  C   UNL A   1      38.176  33.109  30.745  1.00  0.00     0.010 A 
ATOM     39  C   UNL A   1      36.674  31.235  31.248  1.00  0.00     0.010 A 
ATOM     40  C   UNL A   1      37.900  31.735  30.818  1.00  0.00    -0.014 A 
BRANCH  40  41
ATOM     41  C   UNL A   1      39.019  30.852  30.662  1.00  0.00     0.031 A 
ATOM     42  C   UNL A   1      39.704  30.675  31.949  1.00  0.00     0.074 A 
ATOM     43  C   UNL A   1      39.367  30.224  29.534  1.00  0.00     0.049 A 
ATOM     44  N   UNL A   1      40.776  31.271  32.344  1.00  0.00    -0.248 NA
ATOM     45  C   UNL A   1      38.956  29.972  33.001  1.00  0.00     0.031 C 
ATOM     46  C   UNL A   1      38.618  30.040  28.294  1.00  0.00     0.029 A 
ATOM     47  N   UNL A   1      40.496  29.503  29.337  1.00  0.00    -0.354 N 
ATOM     48  C   UNL A   1      40.947  30.852  33.651  1.00  0.00     0.074 A 
ATOM     49  C   UNL A   1      39.692  30.279  34.066  1.00  0.00     0.031 C 
ATOM     50  C   UNL A   1      39.216  29.058  27.575  1.00  0.00     0.029 A 
ATOM     51  C   UNL A   1      40.445  28.659  28.247  1.00  0.00     0.049 A 
ATOM     52  H   UNL A   1      41.284  29.574  29.923  1.00  0.00     0.167 HD
ATOM     53  C   UNL A   1      42.184  30.734  34.199  1.00  0.00     0.031 A 
ATOM     54  C   UNL A   1      41.312  27.642  28.016  1.00  0.00     0.031 A 
ATOM     55  C   UNL A   1      43.185  31.422  33.426  1.00  0.00     0.049 A 
ATOM     56  C   UNL A   1      42.538  27.910  28.821  1.00  0.00     0.074 A 
ATOM     57  C   UNL A   1      43.371  32.736  33.039  1.00  0.00     0.029 A 
ATOM     58  N   UNL A   1      43.958  30.661  32.578  1.00  0.00    -0.354 N 
ATOM     59  N   UNL A   1      43.342  28.915  28.598  1.00  0.00    -0.248 NA
ATOM     60  C   UNL A   1      42.636  27.331  30.155  1.00  0.00     0.031 C 
ATOM     61  C   UNL A   1      43.886  32.664  31.711  1.00  0.00     0.029 A 
ATOM     62  C   UNL A   1      44.025  31.315  31.373  1.00  0.00     0.049 A 
ATOM     63  H   UNL A   1      44.386  29.801  32.796  1.00  0.00     0.167 HD
ATOM     64  C   UNL A   1      43.739  29.353  29.857  1.00  0.00     0.074 A 
ATOM     65  C   UNL A   1      43.355  28.277  30.767  1.00  0.00     0.031 C 
ATOM     66  C   UNL A   1      44.089  30.656  30.082  1.00  0.00     0.031 A 
BRANCH  53  67
ATOM     67  C   UNL A   1      42.508  29.642  35.180  1.00  0.00    -0.014 A 
ATOM     68  C   UNL A   1      43.468  29.886  36.176  1.00  0.00     0.010 A 
ATOM     69  C   UNL A   1      42.094  28.303  35.000  1.00  0.00     0.010 A 
ATOM     70  C   UNL A   1      44.026  28.831  36.909  1.00  0.00     0.020 A 
ATOM     71  C   UNL A   1      42.600  27.255  35.758  1.00  0.00     0.020 A 
ATOM     72  C   UNL A   1      43.596  27.521  36.682  1.00  0.00     0.054 A 
BRANCH  72  73
ATOM     73  S   UNL A   1      44.404  26.152  37.538  1.00  0.00     0.124 S 
ATOM     74  O   UNL A   1      44.073  25.025  36.672  1.00  0.00    -0.237 OA
ATOM     75  O   UNL A   1      45.803  26.569  37.536  1.00  0.00    -0.237 OA
ATOM     76  O   UNL A   1      43.763  26.144  38.851  1.00  0.00    -0.744 OA
ENDBRANCH  72  73
ENDBRANCH  53  67
BRANCH  54  77
ATOM     77  C   UNL A   1      40.978  26.310  27.459  1.00  0.00    -0.014 A 
ATOM     78  C   UNL A   1      41.898  25.608  26.661  1.00  0.00     0.010 A 
ATOM     79  C   UNL A   1      39.847  25.608  27.928  1.00  0.00     0.010 A 
ATOM     80  C   UNL A   1      41.717  24.241  26.384  1.00  0.00     0.020 A 
ATOM     81  C   UNL A   1      39.655  24.252  27.649  1.00  0.00     0.020 A 
ATOM     82  C   UNL A   1      40.604  23.569  26.895  1.00  0.00     0.054 A 
BRANCH  82  83
ATOM     83  S   UNL A   1      40.460  21.772  26.671  1.00  0.00     0.124 S 
ATOM     84  O   UNL A   1      39.109  21.634  26.134  1.00  0.00    -0.237 OA
ATOM     85  O   UNL A   1      41.545  21.481  25.739  1.00  0.00    -0.237 OA
ATOM     86  O   UNL A   1      40.648  21.240  28.020  1.00  0.00    -0.744 OA
ENDBRANCH  82  83
ENDBRANCH  54  77
BRANCH  66  87
ATOM     87  C   UNL A   1      44.312  31.556  28.884  1.00  0.00    -0.014 A 
ATOM     88  C   UNL A   1      43.560  32.722  28.640  1.00  0.00     0.010 A 
ATOM     89  C   UNL A   1      45.430  31.301  28.071  1.00  0.00     0.010 A 
ATOM     90  C   UNL A   1      43.907  33.597  27.599  1.00  0.00     0.020 A 
ATOM     91  C   UNL A   1      45.791  32.177  27.042  1.00  0.00     0.020 A 
ATOM     92  C   UNL A   1      45.025  33.318  26.807  1.00  0.00     0.054 A 
BRANCH  92  93
ATOM     93  S   UNL A   1      45.509  34.486  25.503  1.00  0.00     0.124 S 
ATOM     94  O   UNL A   1      45.096  35.772  26.058  1.00  0.00    -0.237 OA
ATOM     95  O   UNL A   1      46.952  34.280  25.400  1.00  0.00    -0.237 OA
ATOM     96  O   UNL A   1      44.746  34.042  24.337  1.00  0.00    -0.744 OA
ENDBRANCH  92  93
ENDBRANCH  66  87
ENDBRANCH  40  41
ENDBRANCH  33  35
ENDBRANCH  32  33
ENDBRANCH  31  32
ENDBRANCH   1  31
TORSDOF 19
ENDMDL
MODEL 3
REMARK VINA RESULT:     -11.0      5.119     10.838
REMARK SMILES CCn1nc(C(=O)OCCOC(=O)c2ccc(-c3c4nc(c(-c5ccc(S(=O)(=O)[O-])cc5)c5ccc([nH]5)c(-c5ccc(S(=O)(=O)[O-])cc5)c5nc(c(-c6ccc(S(=O)(=O)[O-])cc6)c6ccc3[nH]6)C=C5)C=C4)cc2)c2c1CC[C@H]([NH2+]Cc1nn(CC)c3ccccc13)C2
REMARK SMILES IDX 9 1 8 2 6 3 7 4 5 5 3 6 4 7 75 8 74 9 76 10 92 11 77 12
REMARK SMILES IDX 78 13 2 14 1 15 79 16 80 19 81 20 82 21 91 22 83 23 86 24
REMARK SMILES IDX 90 25 87 26 89 27 88 28 84 29 85 30 10 31 11 32 12 33 13 34
REMARK SMILES IDX 14 35 15 36 73 37 16 38 72 39 17 40 18 41 19 42 66 43 20 44
REMARK SMILES IDX 71 45 65 46 67 47 21 48 70 49 64 50 63 51 22 53 52 54 33 55
REMARK SMILES IDX 51 56 34 57 37 58 50 59 68 60 35 61 36 62 49 64 69 65 38 66
REMARK SMILES IDX 23 67 24 68 32 69 25 70 31 71 26 72 27 73 28 74 29 75 30 76
REMARK SMILES IDX 53 77 54 78 62 79 55 80 61 81 56 82 57 83 58 84 59 85 60 86
REMARK SMILES IDX 39 87 40 88 48 89 41 90 47 91 42 92 43 93 44 94 45 95 46 96
REMARK H PARENT 79 17 79 18 67 52 37 63
REMARK Flexibility Score: inf
ROOT
ATOM      1  C   UNL A   1      42.677  31.590  34.446  1.00  0.00     0.275 C 
ENDROOT
BRANCH   1   2
ATOM      2  O   UNL A   1      41.692  30.653  33.989  1.00  0.00    -0.457 OA
BRANCH   2   3
ATOM      3  C   UNL A   1      40.762  30.021  34.766  1.00  0.00     0.359 C 
ATOM      4  O   UNL A   1      40.841  29.864  35.975  1.00  0.00    -0.244 OA
BRANCH   3   5
ATOM      5  C   UNL A   1      39.749  29.424  33.879  1.00  0.00     0.174 A 
ATOM      6  N   UNL A   1      38.647  28.293  32.436  1.00  0.00    -0.269 N 
ATOM      7  N   UNL A   1      39.851  28.349  33.081  1.00  0.00    -0.165 NA
ATOM      8  C   UNL A   1      37.843  29.370  32.711  1.00  0.00     0.043 A 
ATOM      9  C   UNL A   1      38.506  30.059  33.676  1.00  0.00     0.014 A 
ATOM     10  C   UNL A   1      36.556  29.843  32.144  1.00  0.00     0.062 C 
ATOM     11  C   UNL A   1      38.121  31.354  34.230  1.00  0.00     0.105 C 
ATOM     12  C   UNL A   1      36.471  31.412  32.270  1.00  0.00     0.072 C 
ATOM     13  C   UNL A   1      36.896  32.025  33.650  1.00  0.00     0.187 C 
BRANCH   6  14
ATOM     14  C   UNL A   1      38.409  27.186  31.530  1.00  0.00     0.141 C 
ATOM     15  C   UNL A   1      39.107  27.364  30.193  1.00  0.00     0.029 C 
ENDBRANCH   6  14
BRANCH  13  16
ATOM     16  N   UNL A   1      37.143  33.507  33.601  1.00  0.00    -0.338 N 
ATOM     17  H   UNL A   1      38.043  33.693  34.041  1.00  0.00     0.346 HD
ATOM     18  H   UNL A   1      36.357  33.942  34.084  1.00  0.00     0.346 HD
BRANCH  16  19
ATOM     19  C   UNL A   1      37.167  34.100  32.221  1.00  0.00     0.320 C 
BRANCH  19  20
ATOM     20  C   UNL A   1      35.794  34.465  31.610  1.00  0.00     0.124 A 
ATOM     21  N   UNL A   1      35.441  34.165  30.340  1.00  0.00    -0.171 NA
ATOM     22  C   UNL A   1      34.762  35.251  32.242  1.00  0.00     0.029 A 
ATOM     23  N   UNL A   1      34.267  34.832  30.150  1.00  0.00    -0.265 N 
ATOM     24  C   UNL A   1      33.720  35.305  31.319  1.00  0.00     0.069 A 
ATOM     25  C   UNL A   1      34.614  35.982  33.440  1.00  0.00     0.012 A 
ATOM     26  C   UNL A   1      32.475  35.885  31.597  1.00  0.00     0.028 A 
ATOM     27  C   UNL A   1      33.423  36.694  33.670  1.00  0.00     0.001 A 
ATOM     28  C   UNL A   1      32.355  36.610  32.780  1.00  0.00     0.002 A 
BRANCH  23  29
ATOM     29  C   UNL A   1      33.750  35.089  28.807  1.00  0.00     0.141 C 
ATOM     30  C   UNL A   1      33.692  36.557  28.352  1.00  0.00     0.029 C 
ENDBRANCH  23  29
ENDBRANCH  19  20
ENDBRANCH  16  19
ENDBRANCH  13  16
ENDBRANCH   3   5
ENDBRANCH   2   3
ENDBRANCH   1   2
BRANCH   1  31
ATOM     31  C   UNL A   1      42.596  32.937  33.759  1.00  0.00     0.275 C 
BRANCH  31  32
ATOM     32  O   UNL A   1      41.991  32.705  32.508  1.00  0.00    -0.458 OA
BRANCH  32  33
ATOM     33  C   UNL A   1      42.873  32.887  31.492  1.00  0.00     0.338 C 
ATOM     34  O   UNL A   1      44.056  33.174  31.604  1.00  0.00    -0.246 OA
BRANCH  33  35
ATOM     35  C   UNL A   1      42.172  32.624  30.204  1.00  0.00     0.060 A 
ATOM     36  C   UNL A   1      41.095  31.786  30.466  1.00  0.00     0.016 A 
ATOM     37  C   UNL A   1      43.072  32.353  29.168  1.00  0.00     0.016 A 
ATOM     38  C   UNL A   1      41.341  30.459  30.245  1.00  0.00     0.010 A 
ATOM     39  C   UNL A   1      43.362  31.032  28.975  1.00  0.00     0.010 A 
ATOM     40  C   UNL A   1      42.541  30.103  29.608  1.00  0.00    -0.014 A 
BRANCH  40  41
ATOM     41  C   UNL A   1      42.769  28.700  29.422  1.00  0.00     0.031 A 
ATOM     42  C   UNL A   1      43.509  28.153  30.567  1.00  0.00     0.074 A 
ATOM     43  C   UNL A   1      42.329  27.967  28.394  1.00  0.00     0.049 A 
ATOM     44  N   UNL A   1      44.773  27.915  30.630  1.00  0.00    -0.248 NA
ATOM     45  C   UNL A   1      42.805  28.138  31.858  1.00  0.00     0.031 C 
ATOM     46  C   UNL A   1      41.330  28.284  27.377  1.00  0.00     0.029 A 
ATOM     47  N   UNL A   1      42.653  26.679  28.135  1.00  0.00    -0.354 N 
ATOM     48  C   UNL A   1      44.990  27.521  31.938  1.00  0.00     0.074 A 
ATOM     49  C   UNL A   1      43.824  27.919  32.685  1.00  0.00     0.031 C 
ATOM     50  C   UNL A   1      40.962  27.131  26.766  1.00  0.00     0.029 A 
ATOM     51  C   UNL A   1      41.796  26.044  27.260  1.00  0.00     0.049 A 
ATOM     52  H   UNL A   1      43.434  26.233  28.537  1.00  0.00     0.167 HD
ATOM     53  C   UNL A   1      45.971  26.638  32.257  1.00  0.00     0.031 A 
ATOM     54  C   UNL A   1      41.735  24.702  27.075  1.00  0.00     0.031 A 
ATOM     55  C   UNL A   1      46.927  26.484  31.190  1.00  0.00     0.049 A 
ATOM     56  C   UNL A   1      43.019  24.125  27.567  1.00  0.00     0.074 A 
ATOM     57  C   UNL A   1      47.778  27.346  30.525  1.00  0.00     0.029 A 
ATOM     58  N   UNL A   1      46.790  25.380  30.378  1.00  0.00    -0.354 N 
ATOM     59  N   UNL A   1      44.175  24.354  27.005  1.00  0.00    -0.248 NA
ATOM     60  C   UNL A   1      43.090  23.659  28.946  1.00  0.00     0.031 C 
ATOM     61  C   UNL A   1      47.753  26.920  29.164  1.00  0.00     0.029 A 
ATOM     62  C   UNL A   1      46.923  25.799  29.078  1.00  0.00     0.049 A 
ATOM     63  H   UNL A   1      46.626  24.456  30.677  1.00  0.00     0.167 HD
ATOM     64  C   UNL A   1      45.079  24.460  28.057  1.00  0.00     0.074 A 
ATOM     65  C   UNL A   1      44.373  23.922  29.215  1.00  0.00     0.031 C 
ATOM     66  C   UNL A   1      46.210  25.223  27.952  1.00  0.00     0.031 A 
BRANCH  53  67
ATOM     67  C   UNL A   1      45.793  25.627  33.355  1.00  0.00    -0.014 A 
ATOM     68  C   UNL A   1      46.489  25.804  34.562  1.00  0.00     0.010 A 
ATOM     69  C   UNL A   1      45.171  24.375  33.148  1.00  0.00     0.010 A 
ATOM     70  C   UNL A   1      46.603  24.756  35.484  1.00  0.00     0.020 A 
ATOM     71  C   UNL A   1      45.231  23.346  34.080  1.00  0.00     0.020 A 
ATOM     72  C   UNL A   1      45.984  23.530  35.227  1.00  0.00     0.054 A 
BRANCH  72  73
ATOM     73  S   UNL A   1      46.236  22.145  36.357  1.00  0.00     0.124 S 
ATOM     74  O   UNL A   1      47.670  21.909  36.221  1.00  0.00    -0.237 OA
ATOM     75  O   UNL A   1      45.801  22.706  37.633  1.00  0.00    -0.237 OA
ATOM     76  O   UNL A   1      45.372  21.099  35.814  1.00  0.00    -0.744 OA
ENDBRANCH  72  73
ENDBRANCH  53  67
BRANCH  54  77
ATOM     77  C   UNL A   1      40.509  23.897  26.862  1.00  0.00    -0.014 A 
ATOM     78  C   UNL A   1      39.253  24.514  26.722  1.00  0.00     0.010 A 
ATOM     79  C   UNL A   1      40.607  22.528  26.535  1.00  0.00     0.010 A 
ATOM     80  C   UNL A   1      38.150  23.798  26.226  1.00  0.00     0.020 A 
ATOM     81  C   UNL A   1      39.512  21.807  26.051  1.00  0.00     0.020 A 
ATOM     82  C   UNL A   1      38.292  22.452  25.878  1.00  0.00     0.054 A 
BRANCH  82  83
ATOM     83  S   UNL A   1      36.909  21.579  25.087  1.00  0.00     0.124 S 
ATOM     84  O   UNL A   1      36.821  22.246  23.791  1.00  0.00    -0.237 OA
ATOM     85  O   UNL A   1      37.381  20.198  25.059  1.00  0.00    -0.237 OA
ATOM     86  O   UNL A   1      35.784  21.827  25.989  1.00  0.00    -0.744 OA
ENDBRANCH  82  83
ENDBRANCH  54  77
BRANCH  66  87
ATOM     87  C   UNL A   1      46.611  25.727  26.581  1.00  0.00    -0.014 A 
ATOM     88  C   UNL A   1      46.072  26.887  25.992  1.00  0.00     0.010 A 
ATOM     89  C   UNL A   1      47.693  25.095  25.941  1.00  0.00     0.010 A 
ATOM     90  C   UNL A   1      46.587  27.388  24.787  1.00  0.00     0.020 A 
ATOM     91  C   UNL A   1      48.222  25.599  24.749  1.00  0.00     0.020 A 
ATOM     92  C   UNL A   1      47.664  26.741  24.174  1.00  0.00     0.054 A 
BRANCH  92  93
ATOM     93  S   UNL A   1      48.371  27.430  22.650  1.00  0.00     0.124 S 
ATOM     94  O   UNL A   1      48.574  26.241  21.828  1.00  0.00    -0.237 OA
ATOM     95  O   UNL A   1      47.328  28.343  22.189  1.00  0.00    -0.237 OA
ATOM     96  O   UNL A   1      49.598  28.085  23.101  1.00  0.00    -0.744 OA
ENDBRANCH  92  93
ENDBRANCH  66  87
ENDBRANCH  40  41
ENDBRANCH  33  35
ENDBRANCH  32  33
ENDBRANCH  31  32
ENDBRANCH   1  31
TORSDOF 19
ENDMDL
