MODEL 1
REMARK VINA RESULT:      -9.6      0.000      0.000
REMARK SMILES [NH3+]C[C@H]1CC[C@@H](C(=O)N[C@H](C(=O)OCCOC(=O)c2ccc(-c3c4nc(c(-c5ccc(S(=O)(=O)[O-])cc5)c5ccc([nH]5)c(-c5ccc(S(=O)(=O)[O-])cc5)c5nc(c(-c6ccc(S(=O)(=O)[O-])cc6)c6ccc3[nH]6)C=C5)C=C4)cc2)C2CCCCC2)O1
REMARK SMILES IDX 14 1 13 2 11 3 12 4 10 5 9 6 7 7 8 8 6 10 3 11 4 12 85 13
REMARK SMILES IDX 5 14 2 15 1 16 79 20 80 21 84 22 81 23 83 24 82 25 15 26
REMARK SMILES IDX 16 27 17 28 18 29 19 30 20 31 78 32 21 33 77 34 22 35 23 36
REMARK SMILES IDX 24 37 71 38 25 39 76 40 70 41 72 42 26 43 75 44 69 45 68 46
REMARK SMILES IDX 27 48 57 49 38 50 56 51 39 52 42 53 55 54 73 55 40 56 41 57
REMARK SMILES IDX 54 59 74 60 43 61 28 62 29 63 37 64 30 65 36 66 31 67 32 68
REMARK SMILES IDX 33 69 34 70 35 71 58 72 59 73 67 74 60 75 66 76 61 77 62 78
REMARK SMILES IDX 63 79 64 80 65 81 44 82 45 83 53 84 46 85 52 86 47 87 48 88
REMARK SMILES IDX 49 89 50 90 51 91
REMARK H PARENT 9 9 1 17 1 18 1 19 72 47 42 58
REMARK Flexibility Score: inf
ROOT
ATOM      1  C   UNL A   1      34.654  30.849  27.553  1.00  0.00     0.274 C 
ENDROOT
BRANCH   1   2
ATOM      2  O   UNL A   1      35.014  31.691  28.662  1.00  0.00    -0.461 OA
BRANCH   2   3
ATOM      3  C   UNL A   1      35.773  32.784  28.395  1.00  0.00     0.329 C 
ATOM      4  O   UNL A   1      35.713  33.413  27.344  1.00  0.00    -0.250 OA
BRANCH   3   5
ATOM      5  C   UNL A   1      36.646  33.211  29.603  1.00  0.00     0.195 C 
BRANCH   5   6
ATOM      6  N   UNL A   1      36.203  32.519  30.849  1.00  0.00    -0.340 N 
ATOM      7  C   UNL A   1      35.761  32.861  32.097  1.00  0.00     0.249 C 
ATOM      8  O   UNL A   1      35.409  31.904  32.798  1.00  0.00    -0.272 OA
ATOM      9  H   UNL A   1      36.240  31.542  30.744  1.00  0.00     0.164 HD
BRANCH   7  10
ATOM     10  C   UNL A   1      35.646  34.315  32.629  1.00  0.00     0.207 C 
ATOM     11  C   UNL A   1      34.456  36.319  32.637  1.00  0.00     0.174 C 
ATOM     12  C   UNL A   1      34.308  35.779  34.036  1.00  0.00     0.041 C 
ATOM     13  O   UNL A   1      34.881  35.216  31.810  1.00  0.00    -0.359 OA
ATOM     14  C   UNL A   1      34.961  34.424  33.963  1.00  0.00     0.045 C 
BRANCH  11  15
ATOM     15  C   UNL A   1      33.229  37.044  32.068  1.00  0.00     0.291 C 
BRANCH  15  16
ATOM     16  N   UNL A   1      33.402  37.522  30.694  1.00  0.00    -0.355 N 
ATOM     17  H   UNL A   1      33.682  36.744  30.096  1.00  0.00     0.344 HD
ATOM     18  H   UNL A   1      34.124  38.242  30.674  1.00  0.00     0.344 HD
ATOM     19  H   UNL A   1      32.523  37.911  30.356  1.00  0.00     0.344 HD
ENDBRANCH  15  16
ENDBRANCH  11  15
ENDBRANCH   7  10
ENDBRANCH   5   6
BRANCH   5  20
ATOM     20  C   UNL A   1      38.191  33.290  29.451  1.00  0.00     0.023 C 
ATOM     21  C   UNL A   1      38.770  34.726  29.479  1.00  0.00     0.006 C 
ATOM     22  C   UNL A   1      38.908  32.494  30.572  1.00  0.00     0.006 C 
ATOM     23  C   UNL A   1      40.286  34.752  29.289  1.00  0.00     0.000 C 
ATOM     24  C   UNL A   1      40.433  32.512  30.425  1.00  0.00     0.000 C 
ATOM     25  C   UNL A   1      41.000  33.925  30.343  1.00  0.00     0.000 C 
ENDBRANCH   5  20
ENDBRANCH   3   5
ENDBRANCH   2   3
ENDBRANCH   1   2
BRANCH   1  26
ATOM     26  C   UNL A   1      35.170  29.425  27.815  1.00  0.00     0.275 C 
BRANCH  26  27
ATOM     27  O   UNL A   1      36.618  29.378  27.844  1.00  0.00    -0.458 OA
BRANCH  27  28
ATOM     28  C   UNL A   1      37.192  29.323  29.080  1.00  0.00     0.338 C 
ATOM     29  O   UNL A   1      36.617  29.238  30.140  1.00  0.00    -0.246 OA
BRANCH  28  30
ATOM     30  C   UNL A   1      38.666  29.191  28.940  1.00  0.00     0.060 A 
ATOM     31  C   UNL A   1      39.214  29.303  27.657  1.00  0.00     0.016 A 
ATOM     32  C   UNL A   1      39.510  28.956  30.023  1.00  0.00     0.016 A 
ATOM     33  C   UNL A   1      40.594  29.273  27.450  1.00  0.00     0.010 A 
ATOM     34  C   UNL A   1      40.896  28.862  29.811  1.00  0.00     0.010 A 
ATOM     35  C   UNL A   1      41.448  29.031  28.525  1.00  0.00    -0.014 A 
BRANCH  35  36
ATOM     36  C   UNL A   1      42.892  28.767  28.300  1.00  0.00     0.031 A 
ATOM     37  C   UNL A   1      43.855  29.911  28.395  1.00  0.00     0.074 A 
ATOM     38  C   UNL A   1      43.356  27.540  27.999  1.00  0.00     0.049 A 
ATOM     39  N   UNL A   1      45.122  29.944  28.081  1.00  0.00    -0.248 NA
ATOM     40  C   UNL A   1      43.336  31.163  28.969  1.00  0.00     0.031 C 
ATOM     41  C   UNL A   1      42.606  26.299  28.114  1.00  0.00     0.029 A 
ATOM     42  N   UNL A   1      44.569  27.139  27.496  1.00  0.00    -0.354 N 
ATOM     43  C   UNL A   1      45.566  31.200  28.465  1.00  0.00     0.074 A 
ATOM     44  C   UNL A   1      44.427  31.913  29.002  1.00  0.00     0.031 C 
ATOM     45  C   UNL A   1      43.296  25.300  27.539  1.00  0.00     0.029 A 
ATOM     46  C   UNL A   1      44.564  25.833  27.056  1.00  0.00     0.049 A 
ATOM     47  H   UNL A   1      45.360  27.723  27.453  1.00  0.00     0.167 HD
ATOM     48  C   UNL A   1      46.816  31.709  28.383  1.00  0.00     0.031 A 
ATOM     49  C   UNL A   1      45.467  25.154  26.324  1.00  0.00     0.031 A 
ATOM     50  C   UNL A   1      47.920  31.027  27.770  1.00  0.00     0.049 A 
ATOM     51  C   UNL A   1      46.766  25.831  25.985  1.00  0.00     0.074 A 
ATOM     52  C   UNL A   1      49.208  31.483  27.561  1.00  0.00     0.029 A 
ATOM     53  N   UNL A   1      47.852  29.748  27.237  1.00  0.00    -0.354 N 
ATOM     54  N   UNL A   1      47.175  27.029  26.331  1.00  0.00    -0.248 NA
ATOM     55  C   UNL A   1      47.736  25.066  25.191  1.00  0.00     0.031 C 
ATOM     56  C   UNL A   1      49.905  30.497  26.852  1.00  0.00     0.029 A 
ATOM     57  C   UNL A   1      49.065  29.410  26.665  1.00  0.00     0.049 A 
ATOM     58  H   UNL A   1      47.058  29.166  27.264  1.00  0.00     0.167 HD
ATOM     59  C   UNL A   1      48.475  27.136  25.855  1.00  0.00     0.074 A 
ATOM     60  C   UNL A   1      48.774  25.895  25.170  1.00  0.00     0.031 C 
ATOM     61  C   UNL A   1      49.348  28.163  25.999  1.00  0.00     0.031 A 
BRANCH  48  62
ATOM     62  C   UNL A   1      47.007  33.095  28.922  1.00  0.00    -0.014 A 
ATOM     63  C   UNL A   1      47.481  33.300  30.231  1.00  0.00     0.010 A 
ATOM     64  C   UNL A   1      46.659  34.204  28.132  1.00  0.00     0.010 A 
ATOM     65  C   UNL A   1      47.553  34.591  30.759  1.00  0.00     0.020 A 
ATOM     66  C   UNL A   1      46.745  35.497  28.651  1.00  0.00     0.020 A 
ATOM     67  C   UNL A   1      47.169  35.679  29.970  1.00  0.00     0.054 A 
BRANCH  67  68
ATOM     68  S   UNL A   1      47.226  37.343  30.691  1.00  0.00     0.124 S 
ATOM     69  O   UNL A   1      46.368  38.094  29.778  1.00  0.00    -0.237 OA
ATOM     70  O   UNL A   1      46.686  37.132  32.032  1.00  0.00    -0.237 OA
ATOM     71  O   UNL A   1      48.644  37.690  30.642  1.00  0.00    -0.744 OA
ENDBRANCH  67  68
ENDBRANCH  48  62
BRANCH  49  72
ATOM     72  C   UNL A   1      45.167  23.780  25.837  1.00  0.00    -0.014 A 
ATOM     73  C   UNL A   1      45.587  22.647  26.553  1.00  0.00     0.010 A 
ATOM     74  C   UNL A   1      44.474  23.601  24.624  1.00  0.00     0.010 A 
ATOM     75  C   UNL A   1      45.350  21.362  26.052  1.00  0.00     0.020 A 
ATOM     76  C   UNL A   1      44.219  22.318  24.127  1.00  0.00     0.020 A 
ATOM     77  C   UNL A   1      44.674  21.207  24.837  1.00  0.00     0.054 A 
BRANCH  77  78
ATOM     78  S   UNL A   1      44.388  19.529  24.202  1.00  0.00     0.124 S 
ATOM     79  O   UNL A   1      44.392  19.746  22.760  1.00  0.00    -0.237 OA
ATOM     80  O   UNL A   1      45.530  18.790  24.734  1.00  0.00    -0.237 OA
ATOM     81  O   UNL A   1      43.094  19.161  24.774  1.00  0.00    -0.744 OA
ENDBRANCH  77  78
ENDBRANCH  49  72
BRANCH  61  82
ATOM     82  C   UNL A   1      50.736  27.973  25.458  1.00  0.00    -0.014 A 
ATOM     83  C   UNL A   1      51.738  27.359  26.225  1.00  0.00     0.010 A 
ATOM     84  C   UNL A   1      51.006  28.333  24.124  1.00  0.00     0.010 A 
ATOM     85  C   UNL A   1      52.993  27.106  25.665  1.00  0.00     0.020 A 
ATOM     86  C   UNL A   1      52.250  28.062  23.556  1.00  0.00     0.020 A 
ATOM     87  C   UNL A   1      53.239  27.453  24.332  1.00  0.00     0.054 A 
BRANCH  87  88
ATOM     88  S   UNL A   1      54.841  27.025  23.596  1.00  0.00     0.124 S 
ATOM     89  O   UNL A   1      54.445  26.486  22.299  1.00  0.00    -0.237 OA
ATOM     90  O   UNL A   1      55.532  28.312  23.558  1.00  0.00    -0.237 OA
ATOM     91  O   UNL A   1      55.402  26.053  24.532  1.00  0.00    -0.744 OA
ENDBRANCH  87  88
ENDBRANCH  61  82
ENDBRANCH  35  36
ENDBRANCH  28  30
ENDBRANCH  27  28
ENDBRANCH  26  27
ENDBRANCH   1  26
TORSDOF 19
ENDMDL
MODEL 2
REMARK VINA RESULT:      -9.5      5.941     11.611
REMARK SMILES [NH3+]C[C@H]1CC[C@@H](C(=O)N[C@H](C(=O)OCCOC(=O)c2ccc(-c3c4nc(c(-c5ccc(S(=O)(=O)[O-])cc5)c5ccc([nH]5)c(-c5ccc(S(=O)(=O)[O-])cc5)c5nc(c(-c6ccc(S(=O)(=O)[O-])cc6)c6ccc3[nH]6)C=C5)C=C4)cc2)C2CCCCC2)O1
REMARK SMILES IDX 14 1 13 2 11 3 12 4 10 5 9 6 7 7 8 8 6 10 3 11 4 12 85 13
REMARK SMILES IDX 5 14 2 15 1 16 79 20 80 21 84 22 81 23 83 24 82 25 15 26
REMARK SMILES IDX 16 27 17 28 18 29 19 30 20 31 78 32 21 33 77 34 22 35 23 36
REMARK SMILES IDX 24 37 71 38 25 39 76 40 70 41 72 42 26 43 75 44 69 45 68 46
REMARK SMILES IDX 27 48 57 49 38 50 56 51 39 52 42 53 55 54 73 55 40 56 41 57
REMARK SMILES IDX 54 59 74 60 43 61 28 62 29 63 37 64 30 65 36 66 31 67 32 68
REMARK SMILES IDX 33 69 34 70 35 71 58 72 59 73 67 74 60 75 66 76 61 77 62 78
REMARK SMILES IDX 63 79 64 80 65 81 44 82 45 83 53 84 46 85 52 86 47 87 48 88
REMARK SMILES IDX 49 89 50 90 51 91
REMARK H PARENT 9 9 1 17 1 18 1 19 72 47 42 58
REMARK Flexibility Score: inf
ROOT
ATOM      1  C   UNL A   1      31.463  28.046  27.598  1.00  0.00     0.274 C 
ENDROOT
BRANCH   1   2
ATOM      2  O   UNL A   1      32.057  26.969  26.852  1.00  0.00    -0.461 OA
BRANCH   2   3
ATOM      3  C   UNL A   1      31.226  26.189  26.116  1.00  0.00     0.329 C 
ATOM      4  O   UNL A   1      30.107  25.849  26.485  1.00  0.00    -0.250 OA
BRANCH   3   5
ATOM      5  C   UNL A   1      31.804  25.862  24.715  1.00  0.00     0.195 C 
BRANCH   5   6
ATOM      6  N   UNL A   1      32.308  27.097  24.046  1.00  0.00    -0.340 N 
ATOM      7  C   UNL A   1      31.823  28.323  23.682  1.00  0.00     0.249 C 
ATOM      8  O   UNL A   1      32.672  29.092  23.211  1.00  0.00    -0.272 OA
ATOM      9  H   UNL A   1      33.255  27.004  23.796  1.00  0.00     0.164 HD
BRANCH   7  10
ATOM     10  C   UNL A   1      30.352  28.783  23.861  1.00  0.00     0.207 C 
ATOM     11  C   UNL A   1      28.624  30.173  23.145  1.00  0.00     0.174 C 
ATOM     12  C   UNL A   1      28.162  28.779  22.804  1.00  0.00     0.041 C 
ATOM     13  O   UNL A   1      30.048  30.096  23.361  1.00  0.00    -0.359 OA
ATOM     14  C   UNL A   1      29.351  27.920  23.144  1.00  0.00     0.045 C 
BRANCH  11  15
ATOM     15  C   UNL A   1      28.237  31.269  22.141  1.00  0.00     0.291 C 
BRANCH  15  16
ATOM     16  N   UNL A   1      29.208  32.361  22.048  1.00  0.00    -0.355 N 
ATOM     17  H   UNL A   1      29.860  32.306  22.832  1.00  0.00     0.344 HD
ATOM     18  H   UNL A   1      28.717  33.255  22.077  1.00  0.00     0.344 HD
ATOM     19  H   UNL A   1      29.724  32.285  21.172  1.00  0.00     0.344 HD
ENDBRANCH  15  16
ENDBRANCH  11  15
ENDBRANCH   7  10
ENDBRANCH   5   6
BRANCH   5  20
ATOM     20  C   UNL A   1      32.737  24.631  24.532  1.00  0.00     0.023 C 
ATOM     21  C   UNL A   1      32.532  23.857  23.207  1.00  0.00     0.006 C 
ATOM     22  C   UNL A   1      34.231  25.045  24.585  1.00  0.00     0.006 C 
ATOM     23  C   UNL A   1      33.446  22.638  23.093  1.00  0.00     0.000 C 
ATOM     24  C   UNL A   1      35.178  23.849  24.455  1.00  0.00     0.000 C 
ATOM     25  C   UNL A   1      34.911  23.018  23.205  1.00  0.00     0.000 C 
ENDBRANCH   5  20
ENDBRANCH   3   5
ENDBRANCH   2   3
ENDBRANCH   1   2
BRANCH   1  26
ATOM     26  C   UNL A   1      32.150  29.366  27.210  1.00  0.00     0.275 C 
BRANCH  26  27
ATOM     27  O   UNL A   1      33.593  29.255  27.272  1.00  0.00    -0.458 OA
BRANCH  27  28
ATOM     28  C   UNL A   1      34.278  30.422  27.445  1.00  0.00     0.338 C 
ATOM     29  O   UNL A   1      33.836  31.542  27.328  1.00  0.00    -0.246 OA
BRANCH  28  30
ATOM     30  C   UNL A   1      35.630  30.131  27.990  1.00  0.00     0.060 A 
ATOM     31  C   UNL A   1      35.720  29.704  29.319  1.00  0.00     0.016 A 
ATOM     32  C   UNL A   1      36.794  30.273  27.238  1.00  0.00     0.016 A 
ATOM     33  C   UNL A   1      36.943  29.333  29.882  1.00  0.00     0.010 A 
ATOM     34  C   UNL A   1      38.034  29.960  27.821  1.00  0.00     0.010 A 
ATOM     35  C   UNL A   1      38.116  29.477  29.143  1.00  0.00    -0.014 A 
BRANCH  35  36
ATOM     36  C   UNL A   1      39.443  29.309  29.788  1.00  0.00     0.031 A 
ATOM     37  C   UNL A   1      40.284  28.131  29.403  1.00  0.00     0.074 A 
ATOM     38  C   UNL A   1      39.902  30.170  30.714  1.00  0.00     0.049 A 
ATOM     39  N   UNL A   1      41.390  27.701  29.948  1.00  0.00    -0.248 NA
ATOM     40  C   UNL A   1      39.853  27.372  28.217  1.00  0.00     0.031 C 
ATOM     41  C   UNL A   1      39.334  31.476  31.012  1.00  0.00     0.029 A 
ATOM     42  N   UNL A   1      40.938  30.058  31.608  1.00  0.00    -0.354 N 
ATOM     43  C   UNL A   1      41.816  26.653  29.145  1.00  0.00     0.074 A 
ATOM     44  C   UNL A   1      40.833  26.489  28.096  1.00  0.00     0.031 C 
ATOM     45  C   UNL A   1      39.905  31.974  32.121  1.00  0.00     0.029 A 
ATOM     46  C   UNL A   1      40.916  31.031  32.583  1.00  0.00     0.049 A 
ATOM     47  H   UNL A   1      41.624  29.354  31.559  1.00  0.00     0.167 HD
ATOM     48  C   UNL A   1      42.933  25.903  29.269  1.00  0.00     0.031 A 
ATOM     49  C   UNL A   1      41.614  31.136  33.729  1.00  0.00     0.031 A 
ATOM     50  C   UNL A   1      43.858  26.016  30.361  1.00  0.00     0.049 A 
ATOM     51  C   UNL A   1      42.686  30.119  34.008  1.00  0.00     0.074 A 
ATOM     52  C   UNL A   1      44.978  25.250  30.626  1.00  0.00     0.029 A 
ATOM     53  N   UNL A   1      43.747  26.941  31.388  1.00  0.00    -0.354 N 
ATOM     54  N   UNL A   1      43.072  29.115  33.256  1.00  0.00    -0.248 NA
ATOM     55  C   UNL A   1      43.436  30.259  35.262  1.00  0.00     0.031 C 
ATOM     56  C   UNL A   1      45.514  25.679  31.847  1.00  0.00     0.029 A 
ATOM     57  C   UNL A   1      44.757  26.743  32.312  1.00  0.00     0.049 A 
ATOM     58  H   UNL A   1      43.052  27.636  31.450  1.00  0.00     0.167 HD
ATOM     59  C   UNL A   1      44.154  28.545  33.914  1.00  0.00     0.074 A 
ATOM     60  C   UNL A   1      44.342  29.295  35.140  1.00  0.00     0.031 C 
ATOM     61  C   UNL A   1      44.935  27.510  33.521  1.00  0.00     0.031 A 
BRANCH  48  62
ATOM     62  C   UNL A   1      43.155  24.859  28.215  1.00  0.00    -0.014 A 
ATOM     63  C   UNL A   1      42.637  23.559  28.370  1.00  0.00     0.010 A 
ATOM     64  C   UNL A   1      43.934  25.162  27.086  1.00  0.00     0.010 A 
ATOM     65  C   UNL A   1      42.941  22.566  27.436  1.00  0.00     0.020 A 
ATOM     66  C   UNL A   1      44.225  24.176  26.142  1.00  0.00     0.020 A 
ATOM     67  C   UNL A   1      43.746  22.878  26.337  1.00  0.00     0.054 A 
BRANCH  67  68
ATOM     68  S   UNL A   1      44.165  21.561  25.161  1.00  0.00     0.124 S 
ATOM     69  O   UNL A   1      43.968  22.233  23.878  1.00  0.00    -0.237 OA
ATOM     70  O   UNL A   1      45.550  21.252  25.502  1.00  0.00    -0.237 OA
ATOM     71  O   UNL A   1      43.201  20.507  25.466  1.00  0.00    -0.744 OA
ENDBRANCH  67  68
ENDBRANCH  48  62
BRANCH  49  72
ATOM     72  C   UNL A   1      41.304  32.213  34.708  1.00  0.00    -0.014 A 
ATOM     73  C   UNL A   1      42.011  33.427  34.700  1.00  0.00     0.010 A 
ATOM     74  C   UNL A   1      40.306  32.012  35.680  1.00  0.00     0.010 A 
ATOM     75  C   UNL A   1      41.750  34.407  35.665  1.00  0.00     0.020 A 
ATOM     76  C   UNL A   1      40.028  32.996  36.636  1.00  0.00     0.020 A 
ATOM     77  C   UNL A   1      40.765  34.181  36.632  1.00  0.00     0.054 A 
BRANCH  77  78
ATOM     78  S   UNL A   1      40.451  35.464  37.879  1.00  0.00     0.124 S 
ATOM     79  O   UNL A   1      39.790  36.498  37.090  1.00  0.00    -0.237 OA
ATOM     80  O   UNL A   1      39.605  34.767  38.844  1.00  0.00    -0.237 OA
ATOM     81  O   UNL A   1      41.787  35.806  38.363  1.00  0.00    -0.744 OA
ENDBRANCH  77  78
ENDBRANCH  49  72
BRANCH  61  82
ATOM     82  C   UNL A   1      46.108  27.157  34.390  1.00  0.00    -0.014 A 
ATOM     83  C   UNL A   1      47.346  27.800  34.238  1.00  0.00     0.010 A 
ATOM     84  C   UNL A   1      45.930  26.233  35.437  1.00  0.00     0.010 A 
ATOM     85  C   UNL A   1      48.392  27.523  35.122  1.00  0.00     0.020 A 
ATOM     86  C   UNL A   1      46.965  25.972  36.334  1.00  0.00     0.020 A 
ATOM     87  C   UNL A   1      48.193  26.617  36.168  1.00  0.00     0.054 A 
BRANCH  87  88
ATOM     88  S   UNL A   1      49.531  26.349  37.363  1.00  0.00     0.124 S 
ATOM     89  O   UNL A   1      50.535  25.671  36.548  1.00  0.00    -0.237 OA
ATOM     90  O   UNL A   1      49.870  27.708  37.777  1.00  0.00    -0.237 OA
ATOM     91  O   UNL A   1      48.910  25.528  38.400  1.00  0.00    -0.744 OA
ENDBRANCH  87  88
ENDBRANCH  61  82
ENDBRANCH  35  36
ENDBRANCH  28  30
ENDBRANCH  27  28
ENDBRANCH  26  27
ENDBRANCH   1  26
TORSDOF 19
ENDMDL
MODEL 3
REMARK VINA RESULT:      -9.4      4.456      6.746
REMARK SMILES [NH3+]C[C@H]1CC[C@@H](C(=O)N[C@H](C(=O)OCCOC(=O)c2ccc(-c3c4nc(c(-c5ccc(S(=O)(=O)[O-])cc5)c5ccc([nH]5)c(-c5ccc(S(=O)(=O)[O-])cc5)c5nc(c(-c6ccc(S(=O)(=O)[O-])cc6)c6ccc3[nH]6)C=C5)C=C4)cc2)C2CCCCC2)O1
REMARK SMILES IDX 14 1 13 2 11 3 12 4 10 5 9 6 7 7 8 8 6 10 3 11 4 12 85 13
REMARK SMILES IDX 5 14 2 15 1 16 79 20 80 21 84 22 81 23 83 24 82 25 15 26
REMARK SMILES IDX 16 27 17 28 18 29 19 30 20 31 78 32 21 33 77 34 22 35 23 36
REMARK SMILES IDX 24 37 71 38 25 39 76 40 70 41 72 42 26 43 75 44 69 45 68 46
REMARK SMILES IDX 27 48 57 49 38 50 56 51 39 52 42 53 55 54 73 55 40 56 41 57
REMARK SMILES IDX 54 59 74 60 43 61 28 62 29 63 37 64 30 65 36 66 31 67 32 68
REMARK SMILES IDX 33 69 34 70 35 71 58 72 59 73 67 74 60 75 66 76 61 77 62 78
REMARK SMILES IDX 63 79 64 80 65 81 44 82 45 83 53 84 46 85 52 86 47 87 48 88
REMARK SMILES IDX 49 89 50 90 51 91
REMARK H PARENT 9 9 1 17 1 18 1 19 72 47 42 58
REMARK Flexibility Score: inf
ROOT
ATOM      1  C   UNL A   1      31.664  28.114  27.595  1.00  0.00     0.274 C 
ENDROOT
BRANCH   1   2
ATOM      2  O   UNL A   1      32.191  26.951  26.932  1.00  0.00    -0.461 OA
BRANCH   2   3
ATOM      3  C   UNL A   1      31.329  26.216  26.184  1.00  0.00     0.329 C 
ATOM      4  O   UNL A   1      30.208  25.891  26.561  1.00  0.00    -0.250 OA
BRANCH   3   5
ATOM      5  C   UNL A   1      31.877  25.923  24.764  1.00  0.00     0.195 C 
BRANCH   5   6
ATOM      6  N   UNL A   1      32.343  27.178  24.104  1.00  0.00    -0.340 N 
ATOM      7  C   UNL A   1      31.818  28.383  23.732  1.00  0.00     0.249 C 
ATOM      8  O   UNL A   1      32.643  29.185  23.276  1.00  0.00    -0.272 OA
ATOM      9  H   UNL A   1      33.297  27.122  23.871  1.00  0.00     0.164 HD
BRANCH   7  10
ATOM     10  C   UNL A   1      30.326  28.786  23.885  1.00  0.00     0.207 C 
ATOM     11  C   UNL A   1      28.624  30.278  23.332  1.00  0.00     0.174 C 
ATOM     12  C   UNL A   1      28.223  28.979  22.681  1.00  0.00     0.041 C 
ATOM     13  O   UNL A   1      30.029  30.171  23.639  1.00  0.00    -0.359 OA
ATOM     14  C   UNL A   1      29.403  28.078  22.933  1.00  0.00     0.045 C 
BRANCH  11  15
ATOM     15  C   UNL A   1      28.287  31.552  22.543  1.00  0.00     0.291 C 
BRANCH  15  16
ATOM     16  N   UNL A   1      29.425  32.455  22.356  1.00  0.00    -0.355 N 
ATOM     17  H   UNL A   1      30.279  31.908  22.240  1.00  0.00     0.344 HD
ATOM     18  H   UNL A   1      29.517  33.058  23.174  1.00  0.00     0.344 HD
ATOM     19  H   UNL A   1      29.273  33.027  21.526  1.00  0.00     0.344 HD
ENDBRANCH  15  16
ENDBRANCH  11  15
ENDBRANCH   7  10
ENDBRANCH   5   6
BRANCH   5  20
ATOM     20  C   UNL A   1      32.824  24.711  24.536  1.00  0.00     0.023 C 
ATOM     21  C   UNL A   1      32.918  24.233  23.066  1.00  0.00     0.006 C 
ATOM     22  C   UNL A   1      34.269  25.032  24.998  1.00  0.00     0.006 C 
ATOM     23  C   UNL A   1      33.832  23.019  22.902  1.00  0.00     0.000 C 
ATOM     24  C   UNL A   1      35.219  23.842  24.831  1.00  0.00     0.000 C 
ATOM     25  C   UNL A   1      35.235  23.297  23.407  1.00  0.00     0.000 C 
ENDBRANCH   5  20
ENDBRANCH   3   5
ENDBRANCH   2   3
ENDBRANCH   1   2
BRANCH   1  26
ATOM     26  C   UNL A   1      32.491  29.344  27.187  1.00  0.00     0.275 C 
BRANCH  26  27
ATOM     27  O   UNL A   1      33.888  29.187  27.535  1.00  0.00    -0.458 OA
BRANCH  27  28
ATOM     28  C   UNL A   1      34.625  30.334  27.596  1.00  0.00     0.338 C 
ATOM     29  O   UNL A   1      34.221  31.461  27.425  1.00  0.00    -0.246 OA
BRANCH  28  30
ATOM     30  C   UNL A   1      35.990  30.024  28.096  1.00  0.00     0.060 A 
ATOM     31  C   UNL A   1      37.053  30.109  27.188  1.00  0.00     0.016 A 
ATOM     32  C   UNL A   1      36.246  29.653  29.414  1.00  0.00     0.016 A 
ATOM     33  C   UNL A   1      38.374  29.914  27.597  1.00  0.00     0.010 A 
ATOM     34  C   UNL A   1      37.568  29.395  29.814  1.00  0.00     0.010 A 
ATOM     35  C   UNL A   1      38.642  29.535  28.911  1.00  0.00    -0.014 A 
BRANCH  35  36
ATOM     36  C   UNL A   1      40.005  29.102  29.311  1.00  0.00     0.031 A 
ATOM     37  C   UNL A   1      40.963  30.131  29.827  1.00  0.00     0.074 A 
ATOM     38  C   UNL A   1      40.407  27.822  29.208  1.00  0.00     0.049 A 
ATOM     39  N   UNL A   1      42.239  30.010  30.079  1.00  0.00    -0.248 NA
ATOM     40  C   UNL A   1      40.399  31.450  30.156  1.00  0.00     0.031 C 
ATOM     41  C   UNL A   1      39.541  26.678  28.969  1.00  0.00     0.029 A 
ATOM     42  N   UNL A   1      41.664  27.270  29.254  1.00  0.00    -0.354 N 
ATOM     43  C   UNL A   1      42.622  31.218  30.641  1.00  0.00     0.074 A 
ATOM     44  C   UNL A   1      41.454  32.071  30.662  1.00  0.00     0.031 C 
ATOM     45  C   UNL A   1      40.288  25.591  28.717  1.00  0.00     0.029 A 
ATOM     46  C   UNL A   1      41.693  25.961  28.825  1.00  0.00     0.049 A 
ATOM     47  H   UNL A   1      42.461  27.759  29.562  1.00  0.00     0.167 HD
ATOM     48  C   UNL A   1      43.839  31.578  31.105  1.00  0.00     0.031 A 
ATOM     49  C   UNL A   1      42.736  25.162  28.529  1.00  0.00     0.031 A 
ATOM     50  C   UNL A   1      45.012  30.758  31.000  1.00  0.00     0.049 A 
ATOM     51  C   UNL A   1      44.125  25.677  28.784  1.00  0.00     0.074 A 
ATOM     52  C   UNL A   1      46.311  31.058  31.365  1.00  0.00     0.029 A 
ATOM     53  N   UNL A   1      45.027  29.479  30.462  1.00  0.00    -0.354 N 
ATOM     54  N   UNL A   1      44.486  26.830  29.296  1.00  0.00    -0.248 NA
ATOM     55  C   UNL A   1      45.244  24.783  28.458  1.00  0.00     0.031 C 
ATOM     56  C   UNL A   1      47.123  29.978  30.994  1.00  0.00     0.029 A 
ATOM     57  C   UNL A   1      46.321  28.989  30.448  1.00  0.00     0.049 A 
ATOM     58  H   UNL A   1      44.235  28.993  30.138  1.00  0.00     0.167 HD
ATOM     59  C   UNL A   1      45.869  26.774  29.415  1.00  0.00     0.074 A 
ATOM     60  C   UNL A   1      46.282  25.487  28.894  1.00  0.00     0.031 C 
ATOM     61  C   UNL A   1      46.711  27.698  29.936  1.00  0.00     0.031 A 
BRANCH  48  62
ATOM     62  C   UNL A   1      43.945  32.949  31.704  1.00  0.00    -0.014 A 
ATOM     63  C   UNL A   1      44.318  34.053  30.915  1.00  0.00     0.010 A 
ATOM     64  C   UNL A   1      43.724  33.127  33.080  1.00  0.00     0.010 A 
ATOM     65  C   UNL A   1      44.519  35.303  31.504  1.00  0.00     0.020 A 
ATOM     66  C   UNL A   1      43.908  34.380  33.670  1.00  0.00     0.020 A 
ATOM     67  C   UNL A   1      44.328  35.454  32.881  1.00  0.00     0.054 A 
BRANCH  67  68
ATOM     68  S   UNL A   1      44.638  37.075  33.632  1.00  0.00     0.124 S 
ATOM     69  O   UNL A   1      44.157  37.983  32.594  1.00  0.00    -0.237 OA
ATOM     70  O   UNL A   1      43.831  37.027  34.848  1.00  0.00    -0.237 OA
ATOM     71  O   UNL A   1      46.083  37.084  33.847  1.00  0.00    -0.744 OA
ENDBRANCH  67  68
ENDBRANCH  48  62
BRANCH  49  72
ATOM     72  C   UNL A   1      42.513  23.818  27.931  1.00  0.00    -0.014 A 
ATOM     73  C   UNL A   1      42.436  22.668  28.735  1.00  0.00     0.010 A 
ATOM     74  C   UNL A   1      42.401  23.681  26.534  1.00  0.00     0.010 A 
ATOM     75  C   UNL A   1      42.287  21.404  28.154  1.00  0.00     0.020 A 
ATOM     76  C   UNL A   1      42.232  22.421  25.949  1.00  0.00     0.020 A 
ATOM     77  C   UNL A   1      42.194  21.288  26.763  1.00  0.00     0.054 A 
BRANCH  77  78
ATOM     78  S   UNL A   1      42.009  19.635  26.032  1.00  0.00     0.124 S 
ATOM     79  O   UNL A   1      40.593  19.616  25.681  1.00  0.00    -0.237 OA
ATOM     80  O   UNL A   1      42.939  19.681  24.907  1.00  0.00    -0.237 OA
ATOM     81  O   UNL A   1      42.396  18.735  27.117  1.00  0.00    -0.744 OA
ENDBRANCH  77  78
ENDBRANCH  49  72
BRANCH  61  82
ATOM     82  C   UNL A   1      48.166  27.336  30.028  1.00  0.00    -0.014 A 
ATOM     83  C   UNL A   1      49.073  27.708  29.023  1.00  0.00     0.010 A 
ATOM     84  C   UNL A   1      48.640  26.698  31.189  1.00  0.00     0.010 A 
ATOM     85  C   UNL A   1      50.437  27.445  29.178  1.00  0.00     0.020 A 
ATOM     86  C   UNL A   1      50.003  26.453  31.356  1.00  0.00     0.020 A 
ATOM     87  C   UNL A   1      50.894  26.826  30.347  1.00  0.00     0.054 A 
BRANCH  87  88
ATOM     88  S   UNL A   1      52.678  26.585  30.571  1.00  0.00     0.124 S 
ATOM     89  O   UNL A   1      52.719  25.591  31.638  1.00  0.00    -0.237 OA
ATOM     90  O   UNL A   1      53.107  26.115  29.256  1.00  0.00    -0.237 OA
ATOM     91  O   UNL A   1      53.162  27.915  30.937  1.00  0.00    -0.744 OA
ENDBRANCH  87  88
ENDBRANCH  61  82
ENDBRANCH  35  36
ENDBRANCH  28  30
ENDBRANCH  27  28
ENDBRANCH  26  27
ENDBRANCH   1  26
TORSDOF 19
ENDMDL
