MODEL 1
REMARK VINA RESULT:      -9.4      0.000      0.000
REMARK SMILES CCN(C(=O)C[NH2+][C@@](C)(C(=O)OCCOC(=O)c1ccc(-c2c3nc(c(-c4ccc(S(=O)(=O)[O-])cc4)c4ccc([nH]4)c(-c4ccc(S(=O)(=O)[O-])cc4)c4nc(c(-c5ccc(S(=O)(=O)[O-])cc5)c5ccc2[nH]5)C=C4)C=C3)cc1)C(F)(F)F)C1CC1
REMARK SMILES IDX 13 1 12 2 10 3 11 4 8 5 9 6 7 7 6 10 4 11 5 12 3 13 2 14
REMARK SMILES IDX 1 15 82 16 83 17 84 18 78 19 79 20 80 21 81 22 14 23 15 24
REMARK SMILES IDX 16 25 17 26 18 27 19 28 77 29 20 30 76 31 21 32 22 33 23 34
REMARK SMILES IDX 70 35 24 36 75 37 69 38 71 39 25 40 74 41 68 42 67 43 26 45
REMARK SMILES IDX 56 46 37 47 55 48 38 49 41 50 54 51 72 52 39 53 40 54 53 56
REMARK SMILES IDX 73 57 42 58 27 59 28 60 36 61 29 62 35 63 30 64 31 65 32 66
REMARK SMILES IDX 33 67 34 68 57 69 58 70 66 71 59 72 65 73 60 74 61 75 62 76
REMARK SMILES IDX 63 77 64 78 43 79 44 80 52 81 45 82 51 83 46 84 47 85 48 86
REMARK SMILES IDX 49 87 50 88
REMARK H PARENT 7 8 7 9 71 44 41 55
REMARK Flexibility Score: inf
ROOT
ATOM      1  C   UNL A   1      31.827  29.639  25.633  1.00  0.00     0.274 C 
ENDROOT
BRANCH   1   2
ATOM      2  O   UNL A   1      31.416  28.257  25.549  1.00  0.00    -0.457 OA
BRANCH   2   3
ATOM      3  C   UNL A   1      31.165  27.777  24.291  1.00  0.00     0.377 C 
ATOM      4  O   UNL A   1      30.326  28.269  23.545  1.00  0.00    -0.244 OA
BRANCH   3   5
ATOM      5  C   UNL A   1      31.927  26.470  24.000  1.00  0.00     0.287 C 
ATOM      6  C   UNL A   1      31.433  26.013  22.617  1.00  0.00     0.103 C 
BRANCH   5   7
ATOM      7  N   UNL A   1      31.576  25.434  25.047  1.00  0.00    -0.317 N 
ATOM      8  H   UNL A   1      32.390  25.292  25.647  1.00  0.00     0.347 HD
ATOM      9  H   UNL A   1      30.772  25.790  25.564  1.00  0.00     0.347 HD
BRANCH   7  10
ATOM     10  C   UNL A   1      31.184  24.134  24.480  1.00  0.00     0.363 C 
BRANCH  10  11
ATOM     11  C   UNL A   1      31.769  22.978  25.299  1.00  0.00     0.277 C 
ATOM     12  O   UNL A   1      30.998  22.143  25.785  1.00  0.00    -0.268 OA
BRANCH  11  13
ATOM     13  N   UNL A   1      33.156  22.889  25.437  1.00  0.00    -0.335 N 
BRANCH  13  14
ATOM     14  C   UNL A   1      33.905  23.423  26.584  1.00  0.00     0.116 C 
ATOM     15  C   UNL A   1      34.029  22.404  27.708  1.00  0.00     0.027 C 
ENDBRANCH  13  14
BRANCH  13  16
ATOM     16  C   UNL A   1      33.887  22.138  24.431  1.00  0.00     0.085 C 
ATOM     17  C   UNL A   1      34.504  22.884  23.272  1.00  0.00     0.027 C 
ATOM     18  C   UNL A   1      35.381  22.138  24.230  1.00  0.00     0.027 C 
ENDBRANCH  13  16
ENDBRANCH  11  13
ENDBRANCH  10  11
ENDBRANCH   7  10
ENDBRANCH   5   7
BRANCH   5  19
ATOM     19  C   UNL A   1      33.428  26.849  23.902  1.00  0.00     0.455 C 
ATOM     20  F   UNL A   1      34.037  26.789  25.108  1.00  0.00    -0.164 F 
ATOM     21  F   UNL A   1      34.083  25.964  23.101  1.00  0.00    -0.164 F 
ATOM     22  F   UNL A   1      33.661  28.066  23.375  1.00  0.00    -0.164 F 
ENDBRANCH   5  19
ENDBRANCH   3   5
ENDBRANCH   2   3
ENDBRANCH   1   2
BRANCH   1  23
ATOM     23  C   UNL A   1      32.225  30.006  27.058  1.00  0.00     0.275 C 
BRANCH  23  24
ATOM     24  O   UNL A   1      33.614  29.697  27.258  1.00  0.00    -0.458 OA
BRANCH  24  25
ATOM     25  C   UNL A   1      34.322  30.603  27.967  1.00  0.00     0.338 C 
ATOM     26  O   UNL A   1      33.942  31.704  28.345  1.00  0.00    -0.246 OA
BRANCH  25  27
ATOM     27  C   UNL A   1      35.676  30.090  28.221  1.00  0.00     0.060 A 
ATOM     28  C   UNL A   1      36.047  29.662  29.496  1.00  0.00     0.016 A 
ATOM     29  C   UNL A   1      36.618  30.123  27.194  1.00  0.00     0.016 A 
ATOM     30  C   UNL A   1      37.378  29.346  29.769  1.00  0.00     0.010 A 
ATOM     31  C   UNL A   1      37.929  29.711  27.446  1.00  0.00     0.010 A 
ATOM     32  C   UNL A   1      38.331  29.347  28.743  1.00  0.00    -0.014 A 
BRANCH  32  33
ATOM     33  C   UNL A   1      39.750  28.984  29.009  1.00  0.00     0.031 A 
ATOM     34  C   UNL A   1      40.694  30.011  29.578  1.00  0.00     0.074 A 
ATOM     35  C   UNL A   1      40.206  27.750  28.718  1.00  0.00     0.049 A 
ATOM     36  N   UNL A   1      42.000  29.978  29.658  1.00  0.00    -0.248 NA
ATOM     37  C   UNL A   1      40.091  31.242  30.114  1.00  0.00     0.031 C 
ATOM     38  C   UNL A   1      39.395  26.639  28.213  1.00  0.00     0.029 A 
ATOM     39  N   UNL A   1      41.471  27.222  28.800  1.00  0.00    -0.354 N 
ATOM     40  C   UNL A   1      42.378  31.205  30.192  1.00  0.00     0.074 A 
ATOM     41  C   UNL A   1      41.164  31.956  30.428  1.00  0.00     0.031 C 
ATOM     42  C   UNL A   1      40.174  25.558  28.059  1.00  0.00     0.029 A 
ATOM     43  C   UNL A   1      41.554  25.921  28.365  1.00  0.00     0.049 A 
ATOM     44  H   UNL A   1      42.245  27.728  29.139  1.00  0.00     0.167 HD
ATOM     45  C   UNL A   1      43.626  31.665  30.450  1.00  0.00     0.031 A 
ATOM     46  C   UNL A   1      42.620  25.120  28.179  1.00  0.00     0.031 A 
ATOM     47  C   UNL A   1      44.827  30.899  30.248  1.00  0.00     0.049 A 
ATOM     48  C   UNL A   1      43.996  25.659  28.443  1.00  0.00     0.074 A 
ATOM     49  C   UNL A   1      46.139  31.277  30.475  1.00  0.00     0.029 A 
ATOM     50  N   UNL A   1      44.860  29.592  29.789  1.00  0.00    -0.354 N 
ATOM     51  N   UNL A   1      44.342  26.848  28.875  1.00  0.00    -0.248 NA
ATOM     52  C   UNL A   1      45.125  24.759  28.173  1.00  0.00     0.031 C 
ATOM     53  C   UNL A   1      46.969  30.206  30.125  1.00  0.00     0.029 A 
ATOM     54  C   UNL A   1      46.171  29.149  29.717  1.00  0.00     0.049 A 
ATOM     55  H   UNL A   1      44.070  29.057  29.549  1.00  0.00     0.167 HD
ATOM     56  C   UNL A   1      45.731  26.839  28.930  1.00  0.00     0.074 A 
ATOM     57  C   UNL A   1      46.159  25.520  28.508  1.00  0.00     0.031 C 
ATOM     58  C   UNL A   1      46.575  27.835  29.292  1.00  0.00     0.031 A 
BRANCH  45  59
ATOM     59  C   UNL A   1      43.757  33.085  30.933  1.00  0.00    -0.014 A 
ATOM     60  C   UNL A   1      43.755  33.399  32.302  1.00  0.00     0.010 A 
ATOM     61  C   UNL A   1      43.914  34.120  29.991  1.00  0.00     0.010 A 
ATOM     62  C   UNL A   1      43.869  34.729  32.722  1.00  0.00     0.020 A 
ATOM     63  C   UNL A   1      44.049  35.447  30.408  1.00  0.00     0.020 A 
ATOM     64  C   UNL A   1      44.006  35.745  31.771  1.00  0.00     0.054 A 
BRANCH  64  65
ATOM     65  S   UNL A   1      44.160  37.463  32.337  1.00  0.00     0.124 S 
ATOM     66  O   UNL A   1      43.783  38.207  31.139  1.00  0.00    -0.237 OA
ATOM     67  O   UNL A   1      43.206  37.526  33.441  1.00  0.00    -0.237 OA
ATOM     68  O   UNL A   1      45.564  37.575  32.725  1.00  0.00    -0.744 OA
ENDBRANCH  64  65
ENDBRANCH  45  59
BRANCH  46  69
ATOM     69  C   UNL A   1      42.422  23.741  27.659  1.00  0.00    -0.014 A 
ATOM     70  C   UNL A   1      42.456  23.488  26.277  1.00  0.00     0.010 A 
ATOM     71  C   UNL A   1      42.242  22.667  28.549  1.00  0.00     0.010 A 
ATOM     72  C   UNL A   1      42.316  22.183  25.794  1.00  0.00     0.020 A 
ATOM     73  C   UNL A   1      42.126  21.358  28.072  1.00  0.00     0.020 A 
ATOM     74  C   UNL A   1      42.156  21.126  26.696  1.00  0.00     0.054 A 
BRANCH  74  75
ATOM     75  S   UNL A   1      42.059  19.429  26.059  1.00  0.00     0.124 S 
ATOM     76  O   UNL A   1      42.535  18.650  27.197  1.00  0.00    -0.237 OA
ATOM     77  O   UNL A   1      40.640  19.286  25.743  1.00  0.00    -0.237 OA
ATOM     78  O   UNL A   1      42.947  19.453  24.898  1.00  0.00    -0.744 OA
ENDBRANCH  74  75
ENDBRANCH  46  69
BRANCH  58  79
ATOM     79  C   UNL A   1      48.046  27.530  29.266  1.00  0.00    -0.014 A 
ATOM     80  C   UNL A   1      48.771  27.576  28.062  1.00  0.00     0.010 A 
ATOM     81  C   UNL A   1      48.719  27.248  30.467  1.00  0.00     0.010 A 
ATOM     82  C   UNL A   1      50.144  27.324  28.059  1.00  0.00     0.020 A 
ATOM     83  C   UNL A   1      50.095  27.013  30.469  1.00  0.00     0.020 A 
ATOM     84  C   UNL A   1      50.798  27.042  29.262  1.00  0.00     0.054 A 
BRANCH  84  85
ATOM     85  S   UNL A   1      52.591  26.768  29.243  1.00  0.00     0.124 S 
ATOM     86  O   UNL A   1      53.107  28.126  29.386  1.00  0.00    -0.237 OA
ATOM     87  O   UNL A   1      52.798  25.892  30.394  1.00  0.00    -0.237 OA
ATOM     88  O   UNL A   1      52.830  26.142  27.944  1.00  0.00    -0.744 OA
ENDBRANCH  84  85
ENDBRANCH  58  79
ENDBRANCH  32  33
ENDBRANCH  25  27
ENDBRANCH  24  25
ENDBRANCH  23  24
ENDBRANCH   1  23
TORSDOF 21
ENDMDL
MODEL 2
REMARK VINA RESULT:      -9.3      3.988      9.820
REMARK SMILES CCN(C(=O)C[NH2+][C@@](C)(C(=O)OCCOC(=O)c1ccc(-c2c3nc(c(-c4ccc(S(=O)(=O)[O-])cc4)c4ccc([nH]4)c(-c4ccc(S(=O)(=O)[O-])cc4)c4nc(c(-c5ccc(S(=O)(=O)[O-])cc5)c5ccc2[nH]5)C=C4)C=C3)cc1)C(F)(F)F)C1CC1
REMARK SMILES IDX 13 1 12 2 10 3 11 4 8 5 9 6 7 7 6 10 4 11 5 12 3 13 2 14
REMARK SMILES IDX 1 15 82 16 83 17 84 18 78 19 79 20 80 21 81 22 14 23 15 24
REMARK SMILES IDX 16 25 17 26 18 27 19 28 77 29 20 30 76 31 21 32 22 33 23 34
REMARK SMILES IDX 70 35 24 36 75 37 69 38 71 39 25 40 74 41 68 42 67 43 26 45
REMARK SMILES IDX 56 46 37 47 55 48 38 49 41 50 54 51 72 52 39 53 40 54 53 56
REMARK SMILES IDX 73 57 42 58 27 59 28 60 36 61 29 62 35 63 30 64 31 65 32 66
REMARK SMILES IDX 33 67 34 68 57 69 58 70 66 71 59 72 65 73 60 74 61 75 62 76
REMARK SMILES IDX 63 77 64 78 43 79 44 80 52 81 45 82 51 83 46 84 47 85 48 86
REMARK SMILES IDX 49 87 50 88
REMARK H PARENT 7 8 7 9 71 44 41 55
REMARK Flexibility Score: inf
ROOT
ATOM      1  C   UNL A   1      36.435  21.614  25.329  1.00  0.00     0.274 C 
ENDROOT
BRANCH   1   2
ATOM      2  O   UNL A   1      35.069  21.893  24.955  1.00  0.00    -0.457 OA
BRANCH   2   3
ATOM      3  C   UNL A   1      34.103  21.422  25.804  1.00  0.00     0.377 C 
ATOM      4  O   UNL A   1      34.283  21.281  27.008  1.00  0.00    -0.244 OA
BRANCH   3   5
ATOM      5  C   UNL A   1      32.847  20.941  25.052  1.00  0.00     0.287 C 
ATOM      6  C   UNL A   1      32.944  21.580  23.655  1.00  0.00     0.103 C 
BRANCH   5   7
ATOM      7  N   UNL A   1      31.607  21.437  25.766  1.00  0.00    -0.317 N 
ATOM      8  H   UNL A   1      30.882  20.723  25.686  1.00  0.00     0.347 HD
ATOM      9  H   UNL A   1      31.870  21.616  26.735  1.00  0.00     0.347 HD
BRANCH   7  10
ATOM     10  C   UNL A   1      31.080  22.699  25.222  1.00  0.00     0.363 C 
BRANCH  10  11
ATOM     11  C   UNL A   1      31.320  23.859  26.195  1.00  0.00     0.277 C 
ATOM     12  O   UNL A   1      31.025  23.707  27.386  1.00  0.00    -0.268 OA
BRANCH  11  13
ATOM     13  N   UNL A   1      31.896  25.034  25.708  1.00  0.00    -0.335 N 
BRANCH  13  14
ATOM     14  C   UNL A   1      31.147  26.096  25.020  1.00  0.00     0.116 C 
ATOM     15  C   UNL A   1      29.645  25.955  25.220  1.00  0.00     0.027 C 
ENDBRANCH  13  14
BRANCH  13  16
ATOM     16  C   UNL A   1      33.305  25.260  25.987  1.00  0.00     0.085 C 
ATOM     17  C   UNL A   1      34.298  25.144  24.856  1.00  0.00     0.027 C 
ATOM     18  C   UNL A   1      34.118  26.454  25.558  1.00  0.00     0.027 C 
ENDBRANCH  13  16
ENDBRANCH  11  13
ENDBRANCH  10  11
ENDBRANCH   7  10
ENDBRANCH   5   7
BRANCH   5  19
ATOM     19  C   UNL A   1      32.977  19.402  24.915  1.00  0.00     0.455 C 
ATOM     20  F   UNL A   1      32.115  18.909  23.996  1.00  0.00    -0.164 F 
ATOM     21  F   UNL A   1      34.225  19.074  24.480  1.00  0.00    -0.164 F 
ATOM     22  F   UNL A   1      32.798  18.725  26.065  1.00  0.00    -0.164 F 
ENDBRANCH   5  19
ENDBRANCH   3   5
ENDBRANCH   2   3
ENDBRANCH   1   2
BRANCH   1  23
ATOM     23  C   UNL A   1      37.046  22.787  26.088  1.00  0.00     0.275 C 
BRANCH  23  24
ATOM     24  O   UNL A   1      38.190  23.275  25.368  1.00  0.00    -0.458 OA
BRANCH  24  25
ATOM     25  C   UNL A   1      39.368  23.217  26.026  1.00  0.00     0.338 C 
ATOM     26  O   UNL A   1      40.173  22.294  26.018  1.00  0.00    -0.246 OA
BRANCH  25  27
ATOM     27  C   UNL A   1      39.563  24.446  26.810  1.00  0.00     0.060 A 
ATOM     28  C   UNL A   1      40.357  25.483  26.321  1.00  0.00     0.016 A 
ATOM     29  C   UNL A   1      39.020  24.527  28.092  1.00  0.00     0.016 A 
ATOM     30  C   UNL A   1      40.681  26.564  27.140  1.00  0.00     0.010 A 
ATOM     31  C   UNL A   1      39.266  25.657  28.875  1.00  0.00     0.010 A 
ATOM     32  C   UNL A   1      40.123  26.675  28.421  1.00  0.00    -0.014 A 
BRANCH  32  33
ATOM     33  C   UNL A   1      40.433  27.836  29.298  1.00  0.00     0.031 A 
ATOM     34  C   UNL A   1      41.675  27.823  30.151  1.00  0.00     0.074 A 
ATOM     35  C   UNL A   1      39.595  28.890  29.360  1.00  0.00     0.049 A 
ATOM     36  N   UNL A   1      42.003  28.606  31.146  1.00  0.00    -0.248 NA
ATOM     37  C   UNL A   1      42.673  26.782  29.852  1.00  0.00     0.031 C 
ATOM     38  C   UNL A   1      38.384  29.064  28.553  1.00  0.00     0.029 A 
ATOM     39  N   UNL A   1      39.633  30.016  30.144  1.00  0.00    -0.354 N 
ATOM     40  C   UNL A   1      43.210  28.116  31.634  1.00  0.00     0.074 A 
ATOM     41  C   UNL A   1      43.563  26.974  30.818  1.00  0.00     0.031 C 
ATOM     42  C   UNL A   1      37.813  30.237  28.863  1.00  0.00     0.029 A 
ATOM     43  C   UNL A   1      38.562  30.856  29.951  1.00  0.00     0.049 A 
ATOM     44  H   UNL A   1      40.358  30.204  30.783  1.00  0.00     0.167 HD
ATOM     45  C   UNL A   1      43.947  28.572  32.675  1.00  0.00     0.031 A 
ATOM     46  C   UNL A   1      38.188  31.972  30.607  1.00  0.00     0.031 A 
ATOM     47  C   UNL A   1      43.610  29.730  33.458  1.00  0.00     0.049 A 
ATOM     48  C   UNL A   1      39.004  32.443  31.775  1.00  0.00     0.074 A 
ATOM     49  C   UNL A   1      44.290  30.271  34.536  1.00  0.00     0.029 A 
ATOM     50  N   UNL A   1      42.506  30.538  33.235  1.00  0.00    -0.354 N 
ATOM     51  N   UNL A   1      40.101  31.924  32.273  1.00  0.00    -0.248 NA
ATOM     52  C   UNL A   1      38.519  33.634  32.486  1.00  0.00     0.031 C 
ATOM     53  C   UNL A   1      43.581  31.391  34.983  1.00  0.00     0.029 A 
ATOM     54  C   UNL A   1      42.480  31.569  34.160  1.00  0.00     0.049 A 
ATOM     55  H   UNL A   1      41.838  30.400  32.525  1.00  0.00     0.167 HD
ATOM     56  C   UNL A   1      40.440  32.727  33.355  1.00  0.00     0.074 A 
ATOM     57  C   UNL A   1      39.444  33.778  33.427  1.00  0.00     0.031 C 
ATOM     58  C   UNL A   1      41.479  32.602  34.215  1.00  0.00     0.031 A 
BRANCH  45  59
ATOM     59  C   UNL A   1      45.170  27.782  33.058  1.00  0.00    -0.014 A 
ATOM     60  C   UNL A   1      45.086  26.659  33.898  1.00  0.00     0.010 A 
ATOM     61  C   UNL A   1      46.423  28.158  32.538  1.00  0.00     0.010 A 
ATOM     62  C   UNL A   1      46.241  25.948  34.245  1.00  0.00     0.020 A 
ATOM     63  C   UNL A   1      47.575  27.438  32.865  1.00  0.00     0.020 A 
ATOM     64  C   UNL A   1      47.479  26.349  33.733  1.00  0.00     0.054 A 
BRANCH  64  65
ATOM     65  S   UNL A   1      48.964  25.409  34.188  1.00  0.00     0.124 S 
ATOM     66  O   UNL A   1      49.106  24.504  33.051  1.00  0.00    -0.237 OA
ATOM     67  O   UNL A   1      49.985  26.449  34.294  1.00  0.00    -0.237 OA
ATOM     68  O   UNL A   1      48.596  24.772  35.450  1.00  0.00    -0.744 OA
ENDBRANCH  64  65
ENDBRANCH  45  59
BRANCH  46  69
ATOM     69  C   UNL A   1      36.944  32.679  30.202  1.00  0.00    -0.014 A 
ATOM     70  C   UNL A   1      35.728  32.415  30.855  1.00  0.00     0.010 A 
ATOM     71  C   UNL A   1      36.982  33.655  29.189  1.00  0.00     0.010 A 
ATOM     72  C   UNL A   1      34.571  33.117  30.503  1.00  0.00     0.020 A 
ATOM     73  C   UNL A   1      35.833  34.376  28.851  1.00  0.00     0.020 A 
ATOM     74  C   UNL A   1      34.632  34.096  29.506  1.00  0.00     0.054 A 
BRANCH  74  75
ATOM     75  S   UNL A   1      33.142  35.056  29.118  1.00  0.00     0.124 S 
ATOM     76  O   UNL A   1      32.506  34.230  28.098  1.00  0.00    -0.237 OA
ATOM     77  O   UNL A   1      32.454  35.115  30.405  1.00  0.00    -0.237 OA
ATOM     78  O   UNL A   1      33.675  36.334  28.650  1.00  0.00    -0.744 OA
ENDBRANCH  74  75
ENDBRANCH  46  69
BRANCH  58  79
ATOM     79  C   UNL A   1      41.603  33.638  35.296  1.00  0.00    -0.014 A 
ATOM     80  C   UNL A   1      42.219  34.876  35.040  1.00  0.00     0.010 A 
ATOM     81  C   UNL A   1      41.049  33.390  36.564  1.00  0.00     0.010 A 
ATOM     82  C   UNL A   1      42.297  35.843  36.045  1.00  0.00     0.020 A 
ATOM     83  C   UNL A   1      41.110  34.362  37.565  1.00  0.00     0.020 A 
ATOM     84  C   UNL A   1      41.743  35.579  37.302  1.00  0.00     0.054 A 
BRANCH  84  85
ATOM     85  S   UNL A   1      41.810  36.868  38.578  1.00  0.00     0.124 S 
ATOM     86  O   UNL A   1      40.481  37.463  38.476  1.00  0.00    -0.237 OA
ATOM     87  O   UNL A   1      42.066  36.104  39.797  1.00  0.00    -0.237 OA
ATOM     88  O   UNL A   1      42.912  37.724  38.145  1.00  0.00    -0.744 OA
ENDBRANCH  84  85
ENDBRANCH  58  79
ENDBRANCH  32  33
ENDBRANCH  25  27
ENDBRANCH  24  25
ENDBRANCH  23  24
ENDBRANCH   1  23
TORSDOF 21
ENDMDL
MODEL 3
REMARK VINA RESULT:      -9.2      3.262      9.395
REMARK SMILES CCN(C(=O)C[NH2+][C@@](C)(C(=O)OCCOC(=O)c1ccc(-c2c3nc(c(-c4ccc(S(=O)(=O)[O-])cc4)c4ccc([nH]4)c(-c4ccc(S(=O)(=O)[O-])cc4)c4nc(c(-c5ccc(S(=O)(=O)[O-])cc5)c5ccc2[nH]5)C=C4)C=C3)cc1)C(F)(F)F)C1CC1
REMARK SMILES IDX 13 1 12 2 10 3 11 4 8 5 9 6 7 7 6 10 4 11 5 12 3 13 2 14
REMARK SMILES IDX 1 15 82 16 83 17 84 18 78 19 79 20 80 21 81 22 14 23 15 24
REMARK SMILES IDX 16 25 17 26 18 27 19 28 77 29 20 30 76 31 21 32 22 33 23 34
REMARK SMILES IDX 70 35 24 36 75 37 69 38 71 39 25 40 74 41 68 42 67 43 26 45
REMARK SMILES IDX 56 46 37 47 55 48 38 49 41 50 54 51 72 52 39 53 40 54 53 56
REMARK SMILES IDX 73 57 42 58 27 59 28 60 36 61 29 62 35 63 30 64 31 65 32 66
REMARK SMILES IDX 33 67 34 68 57 69 58 70 66 71 59 72 65 73 60 74 61 75 62 76
REMARK SMILES IDX 63 77 64 78 43 79 44 80 52 81 45 82 51 83 46 84 47 85 48 86
REMARK SMILES IDX 49 87 50 88
REMARK H PARENT 7 8 7 9 71 44 41 55
REMARK Flexibility Score: inf
ROOT
ATOM      1  C   UNL A   1      36.189  22.075  24.311  1.00  0.00     0.274 C 
ENDROOT
BRANCH   1   2
ATOM      2  O   UNL A   1      35.296  20.955  24.488  1.00  0.00    -0.457 OA
BRANCH   2   3
ATOM      3  C   UNL A   1      34.280  21.128  25.390  1.00  0.00     0.377 C 
ATOM      4  O   UNL A   1      34.472  21.435  26.560  1.00  0.00    -0.244 OA
BRANCH   3   5
ATOM      5  C   UNL A   1      32.908  20.735  24.809  1.00  0.00     0.287 C 
ATOM      6  C   UNL A   1      32.808  21.484  23.468  1.00  0.00     0.103 C 
BRANCH   5   7
ATOM      7  N   UNL A   1      31.810  21.195  25.745  1.00  0.00    -0.317 N 
ATOM      8  H   UNL A   1      31.079  20.483  25.759  1.00  0.00     0.347 HD
ATOM      9  H   UNL A   1      32.235  21.331  26.662  1.00  0.00     0.347 HD
BRANCH   7  10
ATOM     10  C   UNL A   1      31.203  22.477  25.356  1.00  0.00     0.363 C 
BRANCH  10  11
ATOM     11  C   UNL A   1      31.384  23.527  26.457  1.00  0.00     0.277 C 
ATOM     12  O   UNL A   1      31.080  23.231  27.619  1.00  0.00    -0.268 OA
BRANCH  11  13
ATOM     13  N   UNL A   1      31.921  24.771  26.117  1.00  0.00    -0.335 N 
BRANCH  13  14
ATOM     14  C   UNL A   1      31.158  26.028  26.126  1.00  0.00     0.116 C 
ATOM     15  C   UNL A   1      30.186  26.113  24.958  1.00  0.00     0.027 C 
ENDBRANCH  13  14
BRANCH  13  16
ATOM     16  C   UNL A   1      33.344  24.836  25.831  1.00  0.00     0.085 C 
ATOM     17  C   UNL A   1      33.791  24.999  24.397  1.00  0.00     0.027 C 
ATOM     18  C   UNL A   1      34.113  26.061  25.404  1.00  0.00     0.027 C 
ENDBRANCH  13  16
ENDBRANCH  11  13
ENDBRANCH  10  11
ENDBRANCH   7  10
ENDBRANCH   5   7
BRANCH   5  19
ATOM     19  C   UNL A   1      32.967  19.210  24.534  1.00  0.00     0.455 C 
ATOM     20  F   UNL A   1      32.757  18.931  23.227  1.00  0.00    -0.164 F 
ATOM     21  F   UNL A   1      34.204  18.728  24.832  1.00  0.00    -0.164 F 
ATOM     22  F   UNL A   1      32.101  18.480  25.263  1.00  0.00    -0.164 F 
ENDBRANCH   5  19
ENDBRANCH   3   5
ENDBRANCH   2   3
ENDBRANCH   1   2
BRANCH   1  23
ATOM     23  C   UNL A   1      37.512  21.838  25.032  1.00  0.00     0.275 C 
BRANCH  23  24
ATOM     24  O   UNL A   1      37.859  23.010  25.786  1.00  0.00    -0.458 OA
BRANCH  24  25
ATOM     25  C   UNL A   1      39.021  22.947  26.472  1.00  0.00     0.338 C 
ATOM     26  O   UNL A   1      39.708  21.952  26.670  1.00  0.00    -0.246 OA
BRANCH  25  27
ATOM     27  C   UNL A   1      39.365  24.277  26.996  1.00  0.00     0.060 A 
ATOM     28  C   UNL A   1      40.033  25.205  26.198  1.00  0.00     0.016 A 
ATOM     29  C   UNL A   1      39.099  24.569  28.334  1.00  0.00     0.016 A 
ATOM     30  C   UNL A   1      40.511  26.392  26.753  1.00  0.00     0.010 A 
ATOM     31  C   UNL A   1      39.492  25.800  28.862  1.00  0.00     0.010 A 
ATOM     32  C   UNL A   1      40.229  26.714  28.087  1.00  0.00    -0.014 A 
BRANCH  32  33
ATOM     33  C   UNL A   1      40.706  27.988  28.690  1.00  0.00     0.031 A 
ATOM     34  C   UNL A   1      42.129  28.107  29.169  1.00  0.00     0.074 A 
ATOM     35  C   UNL A   1      39.864  29.031  28.837  1.00  0.00     0.049 A 
ATOM     36  N   UNL A   1      42.671  29.024  29.928  1.00  0.00    -0.248 NA
ATOM     37  C   UNL A   1      43.060  27.046  28.751  1.00  0.00     0.031 C 
ATOM     38  C   UNL A   1      38.476  29.078  28.372  1.00  0.00     0.029 A 
ATOM     39  N   UNL A   1      40.055  30.256  29.428  1.00  0.00    -0.354 N 
ATOM     40  C   UNL A   1      43.986  28.620  30.132  1.00  0.00     0.074 A 
ATOM     41  C   UNL A   1      44.164  27.379  29.408  1.00  0.00     0.031 C 
ATOM     42  C   UNL A   1      37.952  30.277  28.668  1.00  0.00     0.029 A 
ATOM     43  C   UNL A   1      38.933  31.049  29.423  1.00  0.00     0.049 A 
ATOM     44  H   UNL A   1      40.915  30.538  29.817  1.00  0.00     0.167 HD
ATOM     45  C   UNL A   1      44.951  29.223  30.867  1.00  0.00     0.031 A 
ATOM     46  C   UNL A   1      38.693  32.240  30.005  1.00  0.00     0.031 A 
ATOM     47  C   UNL A   1      44.779  30.475  31.554  1.00  0.00     0.049 A 
ATOM     48  C   UNL A   1      39.767  32.878  30.838  1.00  0.00     0.074 A 
ATOM     49  C   UNL A   1      45.694  31.168  32.328  1.00  0.00     0.029 A 
ATOM     50  N   UNL A   1      43.618  31.232  31.534  1.00  0.00    -0.354 N 
ATOM     51  N   UNL A   1      40.980  32.445  31.084  1.00  0.00    -0.248 NA
ATOM     52  C   UNL A   1      39.432  34.150  31.491  1.00  0.00     0.031 C 
ATOM     53  C   UNL A   1      45.077  32.331  32.800  1.00  0.00     0.029 A 
ATOM     54  C   UNL A   1      43.790  32.381  32.288  1.00  0.00     0.049 A 
ATOM     55  H   UNL A   1      42.793  30.990  31.055  1.00  0.00     0.167 HD
ATOM     56  C   UNL A   1      41.556  33.394  31.920  1.00  0.00     0.074 A 
ATOM     57  C   UNL A   1      40.566  34.434  32.120  1.00  0.00     0.031 C 
ATOM     58  C   UNL A   1      42.791  33.401  32.477  1.00  0.00     0.031 A 
BRANCH  45  59
ATOM     59  C   UNL A   1      46.268  28.508  31.005  1.00  0.00    -0.014 A 
ATOM     60  C   UNL A   1      46.511  27.613  32.061  1.00  0.00     0.010 A 
ATOM     61  C   UNL A   1      47.270  28.716  30.038  1.00  0.00     0.010 A 
ATOM     62  C   UNL A   1      47.748  26.967  32.169  1.00  0.00     0.020 A 
ATOM     63  C   UNL A   1      48.499  28.058  30.132  1.00  0.00     0.020 A 
ATOM     64  C   UNL A   1      48.737  27.202  31.209  1.00  0.00     0.054 A 
BRANCH  64  65
ATOM     65  S   UNL A   1      50.332  26.350  31.364  1.00  0.00     0.124 S 
ATOM     66  O   UNL A   1      50.595  25.954  29.983  1.00  0.00    -0.237 OA
ATOM     67  O   UNL A   1      51.206  27.393  31.895  1.00  0.00    -0.237 OA
ATOM     68  O   UNL A   1      50.049  25.251  32.285  1.00  0.00    -0.744 OA
ENDBRANCH  64  65
ENDBRANCH  45  59
BRANCH  46  69
ATOM     69  C   UNL A   1      37.354  32.871  29.861  1.00  0.00    -0.014 A 
ATOM     70  C   UNL A   1      36.352  32.644  30.820  1.00  0.00     0.010 A 
ATOM     71  C   UNL A   1      37.091  33.740  28.786  1.00  0.00     0.010 A 
ATOM     72  C   UNL A   1      35.110  33.277  30.707  1.00  0.00     0.020 A 
ATOM     73  C   UNL A   1      35.860  34.393  28.683  1.00  0.00     0.020 A 
ATOM     74  C   UNL A   1      34.874  34.151  29.641  1.00  0.00     0.054 A 
BRANCH  74  75
ATOM     75  S   UNL A   1      33.288  35.028  29.553  1.00  0.00     0.124 S 
ATOM     76  O   UNL A   1      32.891  35.080  30.956  1.00  0.00    -0.237 OA
ATOM     77  O   UNL A   1      33.661  36.307  28.953  1.00  0.00    -0.237 OA
ATOM     78  O   UNL A   1      32.472  34.166  28.700  1.00  0.00    -0.744 OA
ENDBRANCH  74  75
ENDBRANCH  46  69
BRANCH  58  79
ATOM     79  C   UNL A   1      43.148  34.578  33.339  1.00  0.00    -0.014 A 
ATOM     80  C   UNL A   1      42.868  34.573  34.717  1.00  0.00     0.010 A 
ATOM     81  C   UNL A   1      43.818  35.676  32.774  1.00  0.00     0.010 A 
ATOM     82  C   UNL A   1      43.236  35.660  35.512  1.00  0.00     0.020 A 
ATOM     83  C   UNL A   1      44.203  36.757  33.570  1.00  0.00     0.020 A 
ATOM     84  C   UNL A   1      43.900  36.747  34.934  1.00  0.00     0.054 A 
BRANCH  84  85
ATOM     85  S   UNL A   1      44.416  38.126  35.993  1.00  0.00     0.124 S 
ATOM     86  O   UNL A   1      43.598  37.915  37.184  1.00  0.00    -0.237 OA
ATOM     87  O   UNL A   1      45.847  37.888  36.163  1.00  0.00    -0.237 OA
ATOM     88  O   UNL A   1      44.078  39.310  35.206  1.00  0.00    -0.744 OA
ENDBRANCH  84  85
ENDBRANCH  58  79
ENDBRANCH  32  33
ENDBRANCH  25  27
ENDBRANCH  24  25
ENDBRANCH  23  24
ENDBRANCH   1  23
TORSDOF 21
ENDMDL
