MODEL 1
REMARK VINA RESULT:     -11.2      0.000      0.000
REMARK SMILES COc1ccc(-c2ccc(CCC(=O)OCCOC(=O)c3ccc(-c4c5nc(c(-c6ccc(S(=O)(=O)[O-])cc6)c6ccc([nH]6)c(-c6ccc(S(=O)(=O)[O-])cc6)c6nc(c(-c7ccc(S(=O)(=O)[O-])cc7)c7ccc4[nH]7)C=C6)C=C5)cc3)n2-c2ccc(C(C)=O)cc2)cc1
REMARK SMILES IDX 16 1 15 2 13 3 14 4 12 5 11 6 10 7 7 8 8 9 81 10 9 11 6 12
REMARK SMILES IDX 3 13 4 14 92 15 5 16 91 17 2 18 1 19 82 20 83 21 90 22 84 23
REMARK SMILES IDX 89 24 85 25 86 26 87 27 88 28 17 29 18 30 19 31 20 32 21 33
REMARK SMILES IDX 22 34 80 35 23 36 79 37 24 38 25 39 26 40 73 41 27 42 78 43
REMARK SMILES IDX 72 44 74 45 28 46 77 47 71 48 70 49 29 51 59 52 40 53 58 54
REMARK SMILES IDX 41 55 44 56 57 57 75 58 42 59 43 60 56 62 76 63 45 64 30 65
REMARK SMILES IDX 31 66 39 67 32 68 38 69 33 70 34 71 35 72 36 73 37 74 60 75
REMARK SMILES IDX 61 76 69 77 62 78 68 79 63 80 64 81 65 82 66 83 67 84 46 85
REMARK SMILES IDX 47 86 55 87 48 88 54 89 49 90 50 91 51 92 52 93 53 94
REMARK H PARENT 74 50 44 61
REMARK Flexibility Score: inf
ROOT
ATOM      1  C   UNL A   1      37.356  21.996  25.551  1.00  0.00     0.274 C 
ENDROOT
BRANCH   1   2
ATOM      2  O   UNL A   1      35.987  21.658  25.258  1.00  0.00    -0.462 OA
BRANCH   2   3
ATOM      3  C   UNL A   1      35.043  22.088  26.133  1.00  0.00     0.306 C 
ATOM      4  O   UNL A   1      34.677  21.462  27.127  1.00  0.00    -0.252 OA
BRANCH   3   5
ATOM      5  C   UNL A   1      34.412  23.394  25.708  1.00  0.00     0.129 C 
BRANCH   5   6
ATOM      6  C   UNL A   1      32.960  23.621  26.134  1.00  0.00     0.066 C 
BRANCH   6   7
ATOM      7  C   UNL A   1      32.074  24.112  25.015  1.00  0.00     0.024 A 
ATOM      8  C   UNL A   1      30.644  25.476  23.928  1.00  0.00     0.053 A 
ATOM      9  C   UNL A   1      30.570  24.235  23.332  1.00  0.00     0.029 A 
ATOM     10  N   UNL A   1      31.671  25.432  24.866  1.00  0.00    -0.314 N 
ATOM     11  C   UNL A   1      31.485  23.401  23.985  1.00  0.00     0.024 A 
BRANCH   8  12
ATOM     12  C   UNL A   1      29.907  26.662  23.525  1.00  0.00    -0.001 A 
ATOM     13  C   UNL A   1      28.522  28.952  22.751  1.00  0.00     0.118 A 
ATOM     14  C   UNL A   1      27.875  27.964  23.495  1.00  0.00     0.047 A 
ATOM     15  C   UNL A   1      29.875  28.820  22.438  1.00  0.00     0.047 A 
ATOM     16  C   UNL A   1      28.564  26.817  23.878  1.00  0.00     0.014 A 
ATOM     17  C   UNL A   1      30.567  27.675  22.824  1.00  0.00     0.014 A 
BRANCH  13  18
ATOM     18  O   UNL A   1      27.763  30.038  22.412  1.00  0.00    -0.497 OA
ATOM     19  C   UNL A   1      27.675  31.014  23.445  1.00  0.00     0.278 C 
ENDBRANCH  13  18
ENDBRANCH   8  12
BRANCH  10  20
ATOM     20  C   UNL A   1      32.254  26.547  25.518  1.00  0.00     0.046 A 
ATOM     21  C   UNL A   1      33.448  27.076  25.012  1.00  0.00     0.027 A 
ATOM     22  C   UNL A   1      31.632  27.128  26.621  1.00  0.00     0.027 A 
ATOM     23  C   UNL A   1      34.028  28.193  25.616  1.00  0.00     0.014 A 
ATOM     24  C   UNL A   1      32.229  28.233  27.232  1.00  0.00     0.014 A 
ATOM     25  C   UNL A   1      33.426  28.779  26.735  1.00  0.00     0.017 A 
BRANCH  25  26
ATOM     26  C   UNL A   1      33.992  29.968  27.444  1.00  0.00     0.159 C 
ATOM     27  C   UNL A   1      35.395  29.955  27.995  1.00  0.00     0.093 C 
ATOM     28  O   UNL A   1      33.300  30.982  27.559  1.00  0.00    -0.295 OA
ENDBRANCH  25  26
ENDBRANCH  10  20
ENDBRANCH   6   7
ENDBRANCH   5   6
ENDBRANCH   3   5
ENDBRANCH   2   3
ENDBRANCH   1   2
BRANCH   1  29
ATOM     29  C   UNL A   1      38.364  20.900  25.177  1.00  0.00     0.275 C 
BRANCH  29  30
ATOM     30  O   UNL A   1      38.976  20.231  26.293  1.00  0.00    -0.458 OA
BRANCH  30  31
ATOM     31  C   UNL A   1      40.303  20.061  26.126  1.00  0.00     0.338 C 
ATOM     32  O   UNL A   1      40.867  19.055  25.749  1.00  0.00    -0.246 OA
BRANCH  31  33
ATOM     33  C   UNL A   1      41.131  21.148  26.606  1.00  0.00     0.060 A 
ATOM     34  C   UNL A   1      41.134  21.400  27.985  1.00  0.00     0.016 A 
ATOM     35  C   UNL A   1      41.562  22.090  25.673  1.00  0.00     0.016 A 
ATOM     36  C   UNL A   1      41.589  22.624  28.442  1.00  0.00     0.010 A 
ATOM     37  C   UNL A   1      41.989  23.326  26.127  1.00  0.00     0.010 A 
ATOM     38  C   UNL A   1      42.016  23.579  27.510  1.00  0.00    -0.014 A 
BRANCH  38  39
ATOM     39  C   UNL A   1      42.754  24.754  28.005  1.00  0.00     0.031 A 
ATOM     40  C   UNL A   1      41.788  25.876  28.417  1.00  0.00     0.074 A 
ATOM     41  C   UNL A   1      44.117  24.684  28.017  1.00  0.00     0.049 A 
ATOM     42  N   UNL A   1      42.028  27.130  28.638  1.00  0.00    -0.248 NA
ATOM     43  C   UNL A   1      40.330  25.579  28.554  1.00  0.00     0.031 C 
ATOM     44  C   UNL A   1      44.908  23.521  27.557  1.00  0.00     0.029 A 
ATOM     45  N   UNL A   1      45.111  25.556  28.414  1.00  0.00    -0.354 N 
ATOM     46  C   UNL A   1      40.832  27.708  29.114  1.00  0.00     0.074 A 
ATOM     47  C   UNL A   1      39.802  26.734  28.958  1.00  0.00     0.031 C 
ATOM     48  C   UNL A   1      46.234  23.778  27.639  1.00  0.00     0.029 A 
ATOM     49  C   UNL A   1      46.436  25.104  28.195  1.00  0.00     0.049 A 
ATOM     50  H   UNL A   1      44.913  26.429  28.821  1.00  0.00     0.167 HD
ATOM     51  C   UNL A   1      40.782  28.922  29.729  1.00  0.00     0.031 A 
ATOM     52  C   UNL A   1      47.617  25.753  28.427  1.00  0.00     0.031 A 
ATOM     53  C   UNL A   1      42.056  29.548  29.701  1.00  0.00     0.049 A 
ATOM     54  C   UNL A   1      47.277  26.977  29.169  1.00  0.00     0.074 A 
ATOM     55  C   UNL A   1      42.788  30.115  28.690  1.00  0.00     0.029 A 
ATOM     56  N   UNL A   1      42.873  29.319  30.780  1.00  0.00    -0.354 N 
ATOM     57  N   UNL A   1      46.910  27.012  30.413  1.00  0.00    -0.248 NA
ATOM     58  C   UNL A   1      47.332  28.271  28.477  1.00  0.00     0.031 C 
ATOM     59  C   UNL A   1      44.120  29.789  29.024  1.00  0.00     0.029 A 
ATOM     60  C   UNL A   1      44.146  29.185  30.287  1.00  0.00     0.049 A 
ATOM     61  H   UNL A   1      42.599  29.261  31.724  1.00  0.00     0.167 HD
ATOM     62  C   UNL A   1      46.324  28.248  30.511  1.00  0.00     0.074 A 
ATOM     63  C   UNL A   1      46.895  29.058  29.457  1.00  0.00     0.031 C 
ATOM     64  C   UNL A   1      45.068  28.345  31.017  1.00  0.00     0.031 A 
BRANCH  51  65
ATOM     65  C   UNL A   1      39.723  29.532  30.600  1.00  0.00    -0.014 A 
ATOM     66  C   UNL A   1      39.214  30.791  30.195  1.00  0.00     0.010 A 
ATOM     67  C   UNL A   1      39.489  29.124  31.921  1.00  0.00     0.010 A 
ATOM     68  C   UNL A   1      38.632  31.670  31.107  1.00  0.00     0.020 A 
ATOM     69  C   UNL A   1      38.866  29.989  32.835  1.00  0.00     0.020 A 
ATOM     70  C   UNL A   1      38.498  31.276  32.434  1.00  0.00     0.054 A 
BRANCH  70  71
ATOM     71  S   UNL A   1      37.928  32.504  33.639  1.00  0.00     0.124 S 
ATOM     72  O   UNL A   1      38.614  32.082  34.855  1.00  0.00    -0.237 OA
ATOM     73  O   UNL A   1      38.400  33.761  33.058  1.00  0.00    -0.237 OA
ATOM     74  O   UNL A   1      36.477  32.336  33.639  1.00  0.00    -0.744 OA
ENDBRANCH  70  71
ENDBRANCH  51  65
BRANCH  52  75
ATOM     75  C   UNL A   1      49.083  25.596  28.088  1.00  0.00    -0.014 A 
ATOM     76  C   UNL A   1      49.624  25.419  26.810  1.00  0.00     0.010 A 
ATOM     77  C   UNL A   1      50.029  25.797  29.135  1.00  0.00     0.010 A 
ATOM     78  C   UNL A   1      51.011  25.587  26.577  1.00  0.00     0.020 A 
ATOM     79  C   UNL A   1      51.389  26.021  28.914  1.00  0.00     0.020 A 
ATOM     80  C   UNL A   1      51.873  25.943  27.621  1.00  0.00     0.054 A 
BRANCH  80  81
ATOM     81  S   UNL A   1      53.584  26.457  27.298  1.00  0.00     0.124 S 
ATOM     82  O   UNL A   1      54.111  25.332  26.533  1.00  0.00    -0.237 OA
ATOM     83  O   UNL A   1      53.416  27.704  26.555  1.00  0.00    -0.237 OA
ATOM     84  O   UNL A   1      54.144  26.620  28.640  1.00  0.00    -0.744 OA
ENDBRANCH  80  81
ENDBRANCH  52  75
BRANCH  64  85
ATOM     85  C   UNL A   1      44.671  27.233  31.980  1.00  0.00    -0.014 A 
ATOM     86  C   UNL A   1      44.885  27.399  33.361  1.00  0.00     0.010 A 
ATOM     87  C   UNL A   1      44.181  25.985  31.548  1.00  0.00     0.010 A 
ATOM     88  C   UNL A   1      44.629  26.362  34.271  1.00  0.00     0.020 A 
ATOM     89  C   UNL A   1      43.918  24.939  32.451  1.00  0.00     0.020 A 
ATOM     90  C   UNL A   1      44.147  25.134  33.813  1.00  0.00     0.054 A 
BRANCH  90  91
ATOM     91  S   UNL A   1      43.850  23.804  35.015  1.00  0.00     0.124 S 
ATOM     92  O   UNL A   1      42.434  23.499  34.819  1.00  0.00    -0.237 OA
ATOM     93  O   UNL A   1      44.777  22.765  34.573  1.00  0.00    -0.237 OA
ATOM     94  O   UNL A   1      44.174  24.413  36.304  1.00  0.00    -0.744 OA
ENDBRANCH  90  91
ENDBRANCH  64  85
ENDBRANCH  38  39
ENDBRANCH  31  33
ENDBRANCH  30  31
ENDBRANCH  29  30
ENDBRANCH   1  29
TORSDOF 20
ENDMDL
MODEL 2
REMARK VINA RESULT:     -11.2      3.340      5.857
REMARK SMILES COc1ccc(-c2ccc(CCC(=O)OCCOC(=O)c3ccc(-c4c5nc(c(-c6ccc(S(=O)(=O)[O-])cc6)c6ccc([nH]6)c(-c6ccc(S(=O)(=O)[O-])cc6)c6nc(c(-c7ccc(S(=O)(=O)[O-])cc7)c7ccc4[nH]7)C=C6)C=C5)cc3)n2-c2ccc(C(C)=O)cc2)cc1
REMARK SMILES IDX 16 1 15 2 13 3 14 4 12 5 11 6 10 7 7 8 8 9 81 10 9 11 6 12
REMARK SMILES IDX 3 13 4 14 92 15 5 16 91 17 2 18 1 19 82 20 83 21 90 22 84 23
REMARK SMILES IDX 89 24 85 25 86 26 87 27 88 28 17 29 18 30 19 31 20 32 21 33
REMARK SMILES IDX 22 34 80 35 23 36 79 37 24 38 25 39 26 40 73 41 27 42 78 43
REMARK SMILES IDX 72 44 74 45 28 46 77 47 71 48 70 49 29 51 59 52 40 53 58 54
REMARK SMILES IDX 41 55 44 56 57 57 75 58 42 59 43 60 56 62 76 63 45 64 30 65
REMARK SMILES IDX 31 66 39 67 32 68 38 69 33 70 34 71 35 72 36 73 37 74 60 75
REMARK SMILES IDX 61 76 69 77 62 78 68 79 63 80 64 81 65 82 66 83 67 84 46 85
REMARK SMILES IDX 47 86 55 87 48 88 54 89 49 90 50 91 51 92 52 93 53 94
REMARK H PARENT 74 50 44 61
REMARK Flexibility Score: inf
ROOT
ATOM      1  C   UNL A   1      36.531  22.052  25.282  1.00  0.00     0.274 C 
ENDROOT
BRANCH   1   2
ATOM      2  O   UNL A   1      35.499  21.477  26.108  1.00  0.00    -0.462 OA
BRANCH   2   3
ATOM      3  C   UNL A   1      34.219  21.835  25.835  1.00  0.00     0.306 C 
ATOM      4  O   UNL A   1      33.335  21.052  25.490  1.00  0.00    -0.252 OA
BRANCH   3   5
ATOM      5  C   UNL A   1      34.006  23.330  25.912  1.00  0.00     0.129 C 
BRANCH   5   6
ATOM      6  C   UNL A   1      32.606  23.800  26.306  1.00  0.00     0.066 C 
BRANCH   6   7
ATOM      7  C   UNL A   1      31.784  24.288  25.138  1.00  0.00     0.024 A 
ATOM      8  C   UNL A   1      30.475  25.683  23.941  1.00  0.00     0.053 A 
ATOM      9  C   UNL A   1      30.336  24.420  23.406  1.00  0.00     0.029 A 
ATOM     10  N   UNL A   1      31.471  25.623  24.911  1.00  0.00    -0.314 N 
ATOM     11  C   UNL A   1      31.178  23.564  24.126  1.00  0.00     0.024 A 
BRANCH   8  12
ATOM     12  C   UNL A   1      29.828  26.890  23.457  1.00  0.00    -0.001 A 
ATOM     13  C   UNL A   1      28.614  29.221  22.531  1.00  0.00     0.118 A 
ATOM     14  C   UNL A   1      27.867  28.281  23.241  1.00  0.00     0.047 A 
ATOM     15  C   UNL A   1      29.981  29.022  22.328  1.00  0.00     0.047 A 
ATOM     16  C   UNL A   1      28.470  27.114  23.700  1.00  0.00     0.014 A 
ATOM     17  C   UNL A   1      30.587  27.857  22.791  1.00  0.00     0.014 A 
BRANCH  13  18
ATOM     18  O   UNL A   1      27.935  30.332  22.111  1.00  0.00    -0.497 OA
ATOM     19  C   UNL A   1      27.740  31.299  23.138  1.00  0.00     0.278 C 
ENDBRANCH  13  18
ENDBRANCH   8  12
BRANCH  10  20
ATOM     20  C   UNL A   1      32.108  26.730  25.523  1.00  0.00     0.046 A 
ATOM     21  C   UNL A   1      31.492  27.337  26.624  1.00  0.00     0.027 A 
ATOM     22  C   UNL A   1      33.340  27.185  25.059  1.00  0.00     0.027 A 
ATOM     23  C   UNL A   1      32.112  28.411  27.267  1.00  0.00     0.014 A 
ATOM     24  C   UNL A   1      33.944  28.273  25.693  1.00  0.00     0.014 A 
ATOM     25  C   UNL A   1      33.342  28.892  26.803  1.00  0.00     0.017 A 
BRANCH  25  26
ATOM     26  C   UNL A   1      34.061  30.045  27.429  1.00  0.00     0.159 C 
ATOM     27  C   UNL A   1      35.528  29.960  27.768  1.00  0.00     0.093 C 
ATOM     28  O   UNL A   1      33.442  31.088  27.650  1.00  0.00    -0.295 OA
ENDBRANCH  25  26
ENDBRANCH  10  20
ENDBRANCH   6   7
ENDBRANCH   5   6
ENDBRANCH   3   5
ENDBRANCH   2   3
ENDBRANCH   1   2
BRANCH   1  29
ATOM     29  C   UNL A   1      37.894  21.358  25.412  1.00  0.00     0.275 C 
BRANCH  29  30
ATOM     30  O   UNL A   1      38.975  22.213  25.820  1.00  0.00    -0.458 OA
BRANCH  30  31
ATOM     31  C   UNL A   1      40.051  21.519  26.237  1.00  0.00     0.338 C 
ATOM     32  O   UNL A   1      40.275  20.341  26.051  1.00  0.00    -0.246 OA
BRANCH  31  33
ATOM     33  C   UNL A   1      40.938  22.231  27.134  1.00  0.00     0.060 A 
ATOM     34  C   UNL A   1      40.456  23.409  27.720  1.00  0.00     0.016 A 
ATOM     35  C   UNL A   1      42.298  21.930  27.069  1.00  0.00     0.016 A 
ATOM     36  C   UNL A   1      41.359  24.305  28.264  1.00  0.00     0.010 A 
ATOM     37  C   UNL A   1      43.203  22.840  27.586  1.00  0.00     0.010 A 
ATOM     38  C   UNL A   1      42.728  24.014  28.196  1.00  0.00    -0.014 A 
BRANCH  38  39
ATOM     39  C   UNL A   1      43.653  24.817  29.013  1.00  0.00     0.031 A 
ATOM     40  C   UNL A   1      44.140  26.052  28.238  1.00  0.00     0.074 A 
ATOM     41  C   UNL A   1      43.936  24.369  30.270  1.00  0.00     0.049 A 
ATOM     42  N   UNL A   1      45.138  26.840  28.487  1.00  0.00    -0.248 NA
ATOM     43  C   UNL A   1      43.454  26.444  26.970  1.00  0.00     0.031 C 
ATOM     44  C   UNL A   1      43.394  23.128  30.869  1.00  0.00     0.029 A 
ATOM     45  N   UNL A   1      44.721  24.851  31.298  1.00  0.00    -0.354 N 
ATOM     46  C   UNL A   1      45.083  27.895  27.553  1.00  0.00     0.074 A 
ATOM     47  C   UNL A   1      44.084  27.555  26.592  1.00  0.00     0.031 C 
ATOM     48  C   UNL A   1      43.906  22.925  32.104  1.00  0.00     0.029 A 
ATOM     49  C   UNL A   1      44.791  24.024  32.448  1.00  0.00     0.049 A 
ATOM     50  H   UNL A   1      45.200  25.709  31.237  1.00  0.00     0.167 HD
ATOM     51  C   UNL A   1      45.779  29.056  27.693  1.00  0.00     0.031 A 
ATOM     52  C   UNL A   1      45.519  24.198  33.591  1.00  0.00     0.031 A 
ATOM     53  C   UNL A   1      46.641  28.987  28.820  1.00  0.00     0.049 A 
ATOM     54  C   UNL A   1      46.089  25.552  33.517  1.00  0.00     0.074 A 
ATOM     55  C   UNL A   1      47.795  28.288  29.064  1.00  0.00     0.029 A 
ATOM     56  N   UNL A   1      46.129  29.447  30.009  1.00  0.00    -0.354 N 
ATOM     57  N   UNL A   1      45.415  26.650  33.672  1.00  0.00    -0.248 NA
ATOM     58  C   UNL A   1      47.521  25.710  33.231  1.00  0.00     0.031 C 
ATOM     59  C   UNL A   1      47.699  27.958  30.433  1.00  0.00     0.029 A 
ATOM     60  C   UNL A   1      46.584  28.598  30.986  1.00  0.00     0.049 A 
ATOM     61  H   UNL A   1      45.548  30.232  30.135  1.00  0.00     0.167 HD
ATOM     62  C   UNL A   1      46.248  27.586  33.115  1.00  0.00     0.074 A 
ATOM     63  C   UNL A   1      47.586  27.038  33.183  1.00  0.00     0.031 C 
ATOM     64  C   UNL A   1      45.761  28.419  32.160  1.00  0.00     0.031 A 
BRANCH  51  65
ATOM     65  C   UNL A   1      45.592  30.394  27.039  1.00  0.00    -0.014 A 
ATOM     66  C   UNL A   1      46.763  31.154  26.798  1.00  0.00     0.010 A 
ATOM     67  C   UNL A   1      44.358  31.059  26.997  1.00  0.00     0.010 A 
ATOM     68  C   UNL A   1      46.719  32.541  26.671  1.00  0.00     0.020 A 
ATOM     69  C   UNL A   1      44.303  32.452  26.829  1.00  0.00     0.020 A 
ATOM     70  C   UNL A   1      45.488  33.186  26.728  1.00  0.00     0.054 A 
BRANCH  70  71
ATOM     71  S   UNL A   1      45.472  34.998  26.765  1.00  0.00     0.124 S 
ATOM     72  O   UNL A   1      46.271  35.335  25.591  1.00  0.00    -0.237 OA
ATOM     73  O   UNL A   1      44.046  35.305  26.659  1.00  0.00    -0.237 OA
ATOM     74  O   UNL A   1      46.075  35.320  28.055  1.00  0.00    -0.744 OA
ENDBRANCH  70  71
ENDBRANCH  51  65
BRANCH  52  75
ATOM     75  C   UNL A   1      45.928  23.397  34.808  1.00  0.00    -0.014 A 
ATOM     76  C   UNL A   1      45.354  23.474  36.081  1.00  0.00     0.010 A 
ATOM     77  C   UNL A   1      46.882  22.354  34.624  1.00  0.00     0.010 A 
ATOM     78  C   UNL A   1      45.606  22.476  37.054  1.00  0.00     0.020 A 
ATOM     79  C   UNL A   1      47.097  21.333  35.551  1.00  0.00     0.020 A 
ATOM     80  C   UNL A   1      46.430  21.384  36.761  1.00  0.00     0.054 A 
BRANCH  80  81
ATOM     81  S   UNL A   1      46.527  19.949  37.870  1.00  0.00     0.124 S 
ATOM     82  O   UNL A   1      45.513  19.057  37.318  1.00  0.00    -0.237 OA
ATOM     83  O   UNL A   1      47.911  19.508  37.713  1.00  0.00    -0.237 OA
ATOM     84  O   UNL A   1      46.215  20.518  39.181  1.00  0.00    -0.744 OA
ENDBRANCH  80  81
ENDBRANCH  52  75
BRANCH  64  85
ATOM     85  C   UNL A   1      44.261  28.677  32.231  1.00  0.00    -0.014 A 
ATOM     86  C   UNL A   1      43.391  27.965  31.386  1.00  0.00     0.010 A 
ATOM     87  C   UNL A   1      43.695  29.679  33.045  1.00  0.00     0.010 A 
ATOM     88  C   UNL A   1      42.016  28.245  31.346  1.00  0.00     0.020 A 
ATOM     89  C   UNL A   1      42.318  29.966  33.016  1.00  0.00     0.020 A 
ATOM     90  C   UNL A   1      41.484  29.246  32.161  1.00  0.00     0.054 A 
BRANCH  90  91
ATOM     91  S   UNL A   1      39.704  29.601  32.068  1.00  0.00     0.124 S 
ATOM     92  O   UNL A   1      39.283  28.842  30.892  1.00  0.00    -0.237 OA
ATOM     93  O   UNL A   1      39.213  29.091  33.345  1.00  0.00    -0.237 OA
ATOM     94  O   UNL A   1      39.641  31.054  31.916  1.00  0.00    -0.744 OA
ENDBRANCH  90  91
ENDBRANCH  64  85
ENDBRANCH  38  39
ENDBRANCH  31  33
ENDBRANCH  30  31
ENDBRANCH  29  30
ENDBRANCH   1  29
TORSDOF 20
ENDMDL
MODEL 3
REMARK VINA RESULT:     -11.1      4.109     10.009
REMARK SMILES COc1ccc(-c2ccc(CCC(=O)OCCOC(=O)c3ccc(-c4c5nc(c(-c6ccc(S(=O)(=O)[O-])cc6)c6ccc([nH]6)c(-c6ccc(S(=O)(=O)[O-])cc6)c6nc(c(-c7ccc(S(=O)(=O)[O-])cc7)c7ccc4[nH]7)C=C6)C=C5)cc3)n2-c2ccc(C(C)=O)cc2)cc1
REMARK SMILES IDX 16 1 15 2 13 3 14 4 12 5 11 6 10 7 7 8 8 9 81 10 9 11 6 12
REMARK SMILES IDX 3 13 4 14 92 15 5 16 91 17 2 18 1 19 82 20 83 21 90 22 84 23
REMARK SMILES IDX 89 24 85 25 86 26 87 27 88 28 17 29 18 30 19 31 20 32 21 33
REMARK SMILES IDX 22 34 80 35 23 36 79 37 24 38 25 39 26 40 73 41 27 42 78 43
REMARK SMILES IDX 72 44 74 45 28 46 77 47 71 48 70 49 29 51 59 52 40 53 58 54
REMARK SMILES IDX 41 55 44 56 57 57 75 58 42 59 43 60 56 62 76 63 45 64 30 65
REMARK SMILES IDX 31 66 39 67 32 68 38 69 33 70 34 71 35 72 36 73 37 74 60 75
REMARK SMILES IDX 61 76 69 77 62 78 68 79 63 80 64 81 65 82 66 83 67 84 46 85
REMARK SMILES IDX 47 86 55 87 48 88 54 89 49 90 50 91 51 92 52 93 53 94
REMARK H PARENT 74 50 44 61
REMARK Flexibility Score: inf
ROOT
ATOM      1  C   UNL A   1      31.987  29.977  25.562  1.00  0.00     0.274 C 
ENDROOT
BRANCH   1   2
ATOM      2  O   UNL A   1      31.890  28.567  25.838  1.00  0.00    -0.462 OA
BRANCH   2   3
ATOM      3  C   UNL A   1      32.857  27.768  25.320  1.00  0.00     0.306 C 
ATOM      4  O   UNL A   1      33.788  27.291  25.967  1.00  0.00    -0.252 OA
BRANCH   3   5
ATOM      5  C   UNL A   1      32.725  27.594  23.824  1.00  0.00     0.129 C 
BRANCH   5   6
ATOM      6  C   UNL A   1      33.356  26.337  23.225  1.00  0.00     0.066 C 
BRANCH   6   7
ATOM      7  C   UNL A   1      32.526  25.092  23.425  1.00  0.00     0.024 A 
ATOM      8  C   UNL A   1      32.071  22.889  23.593  1.00  0.00     0.053 A 
ATOM      9  C   UNL A   1      30.883  23.542  23.340  1.00  0.00     0.029 A 
ATOM     10  N   UNL A   1      33.051  23.858  23.786  1.00  0.00    -0.314 N 
ATOM     11  C   UNL A   1      31.163  24.912  23.273  1.00  0.00     0.024 A 
BRANCH   8  12
ATOM     12  C   UNL A   1      32.232  21.460  23.799  1.00  0.00    -0.001 A 
ATOM     13  C   UNL A   1      32.558  18.725  24.221  1.00  0.00     0.118 A 
ATOM     14  C   UNL A   1      32.401  19.216  22.925  1.00  0.00     0.047 A 
ATOM     15  C   UNL A   1      32.604  19.605  25.304  1.00  0.00     0.047 A 
ATOM     16  C   UNL A   1      32.234  20.582  22.712  1.00  0.00     0.014 A 
ATOM     17  C   UNL A   1      32.441  20.972  25.093  1.00  0.00     0.014 A 
BRANCH  13  18
ATOM     18  O   UNL A   1      32.707  17.370  24.334  1.00  0.00    -0.497 OA
ATOM     19  C   UNL A   1      33.601  16.816  23.374  1.00  0.00     0.278 C 
ENDBRANCH  13  18
ENDBRANCH   8  12
BRANCH  10  20
ATOM     20  C   UNL A   1      34.347  23.640  24.316  1.00  0.00     0.046 A 
ATOM     21  C   UNL A   1      35.362  23.202  23.458  1.00  0.00     0.027 A 
ATOM     22  C   UNL A   1      34.613  23.890  25.661  1.00  0.00     0.027 A 
ATOM     23  C   UNL A   1      36.656  23.009  23.948  1.00  0.00     0.014 A 
ATOM     24  C   UNL A   1      35.903  23.675  26.148  1.00  0.00     0.014 A 
ATOM     25  C   UNL A   1      36.937  23.239  25.300  1.00  0.00     0.017 A 
BRANCH  25  26
ATOM     26  C   UNL A   1      38.292  23.043  25.901  1.00  0.00     0.159 C 
ATOM     27  C   UNL A   1      39.012  24.173  26.592  1.00  0.00     0.093 C 
ATOM     28  O   UNL A   1      38.816  21.928  25.846  1.00  0.00    -0.295 OA
ENDBRANCH  25  26
ENDBRANCH  10  20
ENDBRANCH   6   7
ENDBRANCH   5   6
ENDBRANCH   3   5
ENDBRANCH   2   3
ENDBRANCH   1   2
BRANCH   1  29
ATOM     29  C   UNL A   1      32.458  30.817  26.759  1.00  0.00     0.275 C 
BRANCH  29  30
ATOM     30  O   UNL A   1      33.865  30.737  27.040  1.00  0.00    -0.458 OA
BRANCH  30  31
ATOM     31  C   UNL A   1      34.278  31.708  27.879  1.00  0.00     0.338 C 
ATOM     32  O   UNL A   1      33.753  32.788  28.058  1.00  0.00    -0.246 OA
BRANCH  31  33
ATOM     33  C   UNL A   1      35.568  31.485  28.498  1.00  0.00     0.060 A 
ATOM     34  C   UNL A   1      36.594  32.393  28.201  1.00  0.00     0.016 A 
ATOM     35  C   UNL A   1      35.820  30.219  29.025  1.00  0.00     0.016 A 
ATOM     36  C   UNL A   1      37.905  32.028  28.448  1.00  0.00     0.010 A 
ATOM     37  C   UNL A   1      37.133  29.842  29.244  1.00  0.00     0.010 A 
ATOM     38  C   UNL A   1      38.167  30.754  28.970  1.00  0.00    -0.014 A 
BRANCH  38  39
ATOM     39  C   UNL A   1      39.517  30.478  29.490  1.00  0.00     0.031 A 
ATOM     40  C   UNL A   1      40.138  29.261  28.788  1.00  0.00     0.074 A 
ATOM     41  C   UNL A   1      39.994  31.294  30.475  1.00  0.00     0.049 A 
ATOM     42  N   UNL A   1      41.163  28.547  29.129  1.00  0.00    -0.248 NA
ATOM     43  C   UNL A   1      39.499  28.719  27.550  1.00  0.00     0.031 C 
ATOM     44  C   UNL A   1      39.249  32.428  31.069  1.00  0.00     0.029 A 
ATOM     45  N   UNL A   1      41.183  31.350  31.172  1.00  0.00    -0.354 N 
ATOM     46  C   UNL A   1      41.402  27.628  28.086  1.00  0.00     0.074 A 
ATOM     47  C   UNL A   1      40.299  27.719  27.185  1.00  0.00     0.031 C 
ATOM     48  C   UNL A   1      39.963  33.006  32.061  1.00  0.00     0.029 A 
ATOM     49  C   UNL A   1      41.248  32.342  32.183  1.00  0.00     0.049 A 
ATOM     50  H   UNL A   1      41.934  30.743  30.981  1.00  0.00     0.167 HD
ATOM     51  C   UNL A   1      42.562  26.929  27.955  1.00  0.00     0.031 A 
ATOM     52  C   UNL A   1      42.256  32.605  33.068  1.00  0.00     0.031 A 
ATOM     53  C   UNL A   1      43.413  27.163  29.068  1.00  0.00     0.049 A 
ATOM     54  C   UNL A   1      43.402  31.784  32.646  1.00  0.00     0.074 A 
ATOM     55  C   UNL A   1      43.351  26.775  30.381  1.00  0.00     0.029 A 
ATOM     56  N   UNL A   1      44.315  28.191  28.940  1.00  0.00    -0.354 N 
ATOM     57  N   UNL A   1      44.137  32.016  31.602  1.00  0.00    -0.248 NA
ATOM     58  C   UNL A   1      43.758  30.597  33.433  1.00  0.00     0.031 C 
ATOM     59  C   UNL A   1      43.876  27.884  31.079  1.00  0.00     0.029 A 
ATOM     60  C   UNL A   1      44.371  28.817  30.160  1.00  0.00     0.049 A 
ATOM     61  H   UNL A   1      44.822  28.433  28.131  1.00  0.00     0.167 HD
ATOM     62  C   UNL A   1      44.756  30.809  31.406  1.00  0.00     0.074 A 
ATOM     63  C   UNL A   1      44.756  30.134  32.686  1.00  0.00     0.031 C 
ATOM     64  C   UNL A   1      44.691  30.226  30.182  1.00  0.00     0.031 A 
BRANCH  51  65
ATOM     65  C   UNL A   1      43.142  26.210  26.772  1.00  0.00    -0.014 A 
ATOM     66  C   UNL A   1      42.899  24.816  26.693  1.00  0.00     0.010 A 
ATOM     67  C   UNL A   1      44.171  26.742  25.982  1.00  0.00     0.010 A 
ATOM     68  C   UNL A   1      43.740  23.969  25.975  1.00  0.00     0.020 A 
ATOM     69  C   UNL A   1      44.998  25.898  25.223  1.00  0.00     0.020 A 
ATOM     70  C   UNL A   1      44.812  24.514  25.275  1.00  0.00     0.054 A 
BRANCH  70  71
ATOM     71  S   UNL A   1      46.006  23.380  24.519  1.00  0.00     0.124 S 
ATOM     72  O   UNL A   1      47.049  24.294  24.063  1.00  0.00    -0.237 OA
ATOM     73  O   UNL A   1      46.378  22.517  25.639  1.00  0.00    -0.237 OA
ATOM     74  O   UNL A   1      45.236  22.722  23.467  1.00  0.00    -0.744 OA
ENDBRANCH  70  71
ENDBRANCH  51  65
BRANCH  52  75
ATOM     75  C   UNL A   1      42.477  33.413  34.328  1.00  0.00    -0.014 A 
ATOM     76  C   UNL A   1      43.168  34.625  34.425  1.00  0.00     0.010 A 
ATOM     77  C   UNL A   1      41.795  32.996  35.509  1.00  0.00     0.010 A 
ATOM     78  C   UNL A   1      43.054  35.437  35.579  1.00  0.00     0.020 A 
ATOM     79  C   UNL A   1      41.628  33.809  36.631  1.00  0.00     0.020 A 
ATOM     80  C   UNL A   1      42.239  35.049  36.649  1.00  0.00     0.054 A 
BRANCH  80  81
ATOM     81  S   UNL A   1      41.838  36.199  37.996  1.00  0.00     0.124 S 
ATOM     82  O   UNL A   1      42.685  37.347  37.691  1.00  0.00    -0.237 OA
ATOM     83  O   UNL A   1      40.402  36.410  37.828  1.00  0.00    -0.237 OA
ATOM     84  O   UNL A   1      42.206  35.450  39.197  1.00  0.00    -0.744 OA
ENDBRANCH  80  81
ENDBRANCH  52  75
BRANCH  64  85
ATOM     85  C   UNL A   1      44.506  31.188  29.016  1.00  0.00    -0.014 A 
ATOM     86  C   UNL A   1      43.663  30.832  27.946  1.00  0.00     0.010 A 
ATOM     87  C   UNL A   1      45.222  32.396  28.899  1.00  0.00     0.010 A 
ATOM     88  C   UNL A   1      43.545  31.643  26.806  1.00  0.00     0.020 A 
ATOM     89  C   UNL A   1      45.109  33.217  27.763  1.00  0.00     0.020 A 
ATOM     90  C   UNL A   1      44.270  32.833  26.718  1.00  0.00     0.054 A 
BRANCH  90  91
ATOM     91  S   UNL A   1      44.113  33.847  25.218  1.00  0.00     0.124 S 
ATOM     92  O   UNL A   1      43.838  32.853  24.182  1.00  0.00    -0.237 OA
ATOM     93  O   UNL A   1      42.997  34.728  25.546  1.00  0.00    -0.237 OA
ATOM     94  O   UNL A   1      45.412  34.510  25.102  1.00  0.00    -0.744 OA
ENDBRANCH  90  91
ENDBRANCH  64  85
ENDBRANCH  38  39
ENDBRANCH  31  33
ENDBRANCH  30  31
ENDBRANCH  29  30
ENDBRANCH   1  29
TORSDOF 20
ENDMDL
