MODEL 1
REMARK VINA RESULT:     -11.4      0.000      0.000
REMARK SMILES CCC(=O)N1CCc2cc(C(=O)NC3(C(=O)OCCOC(=O)c4ccc(-c5c6nc(c(-c7ccc(S(=O)(=O)[O-])cc7)c7ccc([nH]7)c(-c7ccc(S(=O)(=O)[O-])cc7)c7nc(c(-c8ccc(S(=O)(=O)[O-])cc8)c8ccc5[nH]8)C=C7)C=C6)cc4)CCCC3)ccc21
REMARK SMILES IDX 18 1 17 2 15 3 16 4 14 5 83 6 86 7 84 8 85 9 13 10 11 11
REMARK SMILES IDX 12 12 10 14 5 15 6 16 89 17 7 18 8 19 88 20 9 21 87 22 3 23
REMARK SMILES IDX 4 24 2 25 1 26 19 27 20 28 21 29 22 30 23 31 24 32 82 33
REMARK SMILES IDX 25 34 81 35 26 36 27 37 28 38 75 39 29 40 80 41 74 42 76 43
REMARK SMILES IDX 30 44 79 45 73 46 72 47 31 49 61 50 42 51 60 52 43 53 46 54
REMARK SMILES IDX 59 55 77 56 44 57 45 58 58 60 78 61 47 62 32 63 33 64 41 65
REMARK SMILES IDX 34 66 40 67 35 68 36 69 37 70 38 71 39 72 62 73 63 74 71 75
REMARK SMILES IDX 64 76 70 77 65 78 66 79 67 80 68 81 69 82 48 83 49 84 57 85
REMARK SMILES IDX 50 86 56 87 51 88 52 89 53 90 54 91 55 92
REMARK H PARENT 13 13 76 48 46 59
REMARK Flexibility Score: inf
ROOT
ATOM      1  C   UNL A   1      33.826  29.059  25.257  1.00  0.00     0.274 C 
ENDROOT
BRANCH   1   2
ATOM      2  O   UNL A   1      33.402  27.879  24.579  1.00  0.00    -0.460 OA
BRANCH   2   3
ATOM      3  C   UNL A   1      32.778  28.065  23.385  1.00  0.00     0.331 C 
ATOM      4  O   UNL A   1      32.754  29.143  22.804  1.00  0.00    -0.249 OA
BRANCH   3   5
ATOM      5  C   UNL A   1      32.050  26.771  22.940  1.00  0.00     0.138 C 
ATOM      6  C   UNL A   1      30.672  27.230  22.386  1.00  0.00     0.040 C 
ATOM      7  C   UNL A   1      31.524  25.948  24.146  1.00  0.00     0.040 C 
ATOM      8  C   UNL A   1      29.877  27.674  23.608  1.00  0.00     0.003 C 
ATOM      9  C   UNL A   1      30.369  26.778  24.742  1.00  0.00     0.003 C 
BRANCH   5  10
ATOM     10  N   UNL A   1      32.697  25.954  21.858  1.00  0.00    -0.336 N 
ATOM     11  C   UNL A   1      32.995  24.641  21.564  1.00  0.00     0.252 C 
ATOM     12  O   UNL A   1      33.147  24.367  20.372  1.00  0.00    -0.269 OA
ATOM     13  H   UNL A   1      33.004  26.542  21.129  1.00  0.00     0.165 HD
BRANCH  11  14
ATOM     14  C   UNL A   1      33.171  23.541  22.548  1.00  0.00     0.040 A 
ATOM     15  N   UNL A   1      34.157  20.147  24.707  1.00  0.00    -0.312 N 
ATOM     16  C   UNL A   1      35.548  20.388  25.093  1.00  0.00     0.130 C 
ATOM     17  C   UNL A   1      33.640  21.294  24.106  1.00  0.00     0.047 A 
ATOM     18  C   UNL A   1      35.834  21.871  24.792  1.00  0.00     0.059 C 
ATOM     19  C   UNL A   1      34.626  22.263  23.991  1.00  0.00    -0.022 A 
ATOM     20  C   UNL A   1      32.360  21.526  23.655  1.00  0.00     0.027 A 
ATOM     21  C   UNL A   1      34.395  23.406  23.230  1.00  0.00     0.019 A 
ATOM     22  C   UNL A   1      32.125  22.689  22.908  1.00  0.00     0.016 A 
BRANCH  15  23
ATOM     23  C   UNL A   1      33.491  18.964  24.878  1.00  0.00     0.226 C 
ATOM     24  O   UNL A   1      32.364  18.891  25.363  1.00  0.00    -0.275 OA
BRANCH  23  25
ATOM     25  C   UNL A   1      34.262  17.720  24.460  1.00  0.00     0.097 C 
ATOM     26  C   UNL A   1      33.798  17.201  23.106  1.00  0.00     0.014 C 
ENDBRANCH  23  25
ENDBRANCH  15  23
ENDBRANCH  11  14
ENDBRANCH   5  10
ENDBRANCH   3   5
ENDBRANCH   2   3
ENDBRANCH   1   2
BRANCH   1  27
ATOM     27  C   UNL A   1      33.041  29.156  26.569  1.00  0.00     0.275 C 
BRANCH  27  28
ATOM     28  O   UNL A   1      33.902  29.034  27.723  1.00  0.00    -0.458 OA
BRANCH  28  29
ATOM     29  C   UNL A   1      34.558  30.183  28.041  1.00  0.00     0.338 C 
ATOM     30  O   UNL A   1      34.082  31.310  28.019  1.00  0.00    -0.246 OA
BRANCH  29  31
ATOM     31  C   UNL A   1      35.987  29.925  28.323  1.00  0.00     0.060 A 
ATOM     32  C   UNL A   1      36.973  30.072  27.345  1.00  0.00     0.016 A 
ATOM     33  C   UNL A   1      36.344  29.482  29.598  1.00  0.00     0.016 A 
ATOM     34  C   UNL A   1      38.317  29.803  27.648  1.00  0.00     0.010 A 
ATOM     35  C   UNL A   1      37.691  29.250  29.914  1.00  0.00     0.010 A 
ATOM     36  C   UNL A   1      38.690  29.385  28.934  1.00  0.00    -0.014 A 
BRANCH  36  37
ATOM     37  C   UNL A   1      40.070  28.880  29.185  1.00  0.00     0.031 A 
ATOM     38  C   UNL A   1      41.017  29.780  29.938  1.00  0.00     0.074 A 
ATOM     39  C   UNL A   1      40.474  27.645  28.821  1.00  0.00     0.049 A 
ATOM     40  N   UNL A   1      42.253  29.566  30.309  1.00  0.00    -0.248 NA
ATOM     41  C   UNL A   1      40.493  31.100  30.329  1.00  0.00     0.031 C 
ATOM     42  C   UNL A   1      39.653  26.647  28.139  1.00  0.00     0.029 A 
ATOM     43  N   UNL A   1      41.687  27.015  28.993  1.00  0.00    -0.354 N 
ATOM     44  C   UNL A   1      42.648  30.716  30.982  1.00  0.00     0.074 A 
ATOM     45  C   UNL A   1      41.541  31.645  30.923  1.00  0.00     0.031 C 
ATOM     46  C   UNL A   1      40.379  25.526  27.964  1.00  0.00     0.029 A 
ATOM     47  C   UNL A   1      41.725  25.729  28.498  1.00  0.00     0.049 A 
ATOM     48  H   UNL A   1      42.458  27.444  29.430  1.00  0.00     0.167 HD
ATOM     49  C   UNL A   1      43.816  30.981  31.611  1.00  0.00     0.031 A 
ATOM     50  C   UNL A   1      42.727  24.823  28.478  1.00  0.00     0.031 A 
ATOM     51  C   UNL A   1      44.933  30.082  31.651  1.00  0.00     0.049 A 
ATOM     52  C   UNL A   1      44.059  25.178  29.102  1.00  0.00     0.074 A 
ATOM     53  C   UNL A   1      46.176  30.279  32.226  1.00  0.00     0.029 A 
ATOM     54  N   UNL A   1      44.946  28.815  31.087  1.00  0.00    -0.354 N 
ATOM     55  N   UNL A   1      44.408  26.270  29.742  1.00  0.00    -0.248 NA
ATOM     56  C   UNL A   1      45.132  24.176  29.004  1.00  0.00     0.031 C 
ATOM     57  C   UNL A   1      46.958  29.149  31.965  1.00  0.00     0.029 A 
ATOM     58  C   UNL A   1      46.182  28.226  31.282  1.00  0.00     0.049 A 
ATOM     59  H   UNL A   1      44.187  28.397  30.618  1.00  0.00     0.167 HD
ATOM     60  C   UNL A   1      45.725  26.070  30.148  1.00  0.00     0.074 A 
ATOM     61  C   UNL A   1      46.108  24.750  29.695  1.00  0.00     0.031 C 
ATOM     62  C   UNL A   1      46.545  26.904  30.834  1.00  0.00     0.031 A 
BRANCH  49  63
ATOM     63  C   UNL A   1      43.940  32.330  32.265  1.00  0.00    -0.014 A 
ATOM     64  C   UNL A   1      43.670  32.500  33.635  1.00  0.00     0.010 A 
ATOM     65  C   UNL A   1      44.302  33.447  31.492  1.00  0.00     0.010 A 
ATOM     66  C   UNL A   1      43.700  33.774  34.207  1.00  0.00     0.020 A 
ATOM     67  C   UNL A   1      44.362  34.718  32.067  1.00  0.00     0.020 A 
ATOM     68  C   UNL A   1      44.036  34.876  33.416  1.00  0.00     0.054 A 
BRANCH  68  69
ATOM     69  S   UNL A   1      44.044  36.522  34.177  1.00  0.00     0.124 S 
ATOM     70  O   UNL A   1      42.875  37.143  33.560  1.00  0.00    -0.237 OA
ATOM     71  O   UNL A   1      43.917  36.218  35.600  1.00  0.00    -0.237 OA
ATOM     72  O   UNL A   1      45.332  37.083  33.774  1.00  0.00    -0.744 OA
ENDBRANCH  68  69
ENDBRANCH  49  63
BRANCH  50  73
ATOM     73  C   UNL A   1      42.538  23.486  27.837  1.00  0.00    -0.014 A 
ATOM     74  C   UNL A   1      42.068  22.385  28.577  1.00  0.00     0.010 A 
ATOM     75  C   UNL A   1      42.882  23.291  26.486  1.00  0.00     0.010 A 
ATOM     76  C   UNL A   1      41.976  21.115  27.991  1.00  0.00     0.020 A 
ATOM     77  C   UNL A   1      42.764  22.032  25.887  1.00  0.00     0.020 A 
ATOM     78  C   UNL A   1      42.327  20.947  26.649  1.00  0.00     0.054 A 
BRANCH  78  79
ATOM     79  S   UNL A   1      42.184  19.298  25.902  1.00  0.00     0.124 S 
ATOM     80  O   UNL A   1      43.008  19.432  24.705  1.00  0.00    -0.237 OA
ATOM     81  O   UNL A   1      42.723  18.430  26.946  1.00  0.00    -0.237 OA
ATOM     82  O   UNL A   1      40.749  19.154  25.662  1.00  0.00    -0.744 OA
ENDBRANCH  78  79
ENDBRANCH  50  73
BRANCH  62  83
ATOM     83  C   UNL A   1      47.928  26.414  31.178  1.00  0.00    -0.014 A 
ATOM     84  C   UNL A   1      49.008  26.595  30.297  1.00  0.00     0.010 A 
ATOM     85  C   UNL A   1      48.165  25.844  32.443  1.00  0.00     0.010 A 
ATOM     86  C   UNL A   1      50.296  26.197  30.667  1.00  0.00     0.020 A 
ATOM     87  C   UNL A   1      49.455  25.471  32.827  1.00  0.00     0.020 A 
ATOM     88  C   UNL A   1      50.513  25.641  31.931  1.00  0.00     0.054 A 
BRANCH  88  89
ATOM     89  S   UNL A   1      52.204  25.195  32.414  1.00  0.00     0.124 S 
ATOM     90  O   UNL A   1      52.146  23.736  32.417  1.00  0.00    -0.237 OA
ATOM     91  O   UNL A   1      53.009  25.790  31.350  1.00  0.00    -0.237 OA
ATOM     92  O   UNL A   1      52.365  25.815  33.727  1.00  0.00    -0.744 OA
ENDBRANCH  88  89
ENDBRANCH  62  83
ENDBRANCH  36  37
ENDBRANCH  29  31
ENDBRANCH  28  29
ENDBRANCH  27  28
ENDBRANCH   1  27
TORSDOF 18
ENDMDL
MODEL 2
REMARK VINA RESULT:     -10.9      2.760      9.471
REMARK SMILES CCC(=O)N1CCc2cc(C(=O)NC3(C(=O)OCCOC(=O)c4ccc(-c5c6nc(c(-c7ccc(S(=O)(=O)[O-])cc7)c7ccc([nH]7)c(-c7ccc(S(=O)(=O)[O-])cc7)c7nc(c(-c8ccc(S(=O)(=O)[O-])cc8)c8ccc5[nH]8)C=C7)C=C6)cc4)CCCC3)ccc21
REMARK SMILES IDX 18 1 17 2 15 3 16 4 14 5 83 6 86 7 84 8 85 9 13 10 11 11
REMARK SMILES IDX 12 12 10 14 5 15 6 16 89 17 7 18 8 19 88 20 9 21 87 22 3 23
REMARK SMILES IDX 4 24 2 25 1 26 19 27 20 28 21 29 22 30 23 31 24 32 82 33
REMARK SMILES IDX 25 34 81 35 26 36 27 37 28 38 75 39 29 40 80 41 74 42 76 43
REMARK SMILES IDX 30 44 79 45 73 46 72 47 31 49 61 50 42 51 60 52 43 53 46 54
REMARK SMILES IDX 59 55 77 56 44 57 45 58 58 60 78 61 47 62 32 63 33 64 41 65
REMARK SMILES IDX 34 66 40 67 35 68 36 69 37 70 38 71 39 72 62 73 63 74 71 75
REMARK SMILES IDX 64 76 70 77 65 78 66 79 67 80 68 81 69 82 48 83 49 84 57 85
REMARK SMILES IDX 50 86 56 87 51 88 52 89 53 90 54 91 55 92
REMARK H PARENT 13 13 76 48 46 59
REMARK Flexibility Score: inf
ROOT
ATOM      1  C   UNL A   1      35.202  24.080  25.269  1.00  0.00     0.274 C 
ENDROOT
BRANCH   1   2
ATOM      2  O   UNL A   1      34.753  22.729  25.338  1.00  0.00    -0.460 OA
BRANCH   2   3
ATOM      3  C   UNL A   1      33.728  22.396  24.509  1.00  0.00     0.331 C 
ATOM      4  O   UNL A   1      33.647  22.790  23.352  1.00  0.00    -0.249 OA
BRANCH   3   5
ATOM      5  C   UNL A   1      32.670  21.548  25.261  1.00  0.00     0.138 C 
ATOM      6  C   UNL A   1      33.462  20.413  25.968  1.00  0.00     0.040 C 
ATOM      7  C   UNL A   1      31.842  20.655  24.300  1.00  0.00     0.040 C 
ATOM      8  C   UNL A   1      33.919  19.487  24.846  1.00  0.00     0.003 C 
ATOM      9  C   UNL A   1      32.819  19.575  23.793  1.00  0.00     0.003 C 
BRANCH   5  10
ATOM     10  N   UNL A   1      31.865  22.237  26.326  1.00  0.00    -0.336 N 
ATOM     11  C   UNL A   1      31.037  23.328  26.483  1.00  0.00     0.252 C 
ATOM     12  O   UNL A   1      30.244  23.283  27.424  1.00  0.00    -0.269 OA
ATOM     13  H   UNL A   1      31.957  21.757  27.182  1.00  0.00     0.165 HD
BRANCH  11  14
ATOM     14  C   UNL A   1      31.031  24.551  25.639  1.00  0.00     0.040 A 
ATOM     15  N   UNL A   1      30.437  28.227  23.825  1.00  0.00    -0.312 N 
ATOM     16  C   UNL A   1      31.064  29.165  24.757  1.00  0.00     0.130 C 
ATOM     17  C   UNL A   1      30.707  26.921  24.234  1.00  0.00     0.047 A 
ATOM     18  C   UNL A   1      31.885  28.316  25.745  1.00  0.00     0.059 C 
ATOM     19  C   UNL A   1      31.409  26.928  25.432  1.00  0.00    -0.022 A 
ATOM     20  C   UNL A   1      30.367  25.739  23.616  1.00  0.00     0.027 A 
ATOM     21  C   UNL A   1      31.597  25.741  26.135  1.00  0.00     0.019 A 
ATOM     22  C   UNL A   1      30.579  24.544  24.319  1.00  0.00     0.016 A 
BRANCH  15  23
ATOM     23  C   UNL A   1      29.674  28.586  22.747  1.00  0.00     0.226 C 
ATOM     24  O   UNL A   1      30.149  28.849  21.645  1.00  0.00    -0.275 OA
BRANCH  23  25
ATOM     25  C   UNL A   1      28.179  28.679  23.014  1.00  0.00     0.097 C 
ATOM     26  C   UNL A   1      27.714  30.125  23.111  1.00  0.00     0.014 C 
ENDBRANCH  23  25
ENDBRANCH  15  23
ENDBRANCH  11  14
ENDBRANCH   5  10
ENDBRANCH   3   5
ENDBRANCH   2   3
ENDBRANCH   1   2
BRANCH   1  27
ATOM     27  C   UNL A   1      36.534  24.172  26.022  1.00  0.00     0.275 C 
BRANCH  27  28
ATOM     28  O   UNL A   1      37.641  23.703  25.218  1.00  0.00    -0.458 OA
BRANCH  28  29
ATOM     29  C   UNL A   1      38.708  23.281  25.950  1.00  0.00     0.338 C 
ATOM     30  O   UNL A   1      39.132  22.134  26.003  1.00  0.00    -0.246 OA
BRANCH  29  31
ATOM     31  C   UNL A   1      39.253  24.373  26.784  1.00  0.00     0.060 A 
ATOM     32  C   UNL A   1      38.941  24.496  28.140  1.00  0.00     0.016 A 
ATOM     33  C   UNL A   1      40.071  25.329  26.177  1.00  0.00     0.016 A 
ATOM     34  C   UNL A   1      39.466  25.557  28.894  1.00  0.00     0.010 A 
ATOM     35  C   UNL A   1      40.628  26.367  26.938  1.00  0.00     0.010 A 
ATOM     36  C   UNL A   1      40.312  26.506  28.301  1.00  0.00    -0.014 A 
BRANCH  36  37
ATOM     37  C   UNL A   1      40.676  27.749  29.040  1.00  0.00     0.031 A 
ATOM     38  C   UNL A   1      42.060  27.829  29.634  1.00  0.00     0.074 A 
ATOM     39  C   UNL A   1      39.846  28.808  29.143  1.00  0.00     0.049 A 
ATOM     40  N   UNL A   1      42.629  28.805  30.292  1.00  0.00    -0.248 NA
ATOM     41  C   UNL A   1      42.918  26.646  29.453  1.00  0.00     0.031 C 
ATOM     42  C   UNL A   1      38.503  28.896  28.572  1.00  0.00     0.029 A 
ATOM     43  N   UNL A   1      40.025  30.027  29.758  1.00  0.00    -0.354 N 
ATOM     44  C   UNL A   1      43.909  28.357  30.594  1.00  0.00     0.074 A 
ATOM     45  C   UNL A   1      44.017  27.004  30.095  1.00  0.00     0.031 C 
ATOM     46  C   UNL A   1      37.986  30.109  28.851  1.00  0.00     0.029 A 
ATOM     47  C   UNL A   1      38.947  30.878  29.639  1.00  0.00     0.049 A 
ATOM     48  H   UNL A   1      40.849  30.270  30.239  1.00  0.00     0.167 HD
ATOM     49  C   UNL A   1      44.920  29.009  31.215  1.00  0.00     0.031 A 
ATOM     50  C   UNL A   1      38.759  32.130  30.111  1.00  0.00     0.031 A 
ATOM     51  C   UNL A   1      44.818  30.340  31.743  1.00  0.00     0.049 A 
ATOM     52  C   UNL A   1      39.867  32.803  30.888  1.00  0.00     0.074 A 
ATOM     53  C   UNL A   1      45.773  31.069  32.428  1.00  0.00     0.029 A 
ATOM     54  N   UNL A   1      43.690  31.140  31.650  1.00  0.00    -0.354 N 
ATOM     55  N   UNL A   1      41.076  32.365  31.154  1.00  0.00    -0.248 NA
ATOM     56  C   UNL A   1      39.588  34.145  31.425  1.00  0.00     0.031 C 
ATOM     57  C   UNL A   1      45.204  32.293  32.794  1.00  0.00     0.029 A 
ATOM     58  C   UNL A   1      43.917  32.349  32.283  1.00  0.00     0.049 A 
ATOM     59  H   UNL A   1      42.851  30.886  31.199  1.00  0.00     0.167 HD
ATOM     60  C   UNL A   1      41.707  33.387  31.860  1.00  0.00     0.074 A 
ATOM     61  C   UNL A   1      40.755  34.472  31.968  1.00  0.00     0.031 C 
ATOM     62  C   UNL A   1      42.962  33.425  32.373  1.00  0.00     0.031 A 
BRANCH  49  63
ATOM     63  C   UNL A   1      46.207  28.252  31.389  1.00  0.00    -0.014 A 
ATOM     64  C   UNL A   1      47.175  28.222  30.368  1.00  0.00     0.010 A 
ATOM     65  C   UNL A   1      46.438  27.534  32.575  1.00  0.00     0.010 A 
ATOM     66  C   UNL A   1      48.324  27.439  30.508  1.00  0.00     0.020 A 
ATOM     67  C   UNL A   1      47.598  26.773  32.730  1.00  0.00     0.020 A 
ATOM     68  C   UNL A   1      48.522  26.712  31.684  1.00  0.00     0.054 A 
BRANCH  68  69
ATOM     69  S   UNL A   1      50.009  25.684  31.831  1.00  0.00     0.124 S 
ATOM     70  O   UNL A   1      50.979  26.635  32.367  1.00  0.00    -0.237 OA
ATOM     71  O   UNL A   1      49.583  24.634  32.752  1.00  0.00    -0.237 OA
ATOM     72  O   UNL A   1      50.261  25.243  30.461  1.00  0.00    -0.744 OA
ENDBRANCH  68  69
ENDBRANCH  49  63
BRANCH  50  73
ATOM     73  C   UNL A   1      37.466  32.846  29.885  1.00  0.00    -0.014 A 
ATOM     74  C   UNL A   1      36.475  32.891  30.883  1.00  0.00     0.010 A 
ATOM     75  C   UNL A   1      37.193  33.445  28.640  1.00  0.00     0.010 A 
ATOM     76  C   UNL A   1      35.233  33.489  30.633  1.00  0.00     0.020 A 
ATOM     77  C   UNL A   1      35.965  34.068  28.394  1.00  0.00     0.020 A 
ATOM     78  C   UNL A   1      34.986  34.072  29.388  1.00  0.00     0.054 A 
BRANCH  78  79
ATOM     79  S   UNL A   1      33.376  34.858  29.089  1.00  0.00     0.124 S 
ATOM     80  O   UNL A   1      32.782  33.969  28.095  1.00  0.00    -0.237 OA
ATOM     81  O   UNL A   1      32.758  34.828  30.413  1.00  0.00    -0.237 OA
ATOM     82  O   UNL A   1      33.730  36.191  28.605  1.00  0.00    -0.744 OA
ENDBRANCH  78  79
ENDBRANCH  50  73
BRANCH  62  83
ATOM     83  C   UNL A   1      43.405  34.687  33.067  1.00  0.00    -0.014 A 
ATOM     84  C   UNL A   1      43.242  34.856  34.453  1.00  0.00     0.010 A 
ATOM     85  C   UNL A   1      44.079  35.680  32.331  1.00  0.00     0.010 A 
ATOM     86  C   UNL A   1      43.726  36.004  35.087  1.00  0.00     0.020 A 
ATOM     87  C   UNL A   1      44.589  36.815  32.966  1.00  0.00     0.020 A 
ATOM     88  C   UNL A   1      44.401  36.975  34.340  1.00  0.00     0.054 A 
BRANCH  88  89
ATOM     89  S   UNL A   1      45.079  38.423  35.197  1.00  0.00     0.124 S 
ATOM     90  O   UNL A   1      46.419  37.965  35.555  1.00  0.00    -0.237 OA
ATOM     91  O   UNL A   1      45.024  39.459  34.168  1.00  0.00    -0.237 OA
ATOM     92  O   UNL A   1      44.167  38.622  36.319  1.00  0.00    -0.744 OA
ENDBRANCH  88  89
ENDBRANCH  62  83
ENDBRANCH  36  37
ENDBRANCH  29  31
ENDBRANCH  28  29
ENDBRANCH  27  28
ENDBRANCH   1  27
TORSDOF 18
ENDMDL
MODEL 3
REMARK VINA RESULT:     -10.9      3.247      9.486
REMARK SMILES CCC(=O)N1CCc2cc(C(=O)NC3(C(=O)OCCOC(=O)c4ccc(-c5c6nc(c(-c7ccc(S(=O)(=O)[O-])cc7)c7ccc([nH]7)c(-c7ccc(S(=O)(=O)[O-])cc7)c7nc(c(-c8ccc(S(=O)(=O)[O-])cc8)c8ccc5[nH]8)C=C7)C=C6)cc4)CCCC3)ccc21
REMARK SMILES IDX 18 1 17 2 15 3 16 4 14 5 83 6 86 7 84 8 85 9 13 10 11 11
REMARK SMILES IDX 12 12 10 14 5 15 6 16 89 17 7 18 8 19 88 20 9 21 87 22 3 23
REMARK SMILES IDX 4 24 2 25 1 26 19 27 20 28 21 29 22 30 23 31 24 32 82 33
REMARK SMILES IDX 25 34 81 35 26 36 27 37 28 38 75 39 29 40 80 41 74 42 76 43
REMARK SMILES IDX 30 44 79 45 73 46 72 47 31 49 61 50 42 51 60 52 43 53 46 54
REMARK SMILES IDX 59 55 77 56 44 57 45 58 58 60 78 61 47 62 32 63 33 64 41 65
REMARK SMILES IDX 34 66 40 67 35 68 36 69 37 70 38 71 39 72 62 73 63 74 71 75
REMARK SMILES IDX 64 76 70 77 65 78 66 79 67 80 68 81 69 82 48 83 49 84 57 85
REMARK SMILES IDX 50 86 56 87 51 88 52 89 53 90 54 91 55 92
REMARK H PARENT 13 13 76 48 46 59
REMARK Flexibility Score: inf
ROOT
ATOM      1  C   UNL A   1      35.349  24.188  25.453  1.00  0.00     0.274 C 
ENDROOT
BRANCH   1   2
ATOM      2  O   UNL A   1      34.808  22.876  25.585  1.00  0.00    -0.460 OA
BRANCH   2   3
ATOM      3  C   UNL A   1      33.852  22.529  24.682  1.00  0.00     0.331 C 
ATOM      4  O   UNL A   1      33.852  22.919  23.522  1.00  0.00    -0.249 OA
BRANCH   3   5
ATOM      5  C   UNL A   1      32.751  21.670  25.356  1.00  0.00     0.138 C 
ATOM      6  C   UNL A   1      33.498  20.506  26.067  1.00  0.00     0.040 C 
ATOM      7  C   UNL A   1      31.965  20.812  24.329  1.00  0.00     0.040 C 
ATOM      8  C   UNL A   1      34.003  19.609  24.942  1.00  0.00     0.003 C 
ATOM      9  C   UNL A   1      32.957  19.739  23.839  1.00  0.00     0.003 C 
BRANCH   5  10
ATOM     10  N   UNL A   1      31.900  22.334  26.400  1.00  0.00    -0.336 N 
ATOM     11  C   UNL A   1      31.043  23.405  26.537  1.00  0.00     0.252 C 
ATOM     12  O   UNL A   1      30.224  23.338  27.455  1.00  0.00    -0.269 OA
ATOM     13  H   UNL A   1      31.978  21.852  27.256  1.00  0.00     0.165 HD
BRANCH  11  14
ATOM     14  C   UNL A   1      31.034  24.633  25.699  1.00  0.00     0.040 A 
ATOM     15  N   UNL A   1      30.432  28.317  23.904  1.00  0.00    -0.312 N 
ATOM     16  C   UNL A   1      31.063  29.251  24.838  1.00  0.00     0.130 C 
ATOM     17  C   UNL A   1      30.704  27.009  24.306  1.00  0.00     0.047 A 
ATOM     18  C   UNL A   1      31.888  28.397  25.819  1.00  0.00     0.059 C 
ATOM     19  C   UNL A   1      31.411  27.010  25.501  1.00  0.00    -0.022 A 
ATOM     20  C   UNL A   1      30.362  25.829  23.685  1.00  0.00     0.027 A 
ATOM     21  C   UNL A   1      31.602  25.820  26.198  1.00  0.00     0.019 A 
ATOM     22  C   UNL A   1      30.576  24.631  24.380  1.00  0.00     0.016 A 
BRANCH  15  23
ATOM     23  C   UNL A   1      29.665  28.681  22.831  1.00  0.00     0.226 C 
ATOM     24  O   UNL A   1      30.137  28.966  21.733  1.00  0.00    -0.275 OA
BRANCH  23  25
ATOM     25  C   UNL A   1      28.168  28.749  23.098  1.00  0.00     0.097 C 
ATOM     26  C   UNL A   1      27.665  30.185  23.110  1.00  0.00     0.014 C 
ENDBRANCH  23  25
ENDBRANCH  15  23
ENDBRANCH  11  14
ENDBRANCH   5  10
ENDBRANCH   3   5
ENDBRANCH   2   3
ENDBRANCH   1   2
BRANCH   1  27
ATOM     27  C   UNL A   1      36.762  24.177  26.045  1.00  0.00     0.275 C 
BRANCH  27  28
ATOM     28  O   UNL A   1      37.642  23.287  25.323  1.00  0.00    -0.458 OA
BRANCH  28  29
ATOM     29  C   UNL A   1      38.701  22.850  26.057  1.00  0.00     0.338 C 
ATOM     30  O   UNL A   1      38.962  21.683  26.314  1.00  0.00    -0.246 OA
BRANCH  29  31
ATOM     31  C   UNL A   1      39.470  23.982  26.617  1.00  0.00     0.060 A 
ATOM     32  C   UNL A   1      39.722  24.101  27.986  1.00  0.00     0.016 A 
ATOM     33  C   UNL A   1      39.917  24.979  25.746  1.00  0.00     0.016 A 
ATOM     34  C   UNL A   1      40.442  25.200  28.480  1.00  0.00     0.010 A 
ATOM     35  C   UNL A   1      40.670  26.057  26.234  1.00  0.00     0.010 A 
ATOM     36  C   UNL A   1      40.921  26.191  27.611  1.00  0.00    -0.014 A 
BRANCH  36  37
ATOM     37  C   UNL A   1      41.476  27.462  28.159  1.00  0.00     0.031 A 
ATOM     38  C   UNL A   1      42.969  27.662  28.085  1.00  0.00     0.074 A 
ATOM     39  C   UNL A   1      40.698  28.446  28.656  1.00  0.00     0.049 A 
ATOM     40  N   UNL A   1      43.693  28.684  28.460  1.00  0.00    -0.248 NA
ATOM     41  C   UNL A   1      43.748  26.556  27.501  1.00  0.00     0.031 C 
ATOM     42  C   UNL A   1      39.239  28.418  28.739  1.00  0.00     0.029 A 
ATOM     43  N   UNL A   1      41.035  29.677  29.174  1.00  0.00    -0.354 N 
ATOM     44  C   UNL A   1      45.005  28.348  28.151  1.00  0.00     0.074 A 
ATOM     45  C   UNL A   1      44.986  27.008  27.606  1.00  0.00     0.031 C 
ATOM     46  C   UNL A   1      38.806  29.582  29.261  1.00  0.00     0.029 A 
ATOM     47  C   UNL A   1      39.954  30.432  29.573  1.00  0.00     0.049 A 
ATOM     48  H   UNL A   1      41.965  29.990  29.251  1.00  0.00     0.167 HD
ATOM     49  C   UNL A   1      46.132  29.085  28.287  1.00  0.00     0.031 A 
ATOM     50  C   UNL A   1      39.897  31.664  30.126  1.00  0.00     0.031 A 
ATOM     51  C   UNL A   1      46.171  30.402  28.853  1.00  0.00     0.049 A 
ATOM     52  C   UNL A   1      41.179  32.431  30.359  1.00  0.00     0.074 A 
ATOM     53  C   UNL A   1      47.271  31.212  29.074  1.00  0.00     0.029 A 
ATOM     54  N   UNL A   1      45.060  31.103  29.297  1.00  0.00    -0.354 N 
ATOM     55  N   UNL A   1      42.410  32.098  30.049  1.00  0.00    -0.248 NA
ATOM     56  C   UNL A   1      41.063  33.744  31.013  1.00  0.00     0.031 C 
ATOM     57  C   UNL A   1      46.830  32.383  29.698  1.00  0.00     0.029 A 
ATOM     58  C   UNL A   1      45.449  32.327  29.809  1.00  0.00     0.049 A 
ATOM     59  H   UNL A   1      44.131  30.777  29.253  1.00  0.00     0.167 HD
ATOM     60  C   UNL A   1      43.207  33.171  30.442  1.00  0.00     0.074 A 
ATOM     61  C   UNL A   1      42.320  34.170  30.998  1.00  0.00     0.031 C 
ATOM     62  C   UNL A   1      44.552  33.318  30.350  1.00  0.00     0.031 A 
BRANCH  49  63
ATOM     63  C   UNL A   1      47.418  28.441  27.847  1.00  0.00    -0.014 A 
ATOM     64  C   UNL A   1      47.879  28.570  26.523  1.00  0.00     0.010 A 
ATOM     65  C   UNL A   1      48.158  27.670  28.760  1.00  0.00     0.010 A 
ATOM     66  C   UNL A   1      49.027  27.890  26.107  1.00  0.00     0.020 A 
ATOM     67  C   UNL A   1      49.321  27.012  28.355  1.00  0.00     0.020 A 
ATOM     68  C   UNL A   1      49.734  27.107  27.024  1.00  0.00     0.054 A 
BRANCH  68  69
ATOM     69  S   UNL A   1      51.205  26.215  26.452  1.00  0.00     0.124 S 
ATOM     70  O   UNL A   1      52.282  26.998  27.052  1.00  0.00    -0.237 OA
ATOM     71  O   UNL A   1      51.010  24.881  27.014  1.00  0.00    -0.237 OA
ATOM     72  O   UNL A   1      51.115  26.295  24.996  1.00  0.00    -0.744 OA
ENDBRANCH  68  69
ENDBRANCH  49  63
BRANCH  50  73
ATOM     73  C   UNL A   1      38.586  32.266  30.519  1.00  0.00    -0.014 A 
ATOM     74  C   UNL A   1      38.005  31.990  31.771  1.00  0.00     0.010 A 
ATOM     75  C   UNL A   1      37.879  33.081  29.615  1.00  0.00     0.010 A 
ATOM     76  C   UNL A   1      36.737  32.487  32.098  1.00  0.00     0.020 A 
ATOM     77  C   UNL A   1      36.624  33.605  29.947  1.00  0.00     0.020 A 
ATOM     78  C   UNL A   1      36.054  33.291  31.181  1.00  0.00     0.054 A 
BRANCH  78  79
ATOM     79  S   UNL A   1      34.419  33.942  31.630  1.00  0.00     0.124 S 
ATOM     80  O   UNL A   1      33.868  32.856  32.436  1.00  0.00    -0.237 OA
ATOM     81  O   UNL A   1      34.754  35.163  32.360  1.00  0.00    -0.237 OA
ATOM     82  O   UNL A   1      33.769  34.156  30.339  1.00  0.00    -0.744 OA
ENDBRANCH  78  79
ENDBRANCH  50  73
BRANCH  62  83
ATOM     83  C   UNL A   1      45.158  34.614  30.823  1.00  0.00    -0.014 A 
ATOM     84  C   UNL A   1      45.297  35.714  29.960  1.00  0.00     0.010 A 
ATOM     85  C   UNL A   1      45.507  34.759  32.179  1.00  0.00     0.010 A 
ATOM     86  C   UNL A   1      45.795  36.930  30.439  1.00  0.00     0.020 A 
ATOM     87  C   UNL A   1      45.978  35.980  32.667  1.00  0.00     0.020 A 
ATOM     88  C   UNL A   1      46.128  37.057  31.791  1.00  0.00     0.054 A 
BRANCH  88  89
ATOM     89  S   UNL A   1      46.707  38.664  32.403  1.00  0.00     0.124 S 
ATOM     90  O   UNL A   1      47.993  38.317  33.000  1.00  0.00    -0.237 OA
ATOM     91  O   UNL A   1      46.776  39.465  31.183  1.00  0.00    -0.237 OA
ATOM     92  O   UNL A   1      45.669  39.070  33.348  1.00  0.00    -0.744 OA
ENDBRANCH  88  89
ENDBRANCH  62  83
ENDBRANCH  36  37
ENDBRANCH  29  31
ENDBRANCH  28  29
ENDBRANCH  27  28
ENDBRANCH   1  27
TORSDOF 18
ENDMDL
