MODEL 1
REMARK VINA RESULT:     -11.8      0.000      0.000
REMARK SMILES O=C(OCCOC(=O)[C@@H]1CC=CC[C@@H]1C(=O)Nc1sc2c(c1C(=O)N1CCCCC1)CCCC2)c1ccc(-c2c3nc(c(-c4ccc(S(=O)(=O)[O-])cc4)c4ccc([nH]4)c(-c4ccc(S(=O)(=O)[O-])cc4)c4nc(c(-c5ccc(S(=O)(=O)[O-])cc5)c5ccc2[nH]5)C=C4)C=C3)cc1
REMARK SMILES IDX 4 1 3 2 2 3 1 4 35 5 36 6 94 7 37 8 93 9 38 10 39 11 40 12
REMARK SMILES IDX 87 13 41 14 92 15 86 16 88 17 42 18 91 19 85 20 84 21 43 23
REMARK SMILES IDX 73 24 54 25 72 26 55 27 58 28 71 29 89 30 56 31 57 32 70 34
REMARK SMILES IDX 90 35 59 36 44 37 45 38 53 39 46 40 52 41 47 42 48 43 49 44
REMARK SMILES IDX 50 45 51 46 74 47 75 48 83 49 76 50 82 51 77 52 78 53 79 54
REMARK SMILES IDX 80 55 81 56 60 57 61 58 69 59 62 60 68 61 63 62 64 63 65 64
REMARK SMILES IDX 66 65 67 66 5 67 6 68 7 69 8 70 9 71 10 72 14 73 11 74 13 75
REMARK SMILES IDX 12 76 15 77 16 78 17 79 18 81 19 82 22 83 20 84 21 85 34 86
REMARK SMILES IDX 31 87 33 88 32 89 23 90 24 91 25 92 26 93 30 94 27 95 29 96
REMARK SMILES IDX 28 97
REMARK H PARENT 88 22 58 33 17 80
REMARK Flexibility Score: inf
ROOT
ATOM      1  C   UNL A   1      36.849  22.133  25.256  1.00  0.00     0.275 C 
ENDROOT
BRANCH   1   2
ATOM      2  O   UNL A   1      37.780  23.192  25.485  1.00  0.00    -0.458 OA
BRANCH   2   3
ATOM      3  C   UNL A   1      38.870  23.203  26.282  1.00  0.00     0.338 C 
ATOM      4  O   UNL A   1      39.362  22.121  26.600  1.00  0.00    -0.246 OA
BRANCH   3   5
ATOM      5  C   UNL A   1      39.484  24.454  26.848  1.00  0.00     0.060 A 
ATOM      6  C   UNL A   1      40.365  25.350  26.218  1.00  0.00     0.016 A 
ATOM      7  C   UNL A   1      39.113  24.744  28.160  1.00  0.00     0.016 A 
ATOM      8  C   UNL A   1      40.775  26.554  26.826  1.00  0.00     0.010 A 
ATOM      9  C   UNL A   1      39.551  25.917  28.773  1.00  0.00     0.010 A 
ATOM     10  C   UNL A   1      40.354  26.873  28.109  1.00  0.00    -0.014 A 
BRANCH  10  11
ATOM     11  C   UNL A   1      40.709  28.144  28.833  1.00  0.00     0.031 A 
ATOM     12  C   UNL A   1      41.896  28.093  29.753  1.00  0.00     0.074 A 
ATOM     13  C   UNL A   1      39.927  29.255  28.849  1.00  0.00     0.049 A 
ATOM     14  N   UNL A   1      42.291  28.956  30.650  1.00  0.00    -0.248 NA
ATOM     15  C   UNL A   1      42.740  26.884  29.667  1.00  0.00     0.031 C 
ATOM     16  C   UNL A   1      38.733  29.489  28.038  1.00  0.00     0.029 A 
ATOM     17  N   UNL A   1      39.961  30.368  29.672  1.00  0.00    -0.354 N 
ATOM     18  C   UNL A   1      43.423  28.390  31.216  1.00  0.00     0.074 A 
ATOM     19  C   UNL A   1      43.543  27.048  30.701  1.00  0.00     0.031 C 
ATOM     20  C   UNL A   1      38.070  30.566  28.497  1.00  0.00     0.029 A 
ATOM     21  C   UNL A   1      38.823  31.152  29.597  1.00  0.00     0.049 A 
ATOM     22  H   UNL A   1      40.725  30.583  30.255  1.00  0.00     0.167 HD
ATOM     23  C   UNL A   1      44.361  28.976  31.991  1.00  0.00     0.031 A 
ATOM     24  C   UNL A   1      38.428  32.222  30.320  1.00  0.00     0.031 A 
ATOM     25  C   UNL A   1      44.265  30.320  32.468  1.00  0.00     0.049 A 
ATOM     26  C   UNL A   1      39.416  32.830  31.282  1.00  0.00     0.074 A 
ATOM     27  C   UNL A   1      45.213  31.067  33.140  1.00  0.00     0.029 A 
ATOM     28  N   UNL A   1      43.142  31.120  32.321  1.00  0.00    -0.354 N 
ATOM     29  N   UNL A   1      40.581  32.368  31.663  1.00  0.00    -0.248 NA
ATOM     30  C   UNL A   1      39.085  34.153  31.833  1.00  0.00     0.031 C 
ATOM     31  C   UNL A   1      44.644  32.310  33.440  1.00  0.00     0.029 A 
ATOM     32  C   UNL A   1      43.364  32.351  32.908  1.00  0.00     0.049 A 
ATOM     33  H   UNL A   1      42.311  30.851  31.866  1.00  0.00     0.167 HD
ATOM     34  C   UNL A   1      41.170  33.387  32.401  1.00  0.00     0.074 A 
ATOM     35  C   UNL A   1      40.212  34.471  32.457  1.00  0.00     0.031 C 
ATOM     36  C   UNL A   1      42.413  33.433  32.938  1.00  0.00     0.031 A 
BRANCH  23  37
ATOM     37  C   UNL A   1      45.599  28.167  32.253  1.00  0.00    -0.014 A 
ATOM     38  C   UNL A   1      46.672  28.205  31.339  1.00  0.00     0.010 A 
ATOM     39  C   UNL A   1      45.681  27.333  33.378  1.00  0.00     0.010 A 
ATOM     40  C   UNL A   1      47.771  27.365  31.501  1.00  0.00     0.020 A 
ATOM     41  C   UNL A   1      46.803  26.519  33.565  1.00  0.00     0.020 A 
ATOM     42  C   UNL A   1      47.826  26.522  32.613  1.00  0.00     0.054 A 
BRANCH  42  43
ATOM     43  S   UNL A   1      49.268  25.443  32.800  1.00  0.00     0.124 S 
ATOM     44  O   UNL A   1      49.579  25.109  31.413  1.00  0.00    -0.237 OA
ATOM     45  O   UNL A   1      50.234  26.311  33.468  1.00  0.00    -0.237 OA
ATOM     46  O   UNL A   1      48.767  24.335  33.611  1.00  0.00    -0.744 OA
ENDBRANCH  42  43
ENDBRANCH  23  37
BRANCH  24  47
ATOM     47  C   UNL A   1      37.105  32.884  30.092  1.00  0.00    -0.014 A 
ATOM     48  C   UNL A   1      36.932  33.774  29.015  1.00  0.00     0.010 A 
ATOM     49  C   UNL A   1      36.030  32.687  30.980  1.00  0.00     0.010 A 
ATOM     50  C   UNL A   1      35.733  34.479  28.849  1.00  0.00     0.020 A 
ATOM     51  C   UNL A   1      34.820  33.380  30.810  1.00  0.00     0.020 A 
ATOM     52  C   UNL A   1      34.684  34.280  29.751  1.00  0.00     0.054 A 
BRANCH  52  53
ATOM     53  S   UNL A   1      33.139  35.207  29.502  1.00  0.00     0.124 S 
ATOM     54  O   UNL A   1      33.629  36.521  29.099  1.00  0.00    -0.237 OA
ATOM     55  O   UNL A   1      32.475  34.432  28.456  1.00  0.00    -0.237 OA
ATOM     56  O   UNL A   1      32.492  35.157  30.811  1.00  0.00    -0.744 OA
ENDBRANCH  52  53
ENDBRANCH  24  47
BRANCH  36  57
ATOM     57  C   UNL A   1      42.859  34.723  33.563  1.00  0.00    -0.014 A 
ATOM     58  C   UNL A   1      42.680  34.979  34.932  1.00  0.00     0.010 A 
ATOM     59  C   UNL A   1      43.553  35.658  32.770  1.00  0.00     0.010 A 
ATOM     60  C   UNL A   1      43.177  36.157  35.495  1.00  0.00     0.020 A 
ATOM     61  C   UNL A   1      44.080  36.819  33.336  1.00  0.00     0.020 A 
ATOM     62  C   UNL A   1      43.881  37.064  34.696  1.00  0.00     0.054 A 
BRANCH  62  63
ATOM     63  S   UNL A   1      44.590  38.540  35.472  1.00  0.00     0.124 S 
ATOM     64  O   UNL A   1      43.953  39.617  34.717  1.00  0.00    -0.237 OA
ATOM     65  O   UNL A   1      44.160  38.407  36.862  1.00  0.00    -0.237 OA
ATOM     66  O   UNL A   1      46.027  38.392  35.255  1.00  0.00    -0.744 OA
ENDBRANCH  62  63
ENDBRANCH  36  57
ENDBRANCH  10  11
ENDBRANCH   3   5
ENDBRANCH   2   3
ENDBRANCH   1   2
BRANCH   1  67
ATOM     67  C   UNL A   1      35.683  22.061  26.243  1.00  0.00     0.274 C 
BRANCH  67  68
ATOM     68  O   UNL A   1      34.803  23.202  26.321  1.00  0.00    -0.462 OA
BRANCH  68  69
ATOM     69  C   UNL A   1      33.501  22.981  26.684  1.00  0.00     0.310 C 
ATOM     70  O   UNL A   1      33.177  22.433  27.731  1.00  0.00    -0.252 OA
BRANCH  69  71
ATOM     71  C   UNL A   1      32.504  23.262  25.556  1.00  0.00     0.116 C 
ATOM     72  C   UNL A   1      32.726  22.367  24.333  1.00  0.00     0.043 C 
ATOM     73  C   UNL A   1      32.087  24.743  25.220  1.00  0.00     0.097 C 
ATOM     74  C   UNL A   1      31.704  22.604  23.266  1.00  0.00    -0.030 C 
ATOM     75  C   UNL A   1      30.769  24.651  24.407  1.00  0.00     0.041 C 
ATOM     76  C   UNL A   1      30.812  23.607  23.310  1.00  0.00    -0.030 C 
BRANCH  73  77
ATOM     77  C   UNL A   1      33.008  25.538  24.300  1.00  0.00     0.229 C 
ATOM     78  O   UNL A   1      34.064  24.994  23.977  1.00  0.00    -0.274 OA
ATOM     79  N   UNL A   1      32.745  26.721  23.657  1.00  0.00    -0.317 N 
ATOM     80  H   UNL A   1      33.497  27.016  23.094  1.00  0.00     0.170 HD
BRANCH  79  81
ATOM     81  C   UNL A   1      31.675  27.601  23.612  1.00  0.00     0.108 A 
ATOM     82  S   UNL A   1      30.663  27.617  22.261  1.00  0.00    -0.122 S 
ATOM     83  C   UNL A   1      31.286  28.531  24.605  1.00  0.00     0.078 A 
ATOM     84  C   UNL A   1      29.960  29.070  22.733  1.00  0.00     0.011 A 
ATOM     85  C   UNL A   1      30.340  29.474  24.002  1.00  0.00    -0.019 A 
ATOM     86  C   UNL A   1      29.055  29.814  21.805  1.00  0.00     0.047 C 
ATOM     87  C   UNL A   1      29.860  30.798  24.531  1.00  0.00     0.037 C 
ATOM     88  C   UNL A   1      29.069  31.303  22.155  1.00  0.00     0.006 C 
ATOM     89  C   UNL A   1      28.816  31.498  23.647  1.00  0.00     0.005 C 
BRANCH  83  90
ATOM     90  C   UNL A   1      31.977  28.540  25.936  1.00  0.00     0.257 C 
ATOM     91  O   UNL A   1      31.661  27.713  26.781  1.00  0.00    -0.269 OA
ATOM     92  N   UNL A   1      33.080  29.380  26.165  1.00  0.00    -0.339 N 
ATOM     93  C   UNL A   1      34.304  28.760  26.674  1.00  0.00     0.120 C 
ATOM     94  C   UNL A   1      33.010  30.837  26.234  1.00  0.00     0.120 C 
ATOM     95  C   UNL A   1      34.806  29.354  27.990  1.00  0.00     0.022 C 
ATOM     96  C   UNL A   1      33.482  31.416  27.571  1.00  0.00     0.022 C 
ATOM     97  C   UNL A   1      34.863  30.877  27.930  1.00  0.00     0.004 C 
ENDBRANCH  83  90
ENDBRANCH  79  81
ENDBRANCH  73  77
ENDBRANCH  69  71
ENDBRANCH  68  69
ENDBRANCH  67  68
ENDBRANCH   1  67
TORSDOF 17
ENDMDL
MODEL 2
REMARK VINA RESULT:     -10.7      9.033     16.567
REMARK SMILES O=C(OCCOC(=O)[C@@H]1CC=CC[C@@H]1C(=O)Nc1sc2c(c1C(=O)N1CCCCC1)CCCC2)c1ccc(-c2c3nc(c(-c4ccc(S(=O)(=O)[O-])cc4)c4ccc([nH]4)c(-c4ccc(S(=O)(=O)[O-])cc4)c4nc(c(-c5ccc(S(=O)(=O)[O-])cc5)c5ccc2[nH]5)C=C4)C=C3)cc1
REMARK SMILES IDX 4 1 3 2 2 3 1 4 35 5 36 6 94 7 37 8 93 9 38 10 39 11 40 12
REMARK SMILES IDX 87 13 41 14 92 15 86 16 88 17 42 18 91 19 85 20 84 21 43 23
REMARK SMILES IDX 73 24 54 25 72 26 55 27 58 28 71 29 89 30 56 31 57 32 70 34
REMARK SMILES IDX 90 35 59 36 44 37 45 38 53 39 46 40 52 41 47 42 48 43 49 44
REMARK SMILES IDX 50 45 51 46 74 47 75 48 83 49 76 50 82 51 77 52 78 53 79 54
REMARK SMILES IDX 80 55 81 56 60 57 61 58 69 59 62 60 68 61 63 62 64 63 65 64
REMARK SMILES IDX 66 65 67 66 5 67 6 68 7 69 8 70 9 71 10 72 14 73 11 74 13 75
REMARK SMILES IDX 12 76 15 77 16 78 17 79 18 81 19 82 22 83 20 84 21 85 34 86
REMARK SMILES IDX 31 87 33 88 32 89 23 90 24 91 25 92 26 93 30 94 27 95 29 96
REMARK SMILES IDX 28 97
REMARK H PARENT 88 22 58 33 17 80
REMARK Flexibility Score: inf
ROOT
ATOM      1  C   UNL A   1      45.541  40.199  27.347  1.00  0.00     0.275 C 
ENDROOT
BRANCH   1   2
ATOM      2  O   UNL A   1      46.161  39.398  28.355  1.00  0.00    -0.458 OA
BRANCH   2   3
ATOM      3  C   UNL A   1      45.581  38.629  29.301  1.00  0.00     0.338 C 
ATOM      4  O   UNL A   1      45.193  39.180  30.332  1.00  0.00    -0.246 OA
BRANCH   3   5
ATOM      5  C   UNL A   1      45.431  37.137  29.197  1.00  0.00     0.060 A 
ATOM      6  C   UNL A   1      45.823  36.158  30.127  1.00  0.00     0.016 A 
ATOM      7  C   UNL A   1      44.820  36.692  28.026  1.00  0.00     0.016 A 
ATOM      8  C   UNL A   1      45.516  34.793  29.957  1.00  0.00     0.010 A 
ATOM      9  C   UNL A   1      44.551  35.336  27.842  1.00  0.00     0.010 A 
ATOM     10  C   UNL A   1      44.850  34.358  28.819  1.00  0.00    -0.014 A 
BRANCH  10  11
ATOM     11  C   UNL A   1      44.449  32.931  28.557  1.00  0.00     0.031 A 
ATOM     12  C   UNL A   1      43.163  32.463  29.178  1.00  0.00     0.074 A 
ATOM     13  C   UNL A   1      45.253  32.010  27.966  1.00  0.00     0.049 A 
ATOM     14  N   UNL A   1      42.690  31.251  29.299  1.00  0.00    -0.248 NA
ATOM     15  C   UNL A   1      42.302  33.507  29.770  1.00  0.00     0.031 C 
ATOM     16  C   UNL A   1      46.538  32.268  27.316  1.00  0.00     0.029 A 
ATOM     17  N   UNL A   1      45.155  30.630  27.912  1.00  0.00    -0.354 N 
ATOM     18  C   UNL A   1      41.487  31.402  29.969  1.00  0.00     0.074 A 
ATOM     19  C   UNL A   1      41.391  32.779  30.387  1.00  0.00     0.031 C 
ATOM     20  C   UNL A   1      47.172  31.106  27.078  1.00  0.00     0.029 A 
ATOM     21  C   UNL A   1      46.314  30.004  27.490  1.00  0.00     0.049 A 
ATOM     22  H   UNL A   1      44.335  30.140  28.151  1.00  0.00     0.167 HD
ATOM     23  C   UNL A   1      40.482  30.511  30.109  1.00  0.00     0.031 A 
ATOM     24  C   UNL A   1      46.653  28.698  27.432  1.00  0.00     0.031 A 
ATOM     25  C   UNL A   1      40.559  29.156  29.658  1.00  0.00     0.049 A 
ATOM     26  C   UNL A   1      45.578  27.676  27.699  1.00  0.00     0.074 A 
ATOM     27  C   UNL A   1      39.561  28.203  29.617  1.00  0.00     0.029 A 
ATOM     28  N   UNL A   1      41.712  28.563  29.169  1.00  0.00    -0.354 N 
ATOM     29  N   UNL A   1      44.364  27.862  28.157  1.00  0.00    -0.248 NA
ATOM     30  C   UNL A   1      45.878  26.281  27.343  1.00  0.00     0.031 C 
ATOM     31  C   UNL A   1      40.124  27.014  29.142  1.00  0.00     0.029 A 
ATOM     32  C   UNL A   1      41.457  27.246  28.839  1.00  0.00     0.049 A 
ATOM     33  H   UNL A   1      42.582  29.014  29.070  1.00  0.00     0.167 HD
ATOM     34  C   UNL A   1      43.722  26.636  28.037  1.00  0.00     0.074 A 
ATOM     35  C   UNL A   1      44.696  25.703  27.511  1.00  0.00     0.031 C 
ATOM     36  C   UNL A   1      42.427  26.330  28.294  1.00  0.00     0.031 A 
BRANCH  23  37
ATOM     37  C   UNL A   1      39.201  31.045  30.682  1.00  0.00    -0.014 A 
ATOM     38  C   UNL A   1      38.282  31.717  29.849  1.00  0.00     0.010 A 
ATOM     39  C   UNL A   1      38.927  30.927  32.053  1.00  0.00     0.010 A 
ATOM     40  C   UNL A   1      37.153  32.329  30.387  1.00  0.00     0.020 A 
ATOM     41  C   UNL A   1      37.773  31.505  32.589  1.00  0.00     0.020 A 
ATOM     42  C   UNL A   1      36.909  32.223  31.757  1.00  0.00     0.054 A 
BRANCH  42  43
ATOM     43  S   UNL A   1      35.432  33.026  32.430  1.00  0.00     0.124 S 
ATOM     44  O   UNL A   1      34.359  32.320  31.734  1.00  0.00    -0.237 OA
ATOM     45  O   UNL A   1      35.540  32.749  33.860  1.00  0.00    -0.237 OA
ATOM     46  O   UNL A   1      35.601  34.428  32.056  1.00  0.00    -0.744 OA
ENDBRANCH  42  43
ENDBRANCH  23  37
BRANCH  24  47
ATOM     47  C   UNL A   1      48.010  28.253  26.986  1.00  0.00    -0.014 A 
ATOM     48  C   UNL A   1      48.270  28.025  25.621  1.00  0.00     0.010 A 
ATOM     49  C   UNL A   1      49.032  27.990  27.918  1.00  0.00     0.010 A 
ATOM     50  C   UNL A   1      49.503  27.510  25.200  1.00  0.00     0.020 A 
ATOM     51  C   UNL A   1      50.276  27.489  27.499  1.00  0.00     0.020 A 
ATOM     52  C   UNL A   1      50.499  27.241  26.143  1.00  0.00     0.054 A 
BRANCH  52  53
ATOM     53  S   UNL A   1      52.090  26.580  25.560  1.00  0.00     0.124 S 
ATOM     54  O   UNL A   1      51.873  26.481  24.120  1.00  0.00    -0.237 OA
ATOM     55  O   UNL A   1      53.032  27.611  25.988  1.00  0.00    -0.237 OA
ATOM     56  O   UNL A   1      52.211  25.303  26.261  1.00  0.00    -0.744 OA
ENDBRANCH  52  53
ENDBRANCH  24  47
BRANCH  36  57
ATOM     57  C   UNL A   1      41.947  24.954  27.934  1.00  0.00    -0.014 A 
ATOM     58  C   UNL A   1      41.168  24.722  26.790  1.00  0.00     0.010 A 
ATOM     59  C   UNL A   1      42.366  23.861  28.718  1.00  0.00     0.010 A 
ATOM     60  C   UNL A   1      40.805  23.419  26.442  1.00  0.00     0.020 A 
ATOM     61  C   UNL A   1      42.033  22.556  28.355  1.00  0.00     0.020 A 
ATOM     62  C   UNL A   1      41.247  22.344  27.222  1.00  0.00     0.054 A 
BRANCH  62  63
ATOM     63  S   UNL A   1      40.833  20.660  26.697  1.00  0.00     0.124 S 
ATOM     64  O   UNL A   1      41.937  20.342  25.796  1.00  0.00    -0.237 OA
ATOM     65  O   UNL A   1      40.821  19.926  27.961  1.00  0.00    -0.237 OA
ATOM     66  O   UNL A   1      39.527  20.806  26.057  1.00  0.00    -0.744 OA
ENDBRANCH  62  63
ENDBRANCH  36  57
ENDBRANCH  10  11
ENDBRANCH   3   5
ENDBRANCH   2   3
ENDBRANCH   1   2
BRANCH   1  67
ATOM     67  C   UNL A   1      45.847  41.696  27.421  1.00  0.00     0.274 C 
BRANCH  67  68
ATOM     68  O   UNL A   1      44.789  42.611  27.069  1.00  0.00    -0.462 OA
BRANCH  68  69
ATOM     69  C   UNL A   1      44.936  43.347  25.923  1.00  0.00     0.310 C 
ATOM     70  O   UNL A   1      45.826  44.175  25.765  1.00  0.00    -0.252 OA
BRANCH  69  71
ATOM     71  C   UNL A   1      43.751  43.216  24.963  1.00  0.00     0.116 C 
ATOM     72  C   UNL A   1      43.065  41.849  25.052  1.00  0.00     0.043 C 
ATOM     73  C   UNL A   1      43.843  43.811  23.508  1.00  0.00     0.097 C 
ATOM     74  C   UNL A   1      41.868  41.758  24.159  1.00  0.00    -0.030 C 
ATOM     75  C   UNL A   1      42.384  43.936  22.995  1.00  0.00     0.041 C 
ATOM     76  C   UNL A   1      41.548  42.701  23.258  1.00  0.00    -0.030 C 
BRANCH  73  77
ATOM     77  C   UNL A   1      44.514  42.952  22.441  1.00  0.00     0.229 C 
ATOM     78  O   UNL A   1      45.115  41.954  22.838  1.00  0.00    -0.274 OA
ATOM     79  N   UNL A   1      44.406  43.060  21.078  1.00  0.00    -0.317 N 
ATOM     80  H   UNL A   1      44.916  42.363  20.606  1.00  0.00     0.170 HD
BRANCH  79  81
ATOM     81  C   UNL A   1      43.752  43.916  20.206  1.00  0.00     0.108 A 
ATOM     82  S   UNL A   1      42.225  43.501  19.616  1.00  0.00    -0.122 S 
ATOM     83  C   UNL A   1      44.208  45.166  19.725  1.00  0.00     0.078 A 
ATOM     84  C   UNL A   1      42.292  44.699  18.437  1.00  0.00     0.011 A 
ATOM     85  C   UNL A   1      43.375  45.548  18.582  1.00  0.00    -0.019 A 
ATOM     86  C   UNL A   1      41.268  44.753  17.349  1.00  0.00     0.047 C 
ATOM     87  C   UNL A   1      43.618  46.619  17.554  1.00  0.00     0.037 C 
ATOM     88  C   UNL A   1      41.858  45.447  16.121  1.00  0.00     0.006 C 
ATOM     89  C   UNL A   1      42.493  46.776  16.518  1.00  0.00     0.005 C 
BRANCH  83  90
ATOM     90  C   UNL A   1      45.472  45.763  20.271  1.00  0.00     0.257 C 
ATOM     91  O   UNL A   1      45.435  46.381  21.327  1.00  0.00    -0.269 OA
ATOM     92  N   UNL A   1      46.710  45.490  19.669  1.00  0.00    -0.339 N 
ATOM     93  C   UNL A   1      47.780  44.983  20.528  1.00  0.00     0.120 C 
ATOM     94  C   UNL A   1      47.107  45.959  18.343  1.00  0.00     0.120 C 
ATOM     95  C   UNL A   1      49.052  45.832  20.512  1.00  0.00     0.022 C 
ATOM     96  C   UNL A   1      48.361  46.837  18.347  1.00  0.00     0.022 C 
ATOM     97  C   UNL A   1      49.499  46.143  19.088  1.00  0.00     0.004 C 
ENDBRANCH  83  90
ENDBRANCH  79  81
ENDBRANCH  73  77
ENDBRANCH  69  71
ENDBRANCH  68  69
ENDBRANCH  67  68
ENDBRANCH   1  67
TORSDOF 17
ENDMDL
MODEL 3
REMARK VINA RESULT:     -10.6      1.843      2.389
REMARK SMILES O=C(OCCOC(=O)[C@@H]1CC=CC[C@@H]1C(=O)Nc1sc2c(c1C(=O)N1CCCCC1)CCCC2)c1ccc(-c2c3nc(c(-c4ccc(S(=O)(=O)[O-])cc4)c4ccc([nH]4)c(-c4ccc(S(=O)(=O)[O-])cc4)c4nc(c(-c5ccc(S(=O)(=O)[O-])cc5)c5ccc2[nH]5)C=C4)C=C3)cc1
REMARK SMILES IDX 4 1 3 2 2 3 1 4 35 5 36 6 94 7 37 8 93 9 38 10 39 11 40 12
REMARK SMILES IDX 87 13 41 14 92 15 86 16 88 17 42 18 91 19 85 20 84 21 43 23
REMARK SMILES IDX 73 24 54 25 72 26 55 27 58 28 71 29 89 30 56 31 57 32 70 34
REMARK SMILES IDX 90 35 59 36 44 37 45 38 53 39 46 40 52 41 47 42 48 43 49 44
REMARK SMILES IDX 50 45 51 46 74 47 75 48 83 49 76 50 82 51 77 52 78 53 79 54
REMARK SMILES IDX 80 55 81 56 60 57 61 58 69 59 62 60 68 61 63 62 64 63 65 64
REMARK SMILES IDX 66 65 67 66 5 67 6 68 7 69 8 70 9 71 10 72 14 73 11 74 13 75
REMARK SMILES IDX 12 76 15 77 16 78 17 79 18 81 19 82 22 83 20 84 21 85 34 86
REMARK SMILES IDX 31 87 33 88 32 89 23 90 24 91 25 92 26 93 30 94 27 95 29 96
REMARK SMILES IDX 28 97
REMARK H PARENT 88 22 58 33 17 80
REMARK Flexibility Score: inf
ROOT
ATOM      1  C   UNL A   1      36.477  21.758  25.686  1.00  0.00     0.275 C 
ENDROOT
BRANCH   1   2
ATOM      2  O   UNL A   1      37.405  22.839  25.781  1.00  0.00    -0.458 OA
BRANCH   2   3
ATOM      3  C   UNL A   1      38.672  22.829  26.250  1.00  0.00     0.338 C 
ATOM      4  O   UNL A   1      39.207  21.736  26.438  1.00  0.00    -0.246 OA
BRANCH   3   5
ATOM      5  C   UNL A   1      39.445  24.067  26.608  1.00  0.00     0.060 A 
ATOM      6  C   UNL A   1      40.286  24.834  25.783  1.00  0.00     0.016 A 
ATOM      7  C   UNL A   1      39.287  24.493  27.926  1.00  0.00     0.016 A 
ATOM      8  C   UNL A   1      40.861  26.047  26.215  1.00  0.00     0.010 A 
ATOM      9  C   UNL A   1      39.887  25.674  28.362  1.00  0.00     0.010 A 
ATOM     10  C   UNL A   1      40.651  26.504  27.509  1.00  0.00    -0.014 A 
BRANCH  10  11
ATOM     11  C   UNL A   1      41.192  27.797  28.057  1.00  0.00     0.031 A 
ATOM     12  C   UNL A   1      42.659  27.835  28.383  1.00  0.00     0.074 A 
ATOM     13  C   UNL A   1      40.419  28.845  28.441  1.00  0.00     0.049 A 
ATOM     14  N   UNL A   1      43.339  28.724  29.057  1.00  0.00    -0.248 NA
ATOM     15  C   UNL A   1      43.466  26.694  27.907  1.00  0.00     0.031 C 
ATOM     16  C   UNL A   1      38.980  28.989  28.221  1.00  0.00     0.029 A 
ATOM     17  N   UNL A   1      40.723  29.956  29.208  1.00  0.00    -0.354 N 
ATOM     18  C   UNL A   1      44.639  28.245  29.070  1.00  0.00     0.074 A 
ATOM     19  C   UNL A   1      44.620  26.917  28.507  1.00  0.00     0.031 C 
ATOM     20  C   UNL A   1      38.504  30.011  28.955  1.00  0.00     0.029 A 
ATOM     21  C   UNL A   1      39.611  30.651  29.650  1.00  0.00     0.049 A 
ATOM     22  H   UNL A   1      41.646  30.228  29.419  1.00  0.00     0.167 HD
ATOM     23  C   UNL A   1      45.775  28.899  29.393  1.00  0.00     0.031 A 
ATOM     24  C   UNL A   1      39.489  31.687  30.508  1.00  0.00     0.031 A 
ATOM     25  C   UNL A   1      45.800  30.232  29.911  1.00  0.00     0.049 A 
ATOM     26  C   UNL A   1      40.749  32.367  30.981  1.00  0.00     0.074 A 
ATOM     27  C   UNL A   1      46.890  31.047  30.142  1.00  0.00     0.029 A 
ATOM     28  N   UNL A   1      44.670  30.944  30.281  1.00  0.00    -0.354 N 
ATOM     29  N   UNL A   1      41.994  31.994  30.815  1.00  0.00    -0.248 NA
ATOM     30  C   UNL A   1      40.594  33.660  31.664  1.00  0.00     0.031 C 
ATOM     31  C   UNL A   1      46.420  32.243  30.696  1.00  0.00     0.029 A 
ATOM     32  C   UNL A   1      45.036  32.187  30.760  1.00  0.00     0.049 A 
ATOM     33  H   UNL A   1      43.745  30.613  30.214  1.00  0.00     0.167 HD
ATOM     34  C   UNL A   1      42.770  33.054  31.267  1.00  0.00     0.074 A 
ATOM     35  C   UNL A   1      41.855  34.062  31.761  1.00  0.00     0.031 C 
ATOM     36  C   UNL A   1      44.117  33.193  31.228  1.00  0.00     0.031 A 
BRANCH  23  37
ATOM     37  C   UNL A   1      47.059  28.187  29.078  1.00  0.00    -0.014 A 
ATOM     38  C   UNL A   1      47.644  28.319  27.800  1.00  0.00     0.010 A 
ATOM     39  C   UNL A   1      47.662  27.349  30.026  1.00  0.00     0.010 A 
ATOM     40  C   UNL A   1      48.762  27.566  27.451  1.00  0.00     0.020 A 
ATOM     41  C   UNL A   1      48.809  26.623  29.692  1.00  0.00     0.020 A 
ATOM     42  C   UNL A   1      49.334  26.717  28.399  1.00  0.00     0.054 A 
BRANCH  42  43
ATOM     43  S   UNL A   1      50.789  25.752  27.919  1.00  0.00     0.124 S 
ATOM     44  O   UNL A   1      50.238  24.403  27.820  1.00  0.00    -0.237 OA
ATOM     45  O   UNL A   1      51.177  26.365  26.651  1.00  0.00    -0.237 OA
ATOM     46  O   UNL A   1      51.724  25.964  29.022  1.00  0.00    -0.744 OA
ENDBRANCH  42  43
ENDBRANCH  23  37
BRANCH  24  47
ATOM     47  C   UNL A   1      38.153  32.247  30.886  1.00  0.00    -0.014 A 
ATOM     48  C   UNL A   1      37.489  33.141  30.026  1.00  0.00     0.010 A 
ATOM     49  C   UNL A   1      37.564  31.947  32.129  1.00  0.00     0.010 A 
ATOM     50  C   UNL A   1      36.289  33.752  30.411  1.00  0.00     0.020 A 
ATOM     51  C   UNL A   1      36.353  32.545  32.514  1.00  0.00     0.020 A 
ATOM     52  C   UNL A   1      35.728  33.453  31.656  1.00  0.00     0.054 A 
BRANCH  52  53
ATOM     53  S   UNL A   1      34.166  34.259  32.120  1.00  0.00     0.124 S 
ATOM     54  O   UNL A   1      33.538  33.250  32.967  1.00  0.00    -0.237 OA
ATOM     55  O   UNL A   1      34.627  35.463  32.807  1.00  0.00    -0.237 OA
ATOM     56  O   UNL A   1      33.505  34.496  30.838  1.00  0.00    -0.744 OA
ENDBRANCH  52  53
ENDBRANCH  24  47
BRANCH  36  57
ATOM     57  C   UNL A   1      44.697  34.513  31.648  1.00  0.00    -0.014 A 
ATOM     58  C   UNL A   1      44.822  35.583  30.748  1.00  0.00     0.010 A 
ATOM     59  C   UNL A   1      45.042  34.704  33.000  1.00  0.00     0.010 A 
ATOM     60  C   UNL A   1      45.293  36.820  31.191  1.00  0.00     0.020 A 
ATOM     61  C   UNL A   1      45.481  35.948  33.453  1.00  0.00     0.020 A 
ATOM     62  C   UNL A   1      45.611  36.997  32.542  1.00  0.00     0.054 A 
BRANCH  62  63
ATOM     63  S   UNL A   1      46.137  38.638  33.105  1.00  0.00     0.124 S 
ATOM     64  O   UNL A   1      47.248  38.312  33.996  1.00  0.00    -0.237 OA
ATOM     65  O   UNL A   1      46.506  39.300  31.856  1.00  0.00    -0.237 OA
ATOM     66  O   UNL A   1      44.949  39.178  33.762  1.00  0.00    -0.744 OA
ENDBRANCH  62  63
ENDBRANCH  36  57
ENDBRANCH  10  11
ENDBRANCH   3   5
ENDBRANCH   2   3
ENDBRANCH   1   2
BRANCH   1  67
ATOM     67  C   UNL A   1      35.031  22.161  25.390  1.00  0.00     0.274 C 
BRANCH  67  68
ATOM     68  O   UNL A   1      34.013  21.715  26.311  1.00  0.00    -0.462 OA
BRANCH  68  69
ATOM     69  C   UNL A   1      33.054  22.617  26.688  1.00  0.00     0.310 C 
ATOM     70  O   UNL A   1      32.817  22.899  27.858  1.00  0.00    -0.252 OA
BRANCH  69  71
ATOM     71  C   UNL A   1      32.147  23.054  25.534  1.00  0.00     0.116 C 
ATOM     72  C   UNL A   1      32.392  22.252  24.253  1.00  0.00     0.043 C 
ATOM     73  C   UNL A   1      31.841  24.582  25.305  1.00  0.00     0.097 C 
ATOM     74  C   UNL A   1      31.453  22.642  23.154  1.00  0.00    -0.030 C 
ATOM     75  C   UNL A   1      30.573  24.643  24.413  1.00  0.00     0.041 C 
ATOM     76  C   UNL A   1      30.622  23.694  23.234  1.00  0.00    -0.030 C 
BRANCH  73  77
ATOM     77  C   UNL A   1      32.863  25.390  24.511  1.00  0.00     0.229 C 
ATOM     78  O   UNL A   1      33.914  24.816  24.226  1.00  0.00    -0.274 OA
ATOM     79  N   UNL A   1      32.703  26.625  23.939  1.00  0.00    -0.317 N 
ATOM     80  H   UNL A   1      33.507  26.920  23.452  1.00  0.00     0.170 HD
BRANCH  79  81
ATOM     81  C   UNL A   1      31.681  27.561  23.882  1.00  0.00     0.108 A 
ATOM     82  S   UNL A   1      30.623  27.562  22.567  1.00  0.00    -0.122 S 
ATOM     83  C   UNL A   1      31.379  28.562  24.835  1.00  0.00     0.078 A 
ATOM     84  C   UNL A   1      30.017  29.075  22.982  1.00  0.00     0.011 A 
ATOM     85  C   UNL A   1      30.465  29.523  24.214  1.00  0.00    -0.019 A 
ATOM     86  C   UNL A   1      29.120  29.819  22.046  1.00  0.00     0.047 C 
ATOM     87  C   UNL A   1      30.076  30.898  24.686  1.00  0.00     0.037 C 
ATOM     88  C   UNL A   1      29.227  31.321  22.314  1.00  0.00     0.006 C 
ATOM     89  C   UNL A   1      29.040  31.608  23.801  1.00  0.00     0.005 C 
BRANCH  83  90
ATOM     90  C   UNL A   1      32.119  28.602  26.140  1.00  0.00     0.257 C 
ATOM     91  O   UNL A   1      31.840  27.789  27.011  1.00  0.00    -0.269 OA
ATOM     92  N   UNL A   1      33.222  29.454  26.312  1.00  0.00    -0.339 N 
ATOM     93  C   UNL A   1      34.469  28.854  26.787  1.00  0.00     0.120 C 
ATOM     94  C   UNL A   1      33.142  30.912  26.356  1.00  0.00     0.120 C 
ATOM     95  C   UNL A   1      35.013  29.477  28.073  1.00  0.00     0.022 C 
ATOM     96  C   UNL A   1      33.659  31.520  27.663  1.00  0.00     0.022 C 
ATOM     97  C   UNL A   1      35.056  30.998  27.981  1.00  0.00     0.004 C 
ENDBRANCH  83  90
ENDBRANCH  79  81
ENDBRANCH  73  77
ENDBRANCH  69  71
ENDBRANCH  68  69
ENDBRANCH  67  68
ENDBRANCH   1  67
TORSDOF 17
ENDMDL
