MODEL 1
REMARK VINA RESULT:     -10.3      0.000      0.000
REMARK SMILES C[C@H]1[C@H](C(=O)OCCOC(=O)c2ccc(-c3c4nc(c(-c5ccc(S(=O)(=O)[O-])cc5)c5ccc([nH]5)c(-c5ccc(S(=O)(=O)[O-])cc5)c5nc(c(-c6ccc(S(=O)(=O)[O-])cc6)c6ccc3[nH]6)C=C5)C=C4)cc2)CCN1C(=O)CC[NH2+]C1CC1
REMARK SMILES IDX 7 1 6 2 4 3 5 4 3 5 1 6 2 7 74 8 72 9 73 10 75 11 76 12
REMARK SMILES IDX 77 13 78 14 79 15 80 18 81 19 82 20 8 21 9 22 10 23 11 24
REMARK SMILES IDX 12 25 13 26 71 27 14 28 70 29 15 30 16 31 17 32 64 33 18 34
REMARK SMILES IDX 69 35 63 36 65 37 19 38 68 39 62 40 61 41 20 43 50 44 31 45
REMARK SMILES IDX 49 46 32 47 35 48 48 49 66 50 33 51 34 52 47 54 67 55 36 56
REMARK SMILES IDX 21 57 22 58 30 59 23 60 29 61 24 62 25 63 26 64 27 65 28 66
REMARK SMILES IDX 51 67 52 68 60 69 53 70 59 71 54 72 55 73 56 74 57 75 58 76
REMARK SMILES IDX 37 77 38 78 46 79 39 80 45 81 40 82 41 83 42 84 43 85 44 86
REMARK H PARENT 79 16 79 17 65 42 35 53
REMARK Flexibility Score: inf
ROOT
ATOM      1  C   UNL A   1      33.050  30.152  27.194  1.00  0.00     0.274 C 
ENDROOT
BRANCH   1   2
ATOM      2  O   UNL A   1      33.353  28.761  26.952  1.00  0.00    -0.462 OA
BRANCH   2   3
ATOM      3  C   UNL A   1      32.336  27.885  27.153  1.00  0.00     0.311 C 
ATOM      4  O   UNL A   1      31.464  28.014  28.005  1.00  0.00    -0.252 OA
BRANCH   3   5
ATOM      5  C   UNL A   1      32.390  26.679  26.242  1.00  0.00     0.123 C 
ATOM      6  C   UNL A   1      30.340  25.358  25.612  1.00  0.00     0.032 C 
ATOM      7  C   UNL A   1      31.220  26.556  25.244  1.00  0.00     0.096 C 
ATOM      8  N   UNL A   1      31.858  26.325  23.946  1.00  0.00    -0.339 N 
ATOM      9  C   UNL A   1      33.656  26.660  25.383  1.00  0.00     0.039 C 
ATOM     10  C   UNL A   1      33.231  25.910  24.132  1.00  0.00     0.121 C 
BRANCH   8  11
ATOM     11  C   UNL A   1      31.309  26.465  22.687  1.00  0.00     0.228 C 
ATOM     12  O   UNL A   1      31.513  25.632  21.800  1.00  0.00    -0.275 OA
BRANCH  11  13
ATOM     13  C   UNL A   1      30.473  27.700  22.386  1.00  0.00     0.161 C 
BRANCH  13  14
ATOM     14  C   UNL A   1      31.007  28.960  23.070  1.00  0.00     0.270 C 
BRANCH  14  15
ATOM     15  N   UNL A   1      30.252  30.146  22.653  1.00  0.00    -0.343 N 
ATOM     16  H   UNL A   1      29.748  29.918  21.795  1.00  0.00     0.346 HD
ATOM     17  H   UNL A   1      30.933  30.896  22.527  1.00  0.00     0.346 HD
BRANCH  15  18
ATOM     18  C   UNL A   1      29.280  30.625  23.642  1.00  0.00     0.182 C 
ATOM     19  C   UNL A   1      28.565  31.941  23.503  1.00  0.00     0.071 C 
ATOM     20  C   UNL A   1      27.824  30.664  23.249  1.00  0.00     0.071 C 
ENDBRANCH  15  18
ENDBRANCH  14  15
ENDBRANCH  13  14
ENDBRANCH  11  13
ENDBRANCH   8  11
ENDBRANCH   3   5
ENDBRANCH   2   3
ENDBRANCH   1   2
BRANCH   1  21
ATOM     21  C   UNL A   1      34.185  30.863  27.939  1.00  0.00     0.275 C 
BRANCH  21  22
ATOM     22  O   UNL A   1      35.215  29.949  28.355  1.00  0.00    -0.458 OA
BRANCH  22  23
ATOM     23  C   UNL A   1      36.088  30.448  29.258  1.00  0.00     0.338 C 
ATOM     24  O   UNL A   1      35.847  31.206  30.182  1.00  0.00    -0.246 OA
BRANCH  23  25
ATOM     25  C   UNL A   1      37.418  29.863  29.054  1.00  0.00     0.060 A 
ATOM     26  C   UNL A   1      38.169  29.515  30.178  1.00  0.00     0.016 A 
ATOM     27  C   UNL A   1      37.969  29.779  27.776  1.00  0.00     0.016 A 
ATOM     28  C   UNL A   1      39.501  29.139  30.039  1.00  0.00     0.010 A 
ATOM     29  C   UNL A   1      39.293  29.359  27.634  1.00  0.00     0.010 A 
ATOM     30  C   UNL A   1      40.074  29.057  28.764  1.00  0.00    -0.014 A 
BRANCH  30  31
ATOM     31  C   UNL A   1      41.492  28.663  28.601  1.00  0.00     0.031 A 
ATOM     32  C   UNL A   1      42.576  29.699  28.694  1.00  0.00     0.074 A 
ATOM     33  C   UNL A   1      41.801  27.379  28.341  1.00  0.00     0.049 A 
ATOM     34  N   UNL A   1      43.846  29.589  28.406  1.00  0.00    -0.248 NA
ATOM     35  C   UNL A   1      42.177  31.033  29.171  1.00  0.00     0.031 C 
ATOM     36  C   UNL A   1      40.843  26.273  28.283  1.00  0.00     0.029 A 
ATOM     37  N   UNL A   1      43.008  26.791  28.060  1.00  0.00    -0.354 N 
ATOM     38  C   UNL A   1      44.395  30.846  28.631  1.00  0.00     0.074 A 
ATOM     39  C   UNL A   1      43.318  31.704  29.080  1.00  0.00     0.031 C 
ATOM     40  C   UNL A   1      41.498  25.142  27.976  1.00  0.00     0.029 A 
ATOM     41  C   UNL A   1      42.906  25.455  27.755  1.00  0.00     0.049 A 
ATOM     42  H   UNL A   1      43.863  27.278  28.075  1.00  0.00     0.167 HD
ATOM     43  C   UNL A   1      45.678  31.247  28.467  1.00  0.00     0.031 A 
ATOM     44  C   UNL A   1      43.832  24.587  27.302  1.00  0.00     0.031 A 
ATOM     45  C   UNL A   1      46.741  30.387  28.023  1.00  0.00     0.049 A 
ATOM     46  C   UNL A   1      45.235  25.070  27.064  1.00  0.00     0.074 A 
ATOM     47  C   UNL A   1      48.075  30.698  27.824  1.00  0.00     0.029 A 
ATOM     48  N   UNL A   1      46.593  29.043  27.712  1.00  0.00    -0.354 N 
ATOM     49  N   UNL A   1      45.733  26.269  27.254  1.00  0.00    -0.248 NA
ATOM     50  C   UNL A   1      46.197  24.089  26.544  1.00  0.00     0.031 C 
ATOM     51  C   UNL A   1      48.726  29.551  27.357  1.00  0.00     0.029 A 
ATOM     52  C   UNL A   1      47.806  28.515  27.309  1.00  0.00     0.049 A 
ATOM     53  H   UNL A   1      45.749  28.539  27.771  1.00  0.00     0.167 HD
ATOM     54  C   UNL A   1      47.074  26.180  26.898  1.00  0.00     0.074 A 
ATOM     55  C   UNL A   1      47.310  24.811  26.485  1.00  0.00     0.031 C 
ATOM     56  C   UNL A   1      48.024  27.147  26.915  1.00  0.00     0.031 A 
BRANCH  43  57
ATOM     57  C   UNL A   1      45.991  32.695  28.726  1.00  0.00    -0.014 A 
ATOM     58  C   UNL A   1      45.900  33.656  27.705  1.00  0.00     0.010 A 
ATOM     59  C   UNL A   1      46.347  33.104  30.024  1.00  0.00     0.010 A 
ATOM     60  C   UNL A   1      46.198  34.996  27.968  1.00  0.00     0.020 A 
ATOM     61  C   UNL A   1      46.625  34.446  30.297  1.00  0.00     0.020 A 
ATOM     62  C   UNL A   1      46.565  35.381  29.261  1.00  0.00     0.054 A 
BRANCH  62  63
ATOM     63  S   UNL A   1      46.939  37.127  29.583  1.00  0.00     0.124 S 
ATOM     64  O   UNL A   1      47.741  37.043  30.801  1.00  0.00    -0.237 OA
ATOM     65  O   UNL A   1      47.665  37.530  28.381  1.00  0.00    -0.237 OA
ATOM     66  O   UNL A   1      45.622  37.738  29.746  1.00  0.00    -0.744 OA
ENDBRANCH  62  63
ENDBRANCH  43  57
BRANCH  44  67
ATOM     67  C   UNL A   1      43.440  23.185  27.002  1.00  0.00    -0.014 A 
ATOM     68  C   UNL A   1      43.585  22.666  25.705  1.00  0.00     0.010 A 
ATOM     69  C   UNL A   1      42.950  22.352  28.025  1.00  0.00     0.010 A 
ATOM     70  C   UNL A   1      43.242  21.338  25.433  1.00  0.00     0.020 A 
ATOM     71  C   UNL A   1      42.629  21.018  27.763  1.00  0.00     0.020 A 
ATOM     72  C   UNL A   1      42.768  20.522  26.466  1.00  0.00     0.054 A 
BRANCH  72  73
ATOM     73  S   UNL A   1      42.391  18.784  26.109  1.00  0.00     0.124 S 
ATOM     74  O   UNL A   1      40.990  18.855  25.708  1.00  0.00    -0.237 OA
ATOM     75  O   UNL A   1      43.339  18.464  25.046  1.00  0.00    -0.237 OA
ATOM     76  O   UNL A   1      42.646  18.113  27.383  1.00  0.00    -0.744 OA
ENDBRANCH  72  73
ENDBRANCH  44  67
BRANCH  56  77
ATOM     77  C   UNL A   1      49.420  26.757  26.520  1.00  0.00    -0.014 A 
ATOM     78  C   UNL A   1      50.281  26.124  27.432  1.00  0.00     0.010 A 
ATOM     79  C   UNL A   1      49.837  26.941  25.190  1.00  0.00     0.010 A 
ATOM     80  C   UNL A   1      51.542  25.685  27.020  1.00  0.00     0.020 A 
ATOM     81  C   UNL A   1      51.090  26.488  24.770  1.00  0.00     0.020 A 
ATOM     82  C   UNL A   1      51.937  25.866  25.690  1.00  0.00     0.054 A 
BRANCH  82  83
ATOM     83  S   UNL A   1      53.542  25.211  25.155  1.00  0.00     0.124 S 
ATOM     84  O   UNL A   1      54.466  25.907  26.046  1.00  0.00    -0.237 OA
ATOM     85  O   UNL A   1      53.402  23.777  25.393  1.00  0.00    -0.237 OA
ATOM     86  O   UNL A   1      53.621  25.598  23.749  1.00  0.00    -0.744 OA
ENDBRANCH  82  83
ENDBRANCH  56  77
ENDBRANCH  30  31
ENDBRANCH  23  25
ENDBRANCH  22  23
ENDBRANCH  21  22
ENDBRANCH   1  21
TORSDOF 19
ENDMDL
MODEL 2
REMARK VINA RESULT:     -10.0      2.776      4.278
REMARK SMILES C[C@H]1[C@H](C(=O)OCCOC(=O)c2ccc(-c3c4nc(c(-c5ccc(S(=O)(=O)[O-])cc5)c5ccc([nH]5)c(-c5ccc(S(=O)(=O)[O-])cc5)c5nc(c(-c6ccc(S(=O)(=O)[O-])cc6)c6ccc3[nH]6)C=C5)C=C4)cc2)CCN1C(=O)CC[NH2+]C1CC1
REMARK SMILES IDX 7 1 6 2 4 3 5 4 3 5 1 6 2 7 74 8 72 9 73 10 75 11 76 12
REMARK SMILES IDX 77 13 78 14 79 15 80 18 81 19 82 20 8 21 9 22 10 23 11 24
REMARK SMILES IDX 12 25 13 26 71 27 14 28 70 29 15 30 16 31 17 32 64 33 18 34
REMARK SMILES IDX 69 35 63 36 65 37 19 38 68 39 62 40 61 41 20 43 50 44 31 45
REMARK SMILES IDX 49 46 32 47 35 48 48 49 66 50 33 51 34 52 47 54 67 55 36 56
REMARK SMILES IDX 21 57 22 58 30 59 23 60 29 61 24 62 25 63 26 64 27 65 28 66
REMARK SMILES IDX 51 67 52 68 60 69 53 70 59 71 54 72 55 73 56 74 57 75 58 76
REMARK SMILES IDX 37 77 38 78 46 79 39 80 45 81 40 82 41 83 42 84 43 85 44 86
REMARK H PARENT 79 16 79 17 65 42 35 53
REMARK Flexibility Score: inf
ROOT
ATOM      1  C   UNL A   1      31.787  28.620  26.034  1.00  0.00     0.274 C 
ENDROOT
BRANCH   1   2
ATOM      2  O   UNL A   1      31.378  27.923  24.838  1.00  0.00    -0.462 OA
BRANCH   2   3
ATOM      3  C   UNL A   1      30.960  26.643  25.005  1.00  0.00     0.311 C 
ATOM      4  O   UNL A   1      30.022  26.304  25.717  1.00  0.00    -0.252 OA
BRANCH   3   5
ATOM      5  C   UNL A   1      31.796  25.633  24.252  1.00  0.00     0.123 C 
ATOM      6  C   UNL A   1      34.163  25.068  24.905  1.00  0.00     0.032 C 
ATOM      7  C   UNL A   1      32.686  24.729  25.130  1.00  0.00     0.096 C 
ATOM      8  N   UNL A   1      32.411  23.368  24.665  1.00  0.00    -0.339 N 
ATOM      9  C   UNL A   1      30.938  24.672  23.426  1.00  0.00     0.039 C 
ATOM     10  C   UNL A   1      31.770  23.403  23.369  1.00  0.00     0.121 C 
BRANCH   8  11
ATOM     11  C   UNL A   1      32.683  22.174  25.305  1.00  0.00     0.228 C 
ATOM     12  O   UNL A   1      32.673  21.101  24.697  1.00  0.00    -0.275 OA
BRANCH  11  13
ATOM     13  C   UNL A   1      32.955  22.193  26.802  1.00  0.00     0.161 C 
BRANCH  13  14
ATOM     14  C   UNL A   1      34.333  21.635  27.162  1.00  0.00     0.270 C 
BRANCH  14  15
ATOM     15  N   UNL A   1      35.402  22.456  26.584  1.00  0.00    -0.343 N 
ATOM     16  H   UNL A   1      35.877  22.943  27.345  1.00  0.00     0.346 HD
ATOM     17  H   UNL A   1      34.955  23.093  25.923  1.00  0.00     0.346 HD
BRANCH  15  18
ATOM     18  C   UNL A   1      36.404  21.701  25.825  1.00  0.00     0.182 C 
ATOM     19  C   UNL A   1      36.040  20.560  24.914  1.00  0.00     0.071 C 
ATOM     20  C   UNL A   1      36.444  21.878  24.327  1.00  0.00     0.071 C 
ENDBRANCH  15  18
ENDBRANCH  14  15
ENDBRANCH  13  14
ENDBRANCH  11  13
ENDBRANCH   8  11
ENDBRANCH   3   5
ENDBRANCH   2   3
ENDBRANCH   1   2
BRANCH   1  21
ATOM     21  C   UNL A   1      33.238  29.104  25.946  1.00  0.00     0.275 C 
BRANCH  21  22
ATOM     22  O   UNL A   1      33.944  28.926  27.186  1.00  0.00    -0.458 OA
BRANCH  22  23
ATOM     23  C   UNL A   1      34.406  30.066  27.746  1.00  0.00     0.338 C 
ATOM     24  O   UNL A   1      33.775  31.079  27.996  1.00  0.00    -0.246 OA
BRANCH  23  25
ATOM     25  C   UNL A   1      35.812  29.904  28.137  1.00  0.00     0.060 A 
ATOM     26  C   UNL A   1      36.792  30.023  27.150  1.00  0.00     0.016 A 
ATOM     27  C   UNL A   1      36.149  29.511  29.432  1.00  0.00     0.016 A 
ATOM     28  C   UNL A   1      38.112  29.689  27.433  1.00  0.00     0.010 A 
ATOM     29  C   UNL A   1      37.482  29.219  29.727  1.00  0.00     0.010 A 
ATOM     30  C   UNL A   1      38.468  29.285  28.726  1.00  0.00    -0.014 A 
BRANCH  30  31
ATOM     31  C   UNL A   1      39.869  28.922  29.041  1.00  0.00     0.031 A 
ATOM     32  C   UNL A   1      40.801  29.952  29.613  1.00  0.00     0.074 A 
ATOM     33  C   UNL A   1      40.309  27.676  28.785  1.00  0.00     0.049 A 
ATOM     34  N   UNL A   1      42.095  29.885  29.786  1.00  0.00    -0.248 NA
ATOM     35  C   UNL A   1      40.198  31.224  30.044  1.00  0.00     0.031 C 
ATOM     36  C   UNL A   1      39.485  26.575  28.282  1.00  0.00     0.029 A 
ATOM     37  N   UNL A   1      41.563  27.133  28.896  1.00  0.00    -0.354 N 
ATOM     38  C   UNL A   1      42.470  31.116  30.313  1.00  0.00     0.074 A 
ATOM     39  C   UNL A   1      41.266  31.911  30.430  1.00  0.00     0.031 C 
ATOM     40  C   UNL A   1      40.258  25.489  28.121  1.00  0.00     0.029 A 
ATOM     41  C   UNL A   1      41.637  25.836  28.447  1.00  0.00     0.049 A 
ATOM     42  H   UNL A   1      42.334  27.623  29.261  1.00  0.00     0.167 HD
ATOM     43  C   UNL A   1      43.709  31.543  30.656  1.00  0.00     0.031 A 
ATOM     44  C   UNL A   1      42.703  25.030  28.271  1.00  0.00     0.031 A 
ATOM     45  C   UNL A   1      44.898  30.744  30.538  1.00  0.00     0.049 A 
ATOM     46  C   UNL A   1      44.076  25.548  28.596  1.00  0.00     0.074 A 
ATOM     47  C   UNL A   1      46.201  31.087  30.857  1.00  0.00     0.029 A 
ATOM     48  N   UNL A   1      44.932  29.441  30.067  1.00  0.00    -0.354 N 
ATOM     49  N   UNL A   1      44.419  26.724  29.066  1.00  0.00    -0.248 NA
ATOM     50  C   UNL A   1      45.204  24.637  28.359  1.00  0.00     0.031 C 
ATOM     51  C   UNL A   1      47.027  30.003  30.544  1.00  0.00     0.029 A 
ATOM     52  C   UNL A   1      46.233  28.969  30.072  1.00  0.00     0.049 A 
ATOM     53  H   UNL A   1      44.146  28.926  29.772  1.00  0.00     0.167 HD
ATOM     54  C   UNL A   1      45.801  26.685  29.203  1.00  0.00     0.074 A 
ATOM     55  C   UNL A   1      46.231  25.371  28.771  1.00  0.00     0.031 C 
ATOM     56  C   UNL A   1      46.638  27.653  29.650  1.00  0.00     0.031 A 
BRANCH  43  57
ATOM     57  C   UNL A   1      43.843  32.957  31.148  1.00  0.00    -0.014 A 
ATOM     58  C   UNL A   1      43.791  33.262  32.519  1.00  0.00     0.010 A 
ATOM     59  C   UNL A   1      44.064  33.994  30.222  1.00  0.00     0.010 A 
ATOM     60  C   UNL A   1      43.917  34.584  32.954  1.00  0.00     0.020 A 
ATOM     61  C   UNL A   1      44.212  35.315  30.655  1.00  0.00     0.020 A 
ATOM     62  C   UNL A   1      44.119  35.603  32.018  1.00  0.00     0.054 A 
BRANCH  62  63
ATOM     63  S   UNL A   1      44.289  37.311  32.606  1.00  0.00     0.124 S 
ATOM     64  O   UNL A   1      45.625  37.293  33.197  1.00  0.00    -0.237 OA
ATOM     65  O   UNL A   1      44.158  38.091  31.377  1.00  0.00    -0.237 OA
ATOM     66  O   UNL A   1      43.190  37.461  33.556  1.00  0.00    -0.744 OA
ENDBRANCH  62  63
ENDBRANCH  43  57
BRANCH  44  67
ATOM     67  C   UNL A   1      42.508  23.665  27.716  1.00  0.00    -0.014 A 
ATOM     68  C   UNL A   1      42.512  23.451  26.328  1.00  0.00     0.010 A 
ATOM     69  C   UNL A   1      42.350  22.565  28.581  1.00  0.00     0.010 A 
ATOM     70  C   UNL A   1      42.357  22.162  25.812  1.00  0.00     0.020 A 
ATOM     71  C   UNL A   1      42.218  21.272  28.069  1.00  0.00     0.020 A 
ATOM     72  C   UNL A   1      42.213  21.080  26.687  1.00  0.00     0.054 A 
BRANCH  72  73
ATOM     73  S   UNL A   1      42.079  19.406  26.000  1.00  0.00     0.124 S 
ATOM     74  O   UNL A   1      40.644  19.291  25.760  1.00  0.00    -0.237 OA
ATOM     75  O   UNL A   1      42.916  19.483  24.806  1.00  0.00    -0.237 OA
ATOM     76  O   UNL A   1      42.607  18.558  27.067  1.00  0.00    -0.744 OA
ENDBRANCH  72  73
ENDBRANCH  44  67
BRANCH  56  77
ATOM     77  C   UNL A   1      48.101  27.320  29.743  1.00  0.00    -0.014 A 
ATOM     78  C   UNL A   1      48.983  27.636  28.697  1.00  0.00     0.010 A 
ATOM     79  C   UNL A   1      48.609  26.771  30.934  1.00  0.00     0.010 A 
ATOM     80  C   UNL A   1      50.354  27.405  28.840  1.00  0.00     0.020 A 
ATOM     81  C   UNL A   1      49.980  26.554  31.086  1.00  0.00     0.020 A 
ATOM     82  C   UNL A   1      50.844  26.869  30.035  1.00  0.00     0.054 A 
BRANCH  82  83
ATOM     83  S   UNL A   1      52.636  26.657  30.231  1.00  0.00     0.124 S 
ATOM     84  O   UNL A   1      52.708  25.585  31.220  1.00  0.00    -0.237 OA
ATOM     85  O   UNL A   1      53.068  26.299  28.883  1.00  0.00    -0.237 OA
ATOM     86  O   UNL A   1      53.088  27.966  30.697  1.00  0.00    -0.744 OA
ENDBRANCH  82  83
ENDBRANCH  56  77
ENDBRANCH  30  31
ENDBRANCH  23  25
ENDBRANCH  22  23
ENDBRANCH  21  22
ENDBRANCH   1  21
TORSDOF 19
ENDMDL
MODEL 3
REMARK VINA RESULT:      -9.7      1.896      3.272
REMARK SMILES C[C@H]1[C@H](C(=O)OCCOC(=O)c2ccc(-c3c4nc(c(-c5ccc(S(=O)(=O)[O-])cc5)c5ccc([nH]5)c(-c5ccc(S(=O)(=O)[O-])cc5)c5nc(c(-c6ccc(S(=O)(=O)[O-])cc6)c6ccc3[nH]6)C=C5)C=C4)cc2)CCN1C(=O)CC[NH2+]C1CC1
REMARK SMILES IDX 7 1 6 2 4 3 5 4 3 5 1 6 2 7 74 8 72 9 73 10 75 11 76 12
REMARK SMILES IDX 77 13 78 14 79 15 80 18 81 19 82 20 8 21 9 22 10 23 11 24
REMARK SMILES IDX 12 25 13 26 71 27 14 28 70 29 15 30 16 31 17 32 64 33 18 34
REMARK SMILES IDX 69 35 63 36 65 37 19 38 68 39 62 40 61 41 20 43 50 44 31 45
REMARK SMILES IDX 49 46 32 47 35 48 48 49 66 50 33 51 34 52 47 54 67 55 36 56
REMARK SMILES IDX 21 57 22 58 30 59 23 60 29 61 24 62 25 63 26 64 27 65 28 66
REMARK SMILES IDX 51 67 52 68 60 69 53 70 59 71 54 72 55 73 56 74 57 75 58 76
REMARK SMILES IDX 37 77 38 78 46 79 39 80 45 81 40 82 41 83 42 84 43 85 44 86
REMARK H PARENT 79 16 79 17 65 42 35 53
REMARK Flexibility Score: inf
ROOT
ATOM      1  C   UNL A   1      33.846  30.294  27.554  1.00  0.00     0.274 C 
ENDROOT
BRANCH   1   2
ATOM      2  O   UNL A   1      33.477  29.962  26.199  1.00  0.00    -0.462 OA
BRANCH   2   3
ATOM      3  C   UNL A   1      32.732  28.838  26.041  1.00  0.00     0.311 C 
ATOM      4  O   UNL A   1      32.395  28.093  26.953  1.00  0.00    -0.252 OA
BRANCH   3   5
ATOM      5  C   UNL A   1      32.375  28.549  24.600  1.00  0.00     0.123 C 
ATOM      6  C   UNL A   1      34.033  28.769  22.717  1.00  0.00     0.032 C 
ATOM      7  C   UNL A   1      33.466  27.827  23.784  1.00  0.00     0.096 C 
ATOM      8  N   UNL A   1      32.774  26.707  23.142  1.00  0.00    -0.339 N 
ATOM      9  C   UNL A   1      31.131  27.666  24.479  1.00  0.00     0.039 C 
ATOM     10  C   UNL A   1      31.344  26.920  23.173  1.00  0.00     0.121 C 
BRANCH   8  11
ATOM     11  C   UNL A   1      33.324  25.575  22.573  1.00  0.00     0.228 C 
ATOM     12  O   UNL A   1      33.600  25.527  21.372  1.00  0.00    -0.275 OA
BRANCH  11  13
ATOM     13  C   UNL A   1      33.549  24.351  23.450  1.00  0.00     0.161 C 
BRANCH  13  14
ATOM     14  C   UNL A   1      33.384  23.036  22.687  1.00  0.00     0.270 C 
BRANCH  14  15
ATOM     15  N   UNL A   1      32.186  22.316  23.131  1.00  0.00    -0.343 N 
ATOM     16  H   UNL A   1      31.551  22.232  22.337  1.00  0.00     0.346 HD
ATOM     17  H   UNL A   1      31.789  22.856  23.901  1.00  0.00     0.346 HD
BRANCH  15  18
ATOM     18  C   UNL A   1      32.446  20.971  23.655  1.00  0.00     0.182 C 
ATOM     19  C   UNL A   1      33.641  20.651  24.511  1.00  0.00     0.071 C 
ATOM     20  C   UNL A   1      32.283  20.740  25.138  1.00  0.00     0.071 C 
ENDBRANCH  15  18
ENDBRANCH  14  15
ENDBRANCH  13  14
ENDBRANCH  11  13
ENDBRANCH   8  11
ENDBRANCH   3   5
ENDBRANCH   2   3
ENDBRANCH   1   2
BRANCH   1  21
ATOM     21  C   UNL A   1      35.333  30.646  27.671  1.00  0.00     0.275 C 
BRANCH  21  22
ATOM     22  O   UNL A   1      36.163  29.472  27.732  1.00  0.00    -0.458 OA
BRANCH  22  23
ATOM     23  C   UNL A   1      36.857  29.325  28.883  1.00  0.00     0.338 C 
ATOM     24  O   UNL A   1      36.424  29.377  30.021  1.00  0.00    -0.246 OA
BRANCH  23  25
ATOM     25  C   UNL A   1      38.252  28.974  28.591  1.00  0.00     0.060 A 
ATOM     26  C   UNL A   1      39.014  28.391  29.605  1.00  0.00     0.016 A 
ATOM     27  C   UNL A   1      38.837  29.334  27.378  1.00  0.00     0.016 A 
ATOM     28  C   UNL A   1      40.384  28.219  29.438  1.00  0.00     0.010 A 
ATOM     29  C   UNL A   1      40.205  29.121  27.194  1.00  0.00     0.010 A 
ATOM     30  C   UNL A   1      40.991  28.583  28.229  1.00  0.00    -0.014 A 
BRANCH  30  31
ATOM     31  C   UNL A   1      42.450  28.410  28.038  1.00  0.00     0.031 A 
ATOM     32  C   UNL A   1      43.384  29.551  28.318  1.00  0.00     0.074 A 
ATOM     33  C   UNL A   1      42.928  27.236  27.585  1.00  0.00     0.049 A 
ATOM     34  N   UNL A   1      44.658  29.658  28.045  1.00  0.00    -0.248 NA
ATOM     35  C   UNL A   1      42.810  30.728  28.991  1.00  0.00     0.031 C 
ATOM     36  C   UNL A   1      42.126  26.037  27.331  1.00  0.00     0.029 A 
ATOM     37  N   UNL A   1      44.203  26.865  27.242  1.00  0.00    -0.354 N 
ATOM     38  C   UNL A   1      45.033  30.924  28.478  1.00  0.00     0.074 A 
ATOM     39  C   UNL A   1      43.851  31.549  29.032  1.00  0.00     0.031 C 
ATOM     40  C   UNL A   1      42.927  25.066  26.865  1.00  0.00     0.029 A 
ATOM     41  C   UNL A   1      44.281  25.593  26.728  1.00  0.00     0.049 A 
ATOM     42  H   UNL A   1      44.985  27.452  27.354  1.00  0.00     0.167 HD
ATOM     43  C   UNL A   1      46.251  31.512  28.408  1.00  0.00     0.031 A 
ATOM     44  C   UNL A   1      45.316  24.939  26.164  1.00  0.00     0.031 A 
ATOM     45  C   UNL A   1      47.421  30.881  27.859  1.00  0.00     0.049 A 
ATOM     46  C   UNL A   1      46.642  25.635  26.038  1.00  0.00     0.074 A 
ATOM     47  C   UNL A   1      48.701  31.394  27.741  1.00  0.00     0.029 A 
ATOM     48  N   UNL A   1      47.454  29.597  27.336  1.00  0.00    -0.354 N 
ATOM     49  N   UNL A   1      46.975  26.843  26.426  1.00  0.00    -0.248 NA
ATOM     50  C   UNL A   1      47.727  24.885  25.391  1.00  0.00     0.031 C 
ATOM     51  C   UNL A   1      49.500  30.432  27.114  1.00  0.00     0.029 A 
ATOM     52  C   UNL A   1      48.728  29.305  26.882  1.00  0.00     0.049 A 
ATOM     53  H   UNL A   1      46.685  28.983  27.295  1.00  0.00     0.167 HD
ATOM     54  C   UNL A   1      48.315  26.989  26.091  1.00  0.00     0.074 A 
ATOM     55  C   UNL A   1      48.734  25.748  25.472  1.00  0.00     0.031 C 
ATOM     56  C   UNL A   1      49.127  28.058  26.281  1.00  0.00     0.031 A 
BRANCH  43  57
ATOM     57  C   UNL A   1      46.368  32.928  28.900  1.00  0.00    -0.014 A 
ATOM     58  C   UNL A   1      46.751  33.214  30.222  1.00  0.00     0.010 A 
ATOM     59  C   UNL A   1      46.125  33.991  28.010  1.00  0.00     0.010 A 
ATOM     60  C   UNL A   1      46.851  34.538  30.657  1.00  0.00     0.020 A 
ATOM     61  C   UNL A   1      46.245  35.317  28.436  1.00  0.00     0.020 A 
ATOM     62  C   UNL A   1      46.591  35.581  29.763  1.00  0.00     0.054 A 
BRANCH  62  63
ATOM     63  S   UNL A   1      46.736  37.293  30.347  1.00  0.00     0.124 S 
ATOM     64  O   UNL A   1      47.982  37.720  29.715  1.00  0.00    -0.237 OA
ATOM     65  O   UNL A   1      45.522  37.918  29.826  1.00  0.00    -0.237 OA
ATOM     66  O   UNL A   1      46.789  37.159  31.801  1.00  0.00    -0.744 OA
ENDBRANCH  62  63
ENDBRANCH  43  57
BRANCH  44  67
ATOM     67  C   UNL A   1      45.115  23.564  25.637  1.00  0.00    -0.014 A 
ATOM     68  C   UNL A   1      44.740  23.359  24.299  1.00  0.00     0.010 A 
ATOM     69  C   UNL A   1      45.334  22.448  26.468  1.00  0.00     0.010 A 
ATOM     70  C   UNL A   1      44.581  22.064  23.800  1.00  0.00     0.020 A 
ATOM     71  C   UNL A   1      45.199  21.152  25.966  1.00  0.00     0.020 A 
ATOM     72  C   UNL A   1      44.814  20.967  24.638  1.00  0.00     0.054 A 
BRANCH  72  73
ATOM     73  S   UNL A   1      44.666  19.293  23.954  1.00  0.00     0.124 S 
ATOM     74  O   UNL A   1      43.449  18.810  24.598  1.00  0.00    -0.237 OA
ATOM     75  O   UNL A   1      44.568  19.542  22.519  1.00  0.00    -0.237 OA
ATOM     76  O   UNL A   1      45.904  18.643  24.381  1.00  0.00    -0.744 OA
ENDBRANCH  72  73
ENDBRANCH  44  67
BRANCH  56  77
ATOM     77  C   UNL A   1      50.564  27.924  25.862  1.00  0.00    -0.014 A 
ATOM     78  C   UNL A   1      50.976  28.274  24.565  1.00  0.00     0.010 A 
ATOM     79  C   UNL A   1      51.526  27.534  26.811  1.00  0.00     0.010 A 
ATOM     80  C   UNL A   1      52.330  28.232  24.223  1.00  0.00     0.020 A 
ATOM     81  C   UNL A   1      52.881  27.507  26.477  1.00  0.00     0.020 A 
ATOM     82  C   UNL A   1      53.275  27.852  25.182  1.00  0.00     0.054 A 
BRANCH  82  83
ATOM     83  S   UNL A   1      55.035  27.888  24.742  1.00  0.00     0.124 S 
ATOM     84  O   UNL A   1      55.169  29.209  24.134  1.00  0.00    -0.237 OA
ATOM     85  O   UNL A   1      55.695  27.721  26.034  1.00  0.00    -0.237 OA
ATOM     86  O   UNL A   1      55.183  26.762  23.823  1.00  0.00    -0.744 OA
ENDBRANCH  82  83
ENDBRANCH  56  77
ENDBRANCH  30  31
ENDBRANCH  23  25
ENDBRANCH  22  23
ENDBRANCH  21  22
ENDBRANCH   1  21
TORSDOF 19
ENDMDL
