MODEL 1
REMARK VINA RESULT:     -10.9      0.000      0.000
REMARK SMILES [NH3+][C@]1(C(=O)OCCOC(=O)c2ccc(-c3c4nc(c(-c5ccc(S(=O)(=O)[O-])cc5)c5ccc([nH]5)c(-c5ccc(S(=O)(=O)[O-])cc5)c5nc(c(-c6ccc(S(=O)(=O)[O-])cc6)c6ccc3[nH]6)C=C5)C=C4)cc2)CC[C@@H](Sc2ccc(Cl)c(Cl)c2)C1
REMARK SMILES IDX 7 1 6 2 5 3 3 4 4 5 2 6 71 7 83 8 72 9 73 10 1 11 74 15
REMARK SMILES IDX 75 16 76 17 82 18 77 19 80 20 78 21 81 22 79 23 8 24 9 25
REMARK SMILES IDX 10 26 11 27 12 28 70 29 13 30 69 31 14 32 15 33 16 34 63 35
REMARK SMILES IDX 17 36 68 37 62 38 64 39 18 40 67 41 61 42 60 43 19 45 49 46
REMARK SMILES IDX 30 47 48 48 31 49 34 50 47 51 65 52 32 53 33 54 46 56 66 57
REMARK SMILES IDX 35 58 20 59 21 60 29 61 22 62 28 63 23 64 24 65 25 66 26 67
REMARK SMILES IDX 27 68 50 69 51 70 59 71 52 72 58 73 53 74 54 75 55 76 56 77
REMARK SMILES IDX 57 78 36 79 37 80 45 81 38 82 44 83 39 84 40 85 41 86 42 87
REMARK SMILES IDX 43 88
REMARK H PARENT 1 12 1 13 1 14 64 44 34 55
REMARK Flexibility Score: inf
ROOT
ATOM      1  C   UNL A   1      41.107  22.358  26.227  1.00  0.00     0.275 C 
ENDROOT
BRANCH   1   2
ATOM      2  C   UNL A   1      40.096  21.277  25.837  1.00  0.00     0.274 C 
BRANCH   2   3
ATOM      3  O   UNL A   1      38.771  21.582  26.319  1.00  0.00    -0.457 OA
BRANCH   3   4
ATOM      4  C   UNL A   1      37.761  21.469  25.418  1.00  0.00     0.368 C 
ATOM      5  O   UNL A   1      37.617  20.520  24.653  1.00  0.00    -0.245 OA
BRANCH   4   6
ATOM      6  C   UNL A   1      36.832  22.704  25.379  1.00  0.00     0.193 C 
ATOM      7  C   UNL A   1      36.317  22.931  23.951  1.00  0.00     0.082 C 
ATOM      8  C   UNL A   1      35.511  22.606  26.148  1.00  0.00     0.095 C 
ATOM      9  C   UNL A   1      35.173  23.926  24.090  1.00  0.00     0.022 C 
ATOM     10  C   UNL A   1      34.603  23.661  25.489  1.00  0.00     0.059 C 
BRANCH   6  11
ATOM     11  N   UNL A   1      37.602  23.895  25.824  1.00  0.00    -0.343 N 
ATOM     12  H   UNL A   1      38.048  24.332  25.017  1.00  0.00     0.345 HD
ATOM     13  H   UNL A   1      38.316  23.610  26.493  1.00  0.00     0.345 HD
ATOM     14  H   UNL A   1      36.970  24.564  26.265  1.00  0.00     0.345 HD
ENDBRANCH   6  11
BRANCH  10  15
ATOM     15  S   UNL A   1      32.805  23.291  25.540  1.00  0.00    -0.122 SA
BRANCH  15  16
ATOM     16  C   UNL A   1      32.662  21.808  24.559  1.00  0.00     0.009 A 
ATOM     17  C   UNL A   1      32.317  21.868  23.206  1.00  0.00     0.017 A 
ATOM     18  C   UNL A   1      32.789  20.558  25.174  1.00  0.00     0.037 A 
ATOM     19  C   UNL A   1      32.155  20.694  22.463  1.00  0.00     0.023 A 
ATOM     20  C   UNL A   1      32.623  19.380  24.436  1.00  0.00     0.060 A 
ATOM     21  C   UNL A   1      32.319  19.448  23.072  1.00  0.00     0.059 A 
ATOM     22  Cl  UNL A   1      32.813  17.876  25.270  1.00  0.00    -0.083 Cl
ATOM     23  Cl  UNL A   1      32.132  18.039  22.091  1.00  0.00    -0.083 Cl
ENDBRANCH  15  16
ENDBRANCH  10  15
ENDBRANCH   4   6
ENDBRANCH   3   4
ENDBRANCH   2   3
ENDBRANCH   1   2
BRANCH   1  24
ATOM     24  O   UNL A   1      40.457  23.599  26.563  1.00  0.00    -0.458 OA
BRANCH  24  25
ATOM     25  C   UNL A   1      41.239  24.689  26.420  1.00  0.00     0.338 C 
ATOM     26  O   UNL A   1      42.108  24.864  25.580  1.00  0.00    -0.246 OA
BRANCH  25  27
ATOM     27  C   UNL A   1      40.850  25.744  27.360  1.00  0.00     0.060 A 
ATOM     28  C   UNL A   1      41.607  26.912  27.378  1.00  0.00     0.016 A 
ATOM     29  C   UNL A   1      39.894  25.502  28.347  1.00  0.00     0.016 A 
ATOM     30  C   UNL A   1      41.487  27.793  28.446  1.00  0.00     0.010 A 
ATOM     31  C   UNL A   1      39.706  26.443  29.368  1.00  0.00     0.010 A 
ATOM     32  C   UNL A   1      40.529  27.579  29.451  1.00  0.00    -0.014 A 
BRANCH  32  33
ATOM     33  C   UNL A   1      40.429  28.549  30.577  1.00  0.00     0.031 A 
ATOM     34  C   UNL A   1      41.453  28.569  31.683  1.00  0.00     0.074 A 
ATOM     35  C   UNL A   1      39.449  29.475  30.566  1.00  0.00     0.049 A 
ATOM     36  N   UNL A   1      41.503  29.340  32.741  1.00  0.00    -0.248 NA
ATOM     37  C   UNL A   1      42.558  27.602  31.597  1.00  0.00     0.031 C 
ATOM     38  C   UNL A   1      38.404  29.590  29.546  1.00  0.00     0.029 A 
ATOM     39  N   UNL A   1      39.197  30.522  31.417  1.00  0.00    -0.354 N 
ATOM     40  C   UNL A   1      42.611  28.922  33.468  1.00  0.00     0.074 A 
ATOM     41  C   UNL A   1      43.215  27.836  32.725  1.00  0.00     0.031 C 
ATOM     42  C   UNL A   1      37.679  30.693  29.781  1.00  0.00     0.029 A 
ATOM     43  C   UNL A   1      38.159  31.324  31.005  1.00  0.00     0.049 A 
ATOM     44  H   UNL A   1      39.709  30.683  32.241  1.00  0.00     0.167 HD
ATOM     45  C   UNL A   1      43.078  29.389  34.652  1.00  0.00     0.031 A 
ATOM     46  C   UNL A   1      37.639  32.439  31.550  1.00  0.00     0.031 A 
ATOM     47  C   UNL A   1      42.501  30.484  35.385  1.00  0.00     0.049 A 
ATOM     48  C   UNL A   1      38.191  32.956  32.844  1.00  0.00     0.074 A 
ATOM     49  C   UNL A   1      42.887  31.001  36.611  1.00  0.00     0.029 A 
ATOM     50  N   UNL A   1      41.429  31.245  34.952  1.00  0.00    -0.354 N 
ATOM     51  N   UNL A   1      39.191  32.493  33.552  1.00  0.00    -0.248 NA
ATOM     52  C   UNL A   1      37.525  34.130  33.424  1.00  0.00     0.031 C 
ATOM     53  C   UNL A   1      42.036  32.069  36.924  1.00  0.00     0.029 A 
ATOM     54  C   UNL A   1      41.139  32.229  35.883  1.00  0.00     0.049 A 
ATOM     55  H   UNL A   1      40.944  31.108  34.106  1.00  0.00     0.167 HD
ATOM     56  C   UNL A   1      39.260  33.303  34.676  1.00  0.00     0.074 A 
ATOM     57  C   UNL A   1      38.226  34.309  34.536  1.00  0.00     0.031 C 
ATOM     58  C   UNL A   1      40.094  33.208  35.740  1.00  0.00     0.031 A 
BRANCH  45  59
ATOM     59  C   UNL A   1      44.257  28.676  35.251  1.00  0.00    -0.014 A 
ATOM     60  C   UNL A   1      45.571  29.111  35.007  1.00  0.00     0.010 A 
ATOM     61  C   UNL A   1      44.042  27.570  36.093  1.00  0.00     0.010 A 
ATOM     62  C   UNL A   1      46.654  28.430  35.571  1.00  0.00     0.020 A 
ATOM     63  C   UNL A   1      45.121  26.895  36.669  1.00  0.00     0.020 A 
ATOM     64  C   UNL A   1      46.423  27.320  36.391  1.00  0.00     0.054 A 
BRANCH  64  65
ATOM     65  S   UNL A   1      47.836  26.453  37.128  1.00  0.00     0.124 S 
ATOM     66  O   UNL A   1      47.222  25.206  37.575  1.00  0.00    -0.237 OA
ATOM     67  O   UNL A   1      48.766  26.328  36.008  1.00  0.00    -0.237 OA
ATOM     68  O   UNL A   1      48.270  27.353  38.194  1.00  0.00    -0.744 OA
ENDBRANCH  64  65
ENDBRANCH  45  59
BRANCH  46  69
ATOM     69  C   UNL A   1      36.514  33.124  30.867  1.00  0.00    -0.014 A 
ATOM     70  C   UNL A   1      35.238  33.147  31.455  1.00  0.00     0.010 A 
ATOM     71  C   UNL A   1      36.732  33.814  29.662  1.00  0.00     0.010 A 
ATOM     72  C   UNL A   1      34.199  33.864  30.856  1.00  0.00     0.020 A 
ATOM     73  C   UNL A   1      35.700  34.546  29.071  1.00  0.00     0.020 A 
ATOM     74  C   UNL A   1      34.438  34.565  29.670  1.00  0.00     0.054 A 
BRANCH  74  75
ATOM     75  S   UNL A   1      33.125  35.588  28.951  1.00  0.00     0.124 S 
ATOM     76  O   UNL A   1      33.887  36.654  28.310  1.00  0.00    -0.237 OA
ATOM     77  O   UNL A   1      32.445  34.665  28.046  1.00  0.00    -0.237 OA
ATOM     78  O   UNL A   1      32.341  35.987  30.119  1.00  0.00    -0.744 OA
ENDBRANCH  74  75
ENDBRANCH  46  69
BRANCH  58  79
ATOM     79  C   UNL A   1      39.897  34.208  36.841  1.00  0.00    -0.014 A 
ATOM     80  C   UNL A   1      39.142  33.870  37.978  1.00  0.00     0.010 A 
ATOM     81  C   UNL A   1      40.470  35.487  36.745  1.00  0.00     0.010 A 
ATOM     82  C   UNL A   1      38.932  34.811  38.989  1.00  0.00     0.020 A 
ATOM     83  C   UNL A   1      40.270  36.426  37.759  1.00  0.00     0.020 A 
ATOM     84  C   UNL A   1      39.488  36.088  38.867  1.00  0.00     0.054 A 
BRANCH  84  85
ATOM     85  S   UNL A   1      39.219  37.300  40.191  1.00  0.00     0.124 S 
ATOM     86  O   UNL A   1      40.587  37.675  40.537  1.00  0.00    -0.237 OA
ATOM     87  O   UNL A   1      38.430  38.339  39.533  1.00  0.00    -0.237 OA
ATOM     88  O   UNL A   1      38.502  36.535  41.210  1.00  0.00    -0.744 OA
ENDBRANCH  84  85
ENDBRANCH  58  79
ENDBRANCH  32  33
ENDBRANCH  25  27
ENDBRANCH  24  25
ENDBRANCH   1  24
TORSDOF 17
ENDMDL
MODEL 2
REMARK VINA RESULT:     -10.5      6.275     12.049
REMARK SMILES [NH3+][C@]1(C(=O)OCCOC(=O)c2ccc(-c3c4nc(c(-c5ccc(S(=O)(=O)[O-])cc5)c5ccc([nH]5)c(-c5ccc(S(=O)(=O)[O-])cc5)c5nc(c(-c6ccc(S(=O)(=O)[O-])cc6)c6ccc3[nH]6)C=C5)C=C4)cc2)CC[C@@H](Sc2ccc(Cl)c(Cl)c2)C1
REMARK SMILES IDX 7 1 6 2 5 3 3 4 4 5 2 6 71 7 83 8 72 9 73 10 1 11 74 15
REMARK SMILES IDX 75 16 76 17 82 18 77 19 80 20 78 21 81 22 79 23 8 24 9 25
REMARK SMILES IDX 10 26 11 27 12 28 70 29 13 30 69 31 14 32 15 33 16 34 63 35
REMARK SMILES IDX 17 36 68 37 62 38 64 39 18 40 67 41 61 42 60 43 19 45 49 46
REMARK SMILES IDX 30 47 48 48 31 49 34 50 47 51 65 52 32 53 33 54 46 56 66 57
REMARK SMILES IDX 35 58 20 59 21 60 29 61 22 62 28 63 23 64 24 65 25 66 26 67
REMARK SMILES IDX 27 68 50 69 51 70 59 71 52 72 58 73 53 74 54 75 55 76 56 77
REMARK SMILES IDX 57 78 36 79 37 80 45 81 38 82 44 83 39 84 40 85 41 86 42 87
REMARK SMILES IDX 43 88
REMARK H PARENT 1 12 1 13 1 14 64 44 34 55
REMARK Flexibility Score: inf
ROOT
ATOM      1  C   UNL A   1      34.947  31.779  28.937  1.00  0.00     0.275 C 
ENDROOT
BRANCH   1   2
ATOM      2  C   UNL A   1      34.118  31.720  27.652  1.00  0.00     0.274 C 
BRANCH   2   3
ATOM      3  O   UNL A   1      33.531  30.417  27.451  1.00  0.00    -0.457 OA
BRANCH   3   4
ATOM      4  C   UNL A   1      32.599  30.321  26.467  1.00  0.00     0.368 C 
ATOM      5  O   UNL A   1      31.638  31.076  26.346  1.00  0.00    -0.245 OA
BRANCH   4   6
ATOM      6  C   UNL A   1      32.809  29.104  25.540  1.00  0.00     0.193 C 
ATOM      7  C   UNL A   1      33.736  28.082  26.212  1.00  0.00     0.082 C 
ATOM      8  C   UNL A   1      31.584  28.231  25.249  1.00  0.00     0.095 C 
ATOM      9  C   UNL A   1      33.597  26.810  25.388  1.00  0.00     0.022 C 
ATOM     10  C   UNL A   1      32.171  26.872  24.825  1.00  0.00     0.059 C 
BRANCH   6  11
ATOM     11  N   UNL A   1      33.424  29.571  24.270  1.00  0.00    -0.343 N 
ATOM     12  H   UNL A   1      33.973  30.413  24.447  1.00  0.00     0.345 HD
ATOM     13  H   UNL A   1      32.691  29.780  23.592  1.00  0.00     0.345 HD
ATOM     14  H   UNL A   1      34.033  28.842  23.898  1.00  0.00     0.345 HD
ENDBRANCH   6  11
BRANCH  10  15
ATOM     15  S   UNL A   1      31.122  25.412  25.199  1.00  0.00    -0.122 SA
BRANCH  15  16
ATOM     16  C   UNL A   1      32.261  24.045  25.074  1.00  0.00     0.009 A 
ATOM     17  C   UNL A   1      32.613  23.510  23.831  1.00  0.00     0.017 A 
ATOM     18  C   UNL A   1      32.725  23.424  26.238  1.00  0.00     0.037 A 
ATOM     19  C   UNL A   1      33.464  22.403  23.752  1.00  0.00     0.023 A 
ATOM     20  C   UNL A   1      33.573  22.313  26.164  1.00  0.00     0.060 A 
ATOM     21  C   UNL A   1      33.955  21.808  24.916  1.00  0.00     0.059 A 
ATOM     22  Cl  UNL A   1      34.114  21.614  27.652  1.00  0.00    -0.083 Cl
ATOM     23  Cl  UNL A   1      35.023  20.461  24.747  1.00  0.00    -0.083 Cl
ENDBRANCH  15  16
ENDBRANCH  10  15
ENDBRANCH   4   6
ENDBRANCH   3   4
ENDBRANCH   2   3
ENDBRANCH   1   2
BRANCH   1  24
ATOM     24  O   UNL A   1      35.421  30.476  29.326  1.00  0.00    -0.458 OA
BRANCH  24  25
ATOM     25  C   UNL A   1      36.407  30.498  30.247  1.00  0.00     0.338 C 
ATOM     26  O   UNL A   1      36.328  30.903  31.397  1.00  0.00    -0.246 OA
BRANCH  25  27
ATOM     27  C   UNL A   1      37.621  29.856  29.735  1.00  0.00     0.060 A 
ATOM     28  C   UNL A   1      38.502  29.300  30.659  1.00  0.00     0.016 A 
ATOM     29  C   UNL A   1      37.986  29.986  28.395  1.00  0.00     0.016 A 
ATOM     30  C   UNL A   1      39.793  28.972  30.266  1.00  0.00     0.010 A 
ATOM     31  C   UNL A   1      39.256  29.561  27.984  1.00  0.00     0.010 A 
ATOM     32  C   UNL A   1      40.188  29.087  28.923  1.00  0.00    -0.014 A 
BRANCH  32  33
ATOM     33  C   UNL A   1      41.580  28.721  28.541  1.00  0.00     0.031 A 
ATOM     34  C   UNL A   1      42.720  29.690  28.725  1.00  0.00     0.074 A 
ATOM     35  C   UNL A   1      41.838  27.475  28.095  1.00  0.00     0.049 A 
ATOM     36  N   UNL A   1      43.988  29.533  28.432  1.00  0.00    -0.248 NA
ATOM     37  C   UNL A   1      42.402  31.003  29.307  1.00  0.00     0.031 C 
ATOM     38  C   UNL A   1      40.836  26.425  27.892  1.00  0.00     0.029 A 
ATOM     39  N   UNL A   1      43.025  26.867  27.773  1.00  0.00    -0.354 N 
ATOM     40  C   UNL A   1      44.606  30.736  28.746  1.00  0.00     0.074 A 
ATOM     41  C   UNL A   1      43.579  31.613  29.267  1.00  0.00     0.031 C 
ATOM     42  C   UNL A   1      41.457  25.282  27.563  1.00  0.00     0.029 A 
ATOM     43  C   UNL A   1      42.891  25.534  27.463  1.00  0.00     0.049 A 
ATOM     44  H   UNL A   1      43.889  27.338  27.765  1.00  0.00     0.167 HD
ATOM     45  C   UNL A   1      45.908  31.086  28.605  1.00  0.00     0.031 A 
ATOM     46  C   UNL A   1      43.811  24.612  27.125  1.00  0.00     0.031 A 
ATOM     47  C   UNL A   1      46.942  30.215  28.114  1.00  0.00     0.049 A 
ATOM     48  C   UNL A   1      45.250  25.013  27.005  1.00  0.00     0.074 A 
ATOM     49  C   UNL A   1      48.281  30.496  27.904  1.00  0.00     0.029 A 
ATOM     50  N   UNL A   1      46.757  28.884  27.776  1.00  0.00    -0.354 N 
ATOM     51  N   UNL A   1      45.796  26.182  27.234  1.00  0.00    -0.248 NA
ATOM     52  C   UNL A   1      46.189  23.977  26.556  1.00  0.00     0.031 C 
ATOM     53  C   UNL A   1      48.904  29.337  27.424  1.00  0.00     0.029 A 
ATOM     54  C   UNL A   1      47.956  28.330  27.360  1.00  0.00     0.049 A 
ATOM     55  H   UNL A   1      45.900  28.403  27.825  1.00  0.00     0.167 HD
ATOM     56  C   UNL A   1      47.142  26.030  26.930  1.00  0.00     0.074 A 
ATOM     57  C   UNL A   1      47.334  24.647  26.540  1.00  0.00     0.031 C 
ATOM     58  C   UNL A   1      48.127  26.960  26.954  1.00  0.00     0.031 A 
BRANCH  45  59
ATOM     59  C   UNL A   1      46.277  32.502  28.949  1.00  0.00    -0.014 A 
ATOM     60  C   UNL A   1      46.722  32.844  30.238  1.00  0.00     0.010 A 
ATOM     61  C   UNL A   1      46.203  33.496  27.958  1.00  0.00     0.010 A 
ATOM     62  C   UNL A   1      47.056  34.168  30.538  1.00  0.00     0.020 A 
ATOM     63  C   UNL A   1      46.548  34.818  28.251  1.00  0.00     0.020 A 
ATOM     64  C   UNL A   1      46.957  35.149  29.545  1.00  0.00     0.054 A 
BRANCH  64  65
ATOM     65  S   UNL A   1      47.407  36.861  29.943  1.00  0.00     0.124 S 
ATOM     66  O   UNL A   1      48.654  36.680  30.680  1.00  0.00    -0.237 OA
ATOM     67  O   UNL A   1      47.540  37.481  28.627  1.00  0.00    -0.237 OA
ATOM     68  O   UNL A   1      46.275  37.335  30.737  1.00  0.00    -0.744 OA
ENDBRANCH  64  65
ENDBRANCH  45  59
BRANCH  46  69
ATOM     69  C   UNL A   1      43.378  23.217  26.860  1.00  0.00    -0.014 A 
ATOM     70  C   UNL A   1      43.603  22.634  25.601  1.00  0.00     0.010 A 
ATOM     71  C   UNL A   1      42.802  22.447  27.885  1.00  0.00     0.010 A 
ATOM     72  C   UNL A   1      43.274  21.295  25.377  1.00  0.00     0.020 A 
ATOM     73  C   UNL A   1      42.489  21.104  27.669  1.00  0.00     0.020 A 
ATOM     74  C   UNL A   1      42.725  20.536  26.414  1.00  0.00     0.054 A 
BRANCH  74  75
ATOM     75  S   UNL A   1      42.402  18.769  26.161  1.00  0.00     0.124 S 
ATOM     76  O   UNL A   1      42.693  18.216  27.479  1.00  0.00    -0.237 OA
ATOM     77  O   UNL A   1      40.998  18.743  25.760  1.00  0.00    -0.237 OA
ATOM     78  O   UNL A   1      43.346  18.410  25.103  1.00  0.00    -0.744 OA
ENDBRANCH  74  75
ENDBRANCH  46  69
BRANCH  58  79
ATOM     79  C   UNL A   1      49.490  26.507  26.522  1.00  0.00    -0.014 A 
ATOM     80  C   UNL A   1      49.927  26.736  25.205  1.00  0.00     0.010 A 
ATOM     81  C   UNL A   1      50.341  25.858  27.431  1.00  0.00     0.010 A 
ATOM     82  C   UNL A   1      51.185  26.288  24.793  1.00  0.00     0.020 A 
ATOM     83  C   UNL A   1      51.603  25.418  27.025  1.00  0.00     0.020 A 
ATOM     84  C   UNL A   1      52.010  25.620  25.702  1.00  0.00     0.054 A 
BRANCH  84  85
ATOM     85  S   UNL A   1      53.646  25.052  25.161  1.00  0.00     0.124 S 
ATOM     86  O   UNL A   1      53.502  23.601  25.239  1.00  0.00    -0.237 OA
ATOM     87  O   UNL A   1      53.757  25.600  23.811  1.00  0.00    -0.237 OA
ATOM     88  O   UNL A   1      54.553  25.644  26.142  1.00  0.00    -0.744 OA
ENDBRANCH  84  85
ENDBRANCH  58  79
ENDBRANCH  32  33
ENDBRANCH  25  27
ENDBRANCH  24  25
ENDBRANCH   1  24
TORSDOF 17
ENDMDL
MODEL 3
REMARK VINA RESULT:     -10.4      2.179      2.982
REMARK SMILES [NH3+][C@]1(C(=O)OCCOC(=O)c2ccc(-c3c4nc(c(-c5ccc(S(=O)(=O)[O-])cc5)c5ccc([nH]5)c(-c5ccc(S(=O)(=O)[O-])cc5)c5nc(c(-c6ccc(S(=O)(=O)[O-])cc6)c6ccc3[nH]6)C=C5)C=C4)cc2)CC[C@@H](Sc2ccc(Cl)c(Cl)c2)C1
REMARK SMILES IDX 7 1 6 2 5 3 3 4 4 5 2 6 71 7 83 8 72 9 73 10 1 11 74 15
REMARK SMILES IDX 75 16 76 17 82 18 77 19 80 20 78 21 81 22 79 23 8 24 9 25
REMARK SMILES IDX 10 26 11 27 12 28 70 29 13 30 69 31 14 32 15 33 16 34 63 35
REMARK SMILES IDX 17 36 68 37 62 38 64 39 18 40 67 41 61 42 60 43 19 45 49 46
REMARK SMILES IDX 30 47 48 48 31 49 34 50 47 51 65 52 32 53 33 54 46 56 66 57
REMARK SMILES IDX 35 58 20 59 21 60 29 61 22 62 28 63 23 64 24 65 25 66 26 67
REMARK SMILES IDX 27 68 50 69 51 70 59 71 52 72 58 73 53 74 54 75 55 76 56 77
REMARK SMILES IDX 57 78 36 79 37 80 45 81 38 82 44 83 39 84 40 85 41 86 42 87
REMARK SMILES IDX 43 88
REMARK H PARENT 1 12 1 13 1 14 64 44 34 55
REMARK Flexibility Score: inf
ROOT
ATOM      1  C   UNL A   1      39.584  22.857  26.544  1.00  0.00     0.275 C 
ENDROOT
BRANCH   1   2
ATOM      2  C   UNL A   1      38.494  22.063  25.821  1.00  0.00     0.274 C 
BRANCH   2   3
ATOM      3  O   UNL A   1      37.313  22.858  25.590  1.00  0.00    -0.457 OA
BRANCH   3   4
ATOM      4  C   UNL A   1      36.444  22.390  24.656  1.00  0.00     0.368 C 
ATOM      5  O   UNL A   1      36.704  22.278  23.461  1.00  0.00    -0.245 OA
BRANCH   4   6
ATOM      6  C   UNL A   1      35.041  22.081  25.224  1.00  0.00     0.193 C 
ATOM      7  C   UNL A   1      34.759  22.968  26.445  1.00  0.00     0.082 C 
ATOM      8  C   UNL A   1      33.840  22.424  24.337  1.00  0.00     0.095 C 
ATOM      9  C   UNL A   1      33.264  22.834  26.701  1.00  0.00     0.022 C 
ATOM     10  C   UNL A   1      32.661  22.555  25.319  1.00  0.00     0.059 C 
BRANCH   6  11
ATOM     11  N   UNL A   1      34.993  20.651  25.628  1.00  0.00    -0.343 N 
ATOM     12  H   UNL A   1      34.104  20.458  26.091  1.00  0.00     0.345 HD
ATOM     13  H   UNL A   1      35.760  20.452  26.269  1.00  0.00     0.345 HD
ATOM     14  H   UNL A   1      35.079  20.060  24.801  1.00  0.00     0.345 HD
ENDBRANCH   6  11
BRANCH  10  15
ATOM     15  S   UNL A   1      31.333  23.714  24.801  1.00  0.00    -0.122 SA
BRANCH  15  16
ATOM     16  C   UNL A   1      32.027  25.319  25.155  1.00  0.00     0.009 A 
ATOM     17  C   UNL A   1      33.132  25.800  24.445  1.00  0.00     0.017 A 
ATOM     18  C   UNL A   1      31.532  26.064  26.230  1.00  0.00     0.037 A 
ATOM     19  C   UNL A   1      33.699  27.036  24.771  1.00  0.00     0.023 A 
ATOM     20  C   UNL A   1      32.100  27.300  26.563  1.00  0.00     0.060 A 
ATOM     21  C   UNL A   1      33.179  27.794  25.821  1.00  0.00     0.059 A 
ATOM     22  Cl  UNL A   1      31.417  28.164  27.897  1.00  0.00    -0.083 Cl
ATOM     23  Cl  UNL A   1      33.909  29.324  26.154  1.00  0.00    -0.083 Cl
ENDBRANCH  15  16
ENDBRANCH  10  15
ENDBRANCH   4   6
ENDBRANCH   3   4
ENDBRANCH   2   3
ENDBRANCH   1   2
BRANCH   1  24
ATOM     24  O   UNL A   1      39.294  24.268  26.557  1.00  0.00    -0.458 OA
BRANCH  24  25
ATOM     25  C   UNL A   1      40.387  25.057  26.499  1.00  0.00     0.338 C 
ATOM     26  O   UNL A   1      41.132  25.210  25.543  1.00  0.00    -0.246 OA
BRANCH  25  27
ATOM     27  C   UNL A   1      40.539  25.838  27.730  1.00  0.00     0.060 A 
ATOM     28  C   UNL A   1      39.526  25.757  28.681  1.00  0.00     0.016 A 
ATOM     29  C   UNL A   1      41.552  26.789  27.851  1.00  0.00     0.016 A 
ATOM     30  C   UNL A   1      39.461  26.700  29.699  1.00  0.00     0.010 A 
ATOM     31  C   UNL A   1      41.537  27.676  28.936  1.00  0.00     0.010 A 
ATOM     32  C   UNL A   1      40.469  27.667  29.849  1.00  0.00    -0.014 A 
BRANCH  32  33
ATOM     33  C   UNL A   1      40.366  28.658  30.956  1.00  0.00     0.031 A 
ATOM     34  C   UNL A   1      41.379  28.691  32.071  1.00  0.00     0.074 A 
ATOM     35  C   UNL A   1      39.394  29.592  30.919  1.00  0.00     0.049 A 
ATOM     36  N   UNL A   1      41.426  29.480  33.116  1.00  0.00    -0.248 NA
ATOM     37  C   UNL A   1      42.477  27.713  32.014  1.00  0.00     0.031 C 
ATOM     38  C   UNL A   1      38.361  29.698  29.886  1.00  0.00     0.029 A 
ATOM     39  N   UNL A   1      39.143  30.656  31.747  1.00  0.00    -0.354 N 
ATOM     40  C   UNL A   1      42.523  29.066  33.861  1.00  0.00     0.074 A 
ATOM     41  C   UNL A   1      43.125  27.962  33.144  1.00  0.00     0.031 C 
ATOM     42  C   UNL A   1      37.642  30.811  30.094  1.00  0.00     0.029 A 
ATOM     43  C   UNL A   1      38.116  31.460  31.311  1.00  0.00     0.049 A 
ATOM     44  H   UNL A   1      39.649  30.828  32.574  1.00  0.00     0.167 HD
ATOM     45  C   UNL A   1      42.982  29.550  35.041  1.00  0.00     0.031 A 
ATOM     46  C   UNL A   1      37.600  32.589  31.831  1.00  0.00     0.031 A 
ATOM     47  C   UNL A   1      42.408  30.663  35.748  1.00  0.00     0.049 A 
ATOM     48  C   UNL A   1      38.143  33.125  33.120  1.00  0.00     0.074 A 
ATOM     49  C   UNL A   1      42.786  31.199  36.968  1.00  0.00     0.029 A 
ATOM     50  N   UNL A   1      41.346  31.425  35.291  1.00  0.00    -0.354 N 
ATOM     51  N   UNL A   1      39.133  32.666  33.846  1.00  0.00    -0.248 NA
ATOM     52  C   UNL A   1      37.483  34.315  33.672  1.00  0.00     0.031 C 
ATOM     53  C   UNL A   1      41.941  32.280  37.254  1.00  0.00     0.029 A 
ATOM     54  C   UNL A   1      41.055  32.428  36.201  1.00  0.00     0.049 A 
ATOM     55  H   UNL A   1      40.868  31.277  34.443  1.00  0.00     0.167 HD
ATOM     56  C   UNL A   1      39.198  33.496  34.957  1.00  0.00     0.074 A 
ATOM     57  C   UNL A   1      38.174  34.508  34.788  1.00  0.00     0.031 C 
ATOM     58  C   UNL A   1      40.021  33.413  36.030  1.00  0.00     0.031 A 
BRANCH  45  59
ATOM     59  C   UNL A   1      44.149  28.838  35.665  1.00  0.00    -0.014 A 
ATOM     60  C   UNL A   1      43.962  27.702  36.470  1.00  0.00     0.010 A 
ATOM     61  C   UNL A   1      45.454  29.300  35.416  1.00  0.00     0.010 A 
ATOM     62  C   UNL A   1      45.062  27.057  37.044  1.00  0.00     0.020 A 
ATOM     63  C   UNL A   1      46.557  28.651  35.978  1.00  0.00     0.020 A 
ATOM     64  C   UNL A   1      46.352  27.542  36.803  1.00  0.00     0.054 A 
BRANCH  64  65
ATOM     65  S   UNL A   1      47.772  26.689  37.543  1.00  0.00     0.124 S 
ATOM     66  O   UNL A   1      48.762  27.761  37.612  1.00  0.00    -0.237 OA
ATOM     67  O   UNL A   1      47.249  26.234  38.829  1.00  0.00    -0.237 OA
ATOM     68  O   UNL A   1      48.068  25.626  36.585  1.00  0.00    -0.744 OA
ENDBRANCH  64  65
ENDBRANCH  45  59
BRANCH  46  69
ATOM     69  C   UNL A   1      36.487  33.271  31.124  1.00  0.00    -0.014 A 
ATOM     70  C   UNL A   1      35.248  33.450  31.762  1.00  0.00     0.010 A 
ATOM     71  C   UNL A   1      36.686  33.804  29.838  1.00  0.00     0.010 A 
ATOM     72  C   UNL A   1      34.228  34.167  31.131  1.00  0.00     0.020 A 
ATOM     73  C   UNL A   1      35.675  34.536  29.213  1.00  0.00     0.020 A 
ATOM     74  C   UNL A   1      34.450  34.711  29.863  1.00  0.00     0.054 A 
BRANCH  74  75
ATOM     75  S   UNL A   1      33.170  35.738  29.090  1.00  0.00     0.124 S 
ATOM     76  O   UNL A   1      32.479  36.286  30.252  1.00  0.00    -0.237 OA
ATOM     77  O   UNL A   1      33.944  36.695  28.304  1.00  0.00    -0.237 OA
ATOM     78  O   UNL A   1      32.407  34.773  28.299  1.00  0.00    -0.744 OA
ENDBRANCH  74  75
ENDBRANCH  46  69
BRANCH  58  79
ATOM     79  C   UNL A   1      39.821  34.435  37.110  1.00  0.00    -0.014 A 
ATOM     80  C   UNL A   1      40.470  35.681  37.035  1.00  0.00     0.010 A 
ATOM     81  C   UNL A   1      38.980  34.157  38.200  1.00  0.00     0.010 A 
ATOM     82  C   UNL A   1      40.308  36.621  38.055  1.00  0.00     0.020 A 
ATOM     83  C   UNL A   1      38.809  35.100  39.216  1.00  0.00     0.020 A 
ATOM     84  C   UNL A   1      39.488  36.320  39.147  1.00  0.00     0.054 A 
BRANCH  84  85
ATOM     85  S   UNL A   1      39.276  37.552  40.461  1.00  0.00     0.124 S 
ATOM     86  O   UNL A   1      38.178  38.361  39.941  1.00  0.00    -0.237 OA
ATOM     87  O   UNL A   1      38.957  36.737  41.630  1.00  0.00    -0.237 OA
ATOM     88  O   UNL A   1      40.576  38.220  40.512  1.00  0.00    -0.744 OA
ENDBRANCH  84  85
ENDBRANCH  58  79
ENDBRANCH  32  33
ENDBRANCH  25  27
ENDBRANCH  24  25
ENDBRANCH   1  24
TORSDOF 17
ENDMDL
