MODEL 1
REMARK VINA RESULT:     -10.9      0.000      0.000
REMARK SMILES O=C(OCCOC(=O)c1cccc(Nc2ccc([N+](=O)[O-])cc2)c1)c1ccc(-c2c3nc(c(-c4ccc(S(=O)(=O)[O-])cc4)c4ccc([nH]4)c(-c4ccc(S(=O)(=O)[O-])cc4)c4nc(c(-c5ccc(S(=O)(=O)[O-])cc5)c5ccc2[nH]5)C=C4)C=C3)cc1
REMARK SMILES IDX 4 1 3 2 2 3 1 4 25 5 26 6 84 7 27 8 83 9 28 10 29 11 30 12
REMARK SMILES IDX 77 13 31 14 82 15 76 16 78 17 32 18 81 19 75 20 74 21 33 23
REMARK SMILES IDX 63 24 44 25 62 26 45 27 48 28 61 29 79 30 46 31 47 32 60 34
REMARK SMILES IDX 80 35 49 36 34 37 35 38 43 39 36 40 42 41 37 42 38 43 39 44
REMARK SMILES IDX 40 45 41 46 64 47 65 48 73 49 66 50 72 51 67 52 68 53 69 54
REMARK SMILES IDX 70 55 71 56 50 57 51 58 59 59 52 60 58 61 53 62 54 63 55 64
REMARK SMILES IDX 56 65 57 66 5 67 6 68 7 69 8 70 9 71 10 72 24 73 11 74 13 75
REMARK SMILES IDX 12 76 14 77 15 79 16 80 23 81 17 82 22 83 18 84 19 85 20 86
REMARK SMILES IDX 21 87
REMARK H PARENT 78 22 48 33 14 78
REMARK Flexibility Score: inf
ROOT
ATOM      1  C   UNL A   1      38.799  21.536  26.007  1.00  0.00     0.275 C 
ENDROOT
BRANCH   1   2
ATOM      2  O   UNL A   1      39.654  20.382  25.971  1.00  0.00    -0.458 OA
BRANCH   2   3
ATOM      3  C   UNL A   1      40.988  20.322  26.208  1.00  0.00     0.338 C 
ATOM      4  O   UNL A   1      41.540  19.223  26.206  1.00  0.00    -0.246 OA
BRANCH   3   5
ATOM      5  C   UNL A   1      41.780  21.505  26.671  1.00  0.00     0.060 A 
ATOM      6  C   UNL A   1      42.063  21.843  27.998  1.00  0.00     0.016 A 
ATOM      7  C   UNL A   1      42.271  22.348  25.660  1.00  0.00     0.016 A 
ATOM      8  C   UNL A   1      42.870  22.941  28.311  1.00  0.00     0.010 A 
ATOM      9  C   UNL A   1      43.083  23.443  25.963  1.00  0.00     0.010 A 
ATOM     10  C   UNL A   1      43.379  23.750  27.297  1.00  0.00    -0.014 A 
BRANCH  10  11
ATOM     11  C   UNL A   1      44.001  25.051  27.623  1.00  0.00     0.031 A 
ATOM     12  C   UNL A   1      43.076  26.172  27.998  1.00  0.00     0.074 A 
ATOM     13  C   UNL A   1      45.335  25.230  27.610  1.00  0.00     0.049 A 
ATOM     14  N   UNL A   1      43.339  27.435  28.186  1.00  0.00    -0.248 NA
ATOM     15  C   UNL A   1      41.660  25.810  28.194  1.00  0.00     0.031 C 
ATOM     16  C   UNL A   1      46.330  24.185  27.371  1.00  0.00     0.029 A 
ATOM     17  N   UNL A   1      46.083  26.371  27.763  1.00  0.00    -0.354 N 
ATOM     18  C   UNL A   1      42.128  28.012  28.547  1.00  0.00     0.074 A 
ATOM     19  C   UNL A   1      41.117  26.983  28.475  1.00  0.00     0.031 C 
ATOM     20  C   UNL A   1      47.552  24.746  27.311  1.00  0.00     0.029 A 
ATOM     21  C   UNL A   1      47.418  26.190  27.481  1.00  0.00     0.049 A 
ATOM     22  H   UNL A   1      45.702  27.233  28.045  1.00  0.00     0.167 HD
ATOM     23  C   UNL A   1      41.888  29.283  28.944  1.00  0.00     0.031 A 
ATOM     24  C   UNL A   1      48.401  27.097  27.308  1.00  0.00     0.031 A 
ATOM     25  C   UNL A   1      42.902  30.297  28.973  1.00  0.00     0.049 A 
ATOM     26  C   UNL A   1      48.066  28.551  27.479  1.00  0.00     0.074 A 
ATOM     27  C   UNL A   1      42.799  31.616  29.370  1.00  0.00     0.029 A 
ATOM     28  N   UNL A   1      44.214  30.095  28.566  1.00  0.00    -0.354 N 
ATOM     29  N   UNL A   1      46.916  29.092  27.807  1.00  0.00    -0.248 NA
ATOM     30  C   UNL A   1      49.151  29.517  27.264  1.00  0.00     0.031 C 
ATOM     31  C   UNL A   1      44.040  32.226  29.152  1.00  0.00     0.029 A 
ATOM     32  C   UNL A   1      44.929  31.271  28.677  1.00  0.00     0.049 A 
ATOM     33  H   UNL A   1      44.581  29.240  28.246  1.00  0.00     0.167 HD
ATOM     34  C   UNL A   1      47.160  30.455  27.923  1.00  0.00     0.074 A 
ATOM     35  C   UNL A   1      48.550  30.661  27.566  1.00  0.00     0.031 C 
ATOM     36  C   UNL A   1      46.321  31.436  28.337  1.00  0.00     0.031 A 
BRANCH  23  37
ATOM     37  C   UNL A   1      40.476  29.612  29.343  1.00  0.00    -0.014 A 
ATOM     38  C   UNL A   1      39.517  29.970  28.375  1.00  0.00     0.010 A 
ATOM     39  C   UNL A   1      40.117  29.634  30.701  1.00  0.00     0.010 A 
ATOM     40  C   UNL A   1      38.253  30.421  28.762  1.00  0.00     0.020 A 
ATOM     41  C   UNL A   1      38.842  30.055  31.092  1.00  0.00     0.020 A 
ATOM     42  C   UNL A   1      37.930  30.477  30.120  1.00  0.00     0.054 A 
BRANCH  42  43
ATOM     43  S   UNL A   1      36.304  31.118  30.601  1.00  0.00     0.124 S 
ATOM     44  O   UNL A   1      35.904  30.168  31.639  1.00  0.00    -0.237 OA
ATOM     45  O   UNL A   1      36.614  32.465  31.073  1.00  0.00    -0.237 OA
ATOM     46  O   UNL A   1      35.527  31.056  29.367  1.00  0.00    -0.744 OA
ENDBRANCH  42  43
ENDBRANCH  23  37
BRANCH  24  47
ATOM     47  C   UNL A   1      49.735  26.665  26.808  1.00  0.00    -0.014 A 
ATOM     48  C   UNL A   1      50.797  26.303  27.649  1.00  0.00     0.010 A 
ATOM     49  C   UNL A   1      49.928  26.598  25.420  1.00  0.00     0.010 A 
ATOM     50  C   UNL A   1      52.013  25.862  27.101  1.00  0.00     0.020 A 
ATOM     51  C   UNL A   1      51.126  26.148  24.865  1.00  0.00     0.020 A 
ATOM     52  C   UNL A   1      52.165  25.777  25.711  1.00  0.00     0.054 A 
BRANCH  52  53
ATOM     53  S   UNL A   1      53.700  25.106  25.011  1.00  0.00     0.124 S 
ATOM     54  O   UNL A   1      53.508  23.669  25.175  1.00  0.00    -0.237 OA
ATOM     55  O   UNL A   1      53.660  25.602  23.638  1.00  0.00    -0.237 OA
ATOM     56  O   UNL A   1      54.741  25.702  25.847  1.00  0.00    -0.744 OA
ENDBRANCH  52  53
ENDBRANCH  24  47
BRANCH  36  57
ATOM     57  C   UNL A   1      46.910  32.797  28.569  1.00  0.00    -0.014 A 
ATOM     58  C   UNL A   1      47.572  33.129  29.760  1.00  0.00     0.010 A 
ATOM     59  C   UNL A   1      46.894  33.714  27.501  1.00  0.00     0.010 A 
ATOM     60  C   UNL A   1      48.220  34.362  29.875  1.00  0.00     0.020 A 
ATOM     61  C   UNL A   1      47.560  34.934  27.604  1.00  0.00     0.020 A 
ATOM     62  C   UNL A   1      48.219  35.251  28.792  1.00  0.00     0.054 A 
BRANCH  62  63
ATOM     63  S   UNL A   1      49.158  36.797  28.923  1.00  0.00     0.124 S 
ATOM     64  O   UNL A   1      48.924  37.405  27.616  1.00  0.00    -0.237 OA
ATOM     65  O   UNL A   1      48.519  37.466  30.053  1.00  0.00    -0.237 OA
ATOM     66  O   UNL A   1      50.527  36.350  29.166  1.00  0.00    -0.744 OA
ENDBRANCH  62  63
ENDBRANCH  36  57
ENDBRANCH  10  11
ENDBRANCH   3   5
ENDBRANCH   2   3
ENDBRANCH   1   2
BRANCH   1  67
ATOM     67  C   UNL A   1      37.652  21.500  24.991  1.00  0.00     0.275 C 
BRANCH  67  68
ATOM     68  O   UNL A   1      36.827  22.674  25.027  1.00  0.00    -0.458 OA
BRANCH  68  69
ATOM     69  C   UNL A   1      36.361  23.078  23.812  1.00  0.00     0.338 C 
ATOM     70  O   UNL A   1      37.028  23.324  22.827  1.00  0.00    -0.246 OA
BRANCH  69  71
ATOM     71  C   UNL A   1      34.886  23.001  23.785  1.00  0.00     0.062 A 
ATOM     72  C   UNL A   1      34.192  24.213  23.845  1.00  0.00     0.016 A 
ATOM     73  C   UNL A   1      34.191  21.787  23.726  1.00  0.00     0.041 A 
ATOM     74  C   UNL A   1      32.802  24.218  23.792  1.00  0.00     0.003 A 
ATOM     75  C   UNL A   1      32.784  21.778  23.742  1.00  0.00     0.039 A 
ATOM     76  C   UNL A   1      32.108  23.008  23.733  1.00  0.00     0.026 A 
BRANCH  75  77
ATOM     77  N   UNL A   1      32.085  20.558  23.770  1.00  0.00    -0.355 N 
ATOM     78  H   UNL A   1      31.143  20.605  23.490  1.00  0.00     0.167 HD
BRANCH  77  79
ATOM     79  C   UNL A   1      32.542  19.283  24.141  1.00  0.00     0.039 A 
ATOM     80  C   UNL A   1      32.993  18.402  23.149  1.00  0.00     0.033 A 
ATOM     81  C   UNL A   1      32.538  18.855  25.476  1.00  0.00     0.033 A 
ATOM     82  C   UNL A   1      33.435  17.115  23.476  1.00  0.00     0.088 A 
ATOM     83  C   UNL A   1      32.958  17.563  25.818  1.00  0.00     0.088 A 
ATOM     84  C   UNL A   1      33.405  16.695  24.811  1.00  0.00     0.269 A 
BRANCH  84  85
ATOM     85  N   UNL A   1      33.806  15.323  25.150  1.00  0.00     0.062 N 
ATOM     86  O   UNL A   1      35.019  15.077  25.218  1.00  0.00    -0.258 OA
ATOM     87  O   UNL A   1      32.910  14.498  25.376  1.00  0.00    -0.258 OA
ENDBRANCH  84  85
ENDBRANCH  77  79
ENDBRANCH  75  77
ENDBRANCH  69  71
ENDBRANCH  68  69
ENDBRANCH  67  68
ENDBRANCH   1  67
TORSDOF 17
ENDMDL
MODEL 2
REMARK VINA RESULT:     -10.9      6.239     11.414
REMARK SMILES O=C(OCCOC(=O)c1cccc(Nc2ccc([N+](=O)[O-])cc2)c1)c1ccc(-c2c3nc(c(-c4ccc(S(=O)(=O)[O-])cc4)c4ccc([nH]4)c(-c4ccc(S(=O)(=O)[O-])cc4)c4nc(c(-c5ccc(S(=O)(=O)[O-])cc5)c5ccc2[nH]5)C=C4)C=C3)cc1
REMARK SMILES IDX 4 1 3 2 2 3 1 4 25 5 26 6 84 7 27 8 83 9 28 10 29 11 30 12
REMARK SMILES IDX 77 13 31 14 82 15 76 16 78 17 32 18 81 19 75 20 74 21 33 23
REMARK SMILES IDX 63 24 44 25 62 26 45 27 48 28 61 29 79 30 46 31 47 32 60 34
REMARK SMILES IDX 80 35 49 36 34 37 35 38 43 39 36 40 42 41 37 42 38 43 39 44
REMARK SMILES IDX 40 45 41 46 64 47 65 48 73 49 66 50 72 51 67 52 68 53 69 54
REMARK SMILES IDX 70 55 71 56 50 57 51 58 59 59 52 60 58 61 53 62 54 63 55 64
REMARK SMILES IDX 56 65 57 66 5 67 6 68 7 69 8 70 9 71 10 72 24 73 11 74 13 75
REMARK SMILES IDX 12 76 14 77 15 79 16 80 23 81 17 82 22 83 18 84 19 85 20 86
REMARK SMILES IDX 21 87
REMARK H PARENT 78 22 48 33 14 78
REMARK Flexibility Score: inf
ROOT
ATOM      1  C   UNL A   1      38.634  23.357  26.321  1.00  0.00     0.275 C 
ENDROOT
BRANCH   1   2
ATOM      2  O   UNL A   1      39.024  24.322  27.313  1.00  0.00    -0.458 OA
BRANCH   2   3
ATOM      3  C   UNL A   1      39.820  25.408  27.156  1.00  0.00     0.338 C 
ATOM      4  O   UNL A   1      40.646  25.408  26.244  1.00  0.00    -0.246 OA
BRANCH   3   5
ATOM      5  C   UNL A   1      39.881  26.517  28.159  1.00  0.00     0.060 A 
ATOM      6  C   UNL A   1      40.615  27.701  28.040  1.00  0.00     0.016 A 
ATOM      7  C   UNL A   1      39.127  26.326  29.330  1.00  0.00     0.016 A 
ATOM      8  C   UNL A   1      40.545  28.699  29.017  1.00  0.00     0.010 A 
ATOM      9  C   UNL A   1      39.047  27.321  30.307  1.00  0.00     0.010 A 
ATOM     10  C   UNL A   1      39.767  28.513  30.158  1.00  0.00    -0.014 A 
BRANCH  10  11
ATOM     11  C   UNL A   1      39.898  29.433  31.307  1.00  0.00     0.031 A 
ATOM     12  C   UNL A   1      40.994  29.143  32.290  1.00  0.00     0.074 A 
ATOM     13  C   UNL A   1      39.091  30.499  31.465  1.00  0.00     0.049 A 
ATOM     14  N   UNL A   1      41.237  29.694  33.446  1.00  0.00    -0.248 NA
ATOM     15  C   UNL A   1      41.952  28.090  31.905  1.00  0.00     0.031 C 
ATOM     16  C   UNL A   1      38.068  30.938  30.517  1.00  0.00     0.029 A 
ATOM     17  N   UNL A   1      38.978  31.384  32.508  1.00  0.00    -0.354 N 
ATOM     18  C   UNL A   1      42.388  29.073  33.914  1.00  0.00     0.074 A 
ATOM     19  C   UNL A   1      42.749  28.051  32.960  1.00  0.00     0.031 C 
ATOM     20  C   UNL A   1      37.376  31.959  31.057  1.00  0.00     0.029 A 
ATOM     21  C   UNL A   1      37.892  32.224  32.396  1.00  0.00     0.049 A 
ATOM     22  H   UNL A   1      39.610  31.416  33.262  1.00  0.00     0.167 HD
ATOM     23  C   UNL A   1      43.104  29.358  35.025  1.00  0.00     0.031 A 
ATOM     24  C   UNL A   1      37.338  33.055  33.303  1.00  0.00     0.031 A 
ATOM     25  C   UNL A   1      42.706  30.353  35.978  1.00  0.00     0.049 A 
ATOM     26  C   UNL A   1      37.983  33.165  34.656  1.00  0.00     0.074 A 
ATOM     27  C   UNL A   1      43.346  30.754  37.134  1.00  0.00     0.029 A 
ATOM     28  N   UNL A   1      41.536  31.096  35.882  1.00  0.00    -0.354 N 
ATOM     29  N   UNL A   1      39.064  32.564  35.097  1.00  0.00    -0.248 NA
ATOM     30  C   UNL A   1      37.347  34.061  35.628  1.00  0.00     0.031 C 
ATOM     31  C   UNL A   1      42.535  31.705  37.765  1.00  0.00     0.029 A 
ATOM     32  C   UNL A   1      41.420  31.937  36.970  1.00  0.00     0.049 A 
ATOM     33  H   UNL A   1      40.886  31.032  35.146  1.00  0.00     0.167 HD
ATOM     34  C   UNL A   1      39.286  33.075  36.369  1.00  0.00     0.074 A 
ATOM     35  C   UNL A   1      38.190  33.984  36.650  1.00  0.00     0.031 C 
ATOM     36  C   UNL A   1      40.329  32.850  37.206  1.00  0.00     0.031 A 
BRANCH  23  37
ATOM     37  C   UNL A   1      44.358  28.556  35.247  1.00  0.00    -0.014 A 
ATOM     38  C   UNL A   1      45.586  28.972  34.697  1.00  0.00     0.010 A 
ATOM     39  C   UNL A   1      44.298  27.341  35.948  1.00  0.00     0.010 A 
ATOM     40  C   UNL A   1      46.712  28.149  34.776  1.00  0.00     0.020 A 
ATOM     41  C   UNL A   1      45.431  26.528  36.056  1.00  0.00     0.020 A 
ATOM     42  C   UNL A   1      46.622  26.923  35.441  1.00  0.00     0.054 A 
BRANCH  42  43
ATOM     43  S   UNL A   1      48.081  25.847  35.483  1.00  0.00     0.124 S 
ATOM     44  O   UNL A   1      48.784  26.343  36.664  1.00  0.00    -0.237 OA
ATOM     45  O   UNL A   1      47.496  24.515  35.616  1.00  0.00    -0.237 OA
ATOM     46  O   UNL A   1      48.742  26.109  34.208  1.00  0.00    -0.744 OA
ENDBRANCH  42  43
ENDBRANCH  23  37
BRANCH  24  47
ATOM     47  C   UNL A   1      36.037  33.716  33.012  1.00  0.00    -0.014 A 
ATOM     48  C   UNL A   1      34.806  33.046  33.028  1.00  0.00     0.010 A 
ATOM     49  C   UNL A   1      36.047  35.090  32.726  1.00  0.00     0.010 A 
ATOM     50  C   UNL A   1      33.615  33.750  32.787  1.00  0.00     0.020 A 
ATOM     51  C   UNL A   1      34.869  35.802  32.499  1.00  0.00     0.020 A 
ATOM     52  C   UNL A   1      33.655  35.128  32.535  1.00  0.00     0.054 A 
BRANCH  52  53
ATOM     53  S   UNL A   1      32.106  36.052  32.329  1.00  0.00     0.124 S 
ATOM     54  O   UNL A   1      32.320  37.205  33.197  1.00  0.00    -0.237 OA
ATOM     55  O   UNL A   1      32.093  36.326  30.895  1.00  0.00    -0.237 OA
ATOM     56  O   UNL A   1      31.085  35.106  32.780  1.00  0.00    -0.744 OA
ENDBRANCH  52  53
ENDBRANCH  24  47
BRANCH  36  57
ATOM     57  C   UNL A   1      40.421  33.700  38.440  1.00  0.00    -0.014 A 
ATOM     58  C   UNL A   1      40.085  33.208  39.710  1.00  0.00     0.010 A 
ATOM     59  C   UNL A   1      40.976  34.987  38.316  1.00  0.00     0.010 A 
ATOM     60  C   UNL A   1      40.315  33.993  40.843  1.00  0.00     0.020 A 
ATOM     61  C   UNL A   1      41.229  35.763  39.445  1.00  0.00     0.020 A 
ATOM     62  C   UNL A   1      40.895  35.261  40.704  1.00  0.00     0.054 A 
BRANCH  62  63
ATOM     63  S   UNL A   1      41.286  36.218  42.193  1.00  0.00     0.124 S 
ATOM     64  O   UNL A   1      42.000  35.236  43.006  1.00  0.00    -0.237 OA
ATOM     65  O   UNL A   1      42.099  37.312  41.668  1.00  0.00    -0.237 OA
ATOM     66  O   UNL A   1      39.975  36.613  42.703  1.00  0.00    -0.744 OA
ENDBRANCH  62  63
ENDBRANCH  36  57
ENDBRANCH  10  11
ENDBRANCH   3   5
ENDBRANCH   2   3
ENDBRANCH   1   2
BRANCH   1  67
ATOM     67  C   UNL A   1      37.236  23.586  25.738  1.00  0.00     0.275 C 
BRANCH  67  68
ATOM     68  O   UNL A   1      36.872  22.617  24.742  1.00  0.00    -0.458 OA
BRANCH  68  69
ATOM     69  C   UNL A   1      36.285  23.139  23.629  1.00  0.00     0.338 C 
ATOM     70  O   UNL A   1      36.852  23.538  22.632  1.00  0.00    -0.246 OA
BRANCH  69  71
ATOM     71  C   UNL A   1      34.818  22.986  23.713  1.00  0.00     0.062 A 
ATOM     72  C   UNL A   1      34.085  24.127  24.052  1.00  0.00     0.016 A 
ATOM     73  C   UNL A   1      34.169  21.766  23.493  1.00  0.00     0.041 A 
ATOM     74  C   UNL A   1      32.697  24.064  24.118  1.00  0.00     0.003 A 
ATOM     75  C   UNL A   1      32.771  21.675  23.625  1.00  0.00     0.039 A 
ATOM     76  C   UNL A   1      32.049  22.848  23.898  1.00  0.00     0.026 A 
BRANCH  75  77
ATOM     77  N   UNL A   1      32.127  20.433  23.489  1.00  0.00    -0.355 N 
ATOM     78  H   UNL A   1      31.265  20.454  23.013  1.00  0.00     0.167 HD
BRANCH  77  79
ATOM     79  C   UNL A   1      32.539  19.166  23.935  1.00  0.00     0.039 A 
ATOM     80  C   UNL A   1      32.960  18.214  22.997  1.00  0.00     0.033 A 
ATOM     81  C   UNL A   1      32.519  18.818  25.293  1.00  0.00     0.033 A 
ATOM     82  C   UNL A   1      33.357  16.934  23.400  1.00  0.00     0.088 A 
ATOM     83  C   UNL A   1      32.894  17.534  25.710  1.00  0.00     0.088 A 
ATOM     84  C   UNL A   1      33.311  16.594  24.757  1.00  0.00     0.269 A 
BRANCH  84  85
ATOM     85  N   UNL A   1      33.665  15.231  25.177  1.00  0.00     0.062 N 
ATOM     86  O   UNL A   1      32.741  14.426  25.362  1.00  0.00    -0.258 OA
ATOM     87  O   UNL A   1      34.867  14.958  25.296  1.00  0.00    -0.258 OA
ENDBRANCH  84  85
ENDBRANCH  77  79
ENDBRANCH  75  77
ENDBRANCH  69  71
ENDBRANCH  68  69
ENDBRANCH  67  68
ENDBRANCH   1  67
TORSDOF 17
ENDMDL
MODEL 3
REMARK VINA RESULT:     -10.8      5.554     10.770
REMARK SMILES O=C(OCCOC(=O)c1cccc(Nc2ccc([N+](=O)[O-])cc2)c1)c1ccc(-c2c3nc(c(-c4ccc(S(=O)(=O)[O-])cc4)c4ccc([nH]4)c(-c4ccc(S(=O)(=O)[O-])cc4)c4nc(c(-c5ccc(S(=O)(=O)[O-])cc5)c5ccc2[nH]5)C=C4)C=C3)cc1
REMARK SMILES IDX 4 1 3 2 2 3 1 4 25 5 26 6 84 7 27 8 83 9 28 10 29 11 30 12
REMARK SMILES IDX 77 13 31 14 82 15 76 16 78 17 32 18 81 19 75 20 74 21 33 23
REMARK SMILES IDX 63 24 44 25 62 26 45 27 48 28 61 29 79 30 46 31 47 32 60 34
REMARK SMILES IDX 80 35 49 36 34 37 35 38 43 39 36 40 42 41 37 42 38 43 39 44
REMARK SMILES IDX 40 45 41 46 64 47 65 48 73 49 66 50 72 51 67 52 68 53 69 54
REMARK SMILES IDX 70 55 71 56 50 57 51 58 59 59 52 60 58 61 53 62 54 63 55 64
REMARK SMILES IDX 56 65 57 66 5 67 6 68 7 69 8 70 9 71 10 72 24 73 11 74 13 75
REMARK SMILES IDX 12 76 14 77 15 79 16 80 23 81 17 82 22 83 18 84 19 85 20 86
REMARK SMILES IDX 21 87
REMARK H PARENT 78 22 48 33 14 78
REMARK Flexibility Score: inf
ROOT
ATOM      1  C   UNL A   1      34.322  32.269  28.739  1.00  0.00     0.275 C 
ENDROOT
BRANCH   1   2
ATOM      2  O   UNL A   1      33.866  31.190  27.907  1.00  0.00    -0.458 OA
BRANCH   2   3
ATOM      3  C   UNL A   1      34.504  30.029  27.619  1.00  0.00     0.338 C 
ATOM      4  O   UNL A   1      33.841  29.072  27.221  1.00  0.00    -0.246 OA
BRANCH   3   5
ATOM      5  C   UNL A   1      35.944  29.794  27.954  1.00  0.00     0.060 A 
ATOM      6  C   UNL A   1      37.029  29.936  27.083  1.00  0.00     0.016 A 
ATOM      7  C   UNL A   1      36.208  29.385  29.271  1.00  0.00     0.016 A 
ATOM      8  C   UNL A   1      38.343  29.751  27.526  1.00  0.00     0.010 A 
ATOM      9  C   UNL A   1      37.517  29.205  29.723  1.00  0.00     0.010 A 
ATOM     10  C   UNL A   1      38.594  29.378  28.845  1.00  0.00    -0.014 A 
BRANCH  10  11
ATOM     11  C   UNL A   1      39.942  28.922  29.246  1.00  0.00     0.031 A 
ATOM     12  C   UNL A   1      40.841  29.940  29.885  1.00  0.00     0.074 A 
ATOM     13  C   UNL A   1      40.349  27.651  29.072  1.00  0.00     0.049 A 
ATOM     14  N   UNL A   1      42.105  29.851  30.195  1.00  0.00    -0.248 NA
ATOM     15  C   UNL A   1      40.222  31.234  30.227  1.00  0.00     0.031 C 
ATOM     16  C   UNL A   1      39.523  26.556  28.566  1.00  0.00     0.029 A 
ATOM     17  N   UNL A   1      41.580  27.075  29.265  1.00  0.00    -0.354 N 
ATOM     18  C   UNL A   1      42.423  31.064  30.791  1.00  0.00     0.074 A 
ATOM     19  C   UNL A   1      41.248  31.901  30.728  1.00  0.00     0.031 C 
ATOM     20  C   UNL A   1      40.290  25.461  28.410  1.00  0.00     0.029 A 
ATOM     21  C   UNL A   1      41.663  25.789  28.781  1.00  0.00     0.049 A 
ATOM     22  H   UNL A   1      42.330  27.536  29.705  1.00  0.00     0.167 HD
ATOM     23  C   UNL A   1      43.585  31.433  31.377  1.00  0.00     0.031 A 
ATOM     24  C   UNL A   1      42.739  24.999  28.591  1.00  0.00     0.031 A 
ATOM     25  C   UNL A   1      44.750  30.598  31.396  1.00  0.00     0.049 A 
ATOM     26  C   UNL A   1      44.088  25.525  28.992  1.00  0.00     0.074 A 
ATOM     27  C   UNL A   1      45.983  30.841  31.968  1.00  0.00     0.029 A 
ATOM     28  N   UNL A   1      44.822  29.350  30.789  1.00  0.00    -0.354 N 
ATOM     29  N   UNL A   1      44.385  26.679  29.542  1.00  0.00    -0.248 NA
ATOM     30  C   UNL A   1      45.243  24.650  28.755  1.00  0.00     0.031 C 
ATOM     31  C   UNL A   1      46.818  29.760  31.661  1.00  0.00     0.029 A 
ATOM     32  C   UNL A   1      46.086  28.819  30.950  1.00  0.00     0.049 A 
ATOM     33  H   UNL A   1      44.081  28.910  30.314  1.00  0.00     0.167 HD
ATOM     34  C   UNL A   1      45.750  26.635  29.797  1.00  0.00     0.074 A 
ATOM     35  C   UNL A   1      46.229  25.367  29.280  1.00  0.00     0.031 C 
ATOM     36  C   UNL A   1      46.523  27.541  30.445  1.00  0.00     0.031 A 
BRANCH  23  37
ATOM     37  C   UNL A   1      43.622  32.799  32.006  1.00  0.00    -0.014 A 
ATOM     38  C   UNL A   1      44.034  33.923  31.265  1.00  0.00     0.010 A 
ATOM     39  C   UNL A   1      43.311  32.953  33.367  1.00  0.00     0.010 A 
ATOM     40  C   UNL A   1      44.213  35.159  31.891  1.00  0.00     0.020 A 
ATOM     41  C   UNL A   1      43.459  34.196  33.992  1.00  0.00     0.020 A 
ATOM     42  C   UNL A   1      43.940  35.282  33.256  1.00  0.00     0.054 A 
BRANCH  42  43
ATOM     43  S   UNL A   1      44.231  36.881  34.060  1.00  0.00     0.124 S 
ATOM     44  O   UNL A   1      42.999  37.602  33.747  1.00  0.00    -0.237 OA
ATOM     45  O   UNL A   1      44.399  36.511  35.464  1.00  0.00    -0.237 OA
ATOM     46  O   UNL A   1      45.433  37.386  33.404  1.00  0.00    -0.744 OA
ENDBRANCH  42  43
ENDBRANCH  23  37
BRANCH  24  47
ATOM     47  C   UNL A   1      42.598  23.709  27.861  1.00  0.00    -0.014 A 
ATOM     48  C   UNL A   1      42.753  23.584  26.474  1.00  0.00     0.010 A 
ATOM     49  C   UNL A   1      42.316  22.556  28.610  1.00  0.00     0.010 A 
ATOM     50  C   UNL A   1      42.650  22.322  25.863  1.00  0.00     0.020 A 
ATOM     51  C   UNL A   1      42.226  21.298  28.016  1.00  0.00     0.020 A 
ATOM     52  C   UNL A   1      42.397  21.186  26.641  1.00  0.00     0.054 A 
BRANCH  52  53
ATOM     53  S   UNL A   1      42.371  19.547  25.861  1.00  0.00     0.124 S 
ATOM     54  O   UNL A   1      40.983  19.438  25.424  1.00  0.00    -0.237 OA
ATOM     55  O   UNL A   1      43.364  19.689  24.801  1.00  0.00    -0.237 OA
ATOM     56  O   UNL A   1      42.760  18.649  26.948  1.00  0.00    -0.744 OA
ENDBRANCH  52  53
ENDBRANCH  24  47
BRANCH  36  57
ATOM     57  C   UNL A   1      47.934  27.141  30.765  1.00  0.00    -0.014 A 
ATOM     58  C   UNL A   1      49.017  27.519  29.958  1.00  0.00     0.010 A 
ATOM     59  C   UNL A   1      48.171  26.470  31.980  1.00  0.00     0.010 A 
ATOM     60  C   UNL A   1      50.323  27.237  30.369  1.00  0.00     0.020 A 
ATOM     61  C   UNL A   1      49.472  26.210  32.404  1.00  0.00     0.020 A 
ATOM     62  C   UNL A   1      50.542  26.595  31.595  1.00  0.00     0.054 A 
BRANCH  62  63
ATOM     63  S   UNL A   1      52.245  26.337  32.161  1.00  0.00     0.124 S 
ATOM     64  O   UNL A   1      52.557  25.026  31.598  1.00  0.00    -0.237 OA
ATOM     65  O   UNL A   1      52.956  27.465  31.564  1.00  0.00    -0.237 OA
ATOM     66  O   UNL A   1      52.135  26.380  33.617  1.00  0.00    -0.744 OA
ENDBRANCH  62  63
ENDBRANCH  36  57
ENDBRANCH  10  11
ENDBRANCH   3   5
ENDBRANCH   2   3
ENDBRANCH   1   2
BRANCH   1  67
ATOM     67  C   UNL A   1      34.617  33.567  27.979  1.00  0.00     0.275 C 
BRANCH  67  68
ATOM     68  O   UNL A   1      34.762  34.707  28.840  1.00  0.00    -0.458 OA
BRANCH  68  69
ATOM     69  C   UNL A   1      33.592  35.195  29.338  1.00  0.00     0.338 C 
ATOM     70  O   UNL A   1      32.508  35.171  28.791  1.00  0.00    -0.246 OA
BRANCH  69  71
ATOM     71  C   UNL A   1      33.773  35.604  30.746  1.00  0.00     0.062 A 
ATOM     72  C   UNL A   1      33.259  36.852  31.110  1.00  0.00     0.016 A 
ATOM     73  C   UNL A   1      34.444  34.811  31.686  1.00  0.00     0.041 A 
ATOM     74  C   UNL A   1      33.366  37.287  32.426  1.00  0.00     0.003 A 
ATOM     75  C   UNL A   1      34.617  35.274  33.004  1.00  0.00     0.039 A 
ATOM     76  C   UNL A   1      34.034  36.498  33.364  1.00  0.00     0.026 A 
BRANCH  75  77
ATOM     77  N   UNL A   1      35.364  34.518  33.924  1.00  0.00    -0.355 N 
ATOM     78  H   UNL A   1      35.463  34.919  34.818  1.00  0.00     0.167 HD
BRANCH  77  79
ATOM     79  C   UNL A   1      35.990  33.272  33.750  1.00  0.00     0.039 A 
ATOM     80  C   UNL A   1      37.030  32.902  34.613  1.00  0.00     0.033 A 
ATOM     81  C   UNL A   1      35.618  32.396  32.721  1.00  0.00     0.033 A 
ATOM     82  C   UNL A   1      37.692  31.679  34.458  1.00  0.00     0.088 A 
ATOM     83  C   UNL A   1      36.285  31.177  32.540  1.00  0.00     0.088 A 
ATOM     84  C   UNL A   1      37.324  30.824  33.412  1.00  0.00     0.269 A 
BRANCH  84  85
ATOM     85  N   UNL A   1      38.060  29.569  33.207  1.00  0.00     0.062 N 
ATOM     86  O   UNL A   1      39.289  29.637  33.064  1.00  0.00    -0.258 OA
ATOM     87  O   UNL A   1      37.413  28.512  33.214  1.00  0.00    -0.258 OA
ENDBRANCH  84  85
ENDBRANCH  77  79
ENDBRANCH  75  77
ENDBRANCH  69  71
ENDBRANCH  68  69
ENDBRANCH  67  68
ENDBRANCH   1  67
TORSDOF 17
ENDMDL
