MODEL 1
REMARK VINA RESULT:     -10.0      0.000      0.000
REMARK SMILES CCCCCCNC(=O)Oc1cccc(-c2ccc([C@H](C)C(=O)OCCOC(=O)c3ccc(-c4c5nc(c(-c6ccc(S(=O)(=O)[O-])cc6)c6ccc([nH]6)c(-c6ccc(S(=O)(=O)[O-])cc6)c6nc(c(-c7ccc(S(=O)(=O)[O-])cc7)c7ccc4[nH]7)C=C6)C=C5)cc3)cc2F)c1
REMARK SMILES IDX 20 1 21 2 19 3 16 4 17 5 91 6 18 7 90 8 92 9 15 10 11 11
REMARK SMILES IDX 12 12 93 13 13 14 14 15 10 16 8 17 7 18 9 20 6 21 5 22 4 23
REMARK SMILES IDX 3 24 2 25 1 26 22 27 23 28 24 29 25 30 26 31 27 32 28 33
REMARK SMILES IDX 29 34 30 35 31 36 89 37 32 38 88 39 33 40 34 41 35 42 82 43
REMARK SMILES IDX 36 44 87 45 81 46 83 47 37 48 86 49 80 50 79 51 38 53 68 54
REMARK SMILES IDX 49 55 67 56 50 57 53 58 66 59 84 60 51 61 52 62 65 64 85 65
REMARK SMILES IDX 54 66 39 67 40 68 48 69 41 70 47 71 42 72 43 73 44 74 45 75
REMARK SMILES IDX 46 76 69 77 70 78 78 79 71 80 77 81 72 82 73 83 74 84 75 85
REMARK SMILES IDX 76 86 55 87 56 88 64 89 57 90 63 91 58 92 59 93 60 94 61 95
REMARK SMILES IDX 62 96
REMARK H PARENT 7 19 83 52 53 63
REMARK Flexibility Score: inf
ROOT
ATOM      1  C   UNL A   1      35.587  33.173  28.941  1.00  0.00     0.126 C 
ATOM      2  C   UNL A   1      37.090  33.228  28.671  1.00  0.00     0.025 C 
ENDROOT
BRANCH   1   3
ATOM      3  C   UNL A   1      34.876  32.020  28.268  1.00  0.00    -0.031 A 
ATOM      4  C   UNL A   1      33.473  29.897  27.040  1.00  0.00     0.018 A 
ATOM      5  C   UNL A   1      34.795  29.730  27.481  1.00  0.00     0.012 A 
ATOM      6  C   UNL A   1      32.863  31.140  27.246  1.00  0.00     0.131 A 
ATOM      7  C   UNL A   1      35.488  30.775  28.092  1.00  0.00     0.005 A 
ATOM      8  C   UNL A   1      33.546  32.187  27.853  1.00  0.00     0.044 A 
ATOM      9  F   UNL A   1      31.597  31.350  26.855  1.00  0.00    -0.206 F 
BRANCH   4  10
ATOM     10  C   UNL A   1      32.779  28.810  26.347  1.00  0.00    -0.012 A 
ATOM     11  C   UNL A   1      32.474  27.443  24.371  1.00  0.00     0.133 A 
ATOM     12  C   UNL A   1      31.512  26.675  25.020  1.00  0.00     0.047 A 
ATOM     13  C   UNL A   1      33.086  28.518  25.012  1.00  0.00     0.056 A 
ATOM     14  C   UNL A   1      31.184  26.965  26.342  1.00  0.00     0.004 A 
ATOM     15  C   UNL A   1      31.817  28.022  27.002  1.00  0.00     0.009 A 
BRANCH  11  16
ATOM     16  O   UNL A   1      32.725  27.162  23.022  1.00  0.00    -0.410 OA
BRANCH  16  17
ATOM     17  C   UNL A   1      31.647  26.785  22.232  1.00  0.00     0.412 C 
ATOM     18  N   UNL A   1      31.797  25.542  21.682  1.00  0.00    -0.321 N 
ATOM     19  H   UNL A   1      31.060  25.217  21.115  1.00  0.00     0.167 HD
ATOM     20  O   UNL A   1      30.649  27.455  21.998  1.00  0.00    -0.224 OA
BRANCH  18  21
ATOM     21  C   UNL A   1      32.929  24.655  21.850  1.00  0.00     0.119 C 
BRANCH  21  22
ATOM     22  C   UNL A   1      32.893  23.923  23.190  1.00  0.00     0.021 C 
BRANCH  22  23
ATOM     23  C   UNL A   1      33.910  22.785  23.333  1.00  0.00     0.002 C 
BRANCH  23  24
ATOM     24  C   UNL A   1      35.377  23.219  23.445  1.00  0.00    -0.000 C 
BRANCH  24  25
ATOM     25  C   UNL A   1      35.769  23.877  24.769  1.00  0.00    -0.003 C 
ATOM     26  C   UNL A   1      35.887  22.891  25.921  1.00  0.00     0.004 C 
ENDBRANCH  24  25
ENDBRANCH  23  24
ENDBRANCH  22  23
ENDBRANCH  21  22
ENDBRANCH  18  21
ENDBRANCH  16  17
ENDBRANCH  11  16
ENDBRANCH   4  10
ENDBRANCH   1   3
BRANCH   1  27
ATOM     27  C   UNL A   1      35.194  33.241  30.414  1.00  0.00     0.313 C 
ATOM     28  O   UNL A   1      34.423  32.437  30.930  1.00  0.00    -0.252 OA
BRANCH  27  29
ATOM     29  O   UNL A   1      35.799  34.259  31.083  1.00  0.00    -0.462 OA
BRANCH  29  30
ATOM     30  C   UNL A   1      36.348  33.918  32.369  1.00  0.00     0.274 C 
BRANCH  30  31
ATOM     31  C   UNL A   1      37.820  33.513  32.256  1.00  0.00     0.275 C 
BRANCH  31  32
ATOM     32  O   UNL A   1      38.131  32.385  33.096  1.00  0.00    -0.458 OA
BRANCH  32  33
ATOM     33  C   UNL A   1      37.785  31.180  32.589  1.00  0.00     0.338 C 
ATOM     34  O   UNL A   1      36.706  30.620  32.685  1.00  0.00    -0.246 OA
BRANCH  33  35
ATOM     35  C   UNL A   1      38.886  30.642  31.779  1.00  0.00     0.060 A 
ATOM     36  C   UNL A   1      39.978  30.072  32.434  1.00  0.00     0.016 A 
ATOM     37  C   UNL A   1      38.898  30.806  30.396  1.00  0.00     0.016 A 
ATOM     38  C   UNL A   1      41.106  29.691  31.720  1.00  0.00     0.010 A 
ATOM     39  C   UNL A   1      40.017  30.386  29.671  1.00  0.00     0.010 A 
ATOM     40  C   UNL A   1      41.135  29.842  30.330  1.00  0.00    -0.014 A 
BRANCH  40  41
ATOM     41  C   UNL A   1      42.348  29.452  29.573  1.00  0.00     0.031 A 
ATOM     42  C   UNL A   1      42.437  28.088  28.952  1.00  0.00     0.074 A 
ATOM     43  C   UNL A   1      43.358  30.331  29.434  1.00  0.00     0.049 A 
ATOM     44  N   UNL A   1      43.452  27.518  28.356  1.00  0.00    -0.248 NA
ATOM     45  C   UNL A   1      41.226  27.255  29.012  1.00  0.00     0.031 C 
ATOM     46  C   UNL A   1      43.357  31.708  29.933  1.00  0.00     0.029 A 
ATOM     47  N   UNL A   1      44.582  30.196  28.830  1.00  0.00    -0.354 N 
ATOM     48  C   UNL A   1      43.017  26.246  28.006  1.00  0.00     0.074 A 
ATOM     49  C   UNL A   1      41.649  26.127  28.462  1.00  0.00     0.031 C 
ATOM     50  C   UNL A   1      44.518  32.295  29.600  1.00  0.00     0.029 A 
ATOM     51  C   UNL A   1      45.368  31.318  28.929  1.00  0.00     0.049 A 
ATOM     52  H   UNL A   1      44.869  29.374  28.370  1.00  0.00     0.167 HD
ATOM     53  C   UNL A   1      43.702  25.266  27.366  1.00  0.00     0.031 A 
ATOM     54  C   UNL A   1      46.645  31.526  28.556  1.00  0.00     0.031 A 
ATOM     55  C   UNL A   1      45.062  25.399  26.916  1.00  0.00     0.049 A 
ATOM     56  C   UNL A   1      47.411  30.399  27.924  1.00  0.00     0.074 A 
ATOM     57  C   UNL A   1      45.845  24.472  26.251  1.00  0.00     0.029 A 
ATOM     58  N   UNL A   1      45.846  26.532  27.090  1.00  0.00    -0.354 N 
ATOM     59  N   UNL A   1      46.997  29.192  27.620  1.00  0.00    -0.248 NA
ATOM     60  C   UNL A   1      48.818  30.659  27.596  1.00  0.00     0.031 C 
ATOM     61  C   UNL A   1      47.118  25.026  26.069  1.00  0.00     0.029 A 
ATOM     62  C   UNL A   1      47.112  26.317  26.573  1.00  0.00     0.049 A 
ATOM     63  H   UNL A   1      45.545  27.365  27.518  1.00  0.00     0.167 HD
ATOM     64  C   UNL A   1      48.091  28.548  27.055  1.00  0.00     0.074 A 
ATOM     65  C   UNL A   1      49.179  29.507  27.044  1.00  0.00     0.031 C 
ATOM     66  C   UNL A   1      48.187  27.278  26.588  1.00  0.00     0.031 A 
BRANCH  53  67
ATOM     67  C   UNL A   1      43.001  23.946  27.180  1.00  0.00    -0.014 A 
ATOM     68  C   UNL A   1      42.991  22.969  28.191  1.00  0.00     0.010 A 
ATOM     69  C   UNL A   1      42.344  23.680  25.965  1.00  0.00     0.010 A 
ATOM     70  C   UNL A   1      42.386  21.727  27.968  1.00  0.00     0.020 A 
ATOM     71  C   UNL A   1      41.717  22.450  25.747  1.00  0.00     0.020 A 
ATOM     72  C   UNL A   1      41.763  21.473  26.742  1.00  0.00     0.054 A 
BRANCH  72  73
ATOM     73  S   UNL A   1      41.003  19.848  26.466  1.00  0.00     0.124 S 
ATOM     74  O   UNL A   1      41.927  19.243  25.509  1.00  0.00    -0.237 OA
ATOM     75  O   UNL A   1      41.011  19.257  27.803  1.00  0.00    -0.237 OA
ATOM     76  O   UNL A   1      39.680  20.168  25.938  1.00  0.00    -0.744 OA
ENDBRANCH  72  73
ENDBRANCH  53  67
BRANCH  54  77
ATOM     77  C   UNL A   1      47.279  32.848  28.811  1.00  0.00    -0.014 A 
ATOM     78  C   UNL A   1      47.960  33.090  30.014  1.00  0.00     0.010 A 
ATOM     79  C   UNL A   1      47.243  33.855  27.828  1.00  0.00     0.010 A 
ATOM     80  C   UNL A   1      48.601  34.314  30.230  1.00  0.00     0.020 A 
ATOM     81  C   UNL A   1      47.902  35.071  28.029  1.00  0.00     0.020 A 
ATOM     82  C   UNL A   1      48.573  35.294  29.232  1.00  0.00     0.054 A 
BRANCH  82  83
ATOM     83  S   UNL A   1      49.481  36.843  29.501  1.00  0.00     0.124 S 
ATOM     84  O   UNL A   1      50.690  36.627  28.713  1.00  0.00    -0.237 OA
ATOM     85  O   UNL A   1      48.556  37.846  28.978  1.00  0.00    -0.237 OA
ATOM     86  O   UNL A   1      49.673  36.880  30.949  1.00  0.00    -0.744 OA
ENDBRANCH  82  83
ENDBRANCH  54  77
BRANCH  66  87
ATOM     87  C   UNL A   1      49.512  26.859  26.014  1.00  0.00    -0.014 A 
ATOM     88  C   UNL A   1      49.861  27.177  24.689  1.00  0.00     0.010 A 
ATOM     89  C   UNL A   1      50.438  26.178  26.824  1.00  0.00     0.010 A 
ATOM     90  C   UNL A   1      51.104  26.795  24.176  1.00  0.00     0.020 A 
ATOM     91  C   UNL A   1      51.691  25.816  26.321  1.00  0.00     0.020 A 
ATOM     92  C   UNL A   1      52.010  26.116  24.995  1.00  0.00     0.054 A 
BRANCH  92  93
ATOM     93  S   UNL A   1      53.633  25.668  24.321  1.00  0.00     0.124 S 
ATOM     94  O   UNL A   1      54.536  26.454  25.156  1.00  0.00    -0.237 OA
ATOM     95  O   UNL A   1      53.680  24.223  24.529  1.00  0.00    -0.237 OA
ATOM     96  O   UNL A   1      53.554  26.087  22.923  1.00  0.00    -0.744 OA
ENDBRANCH  92  93
ENDBRANCH  66  87
ENDBRANCH  40  41
ENDBRANCH  33  35
ENDBRANCH  32  33
ENDBRANCH  31  32
ENDBRANCH  30  31
ENDBRANCH  29  30
ENDBRANCH  27  29
ENDBRANCH   1  27
TORSDOF 23
ENDMDL
MODEL 2
REMARK VINA RESULT:      -9.9      2.146      8.558
REMARK SMILES CCCCCCNC(=O)Oc1cccc(-c2ccc([C@H](C)C(=O)OCCOC(=O)c3ccc(-c4c5nc(c(-c6ccc(S(=O)(=O)[O-])cc6)c6ccc([nH]6)c(-c6ccc(S(=O)(=O)[O-])cc6)c6nc(c(-c7ccc(S(=O)(=O)[O-])cc7)c7ccc4[nH]7)C=C6)C=C5)cc3)cc2F)c1
REMARK SMILES IDX 20 1 21 2 19 3 16 4 17 5 91 6 18 7 90 8 92 9 15 10 11 11
REMARK SMILES IDX 12 12 93 13 13 14 14 15 10 16 8 17 7 18 9 20 6 21 5 22 4 23
REMARK SMILES IDX 3 24 2 25 1 26 22 27 23 28 24 29 25 30 26 31 27 32 28 33
REMARK SMILES IDX 29 34 30 35 31 36 89 37 32 38 88 39 33 40 34 41 35 42 82 43
REMARK SMILES IDX 36 44 87 45 81 46 83 47 37 48 86 49 80 50 79 51 38 53 68 54
REMARK SMILES IDX 49 55 67 56 50 57 53 58 66 59 84 60 51 61 52 62 65 64 85 65
REMARK SMILES IDX 54 66 39 67 40 68 48 69 41 70 47 71 42 72 43 73 44 74 45 75
REMARK SMILES IDX 46 76 69 77 70 78 78 79 71 80 77 81 72 82 73 83 74 84 75 85
REMARK SMILES IDX 76 86 55 87 56 88 64 89 57 90 63 91 58 92 59 93 60 94 61 95
REMARK SMILES IDX 62 96
REMARK H PARENT 7 19 83 52 53 63
REMARK Flexibility Score: inf
ROOT
ATOM      1  C   UNL A   1      32.004  30.824  26.899  1.00  0.00     0.126 C 
ATOM      2  C   UNL A   1      31.050  31.738  26.131  1.00  0.00     0.025 C 
ENDROOT
BRANCH   1   3
ATOM      3  C   UNL A   1      32.371  29.551  26.169  1.00  0.00    -0.031 A 
ATOM      4  C   UNL A   1      33.079  27.140  24.879  1.00  0.00     0.018 A 
ATOM      5  C   UNL A   1      33.179  28.372  24.214  1.00  0.00     0.012 A 
ATOM      6  C   UNL A   1      32.637  27.144  26.207  1.00  0.00     0.131 A 
ATOM      7  C   UNL A   1      32.835  29.564  24.850  1.00  0.00     0.005 A 
ATOM      8  C   UNL A   1      32.292  28.327  26.849  1.00  0.00     0.044 A 
ATOM      9  F   UNL A   1      32.535  25.995  26.894  1.00  0.00    -0.206 F 
BRANCH   4  10
ATOM     10  C   UNL A   1      33.387  25.891  24.179  1.00  0.00    -0.012 A 
ATOM     11  C   UNL A   1      34.777  23.926  23.916  1.00  0.00     0.133 A 
ATOM     12  C   UNL A   1      33.953  23.448  22.900  1.00  0.00     0.047 A 
ATOM     13  C   UNL A   1      34.518  25.146  24.535  1.00  0.00     0.056 A 
ATOM     14  C   UNL A   1      32.834  24.187  22.524  1.00  0.00     0.004 A 
ATOM     15  C   UNL A   1      32.551  25.398  23.163  1.00  0.00     0.009 A 
BRANCH  11  16
ATOM     16  O   UNL A   1      35.929  23.187  24.215  1.00  0.00    -0.410 OA
BRANCH  16  17
ATOM     17  C   UNL A   1      36.149  22.848  25.543  1.00  0.00     0.412 C 
ATOM     18  N   UNL A   1      35.654  21.616  25.870  1.00  0.00    -0.321 N 
ATOM     19  H   UNL A   1      35.785  21.317  26.799  1.00  0.00     0.167 HD
ATOM     20  O   UNL A   1      36.705  23.540  26.387  1.00  0.00    -0.224 OA
BRANCH  18  21
ATOM     21  C   UNL A   1      34.955  20.706  24.986  1.00  0.00     0.119 C 
BRANCH  21  22
ATOM     22  C   UNL A   1      33.615  20.257  25.565  1.00  0.00     0.021 C 
BRANCH  22  23
ATOM     23  C   UNL A   1      32.434  20.321  24.589  1.00  0.00     0.002 C 
BRANCH  23  24
ATOM     24  C   UNL A   1      32.531  19.394  23.372  1.00  0.00    -0.000 C 
BRANCH  24  25
ATOM     25  C   UNL A   1      32.430  17.898  23.675  1.00  0.00    -0.003 C 
ATOM     26  C   UNL A   1      33.643  17.105  23.212  1.00  0.00     0.004 C 
ENDBRANCH  24  25
ENDBRANCH  23  24
ENDBRANCH  22  23
ENDBRANCH  21  22
ENDBRANCH  18  21
ENDBRANCH  16  17
ENDBRANCH  11  16
ENDBRANCH   4  10
ENDBRANCH   1   3
BRANCH   1  27
ATOM     27  C   UNL A   1      33.263  31.506  27.428  1.00  0.00     0.313 C 
ATOM     28  O   UNL A   1      34.337  30.921  27.529  1.00  0.00    -0.252 OA
BRANCH  27  29
ATOM     29  O   UNL A   1      33.070  32.813  27.747  1.00  0.00    -0.462 OA
BRANCH  29  30
ATOM     30  C   UNL A   1      34.230  33.512  28.235  1.00  0.00     0.274 C 
BRANCH  30  31
ATOM     31  C   UNL A   1      34.155  33.724  29.749  1.00  0.00     0.275 C 
BRANCH  31  32
ATOM     32  O   UNL A   1      35.436  33.534  30.380  1.00  0.00    -0.458 OA
BRANCH  32  33
ATOM     33  C   UNL A   1      35.583  32.360  31.036  1.00  0.00     0.338 C 
ATOM     34  O   UNL A   1      34.778  31.821  31.776  1.00  0.00    -0.246 OA
BRANCH  33  35
ATOM     35  C   UNL A   1      36.851  31.726  30.651  1.00  0.00     0.060 A 
ATOM     36  C   UNL A   1      37.607  31.094  31.640  1.00  0.00     0.016 A 
ATOM     37  C   UNL A   1      37.349  31.858  29.357  1.00  0.00     0.016 A 
ATOM     38  C   UNL A   1      38.879  30.617  31.355  1.00  0.00     0.010 A 
ATOM     39  C   UNL A   1      38.614  31.342  29.059  1.00  0.00     0.010 A 
ATOM     40  C   UNL A   1      39.394  30.734  30.060  1.00  0.00    -0.014 A 
BRANCH  40  41
ATOM     41  C   UNL A   1      40.760  30.241  29.765  1.00  0.00     0.031 A 
ATOM     42  C   UNL A   1      41.935  31.164  29.902  1.00  0.00     0.074 A 
ATOM     43  C   UNL A   1      40.940  28.960  29.391  1.00  0.00     0.049 A 
ATOM     44  N   UNL A   1      43.186  30.960  29.579  1.00  0.00    -0.248 NA
ATOM     45  C   UNL A   1      41.668  32.493  30.472  1.00  0.00     0.031 C 
ATOM     46  C   UNL A   1      39.883  27.951  29.291  1.00  0.00     0.029 A 
ATOM     47  N   UNL A   1      42.078  28.288  29.026  1.00  0.00    -0.354 N 
ATOM     48  C   UNL A   1      43.849  32.146  29.870  1.00  0.00     0.074 A 
ATOM     49  C   UNL A   1      42.859  33.067  30.388  1.00  0.00     0.031 C 
ATOM     50  C   UNL A   1      40.426  26.785  28.907  1.00  0.00     0.029 A 
ATOM     51  C   UNL A   1      41.852  26.982  28.667  1.00  0.00     0.049 A 
ATOM     52  H   UNL A   1      42.971  28.702  29.022  1.00  0.00     0.167 HD
ATOM     53  C   UNL A   1      45.163  32.439  29.713  1.00  0.00     0.031 A 
ATOM     54  C   UNL A   1      42.690  26.056  28.163  1.00  0.00     0.031 A 
ATOM     55  C   UNL A   1      46.137  31.514  29.199  1.00  0.00     0.049 A 
ATOM     56  C   UNL A   1      44.124  26.430  27.920  1.00  0.00     0.074 A 
ATOM     57  C   UNL A   1      47.494  31.707  29.008  1.00  0.00     0.029 A 
ATOM     58  N   UNL A   1      45.856  30.218  28.788  1.00  0.00    -0.354 N 
ATOM     59  N   UNL A   1      44.734  27.563  28.176  1.00  0.00    -0.248 NA
ATOM     60  C   UNL A   1      44.979  25.404  27.309  1.00  0.00     0.031 C 
ATOM     61  C   UNL A   1      48.023  30.545  28.433  1.00  0.00     0.029 A 
ATOM     62  C   UNL A   1      47.007  29.610  28.315  1.00  0.00     0.049 A 
ATOM     63  H   UNL A   1      44.969  29.793  28.827  1.00  0.00     0.167 HD
ATOM     64  C   UNL A   1      46.050  27.385  27.766  1.00  0.00     0.074 A 
ATOM     65  C   UNL A   1      46.150  26.028  27.261  1.00  0.00     0.031 C 
ATOM     66  C   UNL A   1      47.082  28.264  27.802  1.00  0.00     0.031 A 
BRANCH  53  67
ATOM     67  C   UNL A   1      45.598  33.843  30.043  1.00  0.00    -0.014 A 
ATOM     68  C   UNL A   1      45.420  34.902  29.135  1.00  0.00     0.010 A 
ATOM     69  C   UNL A   1      46.203  34.102  31.287  1.00  0.00     0.010 A 
ATOM     70  C   UNL A   1      45.891  36.183  29.443  1.00  0.00     0.020 A 
ATOM     71  C   UNL A   1      46.652  35.386  31.608  1.00  0.00     0.020 A 
ATOM     72  C   UNL A   1      46.515  36.413  30.674  1.00  0.00     0.054 A 
BRANCH  72  73
ATOM     73  S   UNL A   1      47.137  38.077  31.043  1.00  0.00     0.124 S 
ATOM     74  O   UNL A   1      48.559  37.941  30.734  1.00  0.00    -0.237 OA
ATOM     75  O   UNL A   1      46.375  38.918  30.123  1.00  0.00    -0.237 OA
ATOM     76  O   UNL A   1      46.821  38.261  32.456  1.00  0.00    -0.744 OA
ENDBRANCH  72  73
ENDBRANCH  53  67
BRANCH  54  77
ATOM     77  C   UNL A   1      42.172  24.702  27.826  1.00  0.00    -0.014 A 
ATOM     78  C   UNL A   1      41.489  24.483  26.619  1.00  0.00     0.010 A 
ATOM     79  C   UNL A   1      42.404  23.617  28.691  1.00  0.00     0.010 A 
ATOM     80  C   UNL A   1      41.050  23.200  26.279  1.00  0.00     0.020 A 
ATOM     81  C   UNL A   1      41.989  22.328  28.344  1.00  0.00     0.020 A 
ATOM     82  C   UNL A   1      41.309  22.129  27.141  1.00  0.00     0.054 A 
BRANCH  82  83
ATOM     83  S   UNL A   1      40.803  20.459  26.641  1.00  0.00     0.124 S 
ATOM     84  O   UNL A   1      39.505  20.708  26.022  1.00  0.00    -0.237 OA
ATOM     85  O   UNL A   1      41.874  20.064  25.728  1.00  0.00    -0.237 OA
ATOM     86  O   UNL A   1      40.767  19.722  27.902  1.00  0.00    -0.744 OA
ENDBRANCH  82  83
ENDBRANCH  54  77
BRANCH  66  87
ATOM     87  C   UNL A   1      48.412  27.779  27.294  1.00  0.00    -0.014 A 
ATOM     88  C   UNL A   1      49.366  27.232  28.170  1.00  0.00     0.010 A 
ATOM     89  C   UNL A   1      48.693  27.831  25.917  1.00  0.00     0.010 A 
ATOM     90  C   UNL A   1      50.590  26.769  27.680  1.00  0.00     0.020 A 
ATOM     91  C   UNL A   1      49.906  27.348  25.420  1.00  0.00     0.020 A 
ATOM     92  C   UNL A   1      50.853  26.832  26.308  1.00  0.00     0.054 A 
BRANCH  92  93
ATOM     93  S   UNL A   1      52.431  26.187  25.690  1.00  0.00     0.124 S 
ATOM     94  O   UNL A   1      52.330  24.769  26.021  1.00  0.00    -0.237 OA
ATOM     95  O   UNL A   1      52.373  26.506  24.265  1.00  0.00    -0.237 OA
ATOM     96  O   UNL A   1      53.431  26.935  26.448  1.00  0.00    -0.744 OA
ENDBRANCH  92  93
ENDBRANCH  66  87
ENDBRANCH  40  41
ENDBRANCH  33  35
ENDBRANCH  32  33
ENDBRANCH  31  32
ENDBRANCH  30  31
ENDBRANCH  29  30
ENDBRANCH  27  29
ENDBRANCH   1  27
TORSDOF 23
ENDMDL
MODEL 3
REMARK VINA RESULT:      -9.5      2.337      8.673
REMARK SMILES CCCCCCNC(=O)Oc1cccc(-c2ccc([C@H](C)C(=O)OCCOC(=O)c3ccc(-c4c5nc(c(-c6ccc(S(=O)(=O)[O-])cc6)c6ccc([nH]6)c(-c6ccc(S(=O)(=O)[O-])cc6)c6nc(c(-c7ccc(S(=O)(=O)[O-])cc7)c7ccc4[nH]7)C=C6)C=C5)cc3)cc2F)c1
REMARK SMILES IDX 20 1 21 2 19 3 16 4 17 5 91 6 18 7 90 8 92 9 15 10 11 11
REMARK SMILES IDX 12 12 93 13 13 14 14 15 10 16 8 17 7 18 9 20 6 21 5 22 4 23
REMARK SMILES IDX 3 24 2 25 1 26 22 27 23 28 24 29 25 30 26 31 27 32 28 33
REMARK SMILES IDX 29 34 30 35 31 36 89 37 32 38 88 39 33 40 34 41 35 42 82 43
REMARK SMILES IDX 36 44 87 45 81 46 83 47 37 48 86 49 80 50 79 51 38 53 68 54
REMARK SMILES IDX 49 55 67 56 50 57 53 58 66 59 84 60 51 61 52 62 65 64 85 65
REMARK SMILES IDX 54 66 39 67 40 68 48 69 41 70 47 71 42 72 43 73 44 74 45 75
REMARK SMILES IDX 46 76 69 77 70 78 78 79 71 80 77 81 72 82 73 83 74 84 75 85
REMARK SMILES IDX 76 86 55 87 56 88 64 89 57 90 63 91 58 92 59 93 60 94 61 95
REMARK SMILES IDX 62 96
REMARK H PARENT 7 19 83 52 53 63
REMARK Flexibility Score: inf
ROOT
ATOM      1  C   UNL A   1      32.012  31.164  27.079  1.00  0.00     0.126 C 
ATOM      2  C   UNL A   1      31.118  32.046  26.208  1.00  0.00     0.025 C 
ENDROOT
BRANCH   1   3
ATOM      3  C   UNL A   1      32.410  29.854  26.436  1.00  0.00    -0.031 A 
ATOM      4  C   UNL A   1      33.159  27.373  25.314  1.00  0.00     0.018 A 
ATOM      5  C   UNL A   1      33.485  28.581  24.678  1.00  0.00     0.012 A 
ATOM      6  C   UNL A   1      32.470  27.434  26.530  1.00  0.00     0.131 A 
ATOM      7  C   UNL A   1      33.121  29.807  25.233  1.00  0.00     0.005 A 
ATOM      8  C   UNL A   1      32.103  28.652  27.090  1.00  0.00     0.044 A 
ATOM      9  F   UNL A   1      32.144  26.309  27.185  1.00  0.00    -0.206 F 
BRANCH   4  10
ATOM     10  C   UNL A   1      33.496  26.091  24.689  1.00  0.00    -0.012 A 
ATOM     11  C   UNL A   1      33.902  23.711  24.879  1.00  0.00     0.133 A 
ATOM     12  C   UNL A   1      34.065  23.603  23.501  1.00  0.00     0.047 A 
ATOM     13  C   UNL A   1      33.646  24.943  25.477  1.00  0.00     0.056 A 
ATOM     14  C   UNL A   1      33.935  24.740  22.707  1.00  0.00     0.004 A 
ATOM     15  C   UNL A   1      33.647  25.974  23.297  1.00  0.00     0.009 A 
BRANCH  11  16
ATOM     16  O   UNL A   1      34.109  22.558  25.648  1.00  0.00    -0.410 OA
BRANCH  16  17
ATOM     17  C   UNL A   1      33.739  22.600  26.985  1.00  0.00     0.412 C 
ATOM     18  N   UNL A   1      32.389  22.482  27.170  1.00  0.00    -0.321 N 
ATOM     19  H   UNL A   1      32.066  22.499  28.100  1.00  0.00     0.167 HD
ATOM     20  O   UNL A   1      34.490  22.743  27.942  1.00  0.00    -0.224 OA
BRANCH  18  21
ATOM     21  C   UNL A   1      31.386  22.334  26.135  1.00  0.00     0.119 C 
BRANCH  21  22
ATOM     22  C   UNL A   1      30.336  23.441  26.188  1.00  0.00     0.021 C 
BRANCH  22  23
ATOM     23  C   UNL A   1      30.343  24.398  24.991  1.00  0.00     0.002 C 
BRANCH  23  24
ATOM     24  C   UNL A   1      29.651  25.746  25.218  1.00  0.00    -0.000 C 
BRANCH  24  25
ATOM     25  C   UNL A   1      29.130  26.439  23.957  1.00  0.00    -0.003 C 
ATOM     26  C   UNL A   1      30.104  27.457  23.383  1.00  0.00     0.004 C 
ENDBRANCH  24  25
ENDBRANCH  23  24
ENDBRANCH  22  23
ENDBRANCH  21  22
ENDBRANCH  18  21
ENDBRANCH  16  17
ENDBRANCH  11  16
ENDBRANCH   4  10
ENDBRANCH   1   3
BRANCH   1  27
ATOM     27  C   UNL A   1      33.243  31.861  27.652  1.00  0.00     0.313 C 
ATOM     28  O   UNL A   1      34.232  31.244  28.036  1.00  0.00    -0.252 OA
BRANCH  27  29
ATOM     29  O   UNL A   1      33.132  33.216  27.668  1.00  0.00    -0.462 OA
BRANCH  29  30
ATOM     30  C   UNL A   1      34.256  33.925  28.220  1.00  0.00     0.274 C 
BRANCH  30  31
ATOM     31  C   UNL A   1      33.997  34.336  29.672  1.00  0.00     0.275 C 
BRANCH  31  32
ATOM     32  O   UNL A   1      35.152  34.117  30.504  1.00  0.00    -0.458 OA
BRANCH  32  33
ATOM     33  C   UNL A   1      35.227  32.889  31.066  1.00  0.00     0.338 C 
ATOM     34  O   UNL A   1      34.353  32.303  31.683  1.00  0.00    -0.246 OA
BRANCH  33  35
ATOM     35  C   UNL A   1      36.519  32.268  30.743  1.00  0.00     0.060 A 
ATOM     36  C   UNL A   1      37.206  31.594  31.754  1.00  0.00     0.016 A 
ATOM     37  C   UNL A   1      37.104  32.452  29.493  1.00  0.00     0.016 A 
ATOM     38  C   UNL A   1      38.495  31.126  31.537  1.00  0.00     0.010 A 
ATOM     39  C   UNL A   1      38.387  31.947  29.261  1.00  0.00     0.010 A 
ATOM     40  C   UNL A   1      39.097  31.295  30.287  1.00  0.00    -0.014 A 
BRANCH  40  41
ATOM     41  C   UNL A   1      40.480  30.812  30.065  1.00  0.00     0.031 A 
ATOM     42  C   UNL A   1      41.642  31.732  30.302  1.00  0.00     0.074 A 
ATOM     43  C   UNL A   1      40.686  29.542  29.668  1.00  0.00     0.049 A 
ATOM     44  N   UNL A   1      42.912  31.537  30.055  1.00  0.00    -0.248 NA
ATOM     45  C   UNL A   1      41.335  33.044  30.891  1.00  0.00     0.031 C 
ATOM     46  C   UNL A   1      39.640  28.535  29.474  1.00  0.00     0.029 A 
ATOM     47  N   UNL A   1      41.847  28.881  29.358  1.00  0.00    -0.354 N 
ATOM     48  C   UNL A   1      43.551  32.716  30.420  1.00  0.00     0.074 A 
ATOM     49  C   UNL A   1      42.528  33.621  30.899  1.00  0.00     0.031 C 
ATOM     50  C   UNL A   1      40.210  27.381  29.093  1.00  0.00     0.029 A 
ATOM     51  C   UNL A   1      41.647  27.585  28.949  1.00  0.00     0.049 A 
ATOM     52  H   UNL A   1      42.738  29.296  29.422  1.00  0.00     0.167 HD
ATOM     53  C   UNL A   1      44.872  33.014  30.354  1.00  0.00     0.031 A 
ATOM     54  C   UNL A   1      42.518  26.674  28.475  1.00  0.00     0.031 A 
ATOM     55  C   UNL A   1      45.879  32.104  29.877  1.00  0.00     0.049 A 
ATOM     56  C   UNL A   1      43.964  27.055  28.334  1.00  0.00     0.074 A 
ATOM     57  C   UNL A   1      47.244  32.303  29.779  1.00  0.00     0.029 A 
ATOM     58  N   UNL A   1      45.628  30.819  29.414  1.00  0.00    -0.354 N 
ATOM     59  N   UNL A   1      44.554  28.182  28.659  1.00  0.00    -0.248 NA
ATOM     60  C   UNL A   1      44.859  26.048  27.750  1.00  0.00     0.031 C 
ATOM     61  C   UNL A   1      47.813  31.158  29.207  1.00  0.00     0.029 A 
ATOM     62  C   UNL A   1      46.808  30.225  28.999  1.00  0.00     0.049 A 
ATOM     63  H   UNL A   1      44.741  30.393  29.385  1.00  0.00     0.167 HD
ATOM     64  C   UNL A   1      45.893  28.016  28.328  1.00  0.00     0.074 A 
ATOM     65  C   UNL A   1      46.028  26.674  27.794  1.00  0.00     0.031 C 
ATOM     66  C   UNL A   1      46.919  28.895  28.454  1.00  0.00     0.031 A 
BRANCH  53  67
ATOM     67  C   UNL A   1      45.282  34.408  30.750  1.00  0.00    -0.014 A 
ATOM     68  C   UNL A   1      45.358  35.449  29.808  1.00  0.00     0.010 A 
ATOM     69  C   UNL A   1      45.603  34.677  32.094  1.00  0.00     0.010 A 
ATOM     70  C   UNL A   1      45.803  36.719  30.192  1.00  0.00     0.020 A 
ATOM     71  C   UNL A   1      46.023  35.951  32.486  1.00  0.00     0.020 A 
ATOM     72  C   UNL A   1      46.144  36.957  31.528  1.00  0.00     0.054 A 
BRANCH  72  73
ATOM     73  S   UNL A   1      46.738  38.606  31.998  1.00  0.00     0.124 S 
ATOM     74  O   UNL A   1      46.331  38.682  33.400  1.00  0.00    -0.237 OA
ATOM     75  O   UNL A   1      48.177  38.508  31.769  1.00  0.00    -0.237 OA
ATOM     76  O   UNL A   1      46.026  39.503  31.093  1.00  0.00    -0.744 OA
ENDBRANCH  72  73
ENDBRANCH  53  67
BRANCH  54  77
ATOM     77  C   UNL A   1      42.026  25.330  28.068  1.00  0.00    -0.014 A 
ATOM     78  C   UNL A   1      41.397  25.149  26.826  1.00  0.00     0.010 A 
ATOM     79  C   UNL A   1      42.229  24.216  28.903  1.00  0.00     0.010 A 
ATOM     80  C   UNL A   1      40.984  23.876  26.422  1.00  0.00     0.020 A 
ATOM     81  C   UNL A   1      41.840  22.938  28.494  1.00  0.00     0.020 A 
ATOM     82  C   UNL A   1      41.214  22.777  27.256  1.00  0.00     0.054 A 
BRANCH  82  83
ATOM     83  S   UNL A   1      40.743  21.123  26.676  1.00  0.00     0.124 S 
ATOM     84  O   UNL A   1      39.405  21.357  26.144  1.00  0.00    -0.237 OA
ATOM     85  O   UNL A   1      41.776  20.829  25.685  1.00  0.00    -0.237 OA
ATOM     86  O   UNL A   1      40.804  20.307  27.886  1.00  0.00    -0.744 OA
ENDBRANCH  82  83
ENDBRANCH  54  77
BRANCH  66  87
ATOM     87  C   UNL A   1      48.279  28.425  28.019  1.00  0.00    -0.014 A 
ATOM     88  C   UNL A   1      49.136  27.758  28.912  1.00  0.00     0.010 A 
ATOM     89  C   UNL A   1      48.688  28.614  26.686  1.00  0.00     0.010 A 
ATOM     90  C   UNL A   1      50.390  27.312  28.487  1.00  0.00     0.020 A 
ATOM     91  C   UNL A   1      49.932  28.148  26.252  1.00  0.00     0.020 A 
ATOM     92  C   UNL A   1      50.781  27.511  27.160  1.00  0.00     0.054 A 
BRANCH  92  93
ATOM     93  S   UNL A   1      52.395  26.887  26.620  1.00  0.00     0.124 S 
ATOM     94  O   UNL A   1      52.597  27.610  25.368  1.00  0.00    -0.237 OA
ATOM     95  O   UNL A   1      53.275  27.276  27.720  1.00  0.00    -0.237 OA
ATOM     96  O   UNL A   1      52.181  25.449  26.481  1.00  0.00    -0.744 OA
ENDBRANCH  92  93
ENDBRANCH  66  87
ENDBRANCH  40  41
ENDBRANCH  33  35
ENDBRANCH  32  33
ENDBRANCH  31  32
ENDBRANCH  30  31
ENDBRANCH  29  30
ENDBRANCH  27  29
ENDBRANCH   1  27
TORSDOF 23
ENDMDL
