MODEL 1
REMARK VINA RESULT:     -10.3      0.000      0.000
REMARK SMILES C[NH+](C)[C@H](CC(=O)Nc1cccc(Cl)c1)C(=O)OCCOC(=O)c1ccc(-c2c3nc(c(-c4ccc(S(=O)(=O)[O-])cc4)c4ccc([nH]4)c(-c4ccc(S(=O)(=O)[O-])cc4)c4nc(c(-c5ccc(S(=O)(=O)[O-])cc5)c5ccc2[nH]5)C=C4)C=C3)cc1
REMARK SMILES IDX 19 1 18 2 16 3 17 4 4 5 2 6 1 7 3 8 5 10 6 11 7 12 8 13 9 15
REMARK SMILES IDX 10 16 15 17 11 18 13 19 12 20 14 21 20 22 21 23 22 24 23 25
REMARK SMILES IDX 24 26 25 27 83 28 26 29 82 30 27 31 28 32 29 33 76 34 30 35
REMARK SMILES IDX 81 36 75 37 77 38 31 39 80 40 74 41 73 42 32 44 62 45 43 46
REMARK SMILES IDX 61 47 44 48 47 49 60 50 78 51 45 52 46 53 59 55 79 56 48 57
REMARK SMILES IDX 33 58 34 59 42 60 35 61 41 62 36 63 37 64 38 65 39 66 40 67
REMARK SMILES IDX 63 68 64 69 72 70 65 71 71 72 66 73 67 74 68 75 69 76 70 77
REMARK SMILES IDX 49 78 50 79 58 80 51 81 57 82 52 83 53 84 54 85 55 86 56 87
REMARK H PARENT 2 9 8 14 77 43 47 54
REMARK Flexibility Score: inf
ROOT
ATOM      1  C   UNL A   1      44.188  23.516  27.000  1.00  0.00     0.274 C 
ENDROOT
BRANCH   1   2
ATOM      2  O   UNL A   1      44.959  22.686  26.105  1.00  0.00    -0.458 OA
BRANCH   2   3
ATOM      3  C   UNL A   1      44.279  21.847  25.280  1.00  0.00     0.365 C 
ATOM      4  O   UNL A   1      43.547  22.243  24.378  1.00  0.00    -0.245 OA
BRANCH   3   5
ATOM      5  C   UNL A   1      44.543  20.336  25.566  1.00  0.00     0.304 C 
BRANCH   5   6
ATOM      6  N   UNL A   1      45.981  20.033  25.409  1.00  0.00    -0.328 N 
ATOM      7  C   UNL A   1      46.654  20.609  24.265  1.00  0.00     0.333 C 
ATOM      8  C   UNL A   1      46.369  18.664  25.697  1.00  0.00     0.333 C 
ATOM      9  H   UNL A   1      46.364  20.575  26.184  1.00  0.00     0.348 HD
ENDBRANCH   5   6
BRANCH   5  10
ATOM     10  C   UNL A   1      43.398  19.366  25.188  1.00  0.00     0.177 C 
BRANCH  10  11
ATOM     11  C   UNL A   1      42.665  18.618  26.272  1.00  0.00     0.231 C 
ATOM     12  O   UNL A   1      43.009  17.460  26.548  1.00  0.00    -0.274 OA
ATOM     13  N   UNL A   1      41.614  19.109  26.978  1.00  0.00    -0.326 N 
ATOM     14  H   UNL A   1      41.243  18.457  27.616  1.00  0.00     0.169 HD
BRANCH  13  15
ATOM     15  C   UNL A   1      40.939  20.336  27.001  1.00  0.00     0.042 A 
ATOM     16  C   UNL A   1      41.320  21.438  27.758  1.00  0.00     0.026 A 
ATOM     17  C   UNL A   1      39.818  20.449  26.172  1.00  0.00     0.046 A 
ATOM     18  C   UNL A   1      40.688  22.674  27.595  1.00  0.00     0.004 A 
ATOM     19  C   UNL A   1      39.175  21.678  26.021  1.00  0.00     0.043 A 
ATOM     20  C   UNL A   1      39.624  22.800  26.707  1.00  0.00     0.020 A 
ATOM     21  Cl  UNL A   1      37.828  21.812  24.959  1.00  0.00    -0.084 Cl
ENDBRANCH  13  15
ENDBRANCH  10  11
ENDBRANCH   5  10
ENDBRANCH   3   5
ENDBRANCH   2   3
ENDBRANCH   1   2
BRANCH   1  22
ATOM     22  C   UNL A   1      43.996  24.917  26.411  1.00  0.00     0.275 C 
BRANCH  22  23
ATOM     23  O   UNL A   1      42.604  25.196  26.192  1.00  0.00    -0.458 OA
BRANCH  23  24
ATOM     24  C   UNL A   1      42.308  26.497  25.978  1.00  0.00     0.338 C 
ATOM     25  O   UNL A   1      42.214  27.071  24.902  1.00  0.00    -0.246 OA
BRANCH  24  26
ATOM     26  C   UNL A   1      41.893  27.097  27.249  1.00  0.00     0.060 A 
ATOM     27  C   UNL A   1      42.478  28.311  27.606  1.00  0.00     0.016 A 
ATOM     28  C   UNL A   1      40.966  26.484  28.086  1.00  0.00     0.016 A 
ATOM     29  C   UNL A   1      42.158  28.931  28.800  1.00  0.00     0.010 A 
ATOM     30  C   UNL A   1      40.621  27.118  29.281  1.00  0.00     0.010 A 
ATOM     31  C   UNL A   1      41.214  28.343  29.639  1.00  0.00    -0.014 A 
BRANCH  31  32
ATOM     32  C   UNL A   1      40.848  29.014  30.902  1.00  0.00     0.031 A 
ATOM     33  C   UNL A   1      39.687  29.956  30.915  1.00  0.00     0.074 A 
ATOM     34  C   UNL A   1      41.582  28.782  32.006  1.00  0.00     0.049 A 
ATOM     35  N   UNL A   1      39.323  30.796  31.845  1.00  0.00    -0.248 NA
ATOM     36  C   UNL A   1      38.826  29.966  29.719  1.00  0.00     0.031 C 
ATOM     37  C   UNL A   1      42.690  27.825  32.105  1.00  0.00     0.029 A 
ATOM     38  N   UNL A   1      41.524  29.350  33.252  1.00  0.00    -0.354 N 
ATOM     39  C   UNL A   1      38.226  31.473  31.328  1.00  0.00     0.074 A 
ATOM     40  C   UNL A   1      37.975  30.941  30.007  1.00  0.00     0.031 C 
ATOM     41  C   UNL A   1      43.218  27.890  33.337  1.00  0.00     0.029 A 
ATOM     42  C   UNL A   1      42.539  28.940  34.085  1.00  0.00     0.049 A 
ATOM     43  H   UNL A   1      40.824  29.987  33.524  1.00  0.00     0.167 HD
ATOM     44  C   UNL A   1      37.512  32.462  31.911  1.00  0.00     0.031 A 
ATOM     45  C   UNL A   1      42.919  29.410  35.288  1.00  0.00     0.031 A 
ATOM     46  C   UNL A   1      37.780  32.957  33.235  1.00  0.00     0.049 A 
ATOM     47  C   UNL A   1      42.146  30.556  35.881  1.00  0.00     0.074 A 
ATOM     48  C   UNL A   1      37.095  33.927  33.943  1.00  0.00     0.029 A 
ATOM     49  N   UNL A   1      38.820  32.524  34.045  1.00  0.00    -0.354 N 
ATOM     50  N   UNL A   1      41.096  31.179  35.397  1.00  0.00    -0.248 NA
ATOM     51  C   UNL A   1      42.611  31.072  37.175  1.00  0.00     0.031 C 
ATOM     52  C   UNL A   1      37.764  34.131  35.153  1.00  0.00     0.029 A 
ATOM     53  C   UNL A   1      38.824  33.239  35.228  1.00  0.00     0.049 A 
ATOM     54  H   UNL A   1      39.460  31.813  33.812  1.00  0.00     0.167 HD
ATOM     55  C   UNL A   1      40.766  32.149  36.334  1.00  0.00     0.074 A 
ATOM     56  C   UNL A   1      41.712  32.015  37.424  1.00  0.00     0.031 C 
ATOM     57  C   UNL A   1      39.777  33.074  36.297  1.00  0.00     0.031 A 
BRANCH  44  58
ATOM     58  C   UNL A   1      36.422  33.119  31.110  1.00  0.00    -0.014 A 
ATOM     59  C   UNL A   1      35.083  33.108  31.535  1.00  0.00     0.010 A 
ATOM     60  C   UNL A   1      36.765  33.829  29.944  1.00  0.00     0.010 A 
ATOM     61  C   UNL A   1      34.105  33.785  30.798  1.00  0.00     0.020 A 
ATOM     62  C   UNL A   1      35.796  34.527  29.220  1.00  0.00     0.020 A 
ATOM     63  C   UNL A   1      34.469  34.494  29.649  1.00  0.00     0.054 A 
BRANCH  63  64
ATOM     64  S   UNL A   1      33.190  35.420  28.754  1.00  0.00     0.124 S 
ATOM     65  O   UNL A   1      33.991  36.343  27.954  1.00  0.00    -0.237 OA
ATOM     66  O   UNL A   1      32.506  34.370  28.002  1.00  0.00    -0.237 OA
ATOM     67  O   UNL A   1      32.400  36.038  29.815  1.00  0.00    -0.744 OA
ENDBRANCH  63  64
ENDBRANCH  44  58
BRANCH  45  68
ATOM     68  C   UNL A   1      44.129  28.862  35.962  1.00  0.00    -0.014 A 
ATOM     69  C   UNL A   1      45.397  29.421  35.737  1.00  0.00     0.010 A 
ATOM     70  C   UNL A   1      44.016  27.757  36.831  1.00  0.00     0.010 A 
ATOM     71  C   UNL A   1      46.532  28.867  36.338  1.00  0.00     0.020 A 
ATOM     72  C   UNL A   1      45.142  27.224  37.460  1.00  0.00     0.020 A 
ATOM     73  C   UNL A   1      46.398  27.770  37.193  1.00  0.00     0.054 A 
BRANCH  73  74
ATOM     74  S   UNL A   1      47.883  27.075  37.970  1.00  0.00     0.124 S 
ATOM     75  O   UNL A   1      48.926  27.975  37.487  1.00  0.00    -0.237 OA
ATOM     76  O   UNL A   1      47.571  27.176  39.394  1.00  0.00    -0.237 OA
ATOM     77  O   UNL A   1      47.940  25.713  37.447  1.00  0.00    -0.744 OA
ENDBRANCH  73  74
ENDBRANCH  45  68
BRANCH  57  78
ATOM     78  C   UNL A   1      39.648  33.994  37.479  1.00  0.00    -0.014 A 
ATOM     79  C   UNL A   1      38.925  33.608  38.621  1.00  0.00     0.010 A 
ATOM     80  C   UNL A   1      40.331  35.224  37.477  1.00  0.00     0.010 A 
ATOM     81  C   UNL A   1      38.874  34.446  39.736  1.00  0.00     0.020 A 
ATOM     82  C   UNL A   1      40.308  36.049  38.602  1.00  0.00     0.020 A 
ATOM     83  C   UNL A   1      39.572  35.657  39.722  1.00  0.00     0.054 A 
BRANCH  83  84
ATOM     84  S   UNL A   1      39.551  36.689  41.213  1.00  0.00     0.124 S 
ATOM     85  O   UNL A   1      38.957  37.928  40.716  1.00  0.00    -0.237 OA
ATOM     86  O   UNL A   1      38.716  35.913  42.126  1.00  0.00    -0.237 OA
ATOM     87  O   UNL A   1      40.960  36.781  41.591  1.00  0.00    -0.744 OA
ENDBRANCH  83  84
ENDBRANCH  57  78
ENDBRANCH  31  32
ENDBRANCH  24  26
ENDBRANCH  23  24
ENDBRANCH  22  23
ENDBRANCH   1  22
TORSDOF 18
ENDMDL
MODEL 2
REMARK VINA RESULT:     -10.1      5.399     13.119
REMARK SMILES C[NH+](C)[C@H](CC(=O)Nc1cccc(Cl)c1)C(=O)OCCOC(=O)c1ccc(-c2c3nc(c(-c4ccc(S(=O)(=O)[O-])cc4)c4ccc([nH]4)c(-c4ccc(S(=O)(=O)[O-])cc4)c4nc(c(-c5ccc(S(=O)(=O)[O-])cc5)c5ccc2[nH]5)C=C4)C=C3)cc1
REMARK SMILES IDX 19 1 18 2 16 3 17 4 4 5 2 6 1 7 3 8 5 10 6 11 7 12 8 13 9 15
REMARK SMILES IDX 10 16 15 17 11 18 13 19 12 20 14 21 20 22 21 23 22 24 23 25
REMARK SMILES IDX 24 26 25 27 83 28 26 29 82 30 27 31 28 32 29 33 76 34 30 35
REMARK SMILES IDX 81 36 75 37 77 38 31 39 80 40 74 41 73 42 32 44 62 45 43 46
REMARK SMILES IDX 61 47 44 48 47 49 60 50 78 51 45 52 46 53 59 55 79 56 48 57
REMARK SMILES IDX 33 58 34 59 42 60 35 61 41 62 36 63 37 64 38 65 39 66 40 67
REMARK SMILES IDX 63 68 64 69 72 70 65 71 71 72 66 73 67 74 68 75 69 76 70 77
REMARK SMILES IDX 49 78 50 79 58 80 51 81 57 82 52 83 53 84 54 85 55 86 56 87
REMARK H PARENT 2 9 8 14 77 43 47 54
REMARK Flexibility Score: inf
ROOT
ATOM      1  C   UNL A   1      34.614  33.796  28.091  1.00  0.00     0.274 C 
ENDROOT
BRANCH   1   2
ATOM      2  O   UNL A   1      33.495  33.981  28.985  1.00  0.00    -0.458 OA
BRANCH   2   3
ATOM      3  C   UNL A   1      33.328  35.211  29.540  1.00  0.00     0.365 C 
ATOM      4  O   UNL A   1      33.059  36.211  28.881  1.00  0.00    -0.245 OA
BRANCH   3   5
ATOM      5  C   UNL A   1      33.476  35.224  31.093  1.00  0.00     0.304 C 
BRANCH   5   6
ATOM      6  N   UNL A   1      32.626  36.284  31.675  1.00  0.00    -0.328 N 
ATOM      7  C   UNL A   1      33.283  37.510  32.072  1.00  0.00     0.333 C 
ATOM      8  C   UNL A   1      31.607  35.831  32.606  1.00  0.00     0.333 C 
ATOM      9  H   UNL A   1      32.105  36.572  30.847  1.00  0.00     0.348 HD
ENDBRANCH   5   6
BRANCH   5  10
ATOM     10  C   UNL A   1      34.862  34.811  31.643  1.00  0.00     0.177 C 
BRANCH  10  11
ATOM     11  C   UNL A   1      35.159  33.356  31.901  1.00  0.00     0.231 C 
ATOM     12  O   UNL A   1      34.225  32.542  31.922  1.00  0.00    -0.274 OA
ATOM     13  N   UNL A   1      36.395  32.847  32.142  1.00  0.00    -0.326 N 
ATOM     14  H   UNL A   1      36.382  31.880  32.326  1.00  0.00     0.169 HD
BRANCH  13  15
ATOM     15  C   UNL A   1      37.684  33.392  32.186  1.00  0.00     0.042 A 
ATOM     16  C   UNL A   1      38.511  33.389  33.304  1.00  0.00     0.026 A 
ATOM     17  C   UNL A   1      38.168  33.950  30.997  1.00  0.00     0.046 A 
ATOM     18  C   UNL A   1      39.842  33.804  33.213  1.00  0.00     0.004 A 
ATOM     19  C   UNL A   1      39.492  34.382  30.911  1.00  0.00     0.043 A 
ATOM     20  C   UNL A   1      40.342  34.283  32.006  1.00  0.00     0.020 A 
ATOM     21  Cl  UNL A   1      40.086  35.020  29.427  1.00  0.00    -0.084 Cl
ENDBRANCH  13  15
ENDBRANCH  10  11
ENDBRANCH   5  10
ENDBRANCH   3   5
ENDBRANCH   2   3
ENDBRANCH   1   2
BRANCH   1  22
ATOM     22  C   UNL A   1      34.668  32.352  27.582  1.00  0.00     0.275 C 
BRANCH  22  23
ATOM     23  O   UNL A   1      34.730  31.423  28.676  1.00  0.00    -0.458 OA
BRANCH  23  24
ATOM     24  C   UNL A   1      34.912  30.133  28.320  1.00  0.00     0.338 C 
ATOM     25  O   UNL A   1      34.134  29.412  27.712  1.00  0.00    -0.246 OA
BRANCH  24  26
ATOM     26  C   UNL A   1      36.306  29.767  28.587  1.00  0.00     0.060 A 
ATOM     27  C   UNL A   1      37.205  29.851  27.524  1.00  0.00     0.016 A 
ATOM     28  C   UNL A   1      36.729  29.335  29.840  1.00  0.00     0.016 A 
ATOM     29  C   UNL A   1      38.533  29.501  27.687  1.00  0.00     0.010 A 
ATOM     30  C   UNL A   1      38.073  29.004  30.016  1.00  0.00     0.010 A 
ATOM     31  C   UNL A   1      38.979  29.089  28.941  1.00  0.00    -0.014 A 
BRANCH  31  32
ATOM     32  C   UNL A   1      40.400  28.741  29.127  1.00  0.00     0.031 A 
ATOM     33  C   UNL A   1      41.362  29.806  29.549  1.00  0.00     0.074 A 
ATOM     34  C   UNL A   1      40.805  27.479  28.890  1.00  0.00     0.049 A 
ATOM     35  N   UNL A   1      42.665  29.772  29.572  1.00  0.00    -0.248 NA
ATOM     36  C   UNL A   1      40.780  31.086  29.993  1.00  0.00     0.031 C 
ATOM     37  C   UNL A   1      39.927  26.356  28.542  1.00  0.00     0.029 A 
ATOM     38  N   UNL A   1      42.062  26.931  28.881  1.00  0.00    -0.354 N 
ATOM     39  C   UNL A   1      43.065  31.038  29.980  1.00  0.00     0.074 A 
ATOM     40  C   UNL A   1      41.867  31.817  30.203  1.00  0.00     0.031 C 
ATOM     41  C   UNL A   1      40.675  25.262  28.333  1.00  0.00     0.029 A 
ATOM     42  C   UNL A   1      42.081  25.623  28.458  1.00  0.00     0.049 A 
ATOM     43  H   UNL A   1      42.869  27.425  29.152  1.00  0.00     0.167 HD
ATOM     44  C   UNL A   1      44.326  31.501  30.131  1.00  0.00     0.031 A 
ATOM     45  C   UNL A   1      43.120  24.827  28.140  1.00  0.00     0.031 A 
ATOM     46  C   UNL A   1      45.497  30.694  29.915  1.00  0.00     0.049 A 
ATOM     47  C   UNL A   1      44.510  25.393  28.256  1.00  0.00     0.074 A 
ATOM     48  C   UNL A   1      46.824  31.045  30.080  1.00  0.00     0.029 A 
ATOM     49  N   UNL A   1      45.479  29.376  29.481  1.00  0.00    -0.354 N 
ATOM     50  N   UNL A   1      44.883  26.585  28.660  1.00  0.00    -0.248 NA
ATOM     51  C   UNL A   1      45.619  24.514  27.862  1.00  0.00     0.031 C 
ATOM     52  C   UNL A   1      47.610  29.962  29.677  1.00  0.00     0.029 A 
ATOM     53  C   UNL A   1      46.772  28.913  29.327  1.00  0.00     0.049 A 
ATOM     54  H   UNL A   1      44.665  28.849  29.307  1.00  0.00     0.167 HD
ATOM     55  C   UNL A   1      46.269  26.593  28.586  1.00  0.00     0.074 A 
ATOM     56  C   UNL A   1      46.670  25.281  28.120  1.00  0.00     0.031 C 
ATOM     57  C   UNL A   1      47.136  27.596  28.868  1.00  0.00     0.031 A 
BRANCH  44  58
ATOM     58  C   UNL A   1      44.514  32.951  30.485  1.00  0.00    -0.014 A 
ATOM     59  C   UNL A   1      44.638  33.377  31.819  1.00  0.00     0.010 A 
ATOM     60  C   UNL A   1      44.646  33.895  29.449  1.00  0.00     0.010 A 
ATOM     61  C   UNL A   1      44.877  34.724  32.108  1.00  0.00     0.020 A 
ATOM     62  C   UNL A   1      44.910  35.237  29.734  1.00  0.00     0.020 A 
ATOM     63  C   UNL A   1      45.017  35.644  31.064  1.00  0.00     0.054 A 
BRANCH  63  64
ATOM     64  S   UNL A   1      45.396  37.372  31.468  1.00  0.00     0.124 S 
ATOM     65  O   UNL A   1      45.057  38.054  30.221  1.00  0.00    -0.237 OA
ATOM     66  O   UNL A   1      44.501  37.639  32.592  1.00  0.00    -0.237 OA
ATOM     67  O   UNL A   1      46.818  37.349  31.799  1.00  0.00    -0.744 OA
ENDBRANCH  63  64
ENDBRANCH  44  58
BRANCH  45  68
ATOM     68  C   UNL A   1      42.884  23.459  27.604  1.00  0.00    -0.014 A 
ATOM     69  C   UNL A   1      42.594  22.386  28.462  1.00  0.00     0.010 A 
ATOM     70  C   UNL A   1      42.965  23.219  26.217  1.00  0.00     0.010 A 
ATOM     71  C   UNL A   1      42.423  21.095  27.951  1.00  0.00     0.020 A 
ATOM     72  C   UNL A   1      42.759  21.938  25.699  1.00  0.00     0.020 A 
ATOM     73  C   UNL A   1      42.510  20.879  26.573  1.00  0.00     0.054 A 
BRANCH  73  74
ATOM     74  S   UNL A   1      42.272  19.199  25.931  1.00  0.00     0.124 S 
ATOM     75  O   UNL A   1      40.829  19.160  25.714  1.00  0.00    -0.237 OA
ATOM     76  O   UNL A   1      43.094  19.203  24.723  1.00  0.00    -0.237 OA
ATOM     77  O   UNL A   1      42.767  18.346  27.008  1.00  0.00    -0.744 OA
ENDBRANCH  73  74
ENDBRANCH  45  68
BRANCH  57  78
ATOM     78  C   UNL A   1      48.602  27.306  28.709  1.00  0.00    -0.014 A 
ATOM     79  C   UNL A   1      49.236  27.442  27.461  1.00  0.00     0.010 A 
ATOM     80  C   UNL A   1      49.369  26.972  29.840  1.00  0.00     0.010 A 
ATOM     81  C   UNL A   1      50.611  27.235  27.346  1.00  0.00     0.020 A 
ATOM     82  C   UNL A   1      50.749  26.797  29.733  1.00  0.00     0.020 A 
ATOM     83  C   UNL A   1      51.360  26.921  28.484  1.00  0.00     0.054 A 
BRANCH  83  84
ATOM     84  S   UNL A   1      53.156  26.733  28.318  1.00  0.00     0.124 S 
ATOM     85  O   UNL A   1      53.598  28.121  28.208  1.00  0.00    -0.237 OA
ATOM     86  O   UNL A   1      53.521  26.052  29.557  1.00  0.00    -0.237 OA
ATOM     87  O   UNL A   1      53.309  25.932  27.105  1.00  0.00    -0.744 OA
ENDBRANCH  83  84
ENDBRANCH  57  78
ENDBRANCH  31  32
ENDBRANCH  24  26
ENDBRANCH  23  24
ENDBRANCH  22  23
ENDBRANCH   1  22
TORSDOF 18
ENDMDL
MODEL 3
REMARK VINA RESULT:     -10.0      4.102     10.034
REMARK SMILES C[NH+](C)[C@H](CC(=O)Nc1cccc(Cl)c1)C(=O)OCCOC(=O)c1ccc(-c2c3nc(c(-c4ccc(S(=O)(=O)[O-])cc4)c4ccc([nH]4)c(-c4ccc(S(=O)(=O)[O-])cc4)c4nc(c(-c5ccc(S(=O)(=O)[O-])cc5)c5ccc2[nH]5)C=C4)C=C3)cc1
REMARK SMILES IDX 19 1 18 2 16 3 17 4 4 5 2 6 1 7 3 8 5 10 6 11 7 12 8 13 9 15
REMARK SMILES IDX 10 16 15 17 11 18 13 19 12 20 14 21 20 22 21 23 22 24 23 25
REMARK SMILES IDX 24 26 25 27 83 28 26 29 82 30 27 31 28 32 29 33 76 34 30 35
REMARK SMILES IDX 81 36 75 37 77 38 31 39 80 40 74 41 73 42 32 44 62 45 43 46
REMARK SMILES IDX 61 47 44 48 47 49 60 50 78 51 45 52 46 53 59 55 79 56 48 57
REMARK SMILES IDX 33 58 34 59 42 60 35 61 41 62 36 63 37 64 38 65 39 66 40 67
REMARK SMILES IDX 63 68 64 69 72 70 65 71 71 72 66 73 67 74 68 75 69 76 70 77
REMARK SMILES IDX 49 78 50 79 58 80 51 81 57 82 52 83 53 84 54 85 55 86 56 87
REMARK H PARENT 2 9 8 14 77 43 47 54
REMARK Flexibility Score: inf
ROOT
ATOM      1  C   UNL A   1      36.526  24.053  25.472  1.00  0.00     0.274 C 
ENDROOT
BRANCH   1   2
ATOM      2  O   UNL A   1      35.651  23.419  26.430  1.00  0.00    -0.458 OA
BRANCH   2   3
ATOM      3  C   UNL A   1      34.985  22.303  26.033  1.00  0.00     0.365 C 
ATOM      4  O   UNL A   1      35.535  21.219  25.866  1.00  0.00    -0.245 OA
BRANCH   3   5
ATOM      5  C   UNL A   1      33.452  22.521  25.845  1.00  0.00     0.304 C 
BRANCH   5   6
ATOM      6  N   UNL A   1      33.002  21.908  24.577  1.00  0.00    -0.328 N 
ATOM      7  C   UNL A   1      32.589  22.807  23.521  1.00  0.00     0.333 C 
ATOM      8  C   UNL A   1      32.164  20.730  24.712  1.00  0.00     0.333 C 
ATOM      9  H   UNL A   1      33.890  21.551  24.225  1.00  0.00     0.348 HD
ENDBRANCH   5   6
BRANCH   5  10
ATOM     10  C   UNL A   1      32.879  23.832  26.435  1.00  0.00     0.177 C 
BRANCH  10  11
ATOM     11  C   UNL A   1      31.420  23.907  26.809  1.00  0.00     0.231 C 
ATOM     12  O   UNL A   1      30.877  22.922  27.329  1.00  0.00    -0.274 OA
ATOM     13  N   UNL A   1      30.619  24.983  26.598  1.00  0.00    -0.326 N 
ATOM     14  H   UNL A   1      29.687  24.827  26.874  1.00  0.00     0.169 HD
BRANCH  13  15
ATOM     15  C   UNL A   1      30.824  26.266  26.076  1.00  0.00     0.042 A 
ATOM     16  C   UNL A   1      31.436  27.313  26.755  1.00  0.00     0.026 A 
ATOM     17  C   UNL A   1      30.398  26.481  24.760  1.00  0.00     0.046 A 
ATOM     18  C   UNL A   1      31.749  28.508  26.101  1.00  0.00     0.004 A 
ATOM     19  C   UNL A   1      30.693  27.680  24.112  1.00  0.00     0.043 A 
ATOM     20  C   UNL A   1      31.395  28.685  24.768  1.00  0.00     0.020 A 
ATOM     21  Cl  UNL A   1      30.205  27.910  22.478  1.00  0.00    -0.084 Cl
ENDBRANCH  13  15
ENDBRANCH  10  11
ENDBRANCH   5  10
ENDBRANCH   3   5
ENDBRANCH   2   3
ENDBRANCH   1   2
BRANCH   1  22
ATOM     22  C   UNL A   1      37.989  23.692  25.750  1.00  0.00     0.275 C 
BRANCH  22  23
ATOM     23  O   UNL A   1      38.402  24.180  27.037  1.00  0.00    -0.458 OA
BRANCH  23  24
ATOM     24  C   UNL A   1      39.719  24.461  27.145  1.00  0.00     0.338 C 
ATOM     25  O   UNL A   1      40.636  23.999  26.480  1.00  0.00    -0.246 OA
BRANCH  24  26
ATOM     26  C   UNL A   1      39.881  25.595  28.060  1.00  0.00     0.060 A 
ATOM     27  C   UNL A   1      38.946  25.729  29.085  1.00  0.00     0.016 A 
ATOM     28  C   UNL A   1      40.910  26.519  27.914  1.00  0.00     0.016 A 
ATOM     29  C   UNL A   1      39.014  26.784  29.976  1.00  0.00     0.010 A 
ATOM     30  C   UNL A   1      40.998  27.573  28.825  1.00  0.00     0.010 A 
ATOM     31  C   UNL A   1      40.052  27.706  29.859  1.00  0.00    -0.014 A 
BRANCH  31  32
ATOM     32  C   UNL A   1      40.146  28.819  30.824  1.00  0.00     0.031 A 
ATOM     33  C   UNL A   1      41.092  28.705  31.977  1.00  0.00     0.074 A 
ATOM     34  C   UNL A   1      39.362  29.900  30.659  1.00  0.00     0.049 A 
ATOM     35  N   UNL A   1      41.185  29.458  33.038  1.00  0.00    -0.248 NA
ATOM     36  C   UNL A   1      42.053  27.588  31.939  1.00  0.00     0.031 C 
ATOM     37  C   UNL A   1      38.459  30.130  29.525  1.00  0.00     0.029 A 
ATOM     38  N   UNL A   1      39.177  31.000  31.456  1.00  0.00    -0.354 N 
ATOM     39  C   UNL A   1      42.176  28.878  33.821  1.00  0.00     0.074 A 
ATOM     40  C   UNL A   1      42.662  27.717  33.110  1.00  0.00     0.031 C 
ATOM     41  C   UNL A   1      37.803  31.286  29.712  1.00  0.00     0.029 A 
ATOM     42  C   UNL A   1      38.182  31.836  31.008  1.00  0.00     0.049 A 
ATOM     43  H   UNL A   1      39.706  31.174  32.268  1.00  0.00     0.167 HD
ATOM     44  C   UNL A   1      42.616  29.282  35.034  1.00  0.00     0.031 A 
ATOM     45  C   UNL A   1      37.594  32.888  31.609  1.00  0.00     0.031 A 
ATOM     46  C   UNL A   1      42.121  30.453  35.706  1.00  0.00     0.049 A 
ATOM     47  C   UNL A   1      38.061  33.273  32.986  1.00  0.00     0.074 A 
ATOM     48  C   UNL A   1      42.524  30.982  36.918  1.00  0.00     0.029 A 
ATOM     49  N   UNL A   1      41.108  31.271  35.226  1.00  0.00    -0.354 N 
ATOM     50  N   UNL A   1      39.012  32.733  33.713  1.00  0.00    -0.248 NA
ATOM     51  C   UNL A   1      37.372  34.398  33.631  1.00  0.00     0.031 C 
ATOM     52  C   UNL A   1      41.707  32.078  37.204  1.00  0.00     0.029 A 
ATOM     53  C   UNL A   1      40.841  32.274  36.139  1.00  0.00     0.049 A 
ATOM     54  H   UNL A   1      40.648  31.154  34.364  1.00  0.00     0.167 HD
ATOM     55  C   UNL A   1      39.046  33.463  34.894  1.00  0.00     0.074 A 
ATOM     56  C   UNL A   1      38.037  34.497  34.774  1.00  0.00     0.031 C 
ATOM     57  C   UNL A   1      39.833  33.293  35.984  1.00  0.00     0.031 A 
BRANCH  44  58
ATOM     58  C   UNL A   1      43.634  28.429  35.740  1.00  0.00    -0.014 A 
ATOM     59  C   UNL A   1      43.255  27.378  36.593  1.00  0.00     0.010 A 
ATOM     60  C   UNL A   1      45.001  28.641  35.478  1.00  0.00     0.010 A 
ATOM     61  C   UNL A   1      44.228  26.564  37.182  1.00  0.00     0.020 A 
ATOM     62  C   UNL A   1      45.974  27.813  36.044  1.00  0.00     0.020 A 
ATOM     63  C   UNL A   1      45.580  26.783  36.899  1.00  0.00     0.054 A 
BRANCH  63  64
ATOM     64  S   UNL A   1      46.815  25.667  37.622  1.00  0.00     0.124 S 
ATOM     65  O   UNL A   1      48.048  26.134  36.993  1.00  0.00    -0.237 OA
ATOM     66  O   UNL A   1      46.695  25.945  39.052  1.00  0.00    -0.237 OA
ATOM     67  O   UNL A   1      46.368  24.339  37.209  1.00  0.00    -0.744 OA
ENDBRANCH  63  64
ENDBRANCH  44  58
BRANCH  45  68
ATOM     68  C   UNL A   1      36.452  33.587  30.956  1.00  0.00    -0.014 A 
ATOM     69  C   UNL A   1      36.503  33.940  29.598  1.00  0.00     0.010 A 
ATOM     70  C   UNL A   1      35.304  33.917  31.704  1.00  0.00     0.010 A 
ATOM     71  C   UNL A   1      35.444  34.640  29.008  1.00  0.00     0.020 A 
ATOM     72  C   UNL A   1      34.231  34.584  31.110  1.00  0.00     0.020 A 
ATOM     73  C   UNL A   1      34.317  34.960  29.769  1.00  0.00     0.054 A 
BRANCH  73  74
ATOM     74  S   UNL A   1      32.951  35.857  28.980  1.00  0.00     0.124 S 
ATOM     75  O   UNL A   1      33.656  36.927  28.281  1.00  0.00    -0.237 OA
ATOM     76  O   UNL A   1      32.350  34.833  28.129  1.00  0.00    -0.237 OA
ATOM     77  O   UNL A   1      32.124  36.284  30.107  1.00  0.00    -0.744 OA
ENDBRANCH  73  74
ENDBRANCH  45  68
BRANCH  57  78
ATOM     78  C   UNL A   1      39.655  34.260  37.121  1.00  0.00    -0.014 A 
ATOM     79  C   UNL A   1      38.861  33.932  38.234  1.00  0.00     0.010 A 
ATOM     80  C   UNL A   1      40.358  35.479  37.110  1.00  0.00     0.010 A 
ATOM     81  C   UNL A   1      38.763  34.813  39.311  1.00  0.00     0.020 A 
ATOM     82  C   UNL A   1      40.287  36.348  38.200  1.00  0.00     0.020 A 
ATOM     83  C   UNL A   1      39.482  36.012  39.291  1.00  0.00     0.054 A 
BRANCH  83  84
ATOM     84  S   UNL A   1      39.396  37.102  40.737  1.00  0.00     0.124 S 
ATOM     85  O   UNL A   1      38.503  38.158  40.268  1.00  0.00    -0.237 OA
ATOM     86  O   UNL A   1      38.847  36.224  41.766  1.00  0.00    -0.237 OA
ATOM     87  O   UNL A   1      40.784  37.509  40.948  1.00  0.00    -0.744 OA
ENDBRANCH  83  84
ENDBRANCH  57  78
ENDBRANCH  31  32
ENDBRANCH  24  26
ENDBRANCH  23  24
ENDBRANCH  22  23
ENDBRANCH   1  22
TORSDOF 18
ENDMDL
