MODEL 1
REMARK VINA RESULT:      -9.4      0.000      0.000
REMARK SMILES CCC[NH2+][C@]1(C(=O)OCCOC(=O)c2ccc(-c3c4nc(c(-c5ccc(S(=O)(=O)[O-])cc5)c5ccc([nH]5)c(-c5ccc(S(=O)(=O)[O-])cc5)c5nc(c(-c6ccc(S(=O)(=O)[O-])cc6)c6ccc3[nH]6)C=C5)C=C4)cc2)CCC[C@@H]([N@@H+](C)[C@@H](C)C2CC2)C1
REMARK SMILES IDX 9 1 8 2 6 3 7 4 5 5 74 6 85 7 75 8 77 9 76 10 4 11 3 14 2 15
REMARK SMILES IDX 1 16 78 17 79 18 80 20 81 21 82 22 83 23 84 24 10 25 11 26
REMARK SMILES IDX 12 27 13 28 14 29 15 30 73 31 16 32 72 33 17 34 18 35 19 36
REMARK SMILES IDX 66 37 20 38 71 39 65 40 67 41 21 42 70 43 64 44 63 45 22 47
REMARK SMILES IDX 52 48 33 49 51 50 34 51 37 52 50 53 68 54 35 55 36 56 49 58
REMARK SMILES IDX 69 59 38 60 23 61 24 62 32 63 25 64 31 65 26 66 27 67 28 68
REMARK SMILES IDX 29 69 30 70 53 71 54 72 62 73 55 74 61 75 56 76 57 77 58 78
REMARK SMILES IDX 59 79 60 80 39 81 40 82 48 83 41 84 47 85 42 86 43 87 44 88
REMARK SMILES IDX 45 89 46 90
REMARK H PARENT 4 12 4 13 78 19 67 46 37 57
REMARK Flexibility Score: inf
ROOT
ATOM      1  C   UNL A   1      33.870  28.667  25.397  1.00  0.00     0.274 C 
ENDROOT
BRANCH   1   2
ATOM      2  O   UNL A   1      34.282  27.713  24.398  1.00  0.00    -0.457 OA
BRANCH   2   3
ATOM      3  C   UNL A   1      33.671  27.807  23.182  1.00  0.00     0.368 C 
ATOM      4  O   UNL A   1      33.684  28.824  22.490  1.00  0.00    -0.245 OA
BRANCH   3   5
ATOM      5  C   UNL A   1      32.787  26.549  22.847  1.00  0.00     0.200 C 
ATOM      6  C   UNL A   1      32.945  26.075  21.385  1.00  0.00     0.081 C 
ATOM      7  C   UNL A   1      33.450  25.525  23.777  1.00  0.00     0.146 C 
ATOM      8  C   UNL A   1      32.539  24.619  21.125  1.00  0.00     0.013 C 
ATOM      9  C   UNL A   1      33.022  24.078  23.625  1.00  0.00     0.190 C 
ATOM     10  C   UNL A   1      33.073  23.613  22.158  1.00  0.00     0.065 C 
BRANCH   5  11
ATOM     11  N   UNL A   1      31.393  26.883  23.264  1.00  0.00    -0.332 N 
ATOM     12  H   UNL A   1      30.948  26.006  23.535  1.00  0.00     0.347 HD
ATOM     13  H   UNL A   1      31.526  27.584  23.993  1.00  0.00     0.347 HD
BRANCH  11  14
ATOM     14  C   UNL A   1      30.496  27.539  22.326  1.00  0.00     0.261 C 
BRANCH  14  15
ATOM     15  C   UNL A   1      29.764  28.763  22.894  1.00  0.00     0.058 C 
ATOM     16  C   UNL A   1      30.514  29.519  23.973  1.00  0.00     0.010 C 
ENDBRANCH  14  15
ENDBRANCH  11  14
ENDBRANCH   5  11
BRANCH   9  17
ATOM     17  N   UNL A   1      33.705  23.242  24.642  1.00  0.00    -0.332 N 
ATOM     18  C   UNL A   1      34.838  23.951  25.240  1.00  0.00     0.333 C 
ATOM     19  H   UNL A   1      33.985  22.473  24.032  1.00  0.00     0.348 HD
BRANCH  17  20
ATOM     20  C   UNL A   1      32.973  22.433  25.640  1.00  0.00     0.184 C 
ATOM     21  C   UNL A   1      32.042  23.202  26.588  1.00  0.00     0.075 C 
BRANCH  20  22
ATOM     22  C   UNL A   1      32.241  21.216  25.092  1.00  0.00     0.047 C 
ATOM     23  C   UNL A   1      32.729  20.385  23.922  1.00  0.00     0.010 C 
ATOM     24  C   UNL A   1      32.817  19.830  25.307  1.00  0.00     0.010 C 
ENDBRANCH  20  22
ENDBRANCH  17  20
ENDBRANCH   9  17
ENDBRANCH   3   5
ENDBRANCH   2   3
ENDBRANCH   1   2
BRANCH   1  25
ATOM     25  C   UNL A   1      34.314  28.201  26.779  1.00  0.00     0.275 C 
BRANCH  25  26
ATOM     26  O   UNL A   1      33.709  29.048  27.767  1.00  0.00    -0.458 OA
BRANCH  26  27
ATOM     27  C   UNL A   1      34.269  30.267  27.935  1.00  0.00     0.338 C 
ATOM     28  O   UNL A   1      33.714  31.354  27.855  1.00  0.00    -0.246 OA
BRANCH  27  29
ATOM     29  C   UNL A   1      35.691  30.101  28.286  1.00  0.00     0.060 A 
ATOM     30  C   UNL A   1      36.667  30.427  27.352  1.00  0.00     0.016 A 
ATOM     31  C   UNL A   1      36.061  29.525  29.499  1.00  0.00     0.016 A 
ATOM     32  C   UNL A   1      37.998  30.109  27.585  1.00  0.00     0.010 A 
ATOM     33  C   UNL A   1      37.418  29.292  29.768  1.00  0.00     0.010 A 
ATOM     34  C   UNL A   1      38.405  29.545  28.797  1.00  0.00    -0.014 A 
BRANCH  34  35
ATOM     35  C   UNL A   1      39.829  29.148  29.002  1.00  0.00     0.031 A 
ATOM     36  C   UNL A   1      40.791  30.125  29.628  1.00  0.00     0.074 A 
ATOM     37  C   UNL A   1      40.275  27.912  28.688  1.00  0.00     0.049 A 
ATOM     38  N   UNL A   1      42.098  30.092  29.664  1.00  0.00    -0.248 NA
ATOM     39  C   UNL A   1      40.204  31.302  30.289  1.00  0.00     0.031 C 
ATOM     40  C   UNL A   1      39.459  26.810  28.174  1.00  0.00     0.029 A 
ATOM     41  N   UNL A   1      41.535  27.368  28.778  1.00  0.00    -0.354 N 
ATOM     42  C   UNL A   1      42.491  31.284  30.260  1.00  0.00     0.074 A 
ATOM     43  C   UNL A   1      41.283  32.007  30.595  1.00  0.00     0.031 C 
ATOM     44  C   UNL A   1      40.221  25.712  28.054  1.00  0.00     0.029 A 
ATOM     45  C   UNL A   1      41.604  26.060  28.358  1.00  0.00     0.049 A 
ATOM     46  H   UNL A   1      42.316  27.869  29.110  1.00  0.00     0.167 HD
ATOM     47  C   UNL A   1      43.744  31.742  30.488  1.00  0.00     0.031 A 
ATOM     48  C   UNL A   1      42.661  25.243  28.174  1.00  0.00     0.031 A 
ATOM     49  C   UNL A   1      44.941  30.989  30.218  1.00  0.00     0.049 A 
ATOM     50  C   UNL A   1      44.047  25.777  28.402  1.00  0.00     0.074 A 
ATOM     51  C   UNL A   1      46.259  31.373  30.396  1.00  0.00     0.029 A 
ATOM     52  N   UNL A   1      44.963  29.688  29.742  1.00  0.00    -0.354 N 
ATOM     53  N   UNL A   1      44.413  26.958  28.839  1.00  0.00    -0.248 NA
ATOM     54  C   UNL A   1      45.166  24.880  28.075  1.00  0.00     0.031 C 
ATOM     55  C   UNL A   1      47.079  30.313  29.993  1.00  0.00     0.029 A 
ATOM     56  C   UNL A   1      46.271  29.255  29.611  1.00  0.00     0.049 A 
ATOM     57  H   UNL A   1      44.165  29.152  29.529  1.00  0.00     0.167 HD
ATOM     58  C   UNL A   1      45.803  26.950  28.829  1.00  0.00     0.074 A 
ATOM     59  C   UNL A   1      46.213  25.636  28.376  1.00  0.00     0.031 C 
ATOM     60  C   UNL A   1      46.663  27.946  29.153  1.00  0.00     0.031 A 
BRANCH  47  61
ATOM     61  C   UNL A   1      43.886  33.156  30.985  1.00  0.00    -0.014 A 
ATOM     62  C   UNL A   1      44.025  33.455  32.351  1.00  0.00     0.010 A 
ATOM     63  C   UNL A   1      43.898  34.206  30.047  1.00  0.00     0.010 A 
ATOM     64  C   UNL A   1      44.128  34.785  32.773  1.00  0.00     0.020 A 
ATOM     65  C   UNL A   1      44.026  35.532  30.463  1.00  0.00     0.020 A 
ATOM     66  C   UNL A   1      44.121  35.816  31.826  1.00  0.00     0.054 A 
BRANCH  66  67
ATOM     67  S   UNL A   1      44.262  37.532  32.396  1.00  0.00     0.124 S 
ATOM     68  O   UNL A   1      44.010  38.279  31.166  1.00  0.00    -0.237 OA
ATOM     69  O   UNL A   1      43.215  37.623  33.411  1.00  0.00    -0.237 OA
ATOM     70  O   UNL A   1      45.628  37.615  32.906  1.00  0.00    -0.744 OA
ENDBRANCH  66  67
ENDBRANCH  47  61
BRANCH  48  71
ATOM     71  C   UNL A   1      42.449  23.861  27.659  1.00  0.00    -0.014 A 
ATOM     72  C   UNL A   1      42.547  23.581  26.286  1.00  0.00     0.010 A 
ATOM     73  C   UNL A   1      42.171  22.809  28.553  1.00  0.00     0.010 A 
ATOM     74  C   UNL A   1      42.376  22.274  25.817  1.00  0.00     0.020 A 
ATOM     75  C   UNL A   1      42.032  21.498  28.092  1.00  0.00     0.020 A 
ATOM     76  C   UNL A   1      42.126  21.239  26.724  1.00  0.00     0.054 A 
BRANCH  76  77
ATOM     77  S   UNL A   1      41.990  19.537  26.111  1.00  0.00     0.124 S 
ATOM     78  O   UNL A   1      40.560  19.424  25.847  1.00  0.00    -0.237 OA
ATOM     79  O   UNL A   1      42.853  19.551  24.932  1.00  0.00    -0.237 OA
ATOM     80  O   UNL A   1      42.488  18.734  27.226  1.00  0.00    -0.744 OA
ENDBRANCH  76  77
ENDBRANCH  48  71
BRANCH  60  81
ATOM     81  C   UNL A   1      48.133  27.655  29.042  1.00  0.00    -0.014 A 
ATOM     82  C   UNL A   1      48.817  27.840  27.828  1.00  0.00     0.010 A 
ATOM     83  C   UNL A   1      48.851  27.250  30.182  1.00  0.00     0.010 A 
ATOM     84  C   UNL A   1      50.191  27.604  27.750  1.00  0.00     0.020 A 
ATOM     85  C   UNL A   1      50.229  27.033  30.112  1.00  0.00     0.020 A 
ATOM     86  C   UNL A   1      50.890  27.201  28.893  1.00  0.00     0.054 A 
BRANCH  86  87
ATOM     87  S   UNL A   1      52.682  26.951  28.781  1.00  0.00     0.124 S 
ATOM     88  O   UNL A   1      52.917  25.962  29.830  1.00  0.00    -0.237 OA
ATOM     89  O   UNL A   1      52.856  26.467  27.413  1.00  0.00    -0.237 OA
ATOM     90  O   UNL A   1      53.233  28.278  29.042  1.00  0.00    -0.744 OA
ENDBRANCH  86  87
ENDBRANCH  60  81
ENDBRANCH  34  35
ENDBRANCH  27  29
ENDBRANCH  26  27
ENDBRANCH  25  26
ENDBRANCH   1  25
TORSDOF 20
ENDMDL
MODEL 2
REMARK VINA RESULT:      -9.4      5.373     10.909
REMARK SMILES CCC[NH2+][C@]1(C(=O)OCCOC(=O)c2ccc(-c3c4nc(c(-c5ccc(S(=O)(=O)[O-])cc5)c5ccc([nH]5)c(-c5ccc(S(=O)(=O)[O-])cc5)c5nc(c(-c6ccc(S(=O)(=O)[O-])cc6)c6ccc3[nH]6)C=C5)C=C4)cc2)CCC[C@@H]([N@@H+](C)[C@@H](C)C2CC2)C1
REMARK SMILES IDX 9 1 8 2 6 3 7 4 5 5 74 6 85 7 75 8 77 9 76 10 4 11 3 14 2 15
REMARK SMILES IDX 1 16 78 17 79 18 80 20 81 21 82 22 83 23 84 24 10 25 11 26
REMARK SMILES IDX 12 27 13 28 14 29 15 30 73 31 16 32 72 33 17 34 18 35 19 36
REMARK SMILES IDX 66 37 20 38 71 39 65 40 67 41 21 42 70 43 64 44 63 45 22 47
REMARK SMILES IDX 52 48 33 49 51 50 34 51 37 52 50 53 68 54 35 55 36 56 49 58
REMARK SMILES IDX 69 59 38 60 23 61 24 62 32 63 25 64 31 65 26 66 27 67 28 68
REMARK SMILES IDX 29 69 30 70 53 71 54 72 62 73 55 74 61 75 56 76 57 77 58 78
REMARK SMILES IDX 59 79 60 80 39 81 40 82 48 83 41 84 47 85 42 86 43 87 44 88
REMARK SMILES IDX 45 89 46 90
REMARK H PARENT 4 12 4 13 78 19 67 46 37 57
REMARK Flexibility Score: inf
ROOT
ATOM      1  C   UNL A   1      37.051  23.345  25.212  1.00  0.00     0.274 C 
ENDROOT
BRANCH   1   2
ATOM      2  O   UNL A   1      35.934  24.081  25.749  1.00  0.00    -0.457 OA
BRANCH   2   3
ATOM      3  C   UNL A   1      34.890  23.341  26.221  1.00  0.00     0.368 C 
ATOM      4  O   UNL A   1      35.021  22.405  27.008  1.00  0.00    -0.245 OA
BRANCH   3   5
ATOM      5  C   UNL A   1      33.531  23.682  25.507  1.00  0.00     0.200 C 
ATOM      6  C   UNL A   1      32.305  23.496  26.429  1.00  0.00     0.081 C 
ATOM      7  C   UNL A   1      33.747  25.180  25.263  1.00  0.00     0.146 C 
ATOM      8  C   UNL A   1      31.046  24.262  26.001  1.00  0.00     0.013 C 
ATOM      9  C   UNL A   1      32.560  25.974  24.754  1.00  0.00     0.190 C 
ATOM     10  C   UNL A   1      31.296  25.724  25.598  1.00  0.00     0.065 C 
BRANCH   5  11
ATOM     11  N   UNL A   1      33.504  22.893  24.240  1.00  0.00    -0.332 N 
ATOM     12  H   UNL A   1      33.578  23.562  23.474  1.00  0.00     0.347 HD
ATOM     13  H   UNL A   1      34.271  22.232  24.357  1.00  0.00     0.347 HD
BRANCH  11  14
ATOM     14  C   UNL A   1      32.365  22.039  23.945  1.00  0.00     0.261 C 
BRANCH  14  15
ATOM     15  C   UNL A   1      32.687  20.538  23.907  1.00  0.00     0.058 C 
ATOM     16  C   UNL A   1      32.794  19.867  25.262  1.00  0.00     0.010 C 
ENDBRANCH  14  15
ENDBRANCH  11  14
ENDBRANCH   5  11
BRANCH   9  17
ATOM     17  N   UNL A   1      32.963  27.381  24.508  1.00  0.00    -0.332 N 
ATOM     18  C   UNL A   1      33.574  27.536  23.187  1.00  0.00     0.333 C 
ATOM     19  H   UNL A   1      33.628  27.476  25.276  1.00  0.00     0.348 HD
BRANCH  17  20
ATOM     20  C   UNL A   1      32.106  28.534  24.858  1.00  0.00     0.184 C 
ATOM     21  C   UNL A   1      30.809  28.687  24.050  1.00  0.00     0.075 C 
BRANCH  20  22
ATOM     22  C   UNL A   1      31.800  28.701  26.339  1.00  0.00     0.047 C 
ATOM     23  C   UNL A   1      32.828  28.554  27.443  1.00  0.00     0.010 C 
ATOM     24  C   UNL A   1      32.322  29.914  27.084  1.00  0.00     0.010 C 
ENDBRANCH  20  22
ENDBRANCH  17  20
ENDBRANCH   9  17
ENDBRANCH   3   5
ENDBRANCH   2   3
ENDBRANCH   1   2
BRANCH   1  25
ATOM     25  C   UNL A   1      38.245  23.446  26.154  1.00  0.00     0.275 C 
BRANCH  25  26
ATOM     26  O   UNL A   1      38.278  24.767  26.715  1.00  0.00    -0.458 OA
BRANCH  26  27
ATOM     27  C   UNL A   1      39.502  25.314  26.888  1.00  0.00     0.338 C 
ATOM     28  O   UNL A   1      40.519  25.068  26.254  1.00  0.00    -0.246 OA
BRANCH  27  29
ATOM     29  C   UNL A   1      39.433  26.323  27.960  1.00  0.00     0.060 A 
ATOM     30  C   UNL A   1      39.992  27.579  27.752  1.00  0.00     0.016 A 
ATOM     31  C   UNL A   1      38.911  25.998  29.210  1.00  0.00     0.016 A 
ATOM     32  C   UNL A   1      40.105  28.480  28.801  1.00  0.00     0.010 A 
ATOM     33  C   UNL A   1      38.944  26.948  30.241  1.00  0.00     0.010 A 
ATOM     34  C   UNL A   1      39.579  28.192  30.062  1.00  0.00    -0.014 A 
BRANCH  34  35
ATOM     35  C   UNL A   1      39.772  29.146  31.195  1.00  0.00     0.031 A 
ATOM     36  C   UNL A   1      41.018  29.055  32.038  1.00  0.00     0.074 A 
ATOM     37  C   UNL A   1      38.883  30.127  31.458  1.00  0.00     0.049 A 
ATOM     38  N   UNL A   1      41.271  29.596  33.202  1.00  0.00    -0.248 NA
ATOM     39  C   UNL A   1      42.120  28.236  31.507  1.00  0.00     0.031 C 
ATOM     40  C   UNL A   1      37.679  30.427  30.679  1.00  0.00     0.029 A 
ATOM     41  N   UNL A   1      38.869  31.077  32.453  1.00  0.00    -0.354 N 
ATOM     42  C   UNL A   1      42.513  29.106  33.585  1.00  0.00     0.074 A 
ATOM     43  C   UNL A   1      42.976  28.246  32.518  1.00  0.00     0.031 C 
ATOM     44  C   UNL A   1      37.082  31.516  31.185  1.00  0.00     0.029 A 
ATOM     45  C   UNL A   1      37.784  31.920  32.398  1.00  0.00     0.049 A 
ATOM     46  H   UNL A   1      39.571  31.146  33.141  1.00  0.00     0.167 HD
ATOM     47  C   UNL A   1      43.195  29.337  34.732  1.00  0.00     0.031 A 
ATOM     48  C   UNL A   1      37.356  32.871  33.253  1.00  0.00     0.031 A 
ATOM     49  C   UNL A   1      42.764  30.248  35.759  1.00  0.00     0.049 A 
ATOM     50  C   UNL A   1      38.107  33.093  34.536  1.00  0.00     0.074 A 
ATOM     51  C   UNL A   1      43.374  30.537  36.967  1.00  0.00     0.029 A 
ATOM     52  N   UNL A   1      41.629  31.040  35.684  1.00  0.00    -0.354 N 
ATOM     53  N   UNL A   1      39.213  32.523  34.952  1.00  0.00    -0.248 NA
ATOM     54  C   UNL A   1      37.532  34.058  35.484  1.00  0.00     0.031 C 
ATOM     55  C   UNL A   1      42.588  31.480  37.638  1.00  0.00     0.029 A 
ATOM     56  C   UNL A   1      41.515  31.812  36.827  1.00  0.00     0.049 A 
ATOM     57  H   UNL A   1      40.997  31.052  34.929  1.00  0.00     0.167 HD
ATOM     58  C   UNL A   1      39.460  33.053  36.213  1.00  0.00     0.074 A 
ATOM     59  C   UNL A   1      38.408  34.014  36.479  1.00  0.00     0.031 C 
ATOM     60  C   UNL A   1      40.460  32.760  37.079  1.00  0.00     0.031 A 
BRANCH  47  61
ATOM     61  C   UNL A   1      44.443  28.530  34.971  1.00  0.00    -0.014 A 
ATOM     62  C   UNL A   1      45.702  28.950  34.511  1.00  0.00     0.010 A 
ATOM     63  C   UNL A   1      44.342  27.326  35.694  1.00  0.00     0.010 A 
ATOM     64  C   UNL A   1      46.833  28.157  34.733  1.00  0.00     0.020 A 
ATOM     65  C   UNL A   1      45.473  26.544  35.939  1.00  0.00     0.020 A 
ATOM     66  C   UNL A   1      46.709  26.955  35.438  1.00  0.00     0.054 A 
BRANCH  66  67
ATOM     67  S   UNL A   1      48.190  25.946  35.719  1.00  0.00     0.124 S 
ATOM     68  O   UNL A   1      47.618  24.714  36.256  1.00  0.00    -0.237 OA
ATOM     69  O   UNL A   1      48.766  25.838  34.380  1.00  0.00    -0.237 OA
ATOM     70  O   UNL A   1      48.972  26.735  36.667  1.00  0.00    -0.744 OA
ENDBRANCH  66  67
ENDBRANCH  47  61
BRANCH  48  71
ATOM     71  C   UNL A   1      36.100  33.618  32.964  1.00  0.00    -0.014 A 
ATOM     72  C   UNL A   1      34.850  33.103  33.348  1.00  0.00     0.010 A 
ATOM     73  C   UNL A   1      36.155  34.870  32.321  1.00  0.00     0.010 A 
ATOM     74  C   UNL A   1      33.680  33.827  33.098  1.00  0.00     0.020 A 
ATOM     75  C   UNL A   1      34.991  35.610  32.099  1.00  0.00     0.020 A 
ATOM     76  C   UNL A   1      33.759  35.080  32.481  1.00  0.00     0.054 A 
BRANCH  76  77
ATOM     77  S   UNL A   1      32.241  36.045  32.239  1.00  0.00     0.124 S 
ATOM     78  O   UNL A   1      32.431  37.147  33.175  1.00  0.00    -0.237 OA
ATOM     79  O   UNL A   1      32.309  36.398  30.822  1.00  0.00    -0.237 OA
ATOM     80  O   UNL A   1      31.181  35.102  32.586  1.00  0.00    -0.744 OA
ENDBRANCH  76  77
ENDBRANCH  48  71
BRANCH  60  81
ATOM     81  C   UNL A   1      40.476  33.493  38.391  1.00  0.00    -0.014 A 
ATOM     82  C   UNL A   1      41.214  34.679  38.547  1.00  0.00     0.010 A 
ATOM     83  C   UNL A   1      39.693  33.023  39.462  1.00  0.00     0.010 A 
ATOM     84  C   UNL A   1      41.188  35.372  39.760  1.00  0.00     0.020 A 
ATOM     85  C   UNL A   1      39.648  33.725  40.669  1.00  0.00     0.020 A 
ATOM     86  C   UNL A   1      40.405  34.890  40.814  1.00  0.00     0.054 A 
BRANCH  86  87
ATOM     87  S   UNL A   1      40.344  35.833  42.362  1.00  0.00     0.124 S 
ATOM     88  O   UNL A   1      41.135  37.015  42.028  1.00  0.00    -0.237 OA
ATOM     89  O   UNL A   1      38.913  36.066  42.542  1.00  0.00    -0.237 OA
ATOM     90  O   UNL A   1      40.951  34.933  43.339  1.00  0.00    -0.744 OA
ENDBRANCH  86  87
ENDBRANCH  60  81
ENDBRANCH  34  35
ENDBRANCH  27  29
ENDBRANCH  26  27
ENDBRANCH  25  26
ENDBRANCH   1  25
TORSDOF 20
ENDMDL
MODEL 3
REMARK VINA RESULT:      -9.3      2.198      3.055
REMARK SMILES CCC[NH2+][C@]1(C(=O)OCCOC(=O)c2ccc(-c3c4nc(c(-c5ccc(S(=O)(=O)[O-])cc5)c5ccc([nH]5)c(-c5ccc(S(=O)(=O)[O-])cc5)c5nc(c(-c6ccc(S(=O)(=O)[O-])cc6)c6ccc3[nH]6)C=C5)C=C4)cc2)CCC[C@@H]([N@@H+](C)[C@@H](C)C2CC2)C1
REMARK SMILES IDX 9 1 8 2 6 3 7 4 5 5 74 6 85 7 75 8 77 9 76 10 4 11 3 14 2 15
REMARK SMILES IDX 1 16 78 17 79 18 80 20 81 21 82 22 83 23 84 24 10 25 11 26
REMARK SMILES IDX 12 27 13 28 14 29 15 30 73 31 16 32 72 33 17 34 18 35 19 36
REMARK SMILES IDX 66 37 20 38 71 39 65 40 67 41 21 42 70 43 64 44 63 45 22 47
REMARK SMILES IDX 52 48 33 49 51 50 34 51 37 52 50 53 68 54 35 55 36 56 49 58
REMARK SMILES IDX 69 59 38 60 23 61 24 62 32 63 25 64 31 65 26 66 27 67 28 68
REMARK SMILES IDX 29 69 30 70 53 71 54 72 62 73 55 74 61 75 56 76 57 77 58 78
REMARK SMILES IDX 59 79 60 80 39 81 40 82 48 83 41 84 47 85 42 86 43 87 44 88
REMARK SMILES IDX 45 89 46 90
REMARK H PARENT 4 12 4 13 78 19 67 46 37 57
REMARK Flexibility Score: inf
ROOT
ATOM      1  C   UNL A   1      34.056  29.991  27.086  1.00  0.00     0.274 C 
ENDROOT
BRANCH   1   2
ATOM      2  O   UNL A   1      32.981  30.162  26.141  1.00  0.00    -0.457 OA
BRANCH   2   3
ATOM      3  C   UNL A   1      32.039  29.176  26.108  1.00  0.00     0.368 C 
ATOM      4  O   UNL A   1      31.423  28.791  27.099  1.00  0.00    -0.245 OA
BRANCH   3   5
ATOM      5  C   UNL A   1      31.966  28.452  24.713  1.00  0.00     0.200 C 
ATOM      6  C   UNL A   1      32.990  29.001  23.696  1.00  0.00     0.081 C 
ATOM      7  C   UNL A   1      32.394  27.043  25.141  1.00  0.00     0.146 C 
ATOM      8  C   UNL A   1      33.328  28.055  22.536  1.00  0.00     0.013 C 
ATOM      9  C   UNL A   1      32.656  26.037  24.037  1.00  0.00     0.190 C 
ATOM     10  C   UNL A   1      33.597  26.601  22.955  1.00  0.00     0.065 C 
BRANCH   5  11
ATOM     11  N   UNL A   1      30.539  28.508  24.277  1.00  0.00    -0.332 N 
ATOM     12  H   UNL A   1      30.305  27.586  23.909  1.00  0.00     0.347 HD
ATOM     13  H   UNL A   1      30.047  28.814  25.117  1.00  0.00     0.347 HD
BRANCH  11  14
ATOM     14  C   UNL A   1      30.127  29.478  23.275  1.00  0.00     0.261 C 
BRANCH  14  15
ATOM     15  C   UNL A   1      29.583  30.795  23.847  1.00  0.00     0.058 C 
ATOM     16  C   UNL A   1      28.197  31.180  23.371  1.00  0.00     0.010 C 
ENDBRANCH  14  15
ENDBRANCH  11  14
ENDBRANCH   5  11
BRANCH   9  17
ATOM     17  N   UNL A   1      32.990  24.718  24.627  1.00  0.00    -0.332 N 
ATOM     18  C   UNL A   1      34.050  24.836  25.630  1.00  0.00     0.333 C 
ATOM     19  H   UNL A   1      33.292  24.249  23.772  1.00  0.00     0.348 HD
BRANCH  17  20
ATOM     20  C   UNL A   1      31.962  23.734  25.027  1.00  0.00     0.184 C 
ATOM     21  C   UNL A   1      30.532  24.271  25.186  1.00  0.00     0.075 C 
BRANCH  20  22
ATOM     22  C   UNL A   1      31.928  22.449  24.212  1.00  0.00     0.047 C 
ATOM     23  C   UNL A   1      33.163  21.690  23.768  1.00  0.00     0.010 C 
ATOM     24  C   UNL A   1      32.311  21.134  24.862  1.00  0.00     0.010 C 
ENDBRANCH  20  22
ENDBRANCH  17  20
ENDBRANCH   9  17
ENDBRANCH   3   5
ENDBRANCH   2   3
ENDBRANCH   1   2
BRANCH   1  25
ATOM     25  C   UNL A   1      34.483  31.345  27.641  1.00  0.00     0.275 C 
BRANCH  25  26
ATOM     26  O   UNL A   1      35.910  31.348  27.798  1.00  0.00    -0.458 OA
BRANCH  26  27
ATOM     27  C   UNL A   1      36.380  30.993  29.015  1.00  0.00     0.338 C 
ATOM     28  O   UNL A   1      35.839  31.170  30.098  1.00  0.00    -0.246 OA
BRANCH  27  29
ATOM     29  C   UNL A   1      37.667  30.295  28.851  1.00  0.00     0.060 A 
ATOM     30  C   UNL A   1      38.529  30.188  29.937  1.00  0.00     0.016 A 
ATOM     31  C   UNL A   1      38.074  29.837  27.600  1.00  0.00     0.016 A 
ATOM     32  C   UNL A   1      39.817  29.702  29.767  1.00  0.00     0.010 A 
ATOM     33  C   UNL A   1      39.344  29.260  27.454  1.00  0.00     0.010 A 
ATOM     34  C   UNL A   1      40.251  29.220  28.529  1.00  0.00    -0.014 A 
BRANCH  34  35
ATOM     35  C   UNL A   1      41.662  28.767  28.351  1.00  0.00     0.031 A 
ATOM     36  C   UNL A   1      42.788  29.754  28.525  1.00  0.00     0.074 A 
ATOM     37  C   UNL A   1      41.967  27.478  28.087  1.00  0.00     0.049 A 
ATOM     38  N   UNL A   1      44.044  29.647  28.174  1.00  0.00    -0.248 NA
ATOM     39  C   UNL A   1      42.453  31.035  29.167  1.00  0.00     0.031 C 
ATOM     40  C   UNL A   1      41.012  26.371  27.992  1.00  0.00     0.029 A 
ATOM     41  N   UNL A   1      43.184  26.875  27.869  1.00  0.00    -0.354 N 
ATOM     42  C   UNL A   1      44.622  30.878  28.460  1.00  0.00     0.074 A 
ATOM     43  C   UNL A   1      43.588  31.707  29.040  1.00  0.00     0.031 C 
ATOM     44  C   UNL A   1      41.679  25.224  27.798  1.00  0.00     0.029 A 
ATOM     45  C   UNL A   1      43.096  25.524  27.627  1.00  0.00     0.049 A 
ATOM     46  H   UNL A   1      44.039  27.365  27.883  1.00  0.00     0.167 HD
ATOM     47  C   UNL A   1      45.895  31.285  28.240  1.00  0.00     0.031 A 
ATOM     48  C   UNL A   1      44.031  24.629  27.247  1.00  0.00     0.031 A 
ATOM     49  C   UNL A   1      46.938  30.435  27.729  1.00  0.00     0.049 A 
ATOM     50  C   UNL A   1      45.431  25.103  26.977  1.00  0.00     0.074 A 
ATOM     51  C   UNL A   1      48.255  30.758  27.452  1.00  0.00     0.029 A 
ATOM     52  N   UNL A   1      46.788  29.087  27.447  1.00  0.00    -0.354 N 
ATOM     53  N   UNL A   1      45.936  26.304  27.123  1.00  0.00    -0.248 NA
ATOM     54  C   UNL A   1      46.380  24.108  26.454  1.00  0.00     0.031 C 
ATOM     55  C   UNL A   1      48.893  29.610  26.969  1.00  0.00     0.029 A 
ATOM     56  C   UNL A   1      47.986  28.563  26.990  1.00  0.00     0.049 A 
ATOM     57  H   UNL A   1      45.953  28.576  27.555  1.00  0.00     0.167 HD
ATOM     58  C   UNL A   1      47.257  26.213  26.700  1.00  0.00     0.074 A 
ATOM     59  C   UNL A   1      47.484  24.831  26.325  1.00  0.00     0.031 C 
ATOM     60  C   UNL A   1      48.194  27.188  26.616  1.00  0.00     0.031 A 
BRANCH  47  61
ATOM     61  C   UNL A   1      46.209  32.737  28.478  1.00  0.00    -0.014 A 
ATOM     62  C   UNL A   1      46.450  33.247  29.766  1.00  0.00     0.010 A 
ATOM     63  C   UNL A   1      46.281  33.605  27.372  1.00  0.00     0.010 A 
ATOM     64  C   UNL A   1      46.713  34.609  29.946  1.00  0.00     0.020 A 
ATOM     65  C   UNL A   1      46.569  34.960  27.546  1.00  0.00     0.020 A 
ATOM     66  C   UNL A   1      46.763  35.458  28.835  1.00  0.00     0.054 A 
BRANCH  66  67
ATOM     67  S   UNL A   1      47.112  37.219  29.092  1.00  0.00     0.124 S 
ATOM     68  O   UNL A   1      47.796  37.575  27.851  1.00  0.00    -0.237 OA
ATOM     69  O   UNL A   1      45.779  37.792  29.259  1.00  0.00    -0.237 OA
ATOM     70  O   UNL A   1      47.948  37.235  30.290  1.00  0.00    -0.744 OA
ENDBRANCH  66  67
ENDBRANCH  47  61
BRANCH  48  71
ATOM     71  C   UNL A   1      43.645  23.209  27.009  1.00  0.00    -0.014 A 
ATOM     72  C   UNL A   1      43.122  22.421  28.048  1.00  0.00     0.010 A 
ATOM     73  C   UNL A   1      43.776  22.647  25.725  1.00  0.00     0.010 A 
ATOM     74  C   UNL A   1      42.735  21.098  27.806  1.00  0.00     0.020 A 
ATOM     75  C   UNL A   1      43.360  21.338  25.473  1.00  0.00     0.020 A 
ATOM     76  C   UNL A   1      42.850  20.568  26.518  1.00  0.00     0.054 A 
BRANCH  76  77
ATOM     77  S   UNL A   1      42.266  18.879  26.200  1.00  0.00     0.124 S 
ATOM     78  O   UNL A   1      42.409  18.257  27.511  1.00  0.00    -0.237 OA
ATOM     79  O   UNL A   1      40.893  19.095  25.748  1.00  0.00    -0.237 OA
ATOM     80  O   UNL A   1      43.182  18.392  25.170  1.00  0.00    -0.744 OA
ENDBRANCH  76  77
ENDBRANCH  48  71
BRANCH  60  81
ATOM     81  C   UNL A   1      49.555  26.798  26.112  1.00  0.00    -0.014 A 
ATOM     82  C   UNL A   1      49.901  26.970  24.760  1.00  0.00     0.010 A 
ATOM     83  C   UNL A   1      50.520  26.312  27.013  1.00  0.00     0.010 A 
ATOM     84  C   UNL A   1      51.184  26.641  24.314  1.00  0.00     0.020 A 
ATOM     85  C   UNL A   1      51.809  26.002  26.574  1.00  0.00     0.020 A 
ATOM     86  C   UNL A   1      52.130  26.158  25.224  1.00  0.00     0.054 A 
BRANCH  86  87
ATOM     87  S   UNL A   1      53.803  25.787  24.632  1.00  0.00     0.124 S 
ATOM     88  O   UNL A   1      53.721  26.171  23.226  1.00  0.00    -0.237 OA
ATOM     89  O   UNL A   1      54.639  26.645  25.469  1.00  0.00    -0.237 OA
ATOM     90  O   UNL A   1      53.948  24.355  24.880  1.00  0.00    -0.744 OA
ENDBRANCH  86  87
ENDBRANCH  60  81
ENDBRANCH  34  35
ENDBRANCH  27  29
ENDBRANCH  26  27
ENDBRANCH  25  26
ENDBRANCH   1  25
TORSDOF 20
ENDMDL
