MODEL 1
REMARK VINA RESULT:     -11.8      0.000      0.000
REMARK SMILES CC1(C)[C@H](C(=O)N(Cc2ccccc2)Cc2ccccc2)CC[C@@]1(C)C(=O)OCCOC(=O)c1ccc(-c2c3nc(c(-c4ccc(S(=O)(=O)[O-])cc4)c4ccc([nH]4)c(-c4ccc(S(=O)(=O)[O-])cc4)c4nc(c(-c5ccc(S(=O)(=O)[O-])cc5)c5ccc2[nH]5)C=C4)C=C3)cc1
REMARK SMILES IDX 29 1 28 2 26 3 27 4 24 5 1 6 2 7 3 8 4 9 22 10 23 11 25 12
REMARK SMILES IDX 5 13 6 14 7 15 8 16 9 17 10 18 14 19 11 20 13 21 12 22 15 23
REMARK SMILES IDX 16 24 17 25 21 26 18 27 20 28 19 29 30 30 31 31 32 32 33 33
REMARK SMILES IDX 34 34 35 35 93 36 36 37 92 38 37 39 38 40 39 41 86 42 40 43
REMARK SMILES IDX 91 44 85 45 87 46 41 47 90 48 84 49 83 50 42 52 72 53 53 54
REMARK SMILES IDX 71 55 54 56 57 57 70 58 88 59 55 60 56 61 69 63 89 64 58 65
REMARK SMILES IDX 43 66 44 67 52 68 45 69 51 70 46 71 47 72 48 73 49 74 50 75
REMARK SMILES IDX 73 76 74 77 82 78 75 79 81 80 76 81 77 82 78 83 79 84 80 85
REMARK SMILES IDX 59 86 60 87 68 88 61 89 67 90 62 91 63 92 64 93 65 94 66 95
REMARK H PARENT 87 51 57 62
REMARK Flexibility Score: inf
ROOT
ATOM      1  C   UNL A   1      33.994  28.518  24.873  1.00  0.00     0.274 C 
ENDROOT
BRANCH   1   2
ATOM      2  O   UNL A   1      33.779  27.110  24.665  1.00  0.00    -0.462 OA
BRANCH   2   3
ATOM      3  C   UNL A   1      33.063  26.749  23.565  1.00  0.00     0.312 C 
ATOM      4  O   UNL A   1      33.378  27.064  22.424  1.00  0.00    -0.252 OA
BRANCH   3   5
ATOM      5  C   UNL A   1      31.763  25.987  23.920  1.00  0.00     0.071 C 
ATOM      6  C   UNL A   1      32.895  24.156  22.420  1.00  0.00     0.013 C 
ATOM      7  C   UNL A   1      31.928  24.444  23.594  1.00  0.00    -0.008 C 
ATOM      8  C   UNL A   1      30.600  23.834  23.168  1.00  0.00     0.013 C 
ATOM      9  C   UNL A   1      32.505  23.865  24.926  1.00  0.00     0.085 C 
ATOM     10  C   UNL A   1      32.072  24.763  26.075  1.00  0.00     0.015 C 
ATOM     11  C   UNL A   1      31.478  26.018  25.445  1.00  0.00     0.020 C 
ATOM     12  C   UNL A   1      30.561  26.681  23.238  1.00  0.00     0.024 C 
BRANCH   9  13
ATOM     13  C   UNL A   1      32.535  22.354  25.222  1.00  0.00     0.226 C 
ATOM     14  O   UNL A   1      31.436  21.847  25.497  1.00  0.00    -0.275 OA
ATOM     15  N   UNL A   1      33.675  21.554  25.241  1.00  0.00    -0.334 N 
BRANCH  15  16
ATOM     16  C   UNL A   1      34.892  21.766  24.431  1.00  0.00     0.155 C 
BRANCH  16  17
ATOM     17  C   UNL A   1      36.153  22.260  25.125  1.00  0.00    -0.029 A 
ATOM     18  C   UNL A   1      37.264  21.395  25.203  1.00  0.00     0.005 A 
ATOM     19  C   UNL A   1      36.290  23.529  25.693  1.00  0.00     0.005 A 
ATOM     20  C   UNL A   1      38.493  21.830  25.708  1.00  0.00     0.000 A 
ATOM     21  C   UNL A   1      37.512  23.964  26.214  1.00  0.00     0.000 A 
ATOM     22  C   UNL A   1      38.621  23.123  26.200  1.00  0.00     0.000 A 
ENDBRANCH  16  17
ENDBRANCH  15  16
BRANCH  15  23
ATOM     23  C   UNL A   1      33.468  20.187  25.764  1.00  0.00     0.155 C 
BRANCH  23  24
ATOM     24  C   UNL A   1      33.568  19.068  24.734  1.00  0.00    -0.029 A 
ATOM     25  C   UNL A   1      32.568  18.944  23.753  1.00  0.00     0.005 A 
ATOM     26  C   UNL A   1      34.583  18.101  24.755  1.00  0.00     0.005 A 
ATOM     27  C   UNL A   1      32.617  17.918  22.802  1.00  0.00     0.000 A 
ATOM     28  C   UNL A   1      34.632  17.076  23.809  1.00  0.00     0.000 A 
ATOM     29  C   UNL A   1      33.653  16.988  22.828  1.00  0.00     0.000 A 
ENDBRANCH  23  24
ENDBRANCH  15  23
ENDBRANCH   9  13
ENDBRANCH   3   5
ENDBRANCH   2   3
ENDBRANCH   1   2
BRANCH   1  30
ATOM     30  C   UNL A   1      33.223  29.049  26.083  1.00  0.00     0.275 C 
BRANCH  30  31
ATOM     31  O   UNL A   1      33.964  28.879  27.304  1.00  0.00    -0.458 OA
BRANCH  31  32
ATOM     32  C   UNL A   1      34.352  30.030  27.901  1.00  0.00     0.338 C 
ATOM     33  O   UNL A   1      33.651  30.980  28.199  1.00  0.00    -0.246 OA
BRANCH  32  34
ATOM     34  C   UNL A   1      35.770  29.938  28.276  1.00  0.00     0.060 A 
ATOM     35  C   UNL A   1      36.716  30.126  27.272  1.00  0.00     0.016 A 
ATOM     36  C   UNL A   1      36.171  29.545  29.550  1.00  0.00     0.016 A 
ATOM     37  C   UNL A   1      38.058  29.872  27.500  1.00  0.00     0.010 A 
ATOM     38  C   UNL A   1      37.533  29.332  29.799  1.00  0.00     0.010 A 
ATOM     39  C   UNL A   1      38.482  29.471  28.767  1.00  0.00    -0.014 A 
BRANCH  39  40
ATOM     40  C   UNL A   1      39.909  29.128  28.965  1.00  0.00     0.031 A 
ATOM     41  C   UNL A   1      40.837  30.142  29.574  1.00  0.00     0.074 A 
ATOM     42  C   UNL A   1      40.354  27.891  28.671  1.00  0.00     0.049 A 
ATOM     43  N   UNL A   1      42.135  30.093  29.710  1.00  0.00    -0.248 NA
ATOM     44  C   UNL A   1      40.220  31.374  30.094  1.00  0.00     0.031 C 
ATOM     45  C   UNL A   1      39.528  26.791  28.165  1.00  0.00     0.029 A 
ATOM     46  N   UNL A   1      41.608  27.346  28.772  1.00  0.00    -0.354 N 
ATOM     47  C   UNL A   1      42.499  31.309  30.276  1.00  0.00     0.074 A 
ATOM     48  C   UNL A   1      41.285  32.070  30.469  1.00  0.00     0.031 C 
ATOM     49  C   UNL A   1      40.293  25.698  28.024  1.00  0.00     0.029 A 
ATOM     50  C   UNL A   1      41.673  26.038  28.355  1.00  0.00     0.049 A 
ATOM     51  H   UNL A   1      42.386  27.843  29.112  1.00  0.00     0.167 HD
ATOM     52  C   UNL A   1      43.740  31.751  30.589  1.00  0.00     0.031 A 
ATOM     53  C   UNL A   1      42.731  25.218  28.211  1.00  0.00     0.031 A 
ATOM     54  C   UNL A   1      44.936  30.970  30.421  1.00  0.00     0.049 A 
ATOM     55  C   UNL A   1      44.101  25.742  28.532  1.00  0.00     0.074 A 
ATOM     56  C   UNL A   1      46.246  31.329  30.688  1.00  0.00     0.029 A 
ATOM     57  N   UNL A   1      44.966  29.664  29.955  1.00  0.00    -0.354 N 
ATOM     58  N   UNL A   1      44.443  26.925  28.987  1.00  0.00    -0.248 NA
ATOM     59  C   UNL A   1      45.229  24.831  28.302  1.00  0.00     0.031 C 
ATOM     60  C   UNL A   1      47.070  30.248  30.352  1.00  0.00     0.029 A 
ATOM     61  C   UNL A   1      46.270  29.204  29.916  1.00  0.00     0.049 A 
ATOM     62  H   UNL A   1      44.174  29.142  29.690  1.00  0.00     0.167 HD
ATOM     63  C   UNL A   1      45.828  26.900  29.097  1.00  0.00     0.074 A 
ATOM     64  C   UNL A   1      46.257  25.578  28.685  1.00  0.00     0.031 C 
ATOM     65  C   UNL A   1      46.669  27.886  29.494  1.00  0.00     0.031 A 
BRANCH  52  66
ATOM     66  C   UNL A   1      43.862  33.168  31.079  1.00  0.00    -0.014 A 
ATOM     67  C   UNL A   1      43.916  33.473  32.450  1.00  0.00     0.010 A 
ATOM     68  C   UNL A   1      43.932  34.213  30.140  1.00  0.00     0.010 A 
ATOM     69  C   UNL A   1      43.995  34.804  32.873  1.00  0.00     0.020 A 
ATOM     70  C   UNL A   1      44.031  35.542  30.558  1.00  0.00     0.020 A 
ATOM     71  C   UNL A   1      44.042  35.830  31.923  1.00  0.00     0.054 A 
BRANCH  71  72
ATOM     72  S   UNL A   1      44.147  37.549  32.493  1.00  0.00     0.124 S 
ATOM     73  O   UNL A   1      43.888  38.290  31.260  1.00  0.00    -0.237 OA
ATOM     74  O   UNL A   1      43.093  37.622  33.501  1.00  0.00    -0.237 OA
ATOM     75  O   UNL A   1      45.508  37.659  33.012  1.00  0.00    -0.744 OA
ENDBRANCH  71  72
ENDBRANCH  52  66
BRANCH  53  76
ATOM     76  C   UNL A   1      42.532  23.845  27.676  1.00  0.00    -0.014 A 
ATOM     77  C   UNL A   1      42.638  23.584  26.299  1.00  0.00     0.010 A 
ATOM     78  C   UNL A   1      42.268  22.777  28.556  1.00  0.00     0.010 A 
ATOM     79  C   UNL A   1      42.481  22.282  25.812  1.00  0.00     0.020 A 
ATOM     80  C   UNL A   1      42.137  21.473  28.076  1.00  0.00     0.020 A 
ATOM     81  C   UNL A   1      42.234  21.234  26.704  1.00  0.00     0.054 A 
BRANCH  81  82
ATOM     82  S   UNL A   1      42.101  19.540  26.066  1.00  0.00     0.124 S 
ATOM     83  O   UNL A   1      40.680  19.448  25.747  1.00  0.00    -0.237 OA
ATOM     84  O   UNL A   1      43.006  19.555  24.920  1.00  0.00    -0.237 OA
ATOM     85  O   UNL A   1      42.548  18.719  27.190  1.00  0.00    -0.744 OA
ENDBRANCH  81  82
ENDBRANCH  53  76
BRANCH  65  86
ATOM     86  C   UNL A   1      48.136  27.561  29.515  1.00  0.00    -0.014 A 
ATOM     87  C   UNL A   1      48.949  27.828  28.399  1.00  0.00     0.010 A 
ATOM     88  C   UNL A   1      48.714  27.025  30.679  1.00  0.00     0.010 A 
ATOM     89  C   UNL A   1      50.314  27.535  28.439  1.00  0.00     0.020 A 
ATOM     90  C   UNL A   1      50.082  26.750  30.728  1.00  0.00     0.020 A 
ATOM     91  C   UNL A   1      50.872  26.994  29.602  1.00  0.00     0.054 A 
BRANCH  91  92
ATOM     92  S   UNL A   1      52.653  26.657  29.647  1.00  0.00     0.124 S 
ATOM     93  O   UNL A   1      53.213  28.003  29.747  1.00  0.00    -0.237 OA
ATOM     94  O   UNL A   1      52.797  25.827  30.840  1.00  0.00    -0.237 OA
ATOM     95  O   UNL A   1      52.905  25.969  28.384  1.00  0.00    -0.744 OA
ENDBRANCH  91  92
ENDBRANCH  65  86
ENDBRANCH  39  40
ENDBRANCH  32  34
ENDBRANCH  31  32
ENDBRANCH  30  31
ENDBRANCH   1  30
TORSDOF 19
ENDMDL
MODEL 2
REMARK VINA RESULT:     -11.4      2.022      2.726
REMARK SMILES CC1(C)[C@H](C(=O)N(Cc2ccccc2)Cc2ccccc2)CC[C@@]1(C)C(=O)OCCOC(=O)c1ccc(-c2c3nc(c(-c4ccc(S(=O)(=O)[O-])cc4)c4ccc([nH]4)c(-c4ccc(S(=O)(=O)[O-])cc4)c4nc(c(-c5ccc(S(=O)(=O)[O-])cc5)c5ccc2[nH]5)C=C4)C=C3)cc1
REMARK SMILES IDX 29 1 28 2 26 3 27 4 24 5 1 6 2 7 3 8 4 9 22 10 23 11 25 12
REMARK SMILES IDX 5 13 6 14 7 15 8 16 9 17 10 18 14 19 11 20 13 21 12 22 15 23
REMARK SMILES IDX 16 24 17 25 21 26 18 27 20 28 19 29 30 30 31 31 32 32 33 33
REMARK SMILES IDX 34 34 35 35 93 36 36 37 92 38 37 39 38 40 39 41 86 42 40 43
REMARK SMILES IDX 91 44 85 45 87 46 41 47 90 48 84 49 83 50 42 52 72 53 53 54
REMARK SMILES IDX 71 55 54 56 57 57 70 58 88 59 55 60 56 61 69 63 89 64 58 65
REMARK SMILES IDX 43 66 44 67 52 68 45 69 51 70 46 71 47 72 48 73 49 74 50 75
REMARK SMILES IDX 73 76 74 77 82 78 75 79 81 80 76 81 77 82 78 83 79 84 80 85
REMARK SMILES IDX 59 86 60 87 68 88 61 89 67 90 62 91 63 92 64 93 65 94 66 95
REMARK H PARENT 87 51 57 62
REMARK Flexibility Score: inf
ROOT
ATOM      1  C   UNL A   1      33.612  28.984  25.852  1.00  0.00     0.274 C 
ENDROOT
BRANCH   1   2
ATOM      2  O   UNL A   1      33.736  27.559  25.686  1.00  0.00    -0.462 OA
BRANCH   2   3
ATOM      3  C   UNL A   1      33.347  27.041  24.489  1.00  0.00     0.312 C 
ATOM      4  O   UNL A   1      33.962  27.219  23.446  1.00  0.00    -0.252 OA
BRANCH   3   5
ATOM      5  C   UNL A   1      31.997  26.288  24.574  1.00  0.00     0.071 C 
ATOM      6  C   UNL A   1      33.305  24.579  23.074  1.00  0.00     0.013 C 
ATOM      7  C   UNL A   1      32.182  24.780  24.120  1.00  0.00    -0.008 C 
ATOM      8  C   UNL A   1      30.920  24.257  23.447  1.00  0.00     0.013 C 
ATOM      9  C   UNL A   1      32.548  24.056  25.455  1.00  0.00     0.085 C 
ATOM     10  C   UNL A   1      31.966  24.850  26.616  1.00  0.00     0.015 C 
ATOM     11  C   UNL A   1      31.492  26.178  26.037  1.00  0.00     0.020 C 
ATOM     12  C   UNL A   1      30.918  27.083  23.800  1.00  0.00     0.024 C 
BRANCH   9  13
ATOM     13  C   UNL A   1      32.509  22.522  25.598  1.00  0.00     0.226 C 
ATOM     14  O   UNL A   1      31.407  22.049  25.915  1.00  0.00    -0.275 OA
ATOM     15  N   UNL A   1      33.596  21.666  25.438  1.00  0.00    -0.334 N 
BRANCH  15  16
ATOM     16  C   UNL A   1      34.754  21.896  24.551  1.00  0.00     0.155 C 
BRANCH  16  17
ATOM     17  C   UNL A   1      36.086  22.285  25.176  1.00  0.00    -0.029 A 
ATOM     18  C   UNL A   1      37.120  21.328  25.211  1.00  0.00     0.005 A 
ATOM     19  C   UNL A   1      36.359  23.542  25.720  1.00  0.00     0.005 A 
ATOM     20  C   UNL A   1      38.406  21.659  25.650  1.00  0.00     0.000 A 
ATOM     21  C   UNL A   1      37.639  23.874  26.175  1.00  0.00     0.000 A 
ATOM     22  C   UNL A   1      38.669  22.941  26.118  1.00  0.00     0.000 A 
ENDBRANCH  16  17
ENDBRANCH  15  16
BRANCH  15  23
ATOM     23  C   UNL A   1      33.349  20.265  25.840  1.00  0.00     0.155 C 
BRANCH  23  24
ATOM     24  C   UNL A   1      33.324  19.251  24.703  1.00  0.00    -0.029 A 
ATOM     25  C   UNL A   1      34.327  18.269  24.634  1.00  0.00     0.005 A 
ATOM     26  C   UNL A   1      32.377  19.288  23.669  1.00  0.00     0.005 A 
ATOM     27  C   UNL A   1      34.347  17.333  23.594  1.00  0.00     0.000 A 
ATOM     28  C   UNL A   1      32.396  18.357  22.630  1.00  0.00     0.000 A 
ATOM     29  C   UNL A   1      33.378  17.374  22.596  1.00  0.00     0.000 A 
ENDBRANCH  23  24
ENDBRANCH  15  23
ENDBRANCH   9  13
ENDBRANCH   3   5
ENDBRANCH   2   3
ENDBRANCH   1   2
BRANCH   1  30
ATOM     30  C   UNL A   1      34.022  29.441  27.254  1.00  0.00     0.275 C 
BRANCH  30  31
ATOM     31  O   UNL A   1      35.402  29.144  27.530  1.00  0.00    -0.458 OA
BRANCH  31  32
ATOM     32  C   UNL A   1      35.960  29.888  28.513  1.00  0.00     0.338 C 
ATOM     33  O   UNL A   1      35.382  30.527  29.375  1.00  0.00    -0.246 OA
BRANCH  32  34
ATOM     34  C   UNL A   1      37.420  29.724  28.489  1.00  0.00     0.060 A 
ATOM     35  C   UNL A   1      38.054  29.771  27.250  1.00  0.00     0.016 A 
ATOM     36  C   UNL A   1      38.144  29.399  29.633  1.00  0.00     0.016 A 
ATOM     37  C   UNL A   1      39.392  29.441  27.121  1.00  0.00     0.010 A 
ATOM     38  C   UNL A   1      39.510  29.109  29.515  1.00  0.00     0.010 A 
ATOM     39  C   UNL A   1      40.135  29.105  28.253  1.00  0.00    -0.014 A 
BRANCH  39  40
ATOM     40  C   UNL A   1      41.543  28.678  28.079  1.00  0.00     0.031 A 
ATOM     41  C   UNL A   1      42.648  29.681  28.253  1.00  0.00     0.074 A 
ATOM     42  C   UNL A   1      41.832  27.384  27.842  1.00  0.00     0.049 A 
ATOM     43  N   UNL A   1      43.926  29.548  28.018  1.00  0.00    -0.248 NA
ATOM     44  C   UNL A   1      42.261  31.011  28.755  1.00  0.00     0.031 C 
ATOM     45  C   UNL A   1      40.851  26.299  27.748  1.00  0.00     0.029 A 
ATOM     46  N   UNL A   1      43.038  26.758  27.654  1.00  0.00    -0.354 N 
ATOM     47  C   UNL A   1      44.489  30.790  28.284  1.00  0.00     0.074 A 
ATOM     48  C   UNL A   1      43.416  31.661  28.711  1.00  0.00     0.031 C 
ATOM     49  C   UNL A   1      41.496  25.140  27.545  1.00  0.00     0.029 A 
ATOM     50  C   UNL A   1      42.924  25.409  27.418  1.00  0.00     0.049 A 
ATOM     51  H   UNL A   1      43.900  27.230  27.686  1.00  0.00     0.167 HD
ATOM     52  C   UNL A   1      45.784  31.168  28.167  1.00  0.00     0.031 A 
ATOM     53  C   UNL A   1      43.860  24.498  27.091  1.00  0.00     0.031 A 
ATOM     54  C   UNL A   1      46.845  30.282  27.771  1.00  0.00     0.049 A 
ATOM     55  C   UNL A   1      45.284  24.948  26.932  1.00  0.00     0.074 A 
ATOM     56  C   UNL A   1      48.189  30.567  27.601  1.00  0.00     0.029 A 
ATOM     57  N   UNL A   1      46.685  28.931  27.499  1.00  0.00    -0.354 N 
ATOM     58  N   UNL A   1      45.791  26.145  27.105  1.00  0.00    -0.248 NA
ATOM     59  C   UNL A   1      46.257  23.930  26.516  1.00  0.00     0.031 C 
ATOM     60  C   UNL A   1      48.834  29.392  27.194  1.00  0.00     0.029 A 
ATOM     61  C   UNL A   1      47.901  28.369  27.152  1.00  0.00     0.049 A 
ATOM     62  H   UNL A   1      45.830  28.444  27.546  1.00  0.00     0.167 HD
ATOM     63  C   UNL A   1      47.145  26.026  26.816  1.00  0.00     0.074 A 
ATOM     64  C   UNL A   1      47.381  24.635  26.483  1.00  0.00     0.031 C 
ATOM     65  C   UNL A   1      48.105  26.984  26.818  1.00  0.00     0.031 A 
BRANCH  52  66
ATOM     66  C   UNL A   1      46.101  32.619  28.403  1.00  0.00    -0.014 A 
ATOM     67  C   UNL A   1      46.039  33.567  27.367  1.00  0.00     0.010 A 
ATOM     68  C   UNL A   1      46.462  33.038  29.697  1.00  0.00     0.010 A 
ATOM     69  C   UNL A   1      46.373  34.902  27.613  1.00  0.00     0.020 A 
ATOM     70  C   UNL A   1      46.777  34.376  29.951  1.00  0.00     0.020 A 
ATOM     71  C   UNL A   1      46.749  35.295  28.902  1.00  0.00     0.054 A 
BRANCH  71  72
ATOM     72  S   UNL A   1      47.177  37.033  29.200  1.00  0.00     0.124 S 
ATOM     73  O   UNL A   1      45.860  37.667  29.221  1.00  0.00    -0.237 OA
ATOM     74  O   UNL A   1      47.869  36.982  30.486  1.00  0.00    -0.237 OA
ATOM     75  O   UNL A   1      48.018  37.383  28.058  1.00  0.00    -0.744 OA
ENDBRANCH  71  72
ENDBRANCH  52  66
BRANCH  53  76
ATOM     76  C   UNL A   1      43.458  23.090  26.827  1.00  0.00    -0.014 A 
ATOM     77  C   UNL A   1      43.598  22.526  25.548  1.00  0.00     0.010 A 
ATOM     78  C   UNL A   1      42.961  22.292  27.875  1.00  0.00     0.010 A 
ATOM     79  C   UNL A   1      43.247  21.192  25.320  1.00  0.00     0.020 A 
ATOM     80  C   UNL A   1      42.633  20.952  27.659  1.00  0.00     0.020 A 
ATOM     81  C   UNL A   1      42.769  20.412  26.378  1.00  0.00     0.054 A 
BRANCH  81  82
ATOM     82  S   UNL A   1      42.382  18.663  26.085  1.00  0.00     0.124 S 
ATOM     83  O   UNL A   1      43.294  18.329  24.997  1.00  0.00    -0.237 OA
ATOM     84  O   UNL A   1      42.683  18.046  27.375  1.00  0.00    -0.237 OA
ATOM     85  O   UNL A   1      40.963  18.684  25.732  1.00  0.00    -0.744 OA
ENDBRANCH  81  82
ENDBRANCH  53  76
BRANCH  65  86
ATOM     86  C   UNL A   1      49.499  26.550  26.462  1.00  0.00    -0.014 A 
ATOM     87  C   UNL A   1      50.307  25.883  27.398  1.00  0.00     0.010 A 
ATOM     88  C   UNL A   1      49.987  26.775  25.163  1.00  0.00     0.010 A 
ATOM     89  C   UNL A   1      51.596  25.472  27.048  1.00  0.00     0.020 A 
ATOM     90  C   UNL A   1      51.267  26.348  24.804  1.00  0.00     0.020 A 
ATOM     91  C   UNL A   1      52.069  25.710  25.754  1.00  0.00     0.054 A 
BRANCH  91  92
ATOM     92  S   UNL A   1      53.730  25.134  25.307  1.00  0.00     0.124 S 
ATOM     93  O   UNL A   1      53.600  23.688  25.460  1.00  0.00    -0.237 OA
ATOM     94  O   UNL A   1      53.880  25.610  23.933  1.00  0.00    -0.237 OA
ATOM     95  O   UNL A   1      54.595  25.791  26.283  1.00  0.00    -0.744 OA
ENDBRANCH  91  92
ENDBRANCH  65  86
ENDBRANCH  39  40
ENDBRANCH  32  34
ENDBRANCH  31  32
ENDBRANCH  30  31
ENDBRANCH   1  30
TORSDOF 19
ENDMDL
MODEL 3
REMARK VINA RESULT:     -11.2      3.327      8.314
REMARK SMILES CC1(C)[C@H](C(=O)N(Cc2ccccc2)Cc2ccccc2)CC[C@@]1(C)C(=O)OCCOC(=O)c1ccc(-c2c3nc(c(-c4ccc(S(=O)(=O)[O-])cc4)c4ccc([nH]4)c(-c4ccc(S(=O)(=O)[O-])cc4)c4nc(c(-c5ccc(S(=O)(=O)[O-])cc5)c5ccc2[nH]5)C=C4)C=C3)cc1
REMARK SMILES IDX 29 1 28 2 26 3 27 4 24 5 1 6 2 7 3 8 4 9 22 10 23 11 25 12
REMARK SMILES IDX 5 13 6 14 7 15 8 16 9 17 10 18 14 19 11 20 13 21 12 22 15 23
REMARK SMILES IDX 16 24 17 25 21 26 18 27 20 28 19 29 30 30 31 31 32 32 33 33
REMARK SMILES IDX 34 34 35 35 93 36 36 37 92 38 37 39 38 40 39 41 86 42 40 43
REMARK SMILES IDX 91 44 85 45 87 46 41 47 90 48 84 49 83 50 42 52 72 53 53 54
REMARK SMILES IDX 71 55 54 56 57 57 70 58 88 59 55 60 56 61 69 63 89 64 58 65
REMARK SMILES IDX 43 66 44 67 52 68 45 69 51 70 46 71 47 72 48 73 49 74 50 75
REMARK SMILES IDX 73 76 74 77 82 78 75 79 81 80 76 81 77 82 78 83 79 84 80 85
REMARK SMILES IDX 59 86 60 87 68 88 61 89 67 90 62 91 63 92 64 93 65 94 66 95
REMARK H PARENT 87 51 57 62
REMARK Flexibility Score: inf
ROOT
ATOM      1  C   UNL A   1      33.903  28.802  24.982  1.00  0.00     0.274 C 
ENDROOT
BRANCH   1   2
ATOM      2  O   UNL A   1      33.376  27.462  24.991  1.00  0.00    -0.462 OA
BRANCH   2   3
ATOM      3  C   UNL A   1      32.761  27.032  23.855  1.00  0.00     0.312 C 
ATOM      4  O   UNL A   1      33.131  27.343  22.730  1.00  0.00    -0.252 OA
BRANCH   3   5
ATOM      5  C   UNL A   1      31.492  26.193  24.143  1.00  0.00     0.071 C 
ATOM      6  C   UNL A   1      32.770  24.468  22.635  1.00  0.00     0.013 C 
ATOM      7  C   UNL A   1      31.750  24.671  23.781  1.00  0.00    -0.008 C 
ATOM      8  C   UNL A   1      30.471  24.005  23.291  1.00  0.00     0.013 C 
ATOM      9  C   UNL A   1      32.311  24.085  25.116  1.00  0.00     0.085 C 
ATOM     10  C   UNL A   1      31.792  24.925  26.274  1.00  0.00     0.015 C 
ATOM     11  C   UNL A   1      31.154  26.165  25.657  1.00  0.00     0.020 C 
ATOM     12  C   UNL A   1      30.278  26.843  23.439  1.00  0.00     0.024 C 
BRANCH   9  13
ATOM     13  C   UNL A   1      32.411  22.568  25.372  1.00  0.00     0.226 C 
ATOM     14  O   UNL A   1      31.365  22.029  25.766  1.00  0.00    -0.275 OA
ATOM     15  N   UNL A   1      33.563  21.798  25.234  1.00  0.00    -0.334 N 
BRANCH  15  16
ATOM     16  C   UNL A   1      34.667  22.057  24.288  1.00  0.00     0.155 C 
BRANCH  16  17
ATOM     17  C   UNL A   1      36.066  22.285  24.844  1.00  0.00    -0.029 A 
ATOM     18  C   UNL A   1      36.369  23.538  25.414  1.00  0.00     0.005 A 
ATOM     19  C   UNL A   1      37.081  21.325  24.831  1.00  0.00     0.005 A 
ATOM     20  C   UNL A   1      37.588  23.770  26.058  1.00  0.00     0.000 A 
ATOM     21  C   UNL A   1      38.307  21.557  25.461  1.00  0.00     0.000 A 
ATOM     22  C   UNL A   1      38.553  22.770  26.096  1.00  0.00     0.000 A 
ENDBRANCH  16  17
ENDBRANCH  15  16
BRANCH  15  23
ATOM     23  C   UNL A   1      33.452  20.415  25.746  1.00  0.00     0.155 C 
BRANCH  23  24
ATOM     24  C   UNL A   1      33.391  19.324  24.684  1.00  0.00    -0.029 A 
ATOM     25  C   UNL A   1      34.387  18.332  24.658  1.00  0.00     0.005 A 
ATOM     26  C   UNL A   1      32.418  19.297  23.675  1.00  0.00     0.005 A 
ATOM     27  C   UNL A   1      34.373  17.326  23.686  1.00  0.00     0.000 A 
ATOM     28  C   UNL A   1      32.405  18.296  22.703  1.00  0.00     0.000 A 
ATOM     29  C   UNL A   1      33.379  17.305  22.712  1.00  0.00     0.000 A 
ENDBRANCH  23  24
ENDBRANCH  15  23
ENDBRANCH   9  13
ENDBRANCH   3   5
ENDBRANCH   2   3
ENDBRANCH   1   2
BRANCH   1  30
ATOM     30  C   UNL A   1      33.031  29.772  25.783  1.00  0.00     0.275 C 
BRANCH  30  31
ATOM     31  O   UNL A   1      33.426  29.827  27.165  1.00  0.00    -0.458 OA
BRANCH  31  32
ATOM     32  C   UNL A   1      34.076  30.958  27.527  1.00  0.00     0.338 C 
ATOM     33  O   UNL A   1      33.626  32.090  27.563  1.00  0.00    -0.246 OA
BRANCH  32  34
ATOM     34  C   UNL A   1      35.420  30.620  28.016  1.00  0.00     0.060 A 
ATOM     35  C   UNL A   1      35.564  29.444  28.748  1.00  0.00     0.016 A 
ATOM     36  C   UNL A   1      36.495  31.495  27.879  1.00  0.00     0.016 A 
ATOM     37  C   UNL A   1      36.750  29.151  29.399  1.00  0.00     0.010 A 
ATOM     38  C   UNL A   1      37.712  31.179  28.498  1.00  0.00     0.010 A 
ATOM     39  C   UNL A   1      37.838  30.016  29.283  1.00  0.00    -0.014 A 
BRANCH  39  40
ATOM     40  C   UNL A   1      39.068  29.722  30.053  1.00  0.00     0.031 A 
ATOM     41  C   UNL A   1      40.024  28.676  29.551  1.00  0.00     0.074 A 
ATOM     42  C   UNL A   1      39.364  30.439  31.154  1.00  0.00     0.049 A 
ATOM     43  N   UNL A   1      41.079  28.177  30.136  1.00  0.00    -0.248 NA
ATOM     44  C   UNL A   1      39.751  28.117  28.216  1.00  0.00     0.031 C 
ATOM     45  C   UNL A   1      38.563  31.546  31.686  1.00  0.00     0.029 A 
ATOM     46  N   UNL A   1      40.429  30.357  32.014  1.00  0.00    -0.354 N 
ATOM     47  C   UNL A   1      41.564  27.204  29.271  1.00  0.00     0.074 A 
ATOM     48  C   UNL A   1      40.695  27.191  28.114  1.00  0.00     0.031 C 
ATOM     49  C   UNL A   1      39.178  32.053  32.765  1.00  0.00     0.029 A 
ATOM     50  C   UNL A   1      40.371  31.263  33.046  1.00  0.00     0.049 A 
ATOM     51  H   UNL A   1      41.164  29.712  31.902  1.00  0.00     0.167 HD
ATOM     52  C   UNL A   1      42.630  26.386  29.438  1.00  0.00     0.031 A 
ATOM     53  C   UNL A   1      41.165  31.411  34.123  1.00  0.00     0.031 A 
ATOM     54  C   UNL A   1      43.504  26.431  30.579  1.00  0.00     0.049 A 
ATOM     55  C   UNL A   1      42.322  30.470  34.305  1.00  0.00     0.074 A 
ATOM     56  C   UNL A   1      44.602  25.636  30.857  1.00  0.00     0.029 A 
ATOM     57  N   UNL A   1      43.389  27.335  31.625  1.00  0.00    -0.354 N 
ATOM     58  N   UNL A   1      42.720  29.497  33.520  1.00  0.00    -0.248 NA
ATOM     59  C   UNL A   1      43.122  30.633  35.525  1.00  0.00     0.031 C 
ATOM     60  C   UNL A   1      45.130  26.039  32.090  1.00  0.00     0.029 A 
ATOM     61  C   UNL A   1      44.387  27.112  32.557  1.00  0.00     0.049 A 
ATOM     62  H   UNL A   1      42.697  28.033  31.694  1.00  0.00     0.167 HD
ATOM     63  C   UNL A   1      43.819  28.930  34.153  1.00  0.00     0.074 A 
ATOM     64  C   UNL A   1      44.037  29.684  35.371  1.00  0.00     0.031 C 
ATOM     65  C   UNL A   1      44.575  27.873  33.764  1.00  0.00     0.031 A 
BRANCH  52  66
ATOM     66  C   UNL A   1      42.859  25.331  28.390  1.00  0.00    -0.014 A 
ATOM     67  C   UNL A   1      42.331  24.035  28.520  1.00  0.00     0.010 A 
ATOM     68  C   UNL A   1      43.616  25.654  27.249  1.00  0.00     0.010 A 
ATOM     69  C   UNL A   1      42.592  23.068  27.544  1.00  0.00     0.020 A 
ATOM     70  C   UNL A   1      43.861  24.695  26.262  1.00  0.00     0.020 A 
ATOM     71  C   UNL A   1      43.363  23.403  26.426  1.00  0.00     0.054 A 
BRANCH  71  72
ATOM     72  S   UNL A   1      43.687  22.133  25.171  1.00  0.00     0.124 S 
ATOM     73  O   UNL A   1      42.636  21.157  25.453  1.00  0.00    -0.237 OA
ATOM     74  O   UNL A   1      43.539  22.869  23.918  1.00  0.00    -0.237 OA
ATOM     75  O   UNL A   1      45.047  21.689  25.471  1.00  0.00    -0.744 OA
ENDBRANCH  71  72
ENDBRANCH  52  66
BRANCH  53  76
ATOM     76  C   UNL A   1      40.843  32.450  35.139  1.00  0.00    -0.014 A 
ATOM     77  C   UNL A   1      40.067  32.139  36.268  1.00  0.00     0.010 A 
ATOM     78  C   UNL A   1      41.349  33.756  34.994  1.00  0.00     0.010 A 
ATOM     79  C   UNL A   1      39.799  33.116  37.232  1.00  0.00     0.020 A 
ATOM     80  C   UNL A   1      41.105  34.727  35.966  1.00  0.00     0.020 A 
ATOM     81  C   UNL A   1      40.322  34.404  37.077  1.00  0.00     0.054 A 
BRANCH  81  82
ATOM     82  S   UNL A   1      40.024  35.643  38.369  1.00  0.00     0.124 S 
ATOM     83  O   UNL A   1      38.792  35.155  38.978  1.00  0.00    -0.237 OA
ATOM     84  O   UNL A   1      41.223  35.540  39.197  1.00  0.00    -0.237 OA
ATOM     85  O   UNL A   1      39.903  36.892  37.619  1.00  0.00    -0.744 OA
ENDBRANCH  81  82
ENDBRANCH  53  76
BRANCH  65  86
ATOM     86  C   UNL A   1      45.715  27.485  34.664  1.00  0.00    -0.014 A 
ATOM     87  C   UNL A   1      46.987  28.061  34.504  1.00  0.00     0.010 A 
ATOM     88  C   UNL A   1      45.497  26.567  35.706  1.00  0.00     0.010 A 
ATOM     89  C   UNL A   1      48.033  27.702  35.357  1.00  0.00     0.020 A 
ATOM     90  C   UNL A   1      46.536  26.222  36.573  1.00  0.00     0.020 A 
ATOM     91  C   UNL A   1      47.802  26.781  36.384  1.00  0.00     0.054 A 
BRANCH  91  92
ATOM     92  S   UNL A   1      49.163  26.358  37.506  1.00  0.00     0.124 S 
ATOM     93  O   UNL A   1      50.302  26.308  36.594  1.00  0.00    -0.237 OA
ATOM     94  O   UNL A   1      49.163  27.472  38.451  1.00  0.00    -0.237 OA
ATOM     95  O   UNL A   1      48.757  25.073  38.069  1.00  0.00    -0.744 OA
ENDBRANCH  91  92
ENDBRANCH  65  86
ENDBRANCH  39  40
ENDBRANCH  32  34
ENDBRANCH  31  32
ENDBRANCH  30  31
ENDBRANCH   1  30
TORSDOF 19
ENDMDL
