MODEL 1
REMARK VINA RESULT:     -12.5      0.000      0.000
REMARK SMILES Cc1cc(NC(=O)c2ccc(Br)cc2N)ccc1C(=O)OCCOC(=O)c1ccc(-c2c3nc(c(-c4ccc(S(=O)(=O)[O-])cc4)c4ccc([nH]4)c(-c4ccc(S(=O)(=O)[O-])cc4)c4nc(c(-c5ccc(S(=O)(=O)[O-])cc5)c5ccc2[nH]5)C=C4)C=C3)cc1
REMARK SMILES IDX 22 1 21 2 19 3 20 4 18 5 1 6 2 7 3 8 4 9 17 10 16 11 5 12
REMARK SMILES IDX 6 13 7 15 8 16 9 17 14 18 10 19 13 20 11 21 12 22 15 23
REMARK SMILES IDX 23 26 24 27 25 28 26 29 27 30 28 31 86 32 29 33 85 34 30 35
REMARK SMILES IDX 31 36 32 37 79 38 33 39 84 40 78 41 80 42 34 43 83 44 77 45
REMARK SMILES IDX 76 46 35 48 65 49 46 50 64 51 47 52 50 53 63 54 81 55 48 56
REMARK SMILES IDX 49 57 62 59 82 60 51 61 36 62 37 63 45 64 38 65 44 66 39 67
REMARK SMILES IDX 40 68 41 69 42 70 43 71 66 72 67 73 75 74 68 75 74 76 69 77
REMARK SMILES IDX 70 78 71 79 72 80 73 81 52 82 53 83 61 84 54 85 60 86 55 87
REMARK SMILES IDX 56 88 57 89 58 90 59 91
REMARK H PARENT 5 14 15 24 15 25 80 47 50 58
REMARK Flexibility Score: inf
ROOT
ATOM      1  C   UNL A   1      33.566  28.658  26.136  1.00  0.00     0.275 C 
ENDROOT
BRANCH   1   2
ATOM      2  O   UNL A   1      33.203  27.361  26.637  1.00  0.00    -0.458 OA
BRANCH   2   3
ATOM      3  C   UNL A   1      31.862  27.196  26.762  1.00  0.00     0.338 C 
ATOM      4  O   UNL A   1      31.137  27.785  27.528  1.00  0.00    -0.246 OA
BRANCH   3   5
ATOM      5  C   UNL A   1      31.351  26.038  26.015  1.00  0.00     0.063 A 
ATOM      6  C   UNL A   1      30.752  27.644  24.116  1.00  0.00     0.045 C 
ATOM      7  C   UNL A   1      30.919  26.272  24.705  1.00  0.00    -0.035 A 
ATOM      8  C   UNL A   1      30.706  25.174  23.872  1.00  0.00     0.030 A 
ATOM      9  C   UNL A   1      31.045  23.879  24.272  1.00  0.00     0.041 A 
ATOM     10  C   UNL A   1      31.530  24.730  26.483  1.00  0.00     0.018 A 
ATOM     11  C   UNL A   1      31.387  23.647  25.604  1.00  0.00     0.027 A 
BRANCH   9  12
ATOM     12  N   UNL A   1      31.090  22.815  23.353  1.00  0.00    -0.322 N 
ATOM     13  C   UNL A   1      32.203  22.189  22.811  1.00  0.00     0.257 C 
ATOM     14  H   UNL A   1      30.218  22.467  23.056  1.00  0.00     0.170 HD
ATOM     15  O   UNL A   1      32.103  21.523  21.782  1.00  0.00    -0.269 OA
BRANCH  13  16
ATOM     16  C   UNL A   1      33.533  22.282  23.485  1.00  0.00     0.063 A 
ATOM     17  C   UNL A   1      34.305  23.422  23.201  1.00  0.00     0.017 A 
ATOM     18  C   UNL A   1      33.995  21.317  24.408  1.00  0.00     0.045 A 
ATOM     19  C   UNL A   1      35.521  23.628  23.853  1.00  0.00     0.016 A 
ATOM     20  C   UNL A   1      35.239  21.525  25.021  1.00  0.00     0.042 A 
ATOM     21  C   UNL A   1      35.980  22.679  24.764  1.00  0.00     0.020 A 
ATOM     22  Br  UNL A   1      37.622  22.957  25.659  1.00  0.00    -0.051 Br
BRANCH  18  23
ATOM     23  N   UNL A   1      33.344  20.107  24.642  1.00  0.00    -0.398 N 
ATOM     24  H   UNL A   1      32.596  20.066  25.281  1.00  0.00     0.156 HD
ATOM     25  H   UNL A   1      33.632  19.293  24.169  1.00  0.00     0.156 HD
ENDBRANCH  18  23
ENDBRANCH  13  16
ENDBRANCH   9  12
ENDBRANCH   3   5
ENDBRANCH   2   3
ENDBRANCH   1   2
BRANCH   1  26
ATOM     26  C   UNL A   1      34.058  29.601  27.247  1.00  0.00     0.275 C 
BRANCH  26  27
ATOM     27  O   UNL A   1      35.338  29.358  27.879  1.00  0.00    -0.458 OA
BRANCH  27  28
ATOM     28  C   UNL A   1      36.262  30.352  27.853  1.00  0.00     0.338 C 
ATOM     29  O   UNL A   1      35.980  31.538  27.709  1.00  0.00    -0.246 OA
BRANCH  28  30
ATOM     30  C   UNL A   1      37.554  29.824  28.365  1.00  0.00     0.060 A 
ATOM     31  C   UNL A   1      37.565  28.946  29.460  1.00  0.00     0.016 A 
ATOM     32  C   UNL A   1      38.665  29.924  27.525  1.00  0.00     0.016 A 
ATOM     33  C   UNL A   1      38.629  28.068  29.635  1.00  0.00     0.010 A 
ATOM     34  C   UNL A   1      39.622  28.949  27.583  1.00  0.00     0.010 A 
ATOM     35  C   UNL A   1      39.624  28.054  28.658  1.00  0.00    -0.014 A 
BRANCH  35  36
ATOM     36  C   UNL A   1      40.908  27.408  28.824  1.00  0.00     0.031 A 
ATOM     37  C   UNL A   1      41.096  25.985  28.476  1.00  0.00     0.074 A 
ATOM     38  C   UNL A   1      41.836  28.323  29.203  1.00  0.00     0.049 A 
ATOM     39  N   UNL A   1      41.979  25.218  29.010  1.00  0.00    -0.248 NA
ATOM     40  C   UNL A   1      40.259  25.255  27.516  1.00  0.00     0.031 C 
ATOM     41  C   UNL A   1      43.280  28.276  29.291  1.00  0.00     0.029 A 
ATOM     42  N   UNL A   1      41.579  29.602  29.708  1.00  0.00    -0.354 N 
ATOM     43  C   UNL A   1      42.077  24.090  28.209  1.00  0.00     0.074 A 
ATOM     44  C   UNL A   1      40.867  24.064  27.437  1.00  0.00     0.031 C 
ATOM     45  C   UNL A   1      43.679  29.244  30.150  1.00  0.00     0.029 A 
ATOM     46  C   UNL A   1      42.476  29.852  30.722  1.00  0.00     0.049 A 
ATOM     47  H   UNL A   1      40.878  30.217  29.393  1.00  0.00     0.167 HD
ATOM     48  C   UNL A   1      43.283  23.457  28.114  1.00  0.00     0.031 A 
ATOM     49  C   UNL A   1      42.068  29.749  32.028  1.00  0.00     0.031 A 
ATOM     50  C   UNL A   1      44.246  24.152  28.965  1.00  0.00     0.049 A 
ATOM     51  C   UNL A   1      42.758  28.549  32.646  1.00  0.00     0.074 A 
ATOM     52  C   UNL A   1      45.158  25.152  28.672  1.00  0.00     0.029 A 
ATOM     53  N   UNL A   1      44.040  24.182  30.337  1.00  0.00    -0.354 N 
ATOM     54  N   UNL A   1      42.975  27.416  32.025  1.00  0.00    -0.248 NA
ATOM     55  C   UNL A   1      43.410  28.622  33.949  1.00  0.00     0.031 C 
ATOM     56  C   UNL A   1      45.398  25.870  29.875  1.00  0.00     0.029 A 
ATOM     57  C   UNL A   1      44.626  25.309  30.881  1.00  0.00     0.049 A 
ATOM     58  H   UNL A   1      43.547  23.500  30.849  1.00  0.00     0.167 HD
ATOM     59  C   UNL A   1      43.895  26.694  32.741  1.00  0.00     0.074 A 
ATOM     60  C   UNL A   1      44.100  27.471  33.957  1.00  0.00     0.031 C 
ATOM     61  C   UNL A   1      44.522  25.561  32.307  1.00  0.00     0.031 A 
BRANCH  48  62
ATOM     62  C   UNL A   1      43.711  22.479  27.036  1.00  0.00    -0.014 A 
ATOM     63  C   UNL A   1      42.823  21.431  26.694  1.00  0.00     0.010 A 
ATOM     64  C   UNL A   1      44.941  22.490  26.350  1.00  0.00     0.010 A 
ATOM     65  C   UNL A   1      43.157  20.425  25.778  1.00  0.00     0.020 A 
ATOM     66  C   UNL A   1      45.293  21.479  25.430  1.00  0.00     0.020 A 
ATOM     67  C   UNL A   1      44.399  20.446  25.156  1.00  0.00     0.054 A 
BRANCH  67  68
ATOM     68  S   UNL A   1      44.805  19.121  23.987  1.00  0.00     0.124 S 
ATOM     69  O   UNL A   1      46.244  18.959  24.183  1.00  0.00    -0.237 OA
ATOM     70  O   UNL A   1      43.979  18.014  24.463  1.00  0.00    -0.237 OA
ATOM     71  O   UNL A   1      44.417  19.669  22.689  1.00  0.00    -0.744 OA
ENDBRANCH  67  68
ENDBRANCH  48  62
BRANCH  49  72
ATOM     72  C   UNL A   1      40.673  30.231  32.340  1.00  0.00    -0.014 A 
ATOM     73  C   UNL A   1      40.325  31.544  31.933  1.00  0.00     0.010 A 
ATOM     74  C   UNL A   1      39.631  29.405  32.800  1.00  0.00     0.010 A 
ATOM     75  C   UNL A   1      38.992  31.969  31.850  1.00  0.00     0.020 A 
ATOM     76  C   UNL A   1      38.284  29.839  32.744  1.00  0.00     0.020 A 
ATOM     77  C   UNL A   1      37.972  31.103  32.234  1.00  0.00     0.054 A 
BRANCH  77  78
ATOM     78  S   UNL A   1      36.250  31.572  31.843  1.00  0.00     0.124 S 
ATOM     79  O   UNL A   1      35.794  32.156  33.099  1.00  0.00    -0.237 OA
ATOM     80  O   UNL A   1      36.434  32.515  30.740  1.00  0.00    -0.237 OA
ATOM     81  O   UNL A   1      35.633  30.298  31.479  1.00  0.00    -0.744 OA
ENDBRANCH  77  78
ENDBRANCH  49  72
BRANCH  61  82
ATOM     82  C   UNL A   1      45.214  24.591  33.224  1.00  0.00    -0.014 A 
ATOM     83  C   UNL A   1      46.567  24.707  33.566  1.00  0.00     0.010 A 
ATOM     84  C   UNL A   1      44.448  23.620  33.915  1.00  0.00     0.010 A 
ATOM     85  C   UNL A   1      47.158  23.827  34.471  1.00  0.00     0.020 A 
ATOM     86  C   UNL A   1      45.011  22.786  34.875  1.00  0.00     0.020 A 
ATOM     87  C   UNL A   1      46.377  22.868  35.114  1.00  0.00     0.054 A 
BRANCH  87  88
ATOM     88  S   UNL A   1      47.157  21.750  36.293  1.00  0.00     0.124 S 
ATOM     89  O   UNL A   1      46.012  21.324  37.094  1.00  0.00    -0.237 OA
ATOM     90  O   UNL A   1      47.736  20.721  35.431  1.00  0.00    -0.237 OA
ATOM     91  O   UNL A   1      48.127  22.596  36.981  1.00  0.00    -0.744 OA
ENDBRANCH  87  88
ENDBRANCH  61  82
ENDBRANCH  35  36
ENDBRANCH  28  30
ENDBRANCH  27  28
ENDBRANCH  26  27
ENDBRANCH   1  26
TORSDOF 17
ENDMDL
MODEL 2
REMARK VINA RESULT:     -12.4      4.519     11.028
REMARK SMILES Cc1cc(NC(=O)c2ccc(Br)cc2N)ccc1C(=O)OCCOC(=O)c1ccc(-c2c3nc(c(-c4ccc(S(=O)(=O)[O-])cc4)c4ccc([nH]4)c(-c4ccc(S(=O)(=O)[O-])cc4)c4nc(c(-c5ccc(S(=O)(=O)[O-])cc5)c5ccc2[nH]5)C=C4)C=C3)cc1
REMARK SMILES IDX 22 1 21 2 19 3 20 4 18 5 1 6 2 7 3 8 4 9 17 10 16 11 5 12
REMARK SMILES IDX 6 13 7 15 8 16 9 17 14 18 10 19 13 20 11 21 12 22 15 23
REMARK SMILES IDX 23 26 24 27 25 28 26 29 27 30 28 31 86 32 29 33 85 34 30 35
REMARK SMILES IDX 31 36 32 37 79 38 33 39 84 40 78 41 80 42 34 43 83 44 77 45
REMARK SMILES IDX 76 46 35 48 65 49 46 50 64 51 47 52 50 53 63 54 81 55 48 56
REMARK SMILES IDX 49 57 62 59 82 60 51 61 36 62 37 63 45 64 38 65 44 66 39 67
REMARK SMILES IDX 40 68 41 69 42 70 43 71 66 72 67 73 75 74 68 75 74 76 69 77
REMARK SMILES IDX 70 78 71 79 72 80 73 81 52 82 53 83 61 84 54 85 60 86 55 87
REMARK SMILES IDX 56 88 57 89 58 90 59 91
REMARK H PARENT 5 14 15 24 15 25 80 47 50 58
REMARK Flexibility Score: inf
ROOT
ATOM      1  C   UNL A   1      36.941  22.912  25.630  1.00  0.00     0.275 C 
ENDROOT
BRANCH   1   2
ATOM      2  O   UNL A   1      35.706  23.464  25.146  1.00  0.00    -0.458 OA
BRANCH   2   3
ATOM      3  C   UNL A   1      35.510  23.247  23.822  1.00  0.00     0.338 C 
ATOM      4  O   UNL A   1      36.355  22.944  23.013  1.00  0.00    -0.246 OA
BRANCH   3   5
ATOM      5  C   UNL A   1      34.168  23.635  23.366  1.00  0.00     0.063 A 
ATOM      6  C   UNL A   1      33.292  21.458  24.388  1.00  0.00     0.045 C 
ATOM      7  C   UNL A   1      33.107  22.804  23.744  1.00  0.00    -0.035 A 
ATOM      8  C   UNL A   1      31.805  23.279  23.589  1.00  0.00     0.030 A 
ATOM      9  C   UNL A   1      31.552  24.597  23.202  1.00  0.00     0.041 A 
ATOM     10  C   UNL A   1      33.920  24.899  22.813  1.00  0.00     0.018 A 
ATOM     11  C   UNL A   1      32.607  25.386  22.742  1.00  0.00     0.027 A 
BRANCH   9  12
ATOM     12  N   UNL A   1      30.267  25.160  23.307  1.00  0.00    -0.322 N 
ATOM     13  C   UNL A   1      29.813  26.115  24.204  1.00  0.00     0.257 C 
ATOM     14  H   UNL A   1      29.602  24.834  22.658  1.00  0.00     0.170 HD
ATOM     15  O   UNL A   1      28.608  26.258  24.405  1.00  0.00    -0.269 OA
BRANCH  13  16
ATOM     16  C   UNL A   1      30.775  27.011  24.914  1.00  0.00     0.063 A 
ATOM     17  C   UNL A   1      31.436  26.467  26.029  1.00  0.00     0.017 A 
ATOM     18  C   UNL A   1      31.066  28.323  24.478  1.00  0.00     0.045 A 
ATOM     19  C   UNL A   1      32.412  27.208  26.697  1.00  0.00     0.016 A 
ATOM     20  C   UNL A   1      32.022  29.063  25.190  1.00  0.00     0.042 A 
ATOM     21  C   UNL A   1      32.703  28.501  26.271  1.00  0.00     0.020 A 
ATOM     22  Br  UNL A   1      34.031  29.507  27.164  1.00  0.00    -0.051 Br
BRANCH  18  23
ATOM     23  N   UNL A   1      30.362  28.967  23.463  1.00  0.00    -0.398 N 
ATOM     24  H   UNL A   1      29.425  28.725  23.283  1.00  0.00     0.156 HD
ATOM     25  H   UNL A   1      30.802  29.664  22.925  1.00  0.00     0.156 HD
ENDBRANCH  18  23
ENDBRANCH  13  16
ENDBRANCH   9  12
ENDBRANCH   3   5
ENDBRANCH   2   3
ENDBRANCH   1   2
BRANCH   1  26
ATOM     26  C   UNL A   1      37.953  23.998  26.033  1.00  0.00     0.275 C 
BRANCH  26  27
ATOM     27  O   UNL A   1      38.867  23.755  27.130  1.00  0.00    -0.458 OA
BRANCH  27  28
ATOM     28  C   UNL A   1      40.006  24.493  27.188  1.00  0.00     0.338 C 
ATOM     29  O   UNL A   1      41.039  24.194  26.599  1.00  0.00    -0.246 OA
BRANCH  28  30
ATOM     30  C   UNL A   1      39.685  25.830  27.754  1.00  0.00     0.060 A 
ATOM     31  C   UNL A   1      39.156  25.933  29.050  1.00  0.00     0.016 A 
ATOM     32  C   UNL A   1      40.256  26.942  27.131  1.00  0.00     0.016 A 
ATOM     33  C   UNL A   1      39.322  27.106  29.776  1.00  0.00     0.010 A 
ATOM     34  C   UNL A   1      40.580  28.028  27.895  1.00  0.00     0.010 A 
ATOM     35  C   UNL A   1      40.078  28.125  29.197  1.00  0.00    -0.014 A 
BRANCH  35  36
ATOM     36  C   UNL A   1      40.116  29.483  29.694  1.00  0.00     0.031 A 
ATOM     37  C   UNL A   1      38.994  30.414  29.454  1.00  0.00     0.074 A 
ATOM     38  C   UNL A   1      41.224  29.662  30.458  1.00  0.00     0.049 A 
ATOM     39  N   UNL A   1      39.112  31.694  29.404  1.00  0.00    -0.248 NA
ATOM     40  C   UNL A   1      37.616  29.989  29.185  1.00  0.00     0.031 C 
ATOM     41  C   UNL A   1      41.635  30.720  31.355  1.00  0.00     0.029 A 
ATOM     42  N   UNL A   1      42.346  28.828  30.496  1.00  0.00    -0.354 N 
ATOM     43  C   UNL A   1      37.834  32.224  29.503  1.00  0.00     0.074 A 
ATOM     44  C   UNL A   1      36.948  31.150  29.156  1.00  0.00     0.031 C 
ATOM     45  C   UNL A   1      42.981  30.656  31.489  1.00  0.00     0.029 A 
ATOM     46  C   UNL A   1      43.469  29.620  30.576  1.00  0.00     0.049 A 
ATOM     47  H   UNL A   1      42.335  27.843  30.471  1.00  0.00     0.167 HD
ATOM     48  C   UNL A   1      37.673  33.434  30.114  1.00  0.00     0.031 A 
ATOM     49  C   UNL A   1      44.228  29.833  29.454  1.00  0.00     0.031 A 
ATOM     50  C   UNL A   1      38.984  33.933  30.521  1.00  0.00     0.049 A 
ATOM     51  C   UNL A   1      44.074  31.285  29.046  1.00  0.00     0.074 A 
ATOM     52  C   UNL A   1      39.662  33.825  31.723  1.00  0.00     0.029 A 
ATOM     53  N   UNL A   1      39.931  34.221  29.548  1.00  0.00    -0.354 N 
ATOM     54  N   UNL A   1      42.953  31.959  29.111  1.00  0.00    -0.248 NA
ATOM     55  C   UNL A   1      45.225  32.117  28.710  1.00  0.00     0.031 C 
ATOM     56  C   UNL A   1      41.051  33.925  31.436  1.00  0.00     0.029 A 
ATOM     57  C   UNL A   1      41.204  34.081  30.067  1.00  0.00     0.049 A 
ATOM     58  H   UNL A   1      39.725  34.487  28.622  1.00  0.00     0.167 HD
ATOM     59  C   UNL A   1      43.240  33.295  28.993  1.00  0.00     0.074 A 
ATOM     60  C   UNL A   1      44.666  33.336  28.698  1.00  0.00     0.031 C 
ATOM     61  C   UNL A   1      42.360  34.316  29.220  1.00  0.00     0.031 A 
BRANCH  48  62
ATOM     62  C   UNL A   1      36.381  34.006  30.668  1.00  0.00    -0.014 A 
ATOM     63  C   UNL A   1      35.316  34.244  29.767  1.00  0.00     0.010 A 
ATOM     64  C   UNL A   1      36.140  34.358  32.010  1.00  0.00     0.010 A 
ATOM     65  C   UNL A   1      34.115  34.851  30.157  1.00  0.00     0.020 A 
ATOM     66  C   UNL A   1      34.938  34.976  32.416  1.00  0.00     0.020 A 
ATOM     67  C   UNL A   1      33.934  35.227  31.482  1.00  0.00     0.054 A 
BRANCH  67  68
ATOM     68  S   UNL A   1      32.374  36.022  31.952  1.00  0.00     0.124 S 
ATOM     69  O   UNL A   1      31.659  34.938  32.623  1.00  0.00    -0.237 OA
ATOM     70  O   UNL A   1      32.821  37.109  32.819  1.00  0.00    -0.237 OA
ATOM     71  O   UNL A   1      31.798  36.444  30.676  1.00  0.00    -0.744 OA
ENDBRANCH  67  68
ENDBRANCH  48  62
BRANCH  49  72
ATOM     72  C   UNL A   1      44.398  28.660  28.520  1.00  0.00    -0.014 A 
ATOM     73  C   UNL A   1      44.140  28.874  27.142  1.00  0.00     0.010 A 
ATOM     74  C   UNL A   1      45.005  27.442  28.877  1.00  0.00     0.010 A 
ATOM     75  C   UNL A   1      44.591  27.988  26.154  1.00  0.00     0.020 A 
ATOM     76  C   UNL A   1      45.438  26.529  27.885  1.00  0.00     0.020 A 
ATOM     77  C   UNL A   1      45.261  26.827  26.529  1.00  0.00     0.054 A 
BRANCH  77  78
ATOM     78  S   UNL A   1      46.086  25.848  25.226  1.00  0.00     0.124 S 
ATOM     79  O   UNL A   1      47.167  25.200  25.960  1.00  0.00    -0.237 OA
ATOM     80  O   UNL A   1      45.009  24.965  24.781  1.00  0.00    -0.237 OA
ATOM     81  O   UNL A   1      46.500  26.863  24.259  1.00  0.00    -0.744 OA
ENDBRANCH  77  78
ENDBRANCH  49  72
BRANCH  61  82
ATOM     82  C   UNL A   1      42.569  35.719  28.722  1.00  0.00    -0.014 A 
ATOM     83  C   UNL A   1      42.019  36.184  27.521  1.00  0.00     0.010 A 
ATOM     84  C   UNL A   1      43.196  36.669  29.564  1.00  0.00     0.010 A 
ATOM     85  C   UNL A   1      42.179  37.510  27.123  1.00  0.00     0.020 A 
ATOM     86  C   UNL A   1      43.296  38.011  29.211  1.00  0.00     0.020 A 
ATOM     87  C   UNL A   1      42.823  38.413  27.969  1.00  0.00     0.054 A 
BRANCH  87  88
ATOM     88  S   UNL A   1      43.007  40.127  27.443  1.00  0.00     0.124 S 
ATOM     89  O   UNL A   1      41.782  40.331  26.674  1.00  0.00    -0.237 OA
ATOM     90  O   UNL A   1      43.078  40.850  28.711  1.00  0.00    -0.237 OA
ATOM     91  O   UNL A   1      44.243  40.119  26.667  1.00  0.00    -0.744 OA
ENDBRANCH  87  88
ENDBRANCH  61  82
ENDBRANCH  35  36
ENDBRANCH  28  30
ENDBRANCH  27  28
ENDBRANCH  26  27
ENDBRANCH   1  26
TORSDOF 17
ENDMDL
MODEL 3
REMARK VINA RESULT:     -11.7      2.081      2.865
REMARK SMILES Cc1cc(NC(=O)c2ccc(Br)cc2N)ccc1C(=O)OCCOC(=O)c1ccc(-c2c3nc(c(-c4ccc(S(=O)(=O)[O-])cc4)c4ccc([nH]4)c(-c4ccc(S(=O)(=O)[O-])cc4)c4nc(c(-c5ccc(S(=O)(=O)[O-])cc5)c5ccc2[nH]5)C=C4)C=C3)cc1
REMARK SMILES IDX 22 1 21 2 19 3 20 4 18 5 1 6 2 7 3 8 4 9 17 10 16 11 5 12
REMARK SMILES IDX 6 13 7 15 8 16 9 17 14 18 10 19 13 20 11 21 12 22 15 23
REMARK SMILES IDX 23 26 24 27 25 28 26 29 27 30 28 31 86 32 29 33 85 34 30 35
REMARK SMILES IDX 31 36 32 37 79 38 33 39 84 40 78 41 80 42 34 43 83 44 77 45
REMARK SMILES IDX 76 46 35 48 65 49 46 50 64 51 47 52 50 53 63 54 81 55 48 56
REMARK SMILES IDX 49 57 62 59 82 60 51 61 36 62 37 63 45 64 38 65 44 66 39 67
REMARK SMILES IDX 40 68 41 69 42 70 43 71 66 72 67 73 75 74 68 75 74 76 69 77
REMARK SMILES IDX 70 78 71 79 72 80 73 81 52 82 53 83 61 84 54 85 60 86 55 87
REMARK SMILES IDX 56 88 57 89 58 90 59 91
REMARK H PARENT 5 14 15 24 15 25 80 47 50 58
REMARK Flexibility Score: inf
ROOT
ATOM      1  C   UNL A   1      33.878  31.277  27.711  1.00  0.00     0.275 C 
ENDROOT
BRANCH   1   2
ATOM      2  O   UNL A   1      33.307  30.022  27.307  1.00  0.00    -0.458 OA
BRANCH   2   3
ATOM      3  C   UNL A   1      32.558  30.118  26.180  1.00  0.00     0.338 C 
ATOM      4  O   UNL A   1      31.611  30.849  26.010  1.00  0.00    -0.246 OA
BRANCH   3   5
ATOM      5  C   UNL A   1      32.855  29.065  25.199  1.00  0.00     0.063 A 
ATOM      6  C   UNL A   1      31.195  27.567  26.444  1.00  0.00     0.045 C 
ATOM      7  C   UNL A   1      32.106  27.886  25.292  1.00  0.00    -0.035 A 
ATOM      8  C   UNL A   1      32.144  26.991  24.223  1.00  0.00     0.030 A 
ATOM      9  C   UNL A   1      32.791  27.312  23.027  1.00  0.00     0.041 A 
ATOM     10  C   UNL A   1      33.648  29.318  24.072  1.00  0.00     0.018 A 
ATOM     11  C   UNL A   1      33.606  28.442  22.977  1.00  0.00     0.027 A 
BRANCH   9  12
ATOM     12  N   UNL A   1      32.605  26.545  21.863  1.00  0.00    -0.322 N 
ATOM     13  C   UNL A   1      32.946  25.219  21.638  1.00  0.00     0.257 C 
ATOM     14  H   UNL A   1      32.176  27.009  21.107  1.00  0.00     0.170 HD
ATOM     15  O   UNL A   1      33.042  24.787  20.491  1.00  0.00    -0.269 OA
BRANCH  13  16
ATOM     16  C   UNL A   1      33.165  24.285  22.783  1.00  0.00     0.063 A 
ATOM     17  C   UNL A   1      34.486  24.154  23.245  1.00  0.00     0.017 A 
ATOM     18  C   UNL A   1      32.110  23.596  23.424  1.00  0.00     0.045 A 
ATOM     19  C   UNL A   1      34.764  23.367  24.363  1.00  0.00     0.016 A 
ATOM     20  C   UNL A   1      32.421  22.780  24.521  1.00  0.00     0.042 A 
ATOM     21  C   UNL A   1      33.729  22.687  24.999  1.00  0.00     0.020 A 
ATOM     22  Br  UNL A   1      34.097  21.628  26.521  1.00  0.00    -0.051 Br
BRANCH  18  23
ATOM     23  N   UNL A   1      30.802  23.580  22.945  1.00  0.00    -0.398 N 
ATOM     24  H   UNL A   1      30.472  22.801  22.442  1.00  0.00     0.156 HD
ATOM     25  H   UNL A   1      30.208  24.347  23.110  1.00  0.00     0.156 HD
ENDBRANCH  18  23
ENDBRANCH  13  16
ENDBRANCH   9  12
ENDBRANCH   3   5
ENDBRANCH   2   3
ENDBRANCH   1   2
BRANCH   1  26
ATOM     26  C   UNL A   1      35.139  31.098  28.575  1.00  0.00     0.275 C 
BRANCH  26  27
ATOM     27  O   UNL A   1      35.857  29.841  28.544  1.00  0.00    -0.458 OA
BRANCH  27  28
ATOM     28  C   UNL A   1      36.638  29.525  29.610  1.00  0.00     0.338 C 
ATOM     29  O   UNL A   1      36.242  29.546  30.771  1.00  0.00    -0.246 OA
BRANCH  28  30
ATOM     30  C   UNL A   1      37.863  28.838  29.123  1.00  0.00     0.060 A 
ATOM     31  C   UNL A   1      38.415  29.188  27.881  1.00  0.00     0.016 A 
ATOM     32  C   UNL A   1      38.624  28.141  30.065  1.00  0.00     0.016 A 
ATOM     33  C   UNL A   1      39.765  28.966  27.634  1.00  0.00     0.010 A 
ATOM     34  C   UNL A   1      39.979  28.084  29.902  1.00  0.00     0.010 A 
ATOM     35  C   UNL A   1      40.539  28.457  28.675  1.00  0.00    -0.014 A 
BRANCH  35  36
ATOM     36  C   UNL A   1      41.873  27.923  28.503  1.00  0.00     0.031 A 
ATOM     37  C   UNL A   1      42.098  26.471  28.350  1.00  0.00     0.074 A 
ATOM     38  C   UNL A   1      42.763  28.941  28.392  1.00  0.00     0.049 A 
ATOM     39  N   UNL A   1      43.188  25.868  28.673  1.00  0.00    -0.248 NA
ATOM     40  C   UNL A   1      41.086  25.528  27.862  1.00  0.00     0.031 C 
ATOM     41  C   UNL A   1      44.154  28.987  27.994  1.00  0.00     0.029 A 
ATOM     42  N   UNL A   1      42.539  30.278  28.736  1.00  0.00    -0.354 N 
ATOM     43  C   UNL A   1      43.150  24.615  28.083  1.00  0.00     0.074 A 
ATOM     44  C   UNL A   1      41.767  24.377  27.779  1.00  0.00     0.031 C 
ATOM     45  C   UNL A   1      44.696  30.122  28.497  1.00  0.00     0.029 A 
ATOM     46  C   UNL A   1      43.680  30.765  29.333  1.00  0.00     0.049 A 
ATOM     47  H   UNL A   1      41.710  30.784  28.580  1.00  0.00     0.167 HD
ATOM     48  C   UNL A   1      44.325  24.039  27.692  1.00  0.00     0.031 A 
ATOM     49  C   UNL A   1      43.729  30.894  30.698  1.00  0.00     0.031 A 
ATOM     50  C   UNL A   1      45.425  24.934  28.042  1.00  0.00     0.049 A 
ATOM     51  C   UNL A   1      44.712  29.873  31.235  1.00  0.00     0.074 A 
ATOM     52  C   UNL A   1      46.075  25.905  27.299  1.00  0.00     0.029 A 
ATOM     53  N   UNL A   1      45.669  25.217  29.379  1.00  0.00    -0.354 N 
ATOM     54  N   UNL A   1      44.844  28.655  30.773  1.00  0.00    -0.248 NA
ATOM     55  C   UNL A   1      45.736  30.230  32.212  1.00  0.00     0.031 C 
ATOM     56  C   UNL A   1      46.606  26.853  28.216  1.00  0.00     0.029 A 
ATOM     57  C   UNL A   1      46.267  26.457  29.501  1.00  0.00     0.049 A 
ATOM     58  H   UNL A   1      45.448  24.621  30.131  1.00  0.00     0.167 HD
ATOM     59  C   UNL A   1      46.021  28.133  31.245  1.00  0.00     0.074 A 
ATOM     60  C   UNL A   1      46.517  29.139  32.175  1.00  0.00     0.031 C 
ATOM     61  C   UNL A   1      46.600  26.972  30.817  1.00  0.00     0.031 A 
BRANCH  48  62
ATOM     62  C   UNL A   1      44.491  22.895  26.709  1.00  0.00    -0.014 A 
ATOM     63  C   UNL A   1      43.446  21.947  26.604  1.00  0.00     0.010 A 
ATOM     64  C   UNL A   1      45.617  22.661  25.896  1.00  0.00     0.010 A 
ATOM     65  C   UNL A   1      43.536  20.807  25.794  1.00  0.00     0.020 A 
ATOM     66  C   UNL A   1      45.725  21.513  25.081  1.00  0.00     0.020 A 
ATOM     67  C   UNL A   1      44.684  20.588  25.043  1.00  0.00     0.054 A 
BRANCH  67  68
ATOM     68  S   UNL A   1      44.775  19.095  24.016  1.00  0.00     0.124 S 
ATOM     69  O   UNL A   1      43.810  18.209  24.665  1.00  0.00    -0.237 OA
ATOM     70  O   UNL A   1      44.383  19.592  22.700  1.00  0.00    -0.237 OA
ATOM     71  O   UNL A   1      46.170  18.677  24.130  1.00  0.00    -0.744 OA
ENDBRANCH  67  68
ENDBRANCH  48  62
BRANCH  49  72
ATOM     72  C   UNL A   1      42.463  31.354  31.379  1.00  0.00    -0.014 A 
ATOM     73  C   UNL A   1      41.969  32.641  31.047  1.00  0.00     0.010 A 
ATOM     74  C   UNL A   1      41.623  30.521  32.140  1.00  0.00     0.010 A 
ATOM     75  C   UNL A   1      40.653  33.029  31.333  1.00  0.00     0.020 A 
ATOM     76  C   UNL A   1      40.301  30.919  32.456  1.00  0.00     0.020 A 
ATOM     77  C   UNL A   1      39.814  32.154  32.017  1.00  0.00     0.054 A 
BRANCH  77  78
ATOM     78  S   UNL A   1      38.037  32.565  32.116  1.00  0.00     0.124 S 
ATOM     79  O   UNL A   1      37.488  31.408  32.814  1.00  0.00    -0.237 OA
ATOM     80  O   UNL A   1      38.054  33.812  32.880  1.00  0.00    -0.237 OA
ATOM     81  O   UNL A   1      37.647  32.699  30.713  1.00  0.00    -0.744 OA
ENDBRANCH  77  78
ENDBRANCH  49  72
BRANCH  61  82
ATOM     82  C   UNL A   1      47.655  26.234  31.593  1.00  0.00    -0.014 A 
ATOM     83  C   UNL A   1      47.406  25.655  32.844  1.00  0.00     0.010 A 
ATOM     84  C   UNL A   1      48.901  25.953  30.981  1.00  0.00     0.010 A 
ATOM     85  C   UNL A   1      48.390  24.923  33.506  1.00  0.00     0.020 A 
ATOM     86  C   UNL A   1      49.862  25.160  31.599  1.00  0.00     0.020 A 
ATOM     87  C   UNL A   1      49.614  24.687  32.881  1.00  0.00     0.054 A 
BRANCH  87  88
ATOM     88  S   UNL A   1      50.867  23.723  33.747  1.00  0.00     0.124 S 
ATOM     89  O   UNL A   1      50.216  23.482  35.032  1.00  0.00    -0.237 OA
ATOM     90  O   UNL A   1      51.022  22.548  32.892  1.00  0.00    -0.237 OA
ATOM     91  O   UNL A   1      52.022  24.615  33.785  1.00  0.00    -0.744 OA
ENDBRANCH  87  88
ENDBRANCH  61  82
ENDBRANCH  35  36
ENDBRANCH  28  30
ENDBRANCH  27  28
ENDBRANCH  26  27
ENDBRANCH   1  26
TORSDOF 17
ENDMDL
