MODEL 1
REMARK VINA RESULT:     -11.1      0.000      0.000
REMARK SMILES C[C@@H](C(=O)OCCOC(=O)c1ccc(-c2c3nc(c(-c4ccc(S(=O)(=O)[O-])cc4)c4ccc([nH]4)c(-c4ccc(S(=O)(=O)[O-])cc4)c4nc(c(-c5ccc(S(=O)(=O)[O-])cc5)c5ccc2[nH]5)C=C4)C=C3)cc1)c1ccc2c3cc(Cl)ccc3n(C(=O)c3ccc(Cl)cc3)c2c1
REMARK SMILES IDX 6 1 5 2 3 3 4 4 2 5 1 6 71 7 72 8 93 9 73 10 92 11 74 12
REMARK SMILES IDX 82 13 75 14 81 15 76 16 80 17 77 18 79 19 78 20 83 21 84 22
REMARK SMILES IDX 85 23 86 24 91 25 87 26 90 27 88 28 89 29 7 30 8 31 9 32
REMARK SMILES IDX 10 33 11 34 12 35 70 36 13 37 69 38 14 39 15 40 16 41 63 42
REMARK SMILES IDX 17 43 68 44 62 45 64 46 18 47 67 48 61 49 60 50 19 52 49 53
REMARK SMILES IDX 30 54 48 55 31 56 34 57 47 58 65 59 32 60 33 61 46 63 66 64
REMARK SMILES IDX 35 65 20 66 21 67 29 68 22 69 28 70 23 71 24 72 25 73 26 74
REMARK SMILES IDX 27 75 50 76 51 77 59 78 52 79 58 80 53 81 54 82 55 83 56 84
REMARK SMILES IDX 57 85 36 86 37 87 45 88 38 89 44 90 39 91 40 92 41 93 42 94
REMARK SMILES IDX 43 95
REMARK H PARENT 64 51 34 62
REMARK Flexibility Score: inf
ROOT
ATOM      1  C   UNL A   1      32.440  32.113  26.666  1.00  0.00     0.274 C 
ENDROOT
BRANCH   1   2
ATOM      2  O   UNL A   1      33.252  31.173  27.391  1.00  0.00    -0.462 OA
BRANCH   2   3
ATOM      3  C   UNL A   1      32.781  29.897  27.432  1.00  0.00     0.313 C 
ATOM      4  O   UNL A   1      31.621  29.605  27.671  1.00  0.00    -0.252 OA
BRANCH   3   5
ATOM      5  C   UNL A   1      33.876  28.855  27.171  1.00  0.00     0.126 C 
ATOM      6  C   UNL A   1      35.306  29.402  27.148  1.00  0.00     0.025 C 
BRANCH   5   7
ATOM      7  C   UNL A   1      33.525  28.085  25.910  1.00  0.00    -0.032 A 
ATOM      8  C   UNL A   1      32.977  28.782  24.827  1.00  0.00     0.005 A 
ATOM      9  C   UNL A   1      33.857  26.726  25.776  1.00  0.00     0.032 A 
ATOM     10  C   UNL A   1      32.797  28.155  23.599  1.00  0.00     0.011 A 
ATOM     11  C   UNL A   1      33.631  26.085  24.547  1.00  0.00     0.057 A 
ATOM     12  C   UNL A   1      33.141  26.796  23.458  1.00  0.00     0.008 A 
ATOM     13  N   UNL A   1      33.896  24.759  24.159  1.00  0.00    -0.276 N 
ATOM     14  C   UNL A   1      33.112  25.915  22.355  1.00  0.00     0.009 A 
ATOM     15  C   UNL A   1      33.440  24.631  22.825  1.00  0.00     0.057 A 
ATOM     16  C   UNL A   1      32.785  26.135  20.998  1.00  0.00     0.031 A 
ATOM     17  C   UNL A   1      33.215  23.530  21.974  1.00  0.00     0.029 A 
ATOM     18  C   UNL A   1      32.701  25.055  20.134  1.00  0.00     0.041 A 
ATOM     19  C   UNL A   1      32.872  23.767  20.623  1.00  0.00     0.023 A 
ATOM     20  Cl  UNL A   1      32.335  25.333  18.475  1.00  0.00    -0.084 Cl
BRANCH  13  21
ATOM     21  C   UNL A   1      34.351  23.770  25.102  1.00  0.00     0.262 C 
ATOM     22  O   UNL A   1      33.504  23.420  25.928  1.00  0.00    -0.268 OA
BRANCH  21  23
ATOM     23  C   UNL A   1      35.726  23.181  25.321  1.00  0.00     0.040 A 
ATOM     24  C   UNL A   1      36.728  23.956  25.922  1.00  0.00     0.015 A 
ATOM     25  C   UNL A   1      36.137  21.954  24.812  1.00  0.00     0.015 A 
ATOM     26  C   UNL A   1      38.027  23.451  26.138  1.00  0.00     0.021 A 
ATOM     27  C   UNL A   1      37.397  21.391  25.101  1.00  0.00     0.021 A 
ATOM     28  C   UNL A   1      38.341  22.147  25.776  1.00  0.00     0.041 A 
ATOM     29  Cl  UNL A   1      39.895  21.490  26.109  1.00  0.00    -0.084 Cl
ENDBRANCH  21  23
ENDBRANCH  13  21
ENDBRANCH   5   7
ENDBRANCH   3   5
ENDBRANCH   2   3
ENDBRANCH   1   2
BRANCH   1  30
ATOM     30  C   UNL A   1      31.918  33.214  27.590  1.00  0.00     0.275 C 
BRANCH  30  31
ATOM     31  O   UNL A   1      32.900  34.253  27.809  1.00  0.00    -0.458 OA
BRANCH  31  32
ATOM     32  C   UNL A   1      33.306  34.417  29.085  1.00  0.00     0.338 C 
ATOM     33  O   UNL A   1      32.755  35.098  29.950  1.00  0.00    -0.246 OA
BRANCH  32  34
ATOM     34  C   UNL A   1      34.529  33.648  29.390  1.00  0.00     0.060 A 
ATOM     35  C   UNL A   1      34.408  32.533  30.207  1.00  0.00     0.016 A 
ATOM     36  C   UNL A   1      35.804  34.176  29.136  1.00  0.00     0.016 A 
ATOM     37  C   UNL A   1      35.537  32.037  30.873  1.00  0.00     0.010 A 
ATOM     38  C   UNL A   1      36.948  33.637  29.778  1.00  0.00     0.010 A 
ATOM     39  C   UNL A   1      36.821  32.603  30.718  1.00  0.00    -0.014 A 
BRANCH  39  40
ATOM     40  C   UNL A   1      37.972  32.072  31.534  1.00  0.00     0.031 A 
ATOM     41  C   UNL A   1      38.948  31.004  31.067  1.00  0.00     0.074 A 
ATOM     42  C   UNL A   1      38.285  32.702  32.674  1.00  0.00     0.049 A 
ATOM     43  N   UNL A   1      39.821  30.244  31.681  1.00  0.00    -0.248 NA
ATOM     44  C   UNL A   1      38.967  30.796  29.638  1.00  0.00     0.031 C 
ATOM     45  C   UNL A   1      37.557  33.837  33.240  1.00  0.00     0.029 A 
ATOM     46  N   UNL A   1      39.325  32.490  33.533  1.00  0.00    -0.354 N 
ATOM     47  C   UNL A   1      40.405  29.432  30.688  1.00  0.00     0.074 A 
ATOM     48  C   UNL A   1      39.766  29.762  29.444  1.00  0.00     0.031 C 
ATOM     49  C   UNL A   1      38.193  34.242  34.345  1.00  0.00     0.029 A 
ATOM     50  C   UNL A   1      39.300  33.330  34.610  1.00  0.00     0.049 A 
ATOM     51  H   UNL A   1      40.018  31.805  33.391  1.00  0.00     0.167 HD
ATOM     52  C   UNL A   1      41.454  28.575  30.761  1.00  0.00     0.031 A 
ATOM     53  C   UNL A   1      40.042  33.316  35.729  1.00  0.00     0.031 A 
ATOM     54  C   UNL A   1      42.250  28.431  31.944  1.00  0.00     0.049 A 
ATOM     55  C   UNL A   1      41.120  32.288  35.881  1.00  0.00     0.074 A 
ATOM     56  C   UNL A   1      43.302  27.570  32.195  1.00  0.00     0.029 A 
ATOM     57  N   UNL A   1      42.122  29.251  33.052  1.00  0.00    -0.354 N 
ATOM     58  N   UNL A   1      41.500  31.357  35.038  1.00  0.00    -0.248 NA
ATOM     59  C   UNL A   1      41.858  32.303  37.147  1.00  0.00     0.031 C 
ATOM     60  C   UNL A   1      43.808  27.871  33.465  1.00  0.00     0.029 A 
ATOM     61  C   UNL A   1      43.083  28.932  33.986  1.00  0.00     0.049 A 
ATOM     62  H   UNL A   1      41.443  29.957  33.157  1.00  0.00     0.167 HD
ATOM     63  C   UNL A   1      42.528  30.672  35.673  1.00  0.00     0.074 A 
ATOM     64  C   UNL A   1      42.722  31.314  36.960  1.00  0.00     0.031 C 
ATOM     65  C   UNL A   1      43.244  29.602  35.247  1.00  0.00     0.031 A 
BRANCH  52  66
ATOM     66  C   UNL A   1      41.815  27.741  29.548  1.00  0.00    -0.014 A 
ATOM     67  C   UNL A   1      40.969  26.733  29.047  1.00  0.00     0.010 A 
ATOM     68  C   UNL A   1      43.015  28.013  28.862  1.00  0.00     0.010 A 
ATOM     69  C   UNL A   1      41.342  25.981  27.921  1.00  0.00     0.020 A 
ATOM     70  C   UNL A   1      43.380  27.279  27.726  1.00  0.00     0.020 A 
ATOM     71  C   UNL A   1      42.554  26.250  27.276  1.00  0.00     0.054 A 
BRANCH  71  72
ATOM     72  S   UNL A   1      43.026  25.260  25.825  1.00  0.00     0.124 S 
ATOM     73  O   UNL A   1      42.538  26.089  24.727  1.00  0.00    -0.237 OA
ATOM     74  O   UNL A   1      44.479  25.174  25.947  1.00  0.00    -0.237 OA
ATOM     75  O   UNL A   1      42.313  23.999  26.020  1.00  0.00    -0.744 OA
ENDBRANCH  71  72
ENDBRANCH  52  66
BRANCH  53  76
ATOM     76  C   UNL A   1      39.674  34.263  36.808  1.00  0.00    -0.014 A 
ATOM     77  C   UNL A   1      38.900  33.848  37.900  1.00  0.00     0.010 A 
ATOM     78  C   UNL A   1      40.227  35.559  36.798  1.00  0.00     0.010 A 
ATOM     79  C   UNL A   1      38.697  34.714  38.976  1.00  0.00     0.020 A 
ATOM     80  C   UNL A   1      40.055  36.412  37.885  1.00  0.00     0.020 A 
ATOM     81  C   UNL A   1      39.284  35.986  38.967  1.00  0.00     0.054 A 
BRANCH  81  82
ATOM     82  S   UNL A   1      39.105  37.053  40.420  1.00  0.00     0.124 S 
ATOM     83  O   UNL A   1      40.486  37.452  40.671  1.00  0.00    -0.237 OA
ATOM     84  O   UNL A   1      38.217  38.108  39.938  1.00  0.00    -0.237 OA
ATOM     85  O   UNL A   1      38.515  36.166  41.421  1.00  0.00    -0.744 OA
ENDBRANCH  81  82
ENDBRANCH  53  76
BRANCH  65  86
ATOM     86  C   UNL A   1      44.292  29.072  36.173  1.00  0.00    -0.014 A 
ATOM     87  C   UNL A   1      44.051  27.903  36.914  1.00  0.00     0.010 A 
ATOM     88  C   UNL A   1      45.544  29.706  36.253  1.00  0.00     0.010 A 
ATOM     89  C   UNL A   1      45.043  27.387  37.746  1.00  0.00     0.020 A 
ATOM     90  C   UNL A   1      46.544  29.180  37.069  1.00  0.00     0.020 A 
ATOM     91  C   UNL A   1      46.283  28.030  37.819  1.00  0.00     0.054 A 
BRANCH  91  92
ATOM     92  S   UNL A   1      47.572  27.312  38.872  1.00  0.00     0.124 S 
ATOM     93  O   UNL A   1      46.914  27.283  40.175  1.00  0.00    -0.237 OA
ATOM     94  O   UNL A   1      47.802  26.009  38.255  1.00  0.00    -0.237 OA
ATOM     95  O   UNL A   1      48.681  28.257  38.752  1.00  0.00    -0.744 OA
ENDBRANCH  91  92
ENDBRANCH  65  86
ENDBRANCH  39  40
ENDBRANCH  32  34
ENDBRANCH  31  32
ENDBRANCH  30  31
ENDBRANCH   1  30
TORSDOF 17
ENDMDL
MODEL 2
REMARK VINA RESULT:     -10.9      5.337     15.908
REMARK SMILES C[C@@H](C(=O)OCCOC(=O)c1ccc(-c2c3nc(c(-c4ccc(S(=O)(=O)[O-])cc4)c4ccc([nH]4)c(-c4ccc(S(=O)(=O)[O-])cc4)c4nc(c(-c5ccc(S(=O)(=O)[O-])cc5)c5ccc2[nH]5)C=C4)C=C3)cc1)c1ccc2c3cc(Cl)ccc3n(C(=O)c3ccc(Cl)cc3)c2c1
REMARK SMILES IDX 6 1 5 2 3 3 4 4 2 5 1 6 71 7 72 8 93 9 73 10 92 11 74 12
REMARK SMILES IDX 82 13 75 14 81 15 76 16 80 17 77 18 79 19 78 20 83 21 84 22
REMARK SMILES IDX 85 23 86 24 91 25 87 26 90 27 88 28 89 29 7 30 8 31 9 32
REMARK SMILES IDX 10 33 11 34 12 35 70 36 13 37 69 38 14 39 15 40 16 41 63 42
REMARK SMILES IDX 17 43 68 44 62 45 64 46 18 47 67 48 61 49 60 50 19 52 49 53
REMARK SMILES IDX 30 54 48 55 31 56 34 57 47 58 65 59 32 60 33 61 46 63 66 64
REMARK SMILES IDX 35 65 20 66 21 67 29 68 22 69 28 70 23 71 24 72 25 73 26 74
REMARK SMILES IDX 27 75 50 76 51 77 59 78 52 79 58 80 53 81 54 82 55 83 56 84
REMARK SMILES IDX 57 85 36 86 37 87 45 88 38 89 44 90 39 91 40 92 41 93 42 94
REMARK SMILES IDX 43 95
REMARK H PARENT 64 51 34 62
REMARK Flexibility Score: inf
ROOT
ATOM      1  C   UNL A   1      49.457  24.204  39.180  1.00  0.00     0.274 C 
ENDROOT
BRANCH   1   2
ATOM      2  O   UNL A   1      49.663  22.852  38.734  1.00  0.00    -0.462 OA
BRANCH   2   3
ATOM      3  C   UNL A   1      49.934  21.945  39.712  1.00  0.00     0.313 C 
ATOM      4  O   UNL A   1      49.873  22.189  40.905  1.00  0.00    -0.252 OA
BRANCH   3   5
ATOM      5  C   UNL A   1      50.351  20.580  39.151  1.00  0.00     0.126 C 
ATOM      6  C   UNL A   1      50.920  20.604  37.729  1.00  0.00     0.025 C 
BRANCH   5   7
ATOM      7  C   UNL A   1      49.186  19.616  39.297  1.00  0.00    -0.032 A 
ATOM      8  C   UNL A   1      49.108  18.826  40.449  1.00  0.00     0.005 A 
ATOM      9  C   UNL A   1      48.137  19.603  38.362  1.00  0.00     0.032 A 
ATOM     10  C   UNL A   1      47.978  18.056  40.705  1.00  0.00     0.011 A 
ATOM     11  C   UNL A   1      47.018  18.789  38.601  1.00  0.00     0.057 A 
ATOM     12  C   UNL A   1      46.919  18.050  39.775  1.00  0.00     0.008 A 
ATOM     13  N   UNL A   1      45.846  18.619  37.843  1.00  0.00    -0.276 N 
ATOM     14  C   UNL A   1      45.657  17.417  39.773  1.00  0.00     0.009 A 
ATOM     15  C   UNL A   1      45.063  17.654  38.520  1.00  0.00     0.057 A 
ATOM     16  C   UNL A   1      45.012  16.625  40.749  1.00  0.00     0.031 A 
ATOM     17  C   UNL A   1      43.922  16.904  38.169  1.00  0.00     0.029 A 
ATOM     18  C   UNL A   1      43.816  16.000  40.437  1.00  0.00     0.041 A 
ATOM     19  C   UNL A   1      43.299  16.103  39.153  1.00  0.00     0.023 A 
ATOM     20  Cl  UNL A   1      43.018  15.064  41.641  1.00  0.00    -0.084 Cl
BRANCH  13  21
ATOM     21  C   UNL A   1      45.694  19.214  36.539  1.00  0.00     0.262 C 
ATOM     22  O   UNL A   1      45.561  18.405  35.618  1.00  0.00    -0.268 OA
BRANCH  21  23
ATOM     23  C   UNL A   1      45.793  20.658  36.102  1.00  0.00     0.040 A 
ATOM     24  C   UNL A   1      46.266  20.967  34.819  1.00  0.00     0.015 A 
ATOM     25  C   UNL A   1      45.601  21.743  36.952  1.00  0.00     0.015 A 
ATOM     26  C   UNL A   1      46.383  22.300  34.372  1.00  0.00     0.021 A 
ATOM     27  C   UNL A   1      45.617  23.078  36.498  1.00  0.00     0.021 A 
ATOM     28  C   UNL A   1      46.004  23.351  35.197  1.00  0.00     0.041 A 
ATOM     29  Cl  UNL A   1      46.062  24.976  34.637  1.00  0.00    -0.084 Cl
ENDBRANCH  21  23
ENDBRANCH  13  21
ENDBRANCH   5   7
ENDBRANCH   3   5
ENDBRANCH   2   3
ENDBRANCH   1   2
BRANCH   1  30
ATOM     30  C   UNL A   1      48.386  24.901  38.340  1.00  0.00     0.275 C 
BRANCH  30  31
ATOM     31  O   UNL A   1      47.387  25.550  39.160  1.00  0.00    -0.458 OA
BRANCH  31  32
ATOM     32  C   UNL A   1      47.183  26.860  38.911  1.00  0.00     0.338 C 
ATOM     33  O   UNL A   1      47.715  27.809  39.486  1.00  0.00    -0.246 OA
BRANCH  32  34
ATOM     34  C   UNL A   1      46.228  27.081  37.807  1.00  0.00     0.060 A 
ATOM     35  C   UNL A   1      46.512  28.088  36.895  1.00  0.00     0.016 A 
ATOM     36  C   UNL A   1      44.939  26.527  37.837  1.00  0.00     0.016 A 
ATOM     37  C   UNL A   1      45.480  28.627  36.116  1.00  0.00     0.010 A 
ATOM     38  C   UNL A   1      43.911  27.050  37.010  1.00  0.00     0.010 A 
ATOM     39  C   UNL A   1      44.149  28.162  36.189  1.00  0.00    -0.014 A 
BRANCH  39  40
ATOM     40  C   UNL A   1      43.074  28.850  35.386  1.00  0.00     0.031 A 
ATOM     41  C   UNL A   1      42.219  30.003  35.888  1.00  0.00     0.074 A 
ATOM     42  C   UNL A   1      42.977  28.566  34.081  1.00  0.00     0.049 A 
ATOM     43  N   UNL A   1      41.104  30.551  35.473  1.00  0.00    -0.248 NA
ATOM     44  C   UNL A   1      42.754  30.684  37.043  1.00  0.00     0.031 C 
ATOM     45  C   UNL A   1      43.792  27.583  33.367  1.00  0.00     0.029 A 
ATOM     46  N   UNL A   1      42.171  29.112  33.124  1.00  0.00    -0.354 N 
ATOM     47  C   UNL A   1      40.802  31.577  36.389  1.00  0.00     0.074 A 
ATOM     48  C   UNL A   1      41.825  31.553  37.400  1.00  0.00     0.031 C 
ATOM     49  C   UNL A   1      43.461  27.616  32.071  1.00  0.00     0.029 A 
ATOM     50  C   UNL A   1      42.347  28.542  31.895  1.00  0.00     0.049 A 
ATOM     51  H   UNL A   1      41.531  29.840  33.302  1.00  0.00     0.167 HD
ATOM     52  C   UNL A   1      39.842  32.535  36.351  1.00  0.00     0.031 A 
ATOM     53  C   UNL A   1      41.636  28.692  30.767  1.00  0.00     0.031 A 
ATOM     54  C   UNL A   1      38.978  32.713  35.221  1.00  0.00     0.049 A 
ATOM     55  C   UNL A   1      40.485  29.652  30.748  1.00  0.00     0.074 A 
ATOM     56  C   UNL A   1      37.924  33.593  35.052  1.00  0.00     0.029 A 
ATOM     57  N   UNL A   1      39.141  32.038  34.023  1.00  0.00    -0.354 N 
ATOM     58  N   UNL A   1      40.048  30.437  31.704  1.00  0.00    -0.248 NA
ATOM     59  C   UNL A   1      39.725  29.729  29.498  1.00  0.00     0.031 C 
ATOM     60  C   UNL A   1      37.448  33.443  33.744  1.00  0.00     0.029 A 
ATOM     61  C   UNL A   1      38.222  32.489  33.101  1.00  0.00     0.049 A 
ATOM     62  H   UNL A   1      39.815  31.340  33.856  1.00  0.00     0.167 HD
ATOM     63  C   UNL A   1      38.956  31.108  31.168  1.00  0.00     0.074 A 
ATOM     64  C   UNL A   1      38.819  30.650  29.798  1.00  0.00     0.031 C 
ATOM     65  C   UNL A   1      38.128  32.011  31.750  1.00  0.00     0.031 A 
BRANCH  52  66
ATOM     66  C   UNL A   1      39.675  33.465  37.536  1.00  0.00    -0.014 A 
ATOM     67  C   UNL A   1      40.368  34.686  37.639  1.00  0.00     0.010 A 
ATOM     68  C   UNL A   1      38.757  33.126  38.549  1.00  0.00     0.010 A 
ATOM     69  C   UNL A   1      40.188  35.518  38.756  1.00  0.00     0.020 A 
ATOM     70  C   UNL A   1      38.559  33.964  39.654  1.00  0.00     0.020 A 
ATOM     71  C   UNL A   1      39.294  35.144  39.764  1.00  0.00     0.054 A 
BRANCH  71  72
ATOM     72  S   UNL A   1      39.079  36.228  41.209  1.00  0.00     0.124 S 
ATOM     73  O   UNL A   1      38.706  37.492  40.579  1.00  0.00    -0.237 OA
ATOM     74  O   UNL A   1      38.016  35.566  41.960  1.00  0.00    -0.237 OA
ATOM     75  O   UNL A   1      40.392  36.214  41.850  1.00  0.00    -0.744 OA
ENDBRANCH  71  72
ENDBRANCH  52  66
BRANCH  53  76
ATOM     76  C   UNL A   1      41.967  27.809  29.624  1.00  0.00    -0.014 A 
ATOM     77  C   UNL A   1      41.137  26.734  29.279  1.00  0.00     0.010 A 
ATOM     78  C   UNL A   1      43.057  28.143  28.796  1.00  0.00     0.010 A 
ATOM     79  C   UNL A   1      41.386  26.013  28.109  1.00  0.00     0.020 A 
ATOM     80  C   UNL A   1      43.287  27.448  27.611  1.00  0.00     0.020 A 
ATOM     81  C   UNL A   1      42.452  26.381  27.278  1.00  0.00     0.054 A 
BRANCH  81  82
ATOM     82  S   UNL A   1      42.692  25.508  25.708  1.00  0.00     0.124 S 
ATOM     83  O   UNL A   1      41.624  26.068  24.887  1.00  0.00    -0.237 OA
ATOM     84  O   UNL A   1      44.049  25.891  25.331  1.00  0.00    -0.237 OA
ATOM     85  O   UNL A   1      42.532  24.102  26.075  1.00  0.00    -0.744 OA
ENDBRANCH  81  82
ENDBRANCH  53  76
BRANCH  65  86
ATOM     86  C   UNL A   1      37.018  32.557  30.909  1.00  0.00    -0.014 A 
ATOM     87  C   UNL A   1      37.252  33.649  30.056  1.00  0.00     0.010 A 
ATOM     88  C   UNL A   1      35.757  31.936  30.922  1.00  0.00     0.010 A 
ATOM     89  C   UNL A   1      36.228  34.131  29.243  1.00  0.00     0.020 A 
ATOM     90  C   UNL A   1      34.738  32.404  30.094  1.00  0.00     0.020 A 
ATOM     91  C   UNL A   1      34.976  33.506  29.268  1.00  0.00     0.054 A 
BRANCH  91  92
ATOM     92  S   UNL A   1      33.677  34.123  28.167  1.00  0.00     0.124 S 
ATOM     93  O   UNL A   1      33.129  32.882  27.624  1.00  0.00    -0.237 OA
ATOM     94  O   UNL A   1      32.799  34.850  29.079  1.00  0.00    -0.237 OA
ATOM     95  O   UNL A   1      34.402  34.957  27.211  1.00  0.00    -0.744 OA
ENDBRANCH  91  92
ENDBRANCH  65  86
ENDBRANCH  39  40
ENDBRANCH  32  34
ENDBRANCH  31  32
ENDBRANCH  30  31
ENDBRANCH   1  30
TORSDOF 17
ENDMDL
MODEL 3
REMARK VINA RESULT:     -10.6      5.016     15.275
REMARK SMILES C[C@@H](C(=O)OCCOC(=O)c1ccc(-c2c3nc(c(-c4ccc(S(=O)(=O)[O-])cc4)c4ccc([nH]4)c(-c4ccc(S(=O)(=O)[O-])cc4)c4nc(c(-c5ccc(S(=O)(=O)[O-])cc5)c5ccc2[nH]5)C=C4)C=C3)cc1)c1ccc2c3cc(Cl)ccc3n(C(=O)c3ccc(Cl)cc3)c2c1
REMARK SMILES IDX 6 1 5 2 3 3 4 4 2 5 1 6 71 7 72 8 93 9 73 10 92 11 74 12
REMARK SMILES IDX 82 13 75 14 81 15 76 16 80 17 77 18 79 19 78 20 83 21 84 22
REMARK SMILES IDX 85 23 86 24 91 25 87 26 90 27 88 28 89 29 7 30 8 31 9 32
REMARK SMILES IDX 10 33 11 34 12 35 70 36 13 37 69 38 14 39 15 40 16 41 63 42
REMARK SMILES IDX 17 43 68 44 62 45 64 46 18 47 67 48 61 49 60 50 19 52 49 53
REMARK SMILES IDX 30 54 48 55 31 56 34 57 47 58 65 59 32 60 33 61 46 63 66 64
REMARK SMILES IDX 35 65 20 66 21 67 29 68 22 69 28 70 23 71 24 72 25 73 26 74
REMARK SMILES IDX 27 75 50 76 51 77 59 78 52 79 58 80 53 81 54 82 55 83 56 84
REMARK SMILES IDX 57 85 36 86 37 87 45 88 38 89 44 90 39 91 40 92 41 93 42 94
REMARK SMILES IDX 43 95
REMARK H PARENT 64 51 34 62
REMARK Flexibility Score: inf
ROOT
ATOM      1  C   UNL A   1      49.758  24.701  39.558  1.00  0.00     0.274 C 
ENDROOT
BRANCH   1   2
ATOM      2  O   UNL A   1      50.087  23.327  39.291  1.00  0.00    -0.462 OA
BRANCH   2   3
ATOM      3  C   UNL A   1      49.846  22.455  40.308  1.00  0.00     0.313 C 
ATOM      4  O   UNL A   1      50.179  22.648  41.465  1.00  0.00    -0.252 OA
BRANCH   3   5
ATOM      5  C   UNL A   1      49.131  21.183  39.837  1.00  0.00     0.126 C 
ATOM      6  C   UNL A   1      50.030  20.134  39.175  1.00  0.00     0.025 C 
BRANCH   5   7
ATOM      7  C   UNL A   1      47.955  21.581  38.962  1.00  0.00    -0.032 A 
ATOM      8  C   UNL A   1      46.909  22.313  39.534  1.00  0.00     0.005 A 
ATOM      9  C   UNL A   1      47.968  21.335  37.578  1.00  0.00     0.032 A 
ATOM     10  C   UNL A   1      45.897  22.842  38.739  1.00  0.00     0.011 A 
ATOM     11  C   UNL A   1      46.920  21.832  36.786  1.00  0.00     0.057 A 
ATOM     12  C   UNL A   1      45.914  22.608  37.350  1.00  0.00     0.008 A 
ATOM     13  N   UNL A   1      46.718  21.741  35.397  1.00  0.00    -0.276 N 
ATOM     14  C   UNL A   1      45.070  23.035  36.301  1.00  0.00     0.009 A 
ATOM     15  C   UNL A   1      45.485  22.382  35.126  1.00  0.00     0.057 A 
ATOM     16  C   UNL A   1      43.956  23.903  36.299  1.00  0.00     0.031 A 
ATOM     17  C   UNL A   1      44.638  22.430  34.000  1.00  0.00     0.029 A 
ATOM     18  C   UNL A   1      43.207  24.049  35.143  1.00  0.00     0.041 A 
ATOM     19  C   UNL A   1      43.518  23.292  34.022  1.00  0.00     0.023 A 
ATOM     20  Cl  UNL A   1      41.871  25.134  35.138  1.00  0.00    -0.084 Cl
BRANCH  13  21
ATOM     21  C   UNL A   1      47.571  20.940  34.557  1.00  0.00     0.262 C 
ATOM     22  O   UNL A   1      47.047  19.909  34.128  1.00  0.00    -0.268 OA
BRANCH  21  23
ATOM     23  C   UNL A   1      49.036  21.093  34.216  1.00  0.00     0.040 A 
ATOM     24  C   UNL A   1      49.880  19.974  34.252  1.00  0.00     0.015 A 
ATOM     25  C   UNL A   1      49.666  22.318  34.022  1.00  0.00     0.015 A 
ATOM     26  C   UNL A   1      51.255  20.072  33.950  1.00  0.00     0.021 A 
ATOM     27  C   UNL A   1      51.014  22.427  33.623  1.00  0.00     0.021 A 
ATOM     28  C   UNL A   1      51.807  21.292  33.582  1.00  0.00     0.041 A 
ATOM     29  Cl  UNL A   1      53.461  21.410  33.129  1.00  0.00    -0.084 Cl
ENDBRANCH  21  23
ENDBRANCH  13  21
ENDBRANCH   5   7
ENDBRANCH   3   5
ENDBRANCH   2   3
ENDBRANCH   1   2
BRANCH   1  30
ATOM     30  C   UNL A   1      48.746  25.231  38.543  1.00  0.00     0.275 C 
BRANCH  30  31
ATOM     31  O   UNL A   1      47.599  25.839  39.183  1.00  0.00    -0.458 OA
BRANCH  31  32
ATOM     32  C   UNL A   1      47.380  27.136  38.883  1.00  0.00     0.338 C 
ATOM     33  O   UNL A   1      47.936  28.111  39.387  1.00  0.00    -0.246 OA
BRANCH  32  34
ATOM     34  C   UNL A   1      46.371  27.304  37.818  1.00  0.00     0.060 A 
ATOM     35  C   UNL A   1      46.648  28.204  36.798  1.00  0.00     0.016 A 
ATOM     36  C   UNL A   1      45.060  26.827  37.973  1.00  0.00     0.016 A 
ATOM     37  C   UNL A   1      45.598  28.724  36.030  1.00  0.00     0.010 A 
ATOM     38  C   UNL A   1      44.011  27.325  37.159  1.00  0.00     0.010 A 
ATOM     39  C   UNL A   1      44.253  28.341  36.222  1.00  0.00    -0.014 A 
BRANCH  39  40
ATOM     40  C   UNL A   1      43.166  29.008  35.418  1.00  0.00     0.031 A 
ATOM     41  C   UNL A   1      42.309  30.165  35.907  1.00  0.00     0.074 A 
ATOM     42  C   UNL A   1      43.058  28.699  34.119  1.00  0.00     0.049 A 
ATOM     43  N   UNL A   1      41.187  30.699  35.493  1.00  0.00    -0.248 NA
ATOM     44  C   UNL A   1      42.852  30.870  37.044  1.00  0.00     0.031 C 
ATOM     45  C   UNL A   1      43.870  27.708  33.415  1.00  0.00     0.029 A 
ATOM     46  N   UNL A   1      42.238  29.223  33.161  1.00  0.00    -0.354 N 
ATOM     47  C   UNL A   1      40.889  31.740  36.394  1.00  0.00     0.074 A 
ATOM     48  C   UNL A   1      41.921  31.741  37.394  1.00  0.00     0.031 C 
ATOM     49  C   UNL A   1      43.526  27.716  32.122  1.00  0.00     0.029 A 
ATOM     50  C   UNL A   1      42.405  28.632  31.941  1.00  0.00     0.049 A 
ATOM     51  H   UNL A   1      41.597  29.951  33.331  1.00  0.00     0.167 HD
ATOM     52  C   UNL A   1      39.923  32.692  36.347  1.00  0.00     0.031 A 
ATOM     53  C   UNL A   1      41.682  28.758  30.817  1.00  0.00     0.031 A 
ATOM     54  C   UNL A   1      39.046  32.845  35.224  1.00  0.00     0.049 A 
ATOM     55  C   UNL A   1      40.526  29.710  30.793  1.00  0.00     0.074 A 
ATOM     56  C   UNL A   1      37.986  33.715  35.049  1.00  0.00     0.029 A 
ATOM     57  N   UNL A   1      39.202  32.149  34.037  1.00  0.00    -0.354 N 
ATOM     58  N   UNL A   1      40.094  30.510  31.738  1.00  0.00    -0.248 NA
ATOM     59  C   UNL A   1      39.753  29.761  29.549  1.00  0.00     0.031 C 
ATOM     60  C   UNL A   1      37.498  33.539  33.749  1.00  0.00     0.029 A 
ATOM     61  C   UNL A   1      38.271  32.577  33.116  1.00  0.00     0.049 A 
ATOM     62  H   UNL A   1      39.878  31.451  33.876  1.00  0.00     0.167 HD
ATOM     63  C   UNL A   1      38.993  31.166  31.201  1.00  0.00     0.074 A 
ATOM     64  C   UNL A   1      38.844  30.682  29.841  1.00  0.00     0.031 C 
ATOM     65  C   UNL A   1      38.166  32.075  31.775  1.00  0.00     0.031 A 
BRANCH  52  66
ATOM     66  C   UNL A   1      39.763  33.643  37.517  1.00  0.00    -0.014 A 
ATOM     67  C   UNL A   1      40.403  34.896  37.563  1.00  0.00     0.010 A 
ATOM     68  C   UNL A   1      38.904  33.288  38.576  1.00  0.00     0.010 A 
ATOM     69  C   UNL A   1      40.231  35.746  38.667  1.00  0.00     0.020 A 
ATOM     70  C   UNL A   1      38.713  34.143  39.669  1.00  0.00     0.020 A 
ATOM     71  C   UNL A   1      39.397  35.357  39.721  1.00  0.00     0.054 A 
BRANCH  71  72
ATOM     72  S   UNL A   1      39.193  36.467  41.148  1.00  0.00     0.124 S 
ATOM     73  O   UNL A   1      38.621  37.655  40.522  1.00  0.00    -0.237 OA
ATOM     74  O   UNL A   1      38.287  35.719  42.016  1.00  0.00    -0.237 OA
ATOM     75  O   UNL A   1      40.552  36.624  41.661  1.00  0.00    -0.744 OA
ENDBRANCH  71  72
ENDBRANCH  52  66
BRANCH  53  76
ATOM     76  C   UNL A   1      42.006  27.856  29.687  1.00  0.00    -0.014 A 
ATOM     77  C   UNL A   1      41.201  26.747  29.394  1.00  0.00     0.010 A 
ATOM     78  C   UNL A   1      43.061  28.201  28.818  1.00  0.00     0.010 A 
ATOM     79  C   UNL A   1      41.438  26.003  28.236  1.00  0.00     0.020 A 
ATOM     80  C   UNL A   1      43.277  27.482  27.645  1.00  0.00     0.020 A 
ATOM     81  C   UNL A   1      42.466  26.382  27.364  1.00  0.00     0.054 A 
BRANCH  81  82
ATOM     82  S   UNL A   1      42.687  25.476  25.810  1.00  0.00     0.124 S 
ATOM     83  O   UNL A   1      43.978  25.976  25.352  1.00  0.00    -0.237 OA
ATOM     84  O   UNL A   1      42.663  24.082  26.244  1.00  0.00    -0.237 OA
ATOM     85  O   UNL A   1      41.533  25.888  25.012  1.00  0.00    -0.744 OA
ENDBRANCH  81  82
ENDBRANCH  53  76
BRANCH  65  86
ATOM     86  C   UNL A   1      37.044  32.599  30.935  1.00  0.00    -0.014 A 
ATOM     87  C   UNL A   1      37.271  33.654  30.036  1.00  0.00     0.010 A 
ATOM     88  C   UNL A   1      35.778  31.992  30.998  1.00  0.00     0.010 A 
ATOM     89  C   UNL A   1      36.236  34.114  29.224  1.00  0.00     0.020 A 
ATOM     90  C   UNL A   1      34.746  32.439  30.173  1.00  0.00     0.020 A 
ATOM     91  C   UNL A   1      34.978  33.505  29.300  1.00  0.00     0.054 A 
BRANCH  91  92
ATOM     92  S   UNL A   1      33.663  34.091  28.201  1.00  0.00     0.124 S 
ATOM     93  O   UNL A   1      34.404  34.935  27.268  1.00  0.00    -0.237 OA
ATOM     94  O   UNL A   1      33.133  32.850  27.641  1.00  0.00    -0.237 OA
ATOM     95  O   UNL A   1      32.754  34.801  29.099  1.00  0.00    -0.744 OA
ENDBRANCH  91  92
ENDBRANCH  65  86
ENDBRANCH  39  40
ENDBRANCH  32  34
ENDBRANCH  31  32
ENDBRANCH  30  31
ENDBRANCH   1  30
TORSDOF 17
ENDMDL
