MODEL 1
REMARK VINA RESULT:      -9.5      0.000      0.000
REMARK SMILES CC[C@H](NC(=O)c1ccc(C)nc1)C(=O)OCCOC(=O)c1ccc(-c2c3nc(c(-c4ccc(S(=O)(=O)[O-])cc4)c4ccc([nH]4)c(-c4ccc(S(=O)(=O)[O-])cc4)c4nc(c(-c5ccc(S(=O)(=O)[O-])cc5)c5ccc2[nH]5)C=C4)C=C3)cc1
REMARK SMILES IDX 18 1 17 2 16 3 14 4 15 5 3 6 2 7 1 8 4 9 5 10 6 12 7 13 8 14
REMARK SMILES IDX 13 15 9 16 12 17 10 18 11 19 19 20 20 21 21 22 22 23 23 24
REMARK SMILES IDX 81 25 24 26 80 27 25 28 26 29 27 30 74 31 28 32 79 33 73 34
REMARK SMILES IDX 75 35 29 36 78 37 72 38 71 39 30 41 60 42 41 43 59 44 42 45
REMARK SMILES IDX 45 46 58 47 76 48 43 49 44 50 57 52 77 53 46 54 31 55 32 56
REMARK SMILES IDX 40 57 33 58 39 59 34 60 35 61 36 62 37 63 38 64 61 65 62 66
REMARK SMILES IDX 70 67 63 68 69 69 64 70 65 71 66 72 67 73 68 74 47 75 48 76
REMARK SMILES IDX 56 77 49 78 55 79 50 80 51 81 52 82 53 83 54 84
REMARK H PARENT 4 11 75 40 45 51
REMARK Flexibility Score: inf
ROOT
ATOM      1  C   UNL A   1      33.213  28.445  26.831  1.00  0.00     0.275 C 
ENDROOT
BRANCH   1   2
ATOM      2  C   UNL A   1      32.083  27.939  25.904  1.00  0.00     0.274 C 
BRANCH   2   3
ATOM      3  O   UNL A   1      32.525  27.599  24.565  1.00  0.00    -0.461 OA
BRANCH   3   4
ATOM      4  C   UNL A   1      31.933  26.491  24.034  1.00  0.00     0.328 C 
ATOM      5  O   UNL A   1      30.716  26.380  23.895  1.00  0.00    -0.250 OA
BRANCH   4   6
ATOM      6  C   UNL A   1      32.917  25.404  23.519  1.00  0.00     0.192 C 
BRANCH   6   7
ATOM      7  C   UNL A   1      33.501  25.957  22.195  1.00  0.00     0.033 C 
ATOM      8  C   UNL A   1      32.665  25.625  20.967  1.00  0.00     0.007 C 
ENDBRANCH   6   7
BRANCH   6   9
ATOM      9  N   UNL A   1      32.473  24.016  23.300  1.00  0.00    -0.339 N 
ATOM     10  C   UNL A   1      33.163  22.828  23.258  1.00  0.00     0.253 C 
ATOM     11  H   UNL A   1      31.503  23.922  23.158  1.00  0.00     0.164 HD
ATOM     12  O   UNL A   1      32.634  21.851  22.728  1.00  0.00    -0.269 OA
BRANCH  10  13
ATOM     13  C   UNL A   1      34.452  22.631  23.926  1.00  0.00     0.058 A 
ATOM     14  C   UNL A   1      35.608  23.014  23.245  1.00  0.00     0.017 A 
ATOM     15  C   UNL A   1      34.579  22.185  25.232  1.00  0.00     0.125 A 
ATOM     16  C   UNL A   1      36.850  22.850  23.858  1.00  0.00     0.024 A 
ATOM     17  N   UNL A   1      35.780  22.018  25.856  1.00  0.00    -0.261 NA
ATOM     18  C   UNL A   1      36.899  22.331  25.151  1.00  0.00     0.037 A 
ATOM     19  C   UNL A   1      38.232  22.056  25.786  1.00  0.00     0.066 C 
ENDBRANCH  10  13
ENDBRANCH   6   9
ENDBRANCH   4   6
ENDBRANCH   3   4
ENDBRANCH   2   3
ENDBRANCH   1   2
BRANCH   1  20
ATOM     20  O   UNL A   1      33.850  29.688  26.445  1.00  0.00    -0.458 OA
BRANCH  20  21
ATOM     21  C   UNL A   1      34.494  30.284  27.465  1.00  0.00     0.338 C 
ATOM     22  O   UNL A   1      34.045  31.212  28.118  1.00  0.00    -0.246 OA
BRANCH  21  23
ATOM     23  C   UNL A   1      35.816  29.788  27.823  1.00  0.00     0.060 A 
ATOM     24  C   UNL A   1      36.023  29.497  29.179  1.00  0.00     0.016 A 
ATOM     25  C   UNL A   1      36.886  29.894  26.937  1.00  0.00     0.016 A 
ATOM     26  C   UNL A   1      37.312  29.322  29.662  1.00  0.00     0.010 A 
ATOM     27  C   UNL A   1      38.181  29.701  27.421  1.00  0.00     0.010 A 
ATOM     28  C   UNL A   1      38.396  29.416  28.782  1.00  0.00    -0.014 A 
BRANCH  28  29
ATOM     29  C   UNL A   1      39.737  29.026  29.257  1.00  0.00     0.031 A 
ATOM     30  C   UNL A   1      40.628  29.973  29.998  1.00  0.00     0.074 A 
ATOM     31  C   UNL A   1      40.125  27.768  28.983  1.00  0.00     0.049 A 
ATOM     32  N   UNL A   1      41.852  29.776  30.414  1.00  0.00    -0.248 NA
ATOM     33  C   UNL A   1      40.084  31.301  30.317  1.00  0.00     0.031 C 
ATOM     34  C   UNL A   1      39.297  26.770  28.295  1.00  0.00     0.029 A 
ATOM     35  N   UNL A   1      41.301  27.118  29.229  1.00  0.00    -0.354 N 
ATOM     36  C   UNL A   1      42.234  30.953  31.043  1.00  0.00     0.074 A 
ATOM     37  C   UNL A   1      41.112  31.865  30.945  1.00  0.00     0.031 C 
ATOM     38  C   UNL A   1      40.001  25.640  28.157  1.00  0.00     0.029 A 
ATOM     39  C   UNL A   1      41.334  25.848  28.710  1.00  0.00     0.049 A 
ATOM     40  H   UNL A   1      42.048  27.519  29.729  1.00  0.00     0.167 HD
ATOM     41  C   UNL A   1      43.418  31.236  31.640  1.00  0.00     0.031 A 
ATOM     42  C   UNL A   1      42.338  24.958  28.651  1.00  0.00     0.031 A 
ATOM     43  C   UNL A   1      44.526  30.315  31.708  1.00  0.00     0.049 A 
ATOM     44  C   UNL A   1      43.654  25.320  29.260  1.00  0.00     0.074 A 
ATOM     45  C   UNL A   1      45.760  30.491  32.311  1.00  0.00     0.029 A 
ATOM     46  N   UNL A   1      44.537  29.046  31.144  1.00  0.00    -0.354 N 
ATOM     47  N   UNL A   1      43.997  26.435  29.860  1.00  0.00    -0.248 NA
ATOM     48  C   UNL A   1      44.714  24.310  29.190  1.00  0.00     0.031 C 
ATOM     49  C   UNL A   1      46.531  29.345  32.077  1.00  0.00     0.029 A 
ATOM     50  C   UNL A   1      45.765  28.439  31.361  1.00  0.00     0.049 A 
ATOM     51  H   UNL A   1      43.784  28.637  30.662  1.00  0.00     0.167 HD
ATOM     52  C   UNL A   1      45.315  26.259  30.253  1.00  0.00     0.074 A 
ATOM     53  C   UNL A   1      45.701  24.925  29.830  1.00  0.00     0.031 C 
ATOM     54  C   UNL A   1      46.130  27.122  30.908  1.00  0.00     0.031 A 
BRANCH  41  55
ATOM     55  C   UNL A   1      43.594  32.605  32.241  1.00  0.00    -0.014 A 
ATOM     56  C   UNL A   1      44.029  33.692  31.463  1.00  0.00     0.010 A 
ATOM     57  C   UNL A   1      43.250  32.823  33.588  1.00  0.00     0.010 A 
ATOM     58  C   UNL A   1      44.141  34.967  32.026  1.00  0.00     0.020 A 
ATOM     59  C   UNL A   1      43.346  34.100  34.152  1.00  0.00     0.020 A 
ATOM     60  C   UNL A   1      43.803  35.163  33.370  1.00  0.00     0.054 A 
BRANCH  60  61
ATOM     61  S   UNL A   1      43.921  36.832  34.073  1.00  0.00     0.124 S 
ATOM     62  O   UNL A   1      44.577  37.569  32.995  1.00  0.00    -0.237 OA
ATOM     63  O   UNL A   1      42.523  37.185  34.312  1.00  0.00    -0.237 OA
ATOM     64  O   UNL A   1      44.725  36.645  35.278  1.00  0.00    -0.744 OA
ENDBRANCH  60  61
ENDBRANCH  41  55
BRANCH  42  65
ATOM     65  C   UNL A   1      42.110  23.665  27.962  1.00  0.00    -0.014 A 
ATOM     66  C   UNL A   1      42.537  23.478  26.638  1.00  0.00     0.010 A 
ATOM     67  C   UNL A   1      41.567  22.578  28.673  1.00  0.00     0.010 A 
ATOM     68  C   UNL A   1      42.435  22.220  26.038  1.00  0.00     0.020 A 
ATOM     69  C   UNL A   1      41.482  21.317  28.083  1.00  0.00     0.020 A 
ATOM     70  C   UNL A   1      41.916  21.146  26.767  1.00  0.00     0.054 A 
BRANCH  70  71
ATOM     71  S   UNL A   1      41.895  19.494  26.014  1.00  0.00     0.124 S 
ATOM     72  O   UNL A   1      40.485  19.334  25.676  1.00  0.00    -0.237 OA
ATOM     73  O   UNL A   1      42.805  19.646  24.881  1.00  0.00    -0.237 OA
ATOM     74  O   UNL A   1      42.389  18.630  27.084  1.00  0.00    -0.744 OA
ENDBRANCH  70  71
ENDBRANCH  42  65
BRANCH  54  75
ATOM     75  C   UNL A   1      47.516  26.628  31.205  1.00  0.00    -0.014 A 
ATOM     76  C   UNL A   1      47.798  25.961  32.410  1.00  0.00     0.010 A 
ATOM     77  C   UNL A   1      48.546  26.836  30.270  1.00  0.00     0.010 A 
ATOM     78  C   UNL A   1      49.100  25.543  32.693  1.00  0.00     0.020 A 
ATOM     79  C   UNL A   1      49.845  26.404  30.544  1.00  0.00     0.020 A 
ATOM     80  C   UNL A   1      50.117  25.777  31.762  1.00  0.00     0.054 A 
BRANCH  80  81
ATOM     81  S   UNL A   1      51.800  25.219  32.141  1.00  0.00     0.124 S 
ATOM     82  O   UNL A   1      51.984  25.716  33.501  1.00  0.00    -0.237 OA
ATOM     83  O   UNL A   1      51.701  23.766  32.011  1.00  0.00    -0.237 OA
ATOM     84  O   UNL A   1      52.616  25.873  31.121  1.00  0.00    -0.744 OA
ENDBRANCH  80  81
ENDBRANCH  54  75
ENDBRANCH  28  29
ENDBRANCH  21  23
ENDBRANCH  20  21
ENDBRANCH   1  20
TORSDOF 17
ENDMDL
MODEL 2
REMARK VINA RESULT:      -9.3      2.658      3.350
REMARK SMILES CC[C@H](NC(=O)c1ccc(C)nc1)C(=O)OCCOC(=O)c1ccc(-c2c3nc(c(-c4ccc(S(=O)(=O)[O-])cc4)c4ccc([nH]4)c(-c4ccc(S(=O)(=O)[O-])cc4)c4nc(c(-c5ccc(S(=O)(=O)[O-])cc5)c5ccc2[nH]5)C=C4)C=C3)cc1
REMARK SMILES IDX 18 1 17 2 16 3 14 4 15 5 3 6 2 7 1 8 4 9 5 10 6 12 7 13 8 14
REMARK SMILES IDX 13 15 9 16 12 17 10 18 11 19 19 20 20 21 21 22 22 23 23 24
REMARK SMILES IDX 81 25 24 26 80 27 25 28 26 29 27 30 74 31 28 32 79 33 73 34
REMARK SMILES IDX 75 35 29 36 78 37 72 38 71 39 30 41 60 42 41 43 59 44 42 45
REMARK SMILES IDX 45 46 58 47 76 48 43 49 44 50 57 52 77 53 46 54 31 55 32 56
REMARK SMILES IDX 40 57 33 58 39 59 34 60 35 61 36 62 37 63 38 64 61 65 62 66
REMARK SMILES IDX 70 67 63 68 69 69 64 70 65 71 66 72 67 73 68 74 47 75 48 76
REMARK SMILES IDX 56 77 49 78 55 79 50 80 51 81 52 82 53 83 54 84
REMARK H PARENT 4 11 75 40 45 51
REMARK Flexibility Score: inf
ROOT
ATOM      1  C   UNL A   1      32.230  30.602  26.823  1.00  0.00     0.275 C 
ENDROOT
BRANCH   1   2
ATOM      2  C   UNL A   1      31.482  30.180  25.537  1.00  0.00     0.274 C 
BRANCH   2   3
ATOM      3  O   UNL A   1      32.341  29.623  24.510  1.00  0.00    -0.461 OA
BRANCH   3   4
ATOM      4  C   UNL A   1      31.696  28.872  23.573  1.00  0.00     0.328 C 
ATOM      5  O   UNL A   1      30.766  29.300  22.890  1.00  0.00    -0.250 OA
BRANCH   4   6
ATOM      6  C   UNL A   1      32.284  27.450  23.352  1.00  0.00     0.192 C 
BRANCH   6   7
ATOM      7  C   UNL A   1      33.695  27.475  23.991  1.00  0.00     0.033 C 
ATOM      8  C   UNL A   1      33.830  26.590  25.222  1.00  0.00     0.007 C 
ENDBRANCH   6   7
BRANCH   6   9
ATOM      9  N   UNL A   1      32.383  26.867  22.002  1.00  0.00    -0.339 N 
ATOM     10  C   UNL A   1      32.717  25.607  21.570  1.00  0.00     0.253 C 
ATOM     11  H   UNL A   1      32.171  27.498  21.276  1.00  0.00     0.164 HD
ATOM     12  O   UNL A   1      33.060  25.450  20.398  1.00  0.00    -0.269 OA
BRANCH  10  13
ATOM     13  C   UNL A   1      32.566  24.412  22.404  1.00  0.00     0.058 A 
ATOM     14  C   UNL A   1      33.658  23.551  22.522  1.00  0.00     0.017 A 
ATOM     15  C   UNL A   1      31.438  24.145  23.164  1.00  0.00     0.125 A 
ATOM     16  C   UNL A   1      33.550  22.412  23.318  1.00  0.00     0.024 A 
ATOM     17  N   UNL A   1      31.306  23.040  23.953  1.00  0.00    -0.261 NA
ATOM     18  C   UNL A   1      32.356  22.178  23.999  1.00  0.00     0.037 A 
ATOM     19  C   UNL A   1      32.189  20.905  24.780  1.00  0.00     0.066 C 
ENDBRANCH  10  13
ENDBRANCH   6   9
ENDBRANCH   4   6
ENDBRANCH   3   4
ENDBRANCH   2   3
ENDBRANCH   1   2
BRANCH   1  20
ATOM     20  O   UNL A   1      33.636  30.257  26.889  1.00  0.00    -0.458 OA
BRANCH  20  21
ATOM     21  C   UNL A   1      34.370  31.176  27.542  1.00  0.00     0.338 C 
ATOM     22  O   UNL A   1      34.041  32.341  27.697  1.00  0.00    -0.246 OA
BRANCH  21  23
ATOM     23  C   UNL A   1      35.643  30.756  28.113  1.00  0.00     0.060 A 
ATOM     24  C   UNL A   1      35.595  29.687  29.020  1.00  0.00     0.016 A 
ATOM     25  C   UNL A   1      36.776  31.559  28.005  1.00  0.00     0.016 A 
ATOM     26  C   UNL A   1      36.683  29.422  29.838  1.00  0.00     0.010 A 
ATOM     27  C   UNL A   1      37.877  31.281  28.818  1.00  0.00     0.010 A 
ATOM     28  C   UNL A   1      37.832  30.215  29.734  1.00  0.00    -0.014 A 
BRANCH  28  29
ATOM     29  C   UNL A   1      39.051  29.802  30.453  1.00  0.00     0.031 A 
ATOM     30  C   UNL A   1      39.525  30.500  31.689  1.00  0.00     0.074 A 
ATOM     31  C   UNL A   1      39.727  28.760  29.935  1.00  0.00     0.049 A 
ATOM     32  N   UNL A   1      40.613  30.277  32.380  1.00  0.00    -0.248 NA
ATOM     33  C   UNL A   1      38.677  31.577  32.222  1.00  0.00     0.031 C 
ATOM     34  C   UNL A   1      39.309  28.000  28.751  1.00  0.00     0.029 A 
ATOM     35  N   UNL A   1      40.898  28.171  30.317  1.00  0.00    -0.354 N 
ATOM     36  C   UNL A   1      40.590  31.185  33.430  1.00  0.00     0.074 A 
ATOM     37  C   UNL A   1      39.381  31.971  33.279  1.00  0.00     0.031 C 
ATOM     38  C   UNL A   1      40.225  27.059  28.491  1.00  0.00     0.029 A 
ATOM     39  C   UNL A   1      41.303  27.174  29.465  1.00  0.00     0.049 A 
ATOM     40  H   UNL A   1      41.401  28.433  31.122  1.00  0.00     0.167 HD
ATOM     41  C   UNL A   1      41.503  31.341  34.421  1.00  0.00     0.031 A 
ATOM     42  C   UNL A   1      42.437  26.453  29.445  1.00  0.00     0.031 A 
ATOM     43  C   UNL A   1      42.707  30.557  34.537  1.00  0.00     0.049 A 
ATOM     44  C   UNL A   1      43.457  26.692  30.512  1.00  0.00     0.074 A 
ATOM     45  C   UNL A   1      43.686  30.616  35.514  1.00  0.00     0.029 A 
ATOM     46  N   UNL A   1      43.103  29.574  33.638  1.00  0.00    -0.354 N 
ATOM     47  N   UNL A   1      43.416  27.548  31.504  1.00  0.00    -0.248 NA
ATOM     48  C   UNL A   1      44.669  25.868  30.462  1.00  0.00     0.031 C 
ATOM     49  C   UNL A   1      44.692  29.699  35.185  1.00  0.00     0.029 A 
ATOM     50  C   UNL A   1      44.323  29.040  34.023  1.00  0.00     0.049 A 
ATOM     51  H   UNL A   1      42.592  29.298  32.845  1.00  0.00     0.167 HD
ATOM     52  C   UNL A   1      44.595  27.362  32.209  1.00  0.00     0.074 A 
ATOM     53  C   UNL A   1      45.321  26.302  31.532  1.00  0.00     0.031 C 
ATOM     54  C   UNL A   1      45.035  28.005  33.318  1.00  0.00     0.031 A 
BRANCH  41  55
ATOM     55  C   UNL A   1      41.255  32.419  35.442  1.00  0.00    -0.014 A 
ATOM     56  C   UNL A   1      41.764  33.718  35.267  1.00  0.00     0.010 A 
ATOM     57  C   UNL A   1      40.442  32.149  36.558  1.00  0.00     0.010 A 
ATOM     58  C   UNL A   1      41.484  34.721  36.201  1.00  0.00     0.020 A 
ATOM     59  C   UNL A   1      40.148  33.152  37.487  1.00  0.00     0.020 A 
ATOM     60  C   UNL A   1      40.682  34.430  37.309  1.00  0.00     0.054 A 
BRANCH  60  61
ATOM     61  S   UNL A   1      40.301  35.753  38.492  1.00  0.00     0.124 S 
ATOM     62  O   UNL A   1      39.851  36.828  37.610  1.00  0.00    -0.237 OA
ATOM     63  O   UNL A   1      39.263  35.155  39.328  1.00  0.00    -0.237 OA
ATOM     64  O   UNL A   1      41.575  35.993  39.166  1.00  0.00    -0.744 OA
ENDBRANCH  60  61
ENDBRANCH  41  55
BRANCH  42  65
ATOM     65  C   UNL A   1      42.643  25.473  28.352  1.00  0.00    -0.014 A 
ATOM     66  C   UNL A   1      43.418  25.807  27.231  1.00  0.00     0.010 A 
ATOM     67  C   UNL A   1      42.158  24.158  28.490  1.00  0.00     0.010 A 
ATOM     68  C   UNL A   1      43.715  24.839  26.268  1.00  0.00     0.020 A 
ATOM     69  C   UNL A   1      42.468  23.185  27.540  1.00  0.00     0.020 A 
ATOM     70  C   UNL A   1      43.245  23.532  26.433  1.00  0.00     0.054 A 
BRANCH  70  71
ATOM     71  S   UNL A   1      43.733  22.260  25.233  1.00  0.00     0.124 S 
ATOM     72  O   UNL A   1      45.123  22.015  25.601  1.00  0.00    -0.237 OA
ATOM     73  O   UNL A   1      42.799  21.173  25.520  1.00  0.00    -0.237 OA
ATOM     74  O   UNL A   1      43.529  22.917  23.944  1.00  0.00    -0.744 OA
ENDBRANCH  70  71
ENDBRANCH  42  65
BRANCH  54  75
ATOM     75  C   UNL A   1      46.363  27.562  33.859  1.00  0.00    -0.014 A 
ATOM     76  C   UNL A   1      46.444  26.515  34.793  1.00  0.00     0.010 A 
ATOM     77  C   UNL A   1      47.539  28.202  33.430  1.00  0.00     0.010 A 
ATOM     78  C   UNL A   1      47.681  26.139  35.321  1.00  0.00     0.020 A 
ATOM     79  C   UNL A   1      48.779  27.816  33.944  1.00  0.00     0.020 A 
ATOM     80  C   UNL A   1      48.839  26.799  34.899  1.00  0.00     0.054 A 
BRANCH  80  81
ATOM     81  S   UNL A   1      50.439  26.292  35.587  1.00  0.00     0.124 S 
ATOM     82  O   UNL A   1      51.362  27.194  34.903  1.00  0.00    -0.237 OA
ATOM     83  O   UNL A   1      50.271  26.533  37.019  1.00  0.00    -0.237 OA
ATOM     84  O   UNL A   1      50.544  24.885  35.208  1.00  0.00    -0.744 OA
ENDBRANCH  80  81
ENDBRANCH  54  75
ENDBRANCH  28  29
ENDBRANCH  21  23
ENDBRANCH  20  21
ENDBRANCH   1  20
TORSDOF 17
ENDMDL
MODEL 3
REMARK VINA RESULT:      -9.3      5.159     11.362
REMARK SMILES CC[C@H](NC(=O)c1ccc(C)nc1)C(=O)OCCOC(=O)c1ccc(-c2c3nc(c(-c4ccc(S(=O)(=O)[O-])cc4)c4ccc([nH]4)c(-c4ccc(S(=O)(=O)[O-])cc4)c4nc(c(-c5ccc(S(=O)(=O)[O-])cc5)c5ccc2[nH]5)C=C4)C=C3)cc1
REMARK SMILES IDX 18 1 17 2 16 3 14 4 15 5 3 6 2 7 1 8 4 9 5 10 6 12 7 13 8 14
REMARK SMILES IDX 13 15 9 16 12 17 10 18 11 19 19 20 20 21 21 22 22 23 23 24
REMARK SMILES IDX 81 25 24 26 80 27 25 28 26 29 27 30 74 31 28 32 79 33 73 34
REMARK SMILES IDX 75 35 29 36 78 37 72 38 71 39 30 41 60 42 41 43 59 44 42 45
REMARK SMILES IDX 45 46 58 47 76 48 43 49 44 50 57 52 77 53 46 54 31 55 32 56
REMARK SMILES IDX 40 57 33 58 39 59 34 60 35 61 36 62 37 63 38 64 61 65 62 66
REMARK SMILES IDX 70 67 63 68 69 69 64 70 65 71 66 72 67 73 68 74 47 75 48 76
REMARK SMILES IDX 56 77 49 78 55 79 50 80 51 81 52 82 53 83 54 84
REMARK H PARENT 4 11 75 40 45 51
REMARK Flexibility Score: inf
ROOT
ATOM      1  C   UNL A   1      39.575  22.730  26.278  1.00  0.00     0.275 C 
ENDROOT
BRANCH   1   2
ATOM      2  C   UNL A   1      40.440  21.943  27.290  1.00  0.00     0.274 C 
BRANCH   2   3
ATOM      3  O   UNL A   1      41.813  22.400  27.374  1.00  0.00    -0.461 OA
BRANCH   3   4
ATOM      4  C   UNL A   1      42.582  22.096  26.289  1.00  0.00     0.328 C 
ATOM      5  O   UNL A   1      42.439  21.066  25.630  1.00  0.00    -0.250 OA
BRANCH   4   6
ATOM      6  C   UNL A   1      43.600  23.195  25.876  1.00  0.00     0.192 C 
BRANCH   6   7
ATOM      7  C   UNL A   1      43.789  23.040  24.347  1.00  0.00     0.033 C 
ATOM      8  C   UNL A   1      45.157  22.506  23.946  1.00  0.00     0.007 C 
ENDBRANCH   6   7
BRANCH   6   9
ATOM      9  N   UNL A   1      44.926  23.285  26.513  1.00  0.00    -0.339 N 
ATOM     10  C   UNL A   1      45.771  24.346  26.726  1.00  0.00     0.253 C 
ATOM     11  H   UNL A   1      45.270  22.425  26.848  1.00  0.00     0.164 HD
ATOM     12  O   UNL A   1      46.957  24.124  26.968  1.00  0.00    -0.269 OA
BRANCH  10  13
ATOM     13  C   UNL A   1      45.305  25.734  26.804  1.00  0.00     0.058 A 
ATOM     14  C   UNL A   1      45.116  26.292  28.069  1.00  0.00     0.017 A 
ATOM     15  C   UNL A   1      45.144  26.552  25.697  1.00  0.00     0.125 A 
ATOM     16  C   UNL A   1      44.684  27.612  28.178  1.00  0.00     0.024 A 
ATOM     17  N   UNL A   1      44.725  27.847  25.774  1.00  0.00    -0.261 NA
ATOM     18  C   UNL A   1      44.479  28.351  27.013  1.00  0.00     0.037 A 
ATOM     19  C   UNL A   1      43.919  29.742  27.110  1.00  0.00     0.066 C 
ENDBRANCH  10  13
ENDBRANCH   6   9
ENDBRANCH   4   6
ENDBRANCH   3   4
ENDBRANCH   2   3
ENDBRANCH   1   2
BRANCH   1  20
ATOM     20  O   UNL A   1      39.097  24.026  26.715  1.00  0.00    -0.458 OA
BRANCH  20  21
ATOM     21  C   UNL A   1      40.014  24.999  26.563  1.00  0.00     0.338 C 
ATOM     22  O   UNL A   1      40.678  25.172  25.554  1.00  0.00    -0.246 OA
BRANCH  21  23
ATOM     23  C   UNL A   1      40.230  25.915  27.675  1.00  0.00     0.060 A 
ATOM     24  C   UNL A   1      39.317  25.830  28.736  1.00  0.00     0.016 A 
ATOM     25  C   UNL A   1      41.089  27.005  27.549  1.00  0.00     0.016 A 
ATOM     26  C   UNL A   1      39.250  26.847  29.677  1.00  0.00     0.010 A 
ATOM     27  C   UNL A   1      41.032  28.020  28.506  1.00  0.00     0.010 A 
ATOM     28  C   UNL A   1      40.114  27.944  29.569  1.00  0.00    -0.014 A 
BRANCH  28  29
ATOM     29  C   UNL A   1      40.180  28.912  30.679  1.00  0.00     0.031 A 
ATOM     30  C   UNL A   1      41.135  28.754  31.820  1.00  0.00     0.074 A 
ATOM     31  C   UNL A   1      39.327  29.950  30.619  1.00  0.00     0.049 A 
ATOM     32  N   UNL A   1      41.251  29.498  32.889  1.00  0.00    -0.248 NA
ATOM     33  C   UNL A   1      42.081  27.629  31.757  1.00  0.00     0.031 C 
ATOM     34  C   UNL A   1      38.387  30.195  29.518  1.00  0.00     0.029 A 
ATOM     35  N   UNL A   1      39.098  30.975  31.492  1.00  0.00    -0.354 N 
ATOM     36  C   UNL A   1      42.278  28.935  33.635  1.00  0.00     0.074 A 
ATOM     37  C   UNL A   1      42.748  27.779  32.898  1.00  0.00     0.031 C 
ATOM     38  C   UNL A   1      37.668  31.290  29.795  1.00  0.00     0.029 A 
ATOM     39  C   UNL A   1      38.070  31.796  31.101  1.00  0.00     0.049 A 
ATOM     40  H   UNL A   1      39.617  31.112  32.317  1.00  0.00     0.167 HD
ATOM     41  C   UNL A   1      42.772  29.354  34.826  1.00  0.00     0.031 A 
ATOM     42  C   UNL A   1      37.487  32.825  31.739  1.00  0.00     0.031 A 
ATOM     43  C   UNL A   1      42.274  30.499  35.548  1.00  0.00     0.049 A 
ATOM     44  C   UNL A   1      38.009  33.224  33.082  1.00  0.00     0.074 A 
ATOM     45  C   UNL A   1      42.719  31.023  36.750  1.00  0.00     0.029 A 
ATOM     46  N   UNL A   1      41.211  31.292  35.138  1.00  0.00    -0.354 N 
ATOM     47  N   UNL A   1      38.988  32.688  33.770  1.00  0.00    -0.248 NA
ATOM     48  C   UNL A   1      37.356  34.365  33.732  1.00  0.00     0.031 C 
ATOM     49  C   UNL A   1      41.899  32.108  37.086  1.00  0.00     0.029 A 
ATOM     50  C   UNL A   1      40.967  32.284  36.075  1.00  0.00     0.049 A 
ATOM     51  H   UNL A   1      40.704  31.168  34.304  1.00  0.00     0.167 HD
ATOM     52  C   UNL A   1      39.080  33.433  34.936  1.00  0.00     0.074 A 
ATOM     53  C   UNL A   1      38.061  34.464  34.851  1.00  0.00     0.031 C 
ATOM     54  C   UNL A   1      39.932  33.281  35.979  1.00  0.00     0.031 A 
BRANCH  41  55
ATOM     55  C   UNL A   1      43.888  28.554  35.445  1.00  0.00    -0.014 A 
ATOM     56  C   UNL A   1      45.236  28.873  35.200  1.00  0.00     0.010 A 
ATOM     57  C   UNL A   1      43.585  27.512  36.340  1.00  0.00     0.010 A 
ATOM     58  C   UNL A   1      46.259  28.150  35.821  1.00  0.00     0.020 A 
ATOM     59  C   UNL A   1      44.605  26.795  36.975  1.00  0.00     0.020 A 
ATOM     60  C   UNL A   1      45.938  27.111  36.701  1.00  0.00     0.054 A 
BRANCH  60  61
ATOM     61  S   UNL A   1      47.280  26.208  37.525  1.00  0.00     0.124 S 
ATOM     62  O   UNL A   1      47.439  26.966  38.764  1.00  0.00    -0.237 OA
ATOM     63  O   UNL A   1      46.723  24.866  37.679  1.00  0.00    -0.237 OA
ATOM     64  O   UNL A   1      48.394  26.310  36.585  1.00  0.00    -0.744 OA
ENDBRANCH  60  61
ENDBRANCH  41  55
BRANCH  42  65
ATOM     65  C   UNL A   1      36.334  33.504  31.100  1.00  0.00    -0.014 A 
ATOM     66  C   UNL A   1      35.225  33.897  31.865  1.00  0.00     0.010 A 
ATOM     67  C   UNL A   1      36.398  33.862  29.740  1.00  0.00     0.010 A 
ATOM     68  C   UNL A   1      34.202  34.649  31.283  1.00  0.00     0.020 A 
ATOM     69  C   UNL A   1      35.386  34.628  29.161  1.00  0.00     0.020 A 
ATOM     70  C   UNL A   1      34.292  35.016  29.937  1.00  0.00     0.054 A 
BRANCH  70  71
ATOM     71  S   UNL A   1      33.011  36.087  29.225  1.00  0.00     0.124 S 
ATOM     72  O   UNL A   1      32.331  35.178  28.310  1.00  0.00    -0.237 OA
ATOM     73  O   UNL A   1      32.244  36.496  30.400  1.00  0.00    -0.237 OA
ATOM     74  O   UNL A   1      33.780  37.158  28.594  1.00  0.00    -0.744 OA
ENDBRANCH  70  71
ENDBRANCH  42  65
BRANCH  54  75
ATOM     75  C   UNL A   1      39.789  34.266  37.101  1.00  0.00    -0.014 A 
ATOM     76  C   UNL A   1      39.016  33.956  38.234  1.00  0.00     0.010 A 
ATOM     77  C   UNL A   1      40.431  35.514  37.020  1.00  0.00     0.010 A 
ATOM     78  C   UNL A   1      38.857  34.897  39.254  1.00  0.00     0.020 A 
ATOM     79  C   UNL A   1      40.287  36.450  38.047  1.00  0.00     0.020 A 
ATOM     80  C   UNL A   1      39.485  36.142  39.148  1.00  0.00     0.054 A 
BRANCH  80  81
ATOM     81  S   UNL A   1      39.276  37.348  40.486  1.00  0.00     0.124 S 
ATOM     82  O   UNL A   1      38.218  38.205  39.957  1.00  0.00    -0.237 OA
ATOM     83  O   UNL A   1      38.898  36.513  41.624  1.00  0.00    -0.237 OA
ATOM     84  O   UNL A   1      40.592  37.974  40.592  1.00  0.00    -0.744 OA
ENDBRANCH  80  81
ENDBRANCH  54  75
ENDBRANCH  28  29
ENDBRANCH  21  23
ENDBRANCH  20  21
ENDBRANCH   1  20
TORSDOF 17
ENDMDL
