MODEL 1
REMARK VINA RESULT:     -10.3      0.000      0.000
REMARK SMILES CC(C)(C)[C@@H]1CC(C(=O)OCCOC(=O)c2ccc(-c3c4nc(c(-c5ccc(S(=O)(=O)[O-])cc5)c5ccc([nH]5)c(-c5ccc(S(=O)(=O)[O-])cc5)c5nc(c(-c6ccc(S(=O)(=O)[O-])cc6)c6ccc3[nH]6)C=C5)C=C4)cc2)C[C@@H](C(C)(C)C)C1
REMARK SMILES IDX 12 1 11 2 10 3 8 4 9 5 7 6 5 7 6 8 82 9 77 10 76 11 2 12
REMARK SMILES IDX 1 13 3 14 4 15 78 16 79 17 80 18 81 19 13 20 14 21 15 22
REMARK SMILES IDX 16 23 17 24 75 25 18 26 74 27 19 28 20 29 21 30 68 31 22 32
REMARK SMILES IDX 73 33 67 34 69 35 23 36 72 37 66 38 65 39 24 41 54 42 35 43
REMARK SMILES IDX 53 44 36 45 39 46 52 47 70 48 37 49 38 50 51 52 71 53 40 54
REMARK SMILES IDX 25 55 26 56 34 57 27 58 33 59 28 60 29 61 30 62 31 63 32 64
REMARK SMILES IDX 55 65 56 66 64 67 57 68 63 69 58 70 59 71 60 72 61 73 62 74
REMARK SMILES IDX 41 75 42 76 50 77 43 78 49 79 44 80 45 81 46 82 47 83 48 84
REMARK H PARENT 69 40 39 51
REMARK Flexibility Score: inf
ROOT
ATOM      1  C   UNL A   1      39.742  22.374  26.870  1.00  0.00     0.275 C 
ENDROOT
BRANCH   1   2
ATOM      2  C   UNL A   1      39.134  21.728  25.623  1.00  0.00     0.274 C 
BRANCH   2   3
ATOM      3  O   UNL A   1      37.732  21.463  25.811  1.00  0.00    -0.462 OA
BRANCH   3   4
ATOM      4  C   UNL A   1      36.880  22.312  25.182  1.00  0.00     0.309 C 
ATOM      5  O   UNL A   1      37.213  23.373  24.666  1.00  0.00    -0.252 OA
BRANCH   4   6
ATOM      6  C   UNL A   1      35.450  21.801  25.124  1.00  0.00     0.100 C 
ATOM      7  C   UNL A   1      33.780  19.943  24.699  1.00  0.00    -0.005 C 
ATOM      8  C   UNL A   1      35.272  20.297  24.911  1.00  0.00     0.019 C 
ATOM      9  C   UNL A   1      32.923  20.503  25.867  1.00  0.00     0.008 C 
ATOM     10  C   UNL A   1      33.162  21.995  26.220  1.00  0.00    -0.005 C 
ATOM     11  C   UNL A   1      34.676  22.249  26.355  1.00  0.00     0.019 C 
BRANCH   7  12
ATOM     12  C   UNL A   1      33.534  18.416  24.392  1.00  0.00    -0.035 C 
ATOM     13  C   UNL A   1      32.751  17.774  25.561  1.00  0.00     0.011 C 
ATOM     14  C   UNL A   1      34.869  17.649  24.269  1.00  0.00     0.011 C 
ATOM     15  C   UNL A   1      32.732  18.195  23.096  1.00  0.00     0.011 C 
ENDBRANCH   7  12
BRANCH  10  16
ATOM     16  C   UNL A   1      32.331  23.044  25.361  1.00  0.00    -0.035 C 
ATOM     17  C   UNL A   1      32.715  24.500  25.704  1.00  0.00     0.011 C 
ATOM     18  C   UNL A   1      32.438  22.887  23.833  1.00  0.00     0.011 C 
ATOM     19  C   UNL A   1      30.832  22.877  25.715  1.00  0.00     0.011 C 
ENDBRANCH  10  16
ENDBRANCH   4   6
ENDBRANCH   3   4
ENDBRANCH   2   3
ENDBRANCH   1   2
BRANCH   1  20
ATOM     20  O   UNL A   1      39.575  23.804  26.872  1.00  0.00    -0.458 OA
BRANCH  20  21
ATOM     21  C   UNL A   1      40.722  24.515  26.977  1.00  0.00     0.338 C 
ATOM     22  O   UNL A   1      41.767  24.326  26.378  1.00  0.00    -0.246 OA
BRANCH  21  23
ATOM     23  C   UNL A   1      40.524  25.654  27.886  1.00  0.00     0.060 A 
ATOM     24  C   UNL A   1      41.543  26.600  27.990  1.00  0.00     0.016 A 
ATOM     25  C   UNL A   1      39.407  25.725  28.717  1.00  0.00     0.016 A 
ATOM     26  C   UNL A   1      41.474  27.607  28.948  1.00  0.00     0.010 A 
ATOM     27  C   UNL A   1      39.324  26.754  29.663  1.00  0.00     0.010 A 
ATOM     28  C   UNL A   1      40.365  27.691  29.797  1.00  0.00    -0.014 A 
BRANCH  28  29
ATOM     29  C   UNL A   1      40.321  28.738  30.847  1.00  0.00     0.031 A 
ATOM     30  C   UNL A   1      41.255  28.665  32.023  1.00  0.00     0.074 A 
ATOM     31  C   UNL A   1      39.463  29.769  30.730  1.00  0.00     0.049 A 
ATOM     32  N   UNL A   1      41.296  29.418  33.091  1.00  0.00    -0.248 NA
ATOM     33  C   UNL A   1      42.277  27.605  31.993  1.00  0.00     0.031 C 
ATOM     34  C   UNL A   1      38.544  29.984  29.611  1.00  0.00     0.029 A 
ATOM     35  N   UNL A   1      39.226  30.831  31.567  1.00  0.00    -0.354 N 
ATOM     36  C   UNL A   1      42.324  28.910  33.875  1.00  0.00     0.074 A 
ATOM     37  C   UNL A   1      42.881  27.779  33.161  1.00  0.00     0.031 C 
ATOM     38  C   UNL A   1      37.845  31.111  29.829  1.00  0.00     0.029 A 
ATOM     39  C   UNL A   1      38.228  31.666  31.122  1.00  0.00     0.049 A 
ATOM     40  H   UNL A   1      39.721  30.980  32.404  1.00  0.00     0.167 HD
ATOM     41  C   UNL A   1      42.764  29.345  35.080  1.00  0.00     0.031 A 
ATOM     42  C   UNL A   1      37.661  32.740  31.706  1.00  0.00     0.031 A 
ATOM     43  C   UNL A   1      42.217  30.474  35.783  1.00  0.00     0.049 A 
ATOM     44  C   UNL A   1      38.135  33.175  33.064  1.00  0.00     0.074 A 
ATOM     45  C   UNL A   1      42.583  30.980  37.019  1.00  0.00     0.029 A 
ATOM     46  N   UNL A   1      41.195  31.280  35.309  1.00  0.00    -0.354 N 
ATOM     47  N   UNL A   1      39.079  32.654  33.812  1.00  0.00    -0.248 NA
ATOM     48  C   UNL A   1      37.463  34.338  33.660  1.00  0.00     0.031 C 
ATOM     49  C   UNL A   1      41.761  32.076  37.304  1.00  0.00     0.029 A 
ATOM     50  C   UNL A   1      40.911  32.275  36.228  1.00  0.00     0.049 A 
ATOM     51  H   UNL A   1      40.737  31.163  34.444  1.00  0.00     0.167 HD
ATOM     52  C   UNL A   1      39.120  33.432  34.962  1.00  0.00     0.074 A 
ATOM     53  C   UNL A   1      38.120  34.469  34.805  1.00  0.00     0.031 C 
ATOM     54  C   UNL A   1      39.911  33.297  36.055  1.00  0.00     0.031 A 
BRANCH  41  55
ATOM     55  C   UNL A   1      43.876  28.569  35.732  1.00  0.00    -0.014 A 
ATOM     56  C   UNL A   1      43.606  27.439  36.523  1.00  0.00     0.010 A 
ATOM     57  C   UNL A   1      45.211  28.956  35.517  1.00  0.00     0.010 A 
ATOM     58  C   UNL A   1      44.653  26.727  37.115  1.00  0.00     0.020 A 
ATOM     59  C   UNL A   1      46.261  28.235  36.092  1.00  0.00     0.020 A 
ATOM     60  C   UNL A   1      45.974  27.134  36.901  1.00  0.00     0.054 A 
BRANCH  60  61
ATOM     61  S   UNL A   1      47.318  26.182  37.662  1.00  0.00     0.124 S 
ATOM     62  O   UNL A   1      48.485  26.998  37.336  1.00  0.00    -0.237 OA
ATOM     63  O   UNL A   1      46.941  26.161  39.073  1.00  0.00    -0.237 OA
ATOM     64  O   UNL A   1      47.253  24.889  36.985  1.00  0.00    -0.744 OA
ENDBRANCH  60  61
ENDBRANCH  41  55
BRANCH  42  65
ATOM     65  C   UNL A   1      36.545  33.446  31.027  1.00  0.00    -0.014 A 
ATOM     66  C   UNL A   1      36.702  33.953  29.726  1.00  0.00     0.010 A 
ATOM     67  C   UNL A   1      35.309  33.606  31.682  1.00  0.00     0.010 A 
ATOM     68  C   UNL A   1      35.646  34.621  29.097  1.00  0.00     0.020 A 
ATOM     69  C   UNL A   1      34.246  34.252  31.047  1.00  0.00     0.020 A 
ATOM     70  C   UNL A   1      34.426  34.767  29.762  1.00  0.00     0.054 A 
BRANCH  70  71
ATOM     71  S   UNL A   1      33.048  35.589  28.914  1.00  0.00     0.124 S 
ATOM     72  O   UNL A   1      32.234  36.047  30.035  1.00  0.00    -0.237 OA
ATOM     73  O   UNL A   1      33.720  36.637  28.150  1.00  0.00    -0.237 OA
ATOM     74  O   UNL A   1      32.463  34.520  28.107  1.00  0.00    -0.744 OA
ENDBRANCH  70  71
ENDBRANCH  42  65
BRANCH  54  75
ATOM     75  C   UNL A   1      39.744  34.308  37.153  1.00  0.00    -0.014 A 
ATOM     76  C   UNL A   1      38.995  34.007  38.304  1.00  0.00     0.010 A 
ATOM     77  C   UNL A   1      40.378  35.559  37.050  1.00  0.00     0.010 A 
ATOM     78  C   UNL A   1      38.862  34.952  39.325  1.00  0.00     0.020 A 
ATOM     79  C   UNL A   1      40.263  36.499  38.078  1.00  0.00     0.020 A 
ATOM     80  C   UNL A   1      39.493  36.194  39.203  1.00  0.00     0.054 A 
BRANCH  80  81
ATOM     81  S   UNL A   1      39.344  37.392  40.557  1.00  0.00     0.124 S 
ATOM     82  O   UNL A   1      38.329  38.306  40.042  1.00  0.00    -0.237 OA
ATOM     83  O   UNL A   1      38.927  36.560  41.683  1.00  0.00    -0.237 OA
ATOM     84  O   UNL A   1      40.689  37.952  40.671  1.00  0.00    -0.744 OA
ENDBRANCH  80  81
ENDBRANCH  54  75
ENDBRANCH  28  29
ENDBRANCH  21  23
ENDBRANCH  20  21
ENDBRANCH   1  20
TORSDOF 16
ENDMDL
MODEL 2
REMARK VINA RESULT:     -10.3      4.713     10.454
REMARK SMILES CC(C)(C)[C@@H]1CC(C(=O)OCCOC(=O)c2ccc(-c3c4nc(c(-c5ccc(S(=O)(=O)[O-])cc5)c5ccc([nH]5)c(-c5ccc(S(=O)(=O)[O-])cc5)c5nc(c(-c6ccc(S(=O)(=O)[O-])cc6)c6ccc3[nH]6)C=C5)C=C4)cc2)C[C@@H](C(C)(C)C)C1
REMARK SMILES IDX 12 1 11 2 10 3 8 4 9 5 7 6 5 7 6 8 82 9 77 10 76 11 2 12
REMARK SMILES IDX 1 13 3 14 4 15 78 16 79 17 80 18 81 19 13 20 14 21 15 22
REMARK SMILES IDX 16 23 17 24 75 25 18 26 74 27 19 28 20 29 21 30 68 31 22 32
REMARK SMILES IDX 73 33 67 34 69 35 23 36 72 37 66 38 65 39 24 41 54 42 35 43
REMARK SMILES IDX 53 44 36 45 39 46 52 47 70 48 37 49 38 50 51 52 71 53 40 54
REMARK SMILES IDX 25 55 26 56 34 57 27 58 33 59 28 60 29 61 30 62 31 63 32 64
REMARK SMILES IDX 55 65 56 66 64 67 57 68 63 69 58 70 59 71 60 72 61 73 62 74
REMARK SMILES IDX 41 75 42 76 50 77 43 78 49 79 44 80 45 81 46 82 47 83 48 84
REMARK H PARENT 69 40 39 51
REMARK Flexibility Score: inf
ROOT
ATOM      1  C   UNL A   1      32.762  30.183  26.272  1.00  0.00     0.275 C 
ENDROOT
BRANCH   1   2
ATOM      2  C   UNL A   1      32.906  29.418  24.954  1.00  0.00     0.274 C 
BRANCH   2   3
ATOM      3  O   UNL A   1      33.639  28.194  25.144  1.00  0.00    -0.462 OA
BRANCH   3   4
ATOM      4  C   UNL A   1      33.605  27.318  24.108  1.00  0.00     0.309 C 
ATOM      5  O   UNL A   1      33.650  27.640  22.925  1.00  0.00    -0.252 OA
BRANCH   4   6
ATOM      6  C   UNL A   1      33.558  25.864  24.547  1.00  0.00     0.100 C 
ATOM      7  C   UNL A   1      34.656  23.595  24.805  1.00  0.00    -0.005 C 
ATOM      8  C   UNL A   1      34.880  25.096  24.503  1.00  0.00     0.019 C 
ATOM      9  C   UNL A   1      33.891  23.424  26.148  1.00  0.00     0.008 C 
ATOM     10  C   UNL A   1      32.610  24.287  26.304  1.00  0.00    -0.005 C 
ATOM     11  C   UNL A   1      32.931  25.747  25.928  1.00  0.00     0.019 C 
BRANCH   7  12
ATOM     12  C   UNL A   1      35.969  22.729  24.696  1.00  0.00    -0.035 C 
ATOM     13  C   UNL A   1      36.576  22.888  23.283  1.00  0.00     0.011 C 
ATOM     14  C   UNL A   1      35.665  21.227  24.889  1.00  0.00     0.011 C 
ATOM     15  C   UNL A   1      37.035  23.139  25.728  1.00  0.00     0.011 C 
ENDBRANCH   7  12
BRANCH  10  16
ATOM     16  C   UNL A   1      31.284  23.662  25.690  1.00  0.00    -0.035 C 
ATOM     17  C   UNL A   1      30.026  24.101  26.472  1.00  0.00     0.011 C 
ATOM     18  C   UNL A   1      31.030  23.967  24.202  1.00  0.00     0.011 C 
ATOM     19  C   UNL A   1      31.375  22.120  25.812  1.00  0.00     0.011 C 
ENDBRANCH  10  16
ENDBRANCH   4   6
ENDBRANCH   3   4
ENDBRANCH   2   3
ENDBRANCH   1   2
BRANCH   1  20
ATOM     20  O   UNL A   1      33.629  29.659  27.296  1.00  0.00    -0.458 OA
BRANCH  20  21
ATOM     21  C   UNL A   1      34.393  30.582  27.927  1.00  0.00     0.338 C 
ATOM     22  O   UNL A   1      34.044  31.676  28.336  1.00  0.00    -0.246 OA
BRANCH  21  23
ATOM     23  C   UNL A   1      35.745  30.049  28.147  1.00  0.00     0.060 A 
ATOM     24  C   UNL A   1      36.086  29.621  29.429  1.00  0.00     0.016 A 
ATOM     25  C   UNL A   1      36.705  30.083  27.136  1.00  0.00     0.016 A 
ATOM     26  C   UNL A   1      37.396  29.257  29.725  1.00  0.00     0.010 A 
ATOM     27  C   UNL A   1      38.017  29.690  27.426  1.00  0.00     0.010 A 
ATOM     28  C   UNL A   1      38.375  29.292  28.727  1.00  0.00    -0.014 A 
BRANCH  28  29
ATOM     29  C   UNL A   1      39.778  28.947  29.062  1.00  0.00     0.031 A 
ATOM     30  C   UNL A   1      40.662  29.961  29.735  1.00  0.00     0.074 A 
ATOM     31  C   UNL A   1      40.251  27.717  28.788  1.00  0.00     0.049 A 
ATOM     32  N   UNL A   1      41.939  29.889  30.008  1.00  0.00    -0.248 NA
ATOM     33  C   UNL A   1      40.026  31.221  30.155  1.00  0.00     0.031 C 
ATOM     34  C   UNL A   1      39.479  26.627  28.187  1.00  0.00     0.029 A 
ATOM     35  N   UNL A   1      41.498  27.176  28.981  1.00  0.00    -0.354 N 
ATOM     36  C   UNL A   1      42.269  31.099  30.605  1.00  0.00     0.074 A 
ATOM     37  C   UNL A   1      41.057  31.892  30.650  1.00  0.00     0.031 C 
ATOM     38  C   UNL A   1      40.268  25.547  28.064  1.00  0.00     0.029 A 
ATOM     39  C   UNL A   1      41.611  25.884  28.527  1.00  0.00     0.049 A 
ATOM     40  H   UNL A   1      42.239  27.667  29.402  1.00  0.00     0.167 HD
ATOM     41  C   UNL A   1      43.471  31.513  31.072  1.00  0.00     0.031 A 
ATOM     42  C   UNL A   1      42.683  25.071  28.459  1.00  0.00     0.031 A 
ATOM     43  C   UNL A   1      44.671  30.721  31.034  1.00  0.00     0.049 A 
ATOM     44  C   UNL A   1      44.016  25.570  28.940  1.00  0.00     0.074 A 
ATOM     45  C   UNL A   1      45.942  31.062  31.465  1.00  0.00     0.029 A 
ATOM     46  N   UNL A   1      44.748  29.426  30.549  1.00  0.00    -0.354 N 
ATOM     47  N   UNL A   1      44.319  26.736  29.460  1.00  0.00    -0.248 NA
ATOM     48  C   UNL A   1      45.153  24.647  28.819  1.00  0.00     0.031 C 
ATOM     49  C   UNL A   1      46.794  29.980  31.212  1.00  0.00     0.029 A 
ATOM     50  C   UNL A   1      46.044  28.954  30.661  1.00  0.00     0.049 A 
ATOM     51  H   UNL A   1      43.991  28.915  30.177  1.00  0.00     0.167 HD
ATOM     52  C   UNL A   1      45.680  26.682  29.737  1.00  0.00     0.074 A 
ATOM     53  C   UNL A   1      46.137  25.364  29.344  1.00  0.00     0.031 C 
ATOM     54  C   UNL A   1      46.481  27.640  30.264  1.00  0.00     0.031 A 
BRANCH  41  55
ATOM     55  C   UNL A   1      43.553  32.906  31.632  1.00  0.00    -0.014 A 
ATOM     56  C   UNL A   1      43.340  33.152  33.000  1.00  0.00     0.010 A 
ATOM     57  C   UNL A   1      43.885  33.978  30.784  1.00  0.00     0.010 A 
ATOM     58  C   UNL A   1      43.427  34.453  33.504  1.00  0.00     0.020 A 
ATOM     59  C   UNL A   1      43.992  35.277  31.288  1.00  0.00     0.020 A 
ATOM     60  C   UNL A   1      43.746  35.508  32.644  1.00  0.00     0.054 A 
BRANCH  60  61
ATOM     61  S   UNL A   1      43.874  37.185  33.323  1.00  0.00     0.124 S 
ATOM     62  O   UNL A   1      43.856  38.002  32.113  1.00  0.00    -0.237 OA
ATOM     63  O   UNL A   1      42.686  37.285  34.166  1.00  0.00    -0.237 OA
ATOM     64  O   UNL A   1      45.145  37.170  34.045  1.00  0.00    -0.744 OA
ENDBRANCH  60  61
ENDBRANCH  41  55
BRANCH  42  65
ATOM     65  C   UNL A   1      42.547  23.716  27.865  1.00  0.00    -0.014 A 
ATOM     66  C   UNL A   1      42.768  23.508  26.493  1.00  0.00     0.010 A 
ATOM     67  C   UNL A   1      42.204  22.621  28.679  1.00  0.00     0.010 A 
ATOM     68  C   UNL A   1      42.632  22.229  25.942  1.00  0.00     0.020 A 
ATOM     69  C   UNL A   1      42.091  21.339  28.137  1.00  0.00     0.020 A 
ATOM     70  C   UNL A   1      42.293  21.154  26.768  1.00  0.00     0.054 A 
BRANCH  70  71
ATOM     71  S   UNL A   1      42.173  19.491  26.051  1.00  0.00     0.124 S 
ATOM     72  O   UNL A   1      43.127  19.567  24.949  1.00  0.00    -0.237 OA
ATOM     73  O   UNL A   1      42.562  18.631  27.166  1.00  0.00    -0.237 OA
ATOM     74  O   UNL A   1      40.768  19.392  25.661  1.00  0.00    -0.744 OA
ENDBRANCH  70  71
ENDBRANCH  42  65
BRANCH  54  75
ATOM     75  C   UNL A   1      47.927  27.290  30.468  1.00  0.00    -0.014 A 
ATOM     76  C   UNL A   1      48.883  27.556  29.472  1.00  0.00     0.010 A 
ATOM     77  C   UNL A   1      48.341  26.727  31.688  1.00  0.00     0.010 A 
ATOM     78  C   UNL A   1      50.227  27.240  29.683  1.00  0.00     0.020 A 
ATOM     79  C   UNL A   1      49.688  26.427  31.910  1.00  0.00     0.020 A 
ATOM     80  C   UNL A   1      50.621  26.673  30.900  1.00  0.00     0.054 A 
BRANCH  80  81
ATOM     81  S   UNL A   1      52.377  26.308  31.172  1.00  0.00     0.124 S 
ATOM     82  O   UNL A   1      52.773  27.384  32.076  1.00  0.00    -0.237 OA
ATOM     83  O   UNL A   1      52.344  24.972  31.762  1.00  0.00    -0.237 OA
ATOM     84  O   UNL A   1      52.954  26.375  29.831  1.00  0.00    -0.744 OA
ENDBRANCH  80  81
ENDBRANCH  54  75
ENDBRANCH  28  29
ENDBRANCH  21  23
ENDBRANCH  20  21
ENDBRANCH   1  20
TORSDOF 16
ENDMDL
MODEL 3
REMARK VINA RESULT:     -10.2      7.542     13.057
REMARK SMILES CC(C)(C)[C@@H]1CC(C(=O)OCCOC(=O)c2ccc(-c3c4nc(c(-c5ccc(S(=O)(=O)[O-])cc5)c5ccc([nH]5)c(-c5ccc(S(=O)(=O)[O-])cc5)c5nc(c(-c6ccc(S(=O)(=O)[O-])cc6)c6ccc3[nH]6)C=C5)C=C4)cc2)C[C@@H](C(C)(C)C)C1
REMARK SMILES IDX 12 1 11 2 10 3 8 4 9 5 7 6 5 7 6 8 82 9 77 10 76 11 2 12
REMARK SMILES IDX 1 13 3 14 4 15 78 16 79 17 80 18 81 19 13 20 14 21 15 22
REMARK SMILES IDX 16 23 17 24 75 25 18 26 74 27 19 28 20 29 21 30 68 31 22 32
REMARK SMILES IDX 73 33 67 34 69 35 23 36 72 37 66 38 65 39 24 41 54 42 35 43
REMARK SMILES IDX 53 44 36 45 39 46 52 47 70 48 37 49 38 50 51 52 71 53 40 54
REMARK SMILES IDX 25 55 26 56 34 57 27 58 33 59 28 60 29 61 30 62 31 63 32 64
REMARK SMILES IDX 55 65 56 66 64 67 57 68 63 69 58 70 59 71 60 72 61 73 62 74
REMARK SMILES IDX 41 75 42 76 50 77 43 78 49 79 44 80 45 81 46 82 47 83 48 84
REMARK H PARENT 69 40 39 51
REMARK Flexibility Score: inf
ROOT
ATOM      1  C   UNL A   1      35.603  30.842  27.867  1.00  0.00     0.275 C 
ENDROOT
BRANCH   1   2
ATOM      2  C   UNL A   1      34.093  30.758  27.634  1.00  0.00     0.274 C 
BRANCH   2   3
ATOM      3  O   UNL A   1      33.794  30.000  26.448  1.00  0.00    -0.462 OA
BRANCH   3   4
ATOM      4  C   UNL A   1      32.772  29.113  26.556  1.00  0.00     0.309 C 
ATOM      5  O   UNL A   1      32.377  28.634  27.613  1.00  0.00    -0.252 OA
BRANCH   4   6
ATOM      6  C   UNL A   1      32.105  28.795  25.228  1.00  0.00     0.100 C 
ATOM      7  C   UNL A   1      30.303  29.224  23.498  1.00  0.00    -0.005 C 
ATOM      8  C   UNL A   1      31.011  29.758  24.767  1.00  0.00     0.019 C 
ATOM      9  C   UNL A   1      31.348  28.906  22.392  1.00  0.00     0.008 C 
ATOM     10  C   UNL A   1      32.557  28.043  22.840  1.00  0.00    -0.005 C 
ATOM     11  C   UNL A   1      33.151  28.630  24.135  1.00  0.00     0.019 C 
BRANCH   7  12
ATOM     12  C   UNL A   1      29.108  30.131  23.015  1.00  0.00    -0.035 C 
ATOM     13  C   UNL A   1      27.782  29.341  23.129  1.00  0.00     0.011 C 
ATOM     14  C   UNL A   1      29.270  30.526  21.532  1.00  0.00     0.011 C 
ATOM     15  C   UNL A   1      28.972  31.421  23.844  1.00  0.00     0.011 C 
ENDBRANCH   7  12
BRANCH  10  16
ATOM     16  C   UNL A   1      32.327  26.470  22.804  1.00  0.00    -0.035 C 
ATOM     17  C   UNL A   1      33.362  25.717  23.667  1.00  0.00     0.011 C 
ATOM     18  C   UNL A   1      30.929  25.992  23.239  1.00  0.00     0.011 C 
ATOM     19  C   UNL A   1      32.520  25.987  21.344  1.00  0.00     0.011 C 
ENDBRANCH  10  16
ENDBRANCH   4   6
ENDBRANCH   3   4
ENDBRANCH   2   3
ENDBRANCH   1   2
BRANCH   1  20
ATOM     20  O   UNL A   1      36.210  29.538  27.936  1.00  0.00    -0.458 OA
BRANCH  20  21
ATOM     21  C   UNL A   1      36.956  29.311  29.043  1.00  0.00     0.338 C 
ATOM     22  O   UNL A   1      36.575  29.292  30.201  1.00  0.00    -0.246 OA
BRANCH  21  23
ATOM     23  C   UNL A   1      38.339  28.992  28.659  1.00  0.00     0.060 A 
ATOM     24  C   UNL A   1      39.187  28.456  29.627  1.00  0.00     0.016 A 
ATOM     25  C   UNL A   1      38.831  29.330  27.399  1.00  0.00     0.016 A 
ATOM     26  C   UNL A   1      40.541  28.285  29.361  1.00  0.00     0.010 A 
ATOM     27  C   UNL A   1      40.189  29.132  27.121  1.00  0.00     0.010 A 
ATOM     28  C   UNL A   1      41.057  28.625  28.106  1.00  0.00    -0.014 A 
BRANCH  28  29
ATOM     29  C   UNL A   1      42.510  28.483  27.846  1.00  0.00     0.031 A 
ATOM     30  C   UNL A   1      43.439  29.632  28.121  1.00  0.00     0.074 A 
ATOM     31  C   UNL A   1      42.999  27.315  27.389  1.00  0.00     0.049 A 
ATOM     32  N   UNL A   1      44.716  29.741  27.858  1.00  0.00    -0.248 NA
ATOM     33  C   UNL A   1      42.857  30.815  28.777  1.00  0.00     0.031 C 
ATOM     34  C   UNL A   1      42.211  26.107  27.134  1.00  0.00     0.029 A 
ATOM     35  N   UNL A   1      44.281  26.952  27.058  1.00  0.00    -0.354 N 
ATOM     36  C   UNL A   1      45.086  31.009  28.289  1.00  0.00     0.074 A 
ATOM     37  C   UNL A   1      43.896  31.636  28.826  1.00  0.00     0.031 C 
ATOM     38  C   UNL A   1      43.026  25.137  26.691  1.00  0.00     0.029 A 
ATOM     39  C   UNL A   1      44.381  25.667  26.580  1.00  0.00     0.049 A 
ATOM     40  H   UNL A   1      45.053  27.555  27.153  1.00  0.00     0.167 HD
ATOM     41  C   UNL A   1      46.305  31.598  28.239  1.00  0.00     0.031 A 
ATOM     42  C   UNL A   1      45.438  25.000  26.077  1.00  0.00     0.031 A 
ATOM     43  C   UNL A   1      47.487  30.970  27.713  1.00  0.00     0.049 A 
ATOM     44  C   UNL A   1      46.770  25.691  25.990  1.00  0.00     0.074 A 
ATOM     45  C   UNL A   1      48.764  31.494  27.602  1.00  0.00     0.029 A 
ATOM     46  N   UNL A   1      47.542  29.676  27.220  1.00  0.00    -0.354 N 
ATOM     47  N   UNL A   1      47.091  26.908  26.361  1.00  0.00    -0.248 NA
ATOM     48  C   UNL A   1      47.880  24.922  25.412  1.00  0.00     0.031 C 
ATOM     49  C   UNL A   1      49.585  30.524  27.015  1.00  0.00     0.029 A 
ATOM     50  C   UNL A   1      48.827  29.385  26.797  1.00  0.00     0.049 A 
ATOM     51  H   UNL A   1      46.778  29.055  27.178  1.00  0.00     0.167 HD
ATOM     52  C   UNL A   1      48.442  27.047  26.067  1.00  0.00     0.074 A 
ATOM     53  C   UNL A   1      48.883  25.785  25.507  1.00  0.00     0.031 C 
ATOM     54  C   UNL A   1      49.246  28.124  26.241  1.00  0.00     0.031 A 
BRANCH  41  55
ATOM     55  C   UNL A   1      46.410  33.013  28.738  1.00  0.00    -0.014 A 
ATOM     56  C   UNL A   1      46.875  33.293  30.035  1.00  0.00     0.010 A 
ATOM     57  C   UNL A   1      46.075  34.078  27.883  1.00  0.00     0.010 A 
ATOM     58  C   UNL A   1      46.972  34.615  30.479  1.00  0.00     0.020 A 
ATOM     59  C   UNL A   1      46.189  35.401  28.316  1.00  0.00     0.020 A 
ATOM     60  C   UNL A   1      46.623  35.661  29.619  1.00  0.00     0.054 A 
BRANCH  60  61
ATOM     61  S   UNL A   1      46.777  37.369  30.209  1.00  0.00     0.124 S 
ATOM     62  O   UNL A   1      46.623  37.203  31.651  1.00  0.00    -0.237 OA
ATOM     63  O   UNL A   1      48.113  37.749  29.759  1.00  0.00    -0.237 OA
ATOM     64  O   UNL A   1      45.678  38.066  29.542  1.00  0.00    -0.744 OA
ENDBRANCH  60  61
ENDBRANCH  41  55
BRANCH  42  65
ATOM     65  C   UNL A   1      45.265  23.615  25.571  1.00  0.00    -0.014 A 
ATOM     66  C   UNL A   1      45.662  22.512  26.346  1.00  0.00     0.010 A 
ATOM     67  C   UNL A   1      44.689  23.393  24.306  1.00  0.00     0.010 A 
ATOM     68  C   UNL A   1      45.499  21.211  25.858  1.00  0.00     0.020 A 
ATOM     69  C   UNL A   1      44.503  22.096  23.826  1.00  0.00     0.020 A 
ATOM     70  C   UNL A   1      44.922  21.012  24.601  1.00  0.00     0.054 A 
BRANCH  70  71
ATOM     71  S   UNL A   1      44.667  19.318  24.002  1.00  0.00     0.124 S 
ATOM     72  O   UNL A   1      45.869  18.644  24.481  1.00  0.00    -0.237 OA
ATOM     73  O   UNL A   1      43.421  18.929  24.657  1.00  0.00    -0.237 OA
ATOM     74  O   UNL A   1      44.573  19.482  22.553  1.00  0.00    -0.744 OA
ENDBRANCH  70  71
ENDBRANCH  42  65
BRANCH  54  75
ATOM     75  C   UNL A   1      50.687  27.976  25.844  1.00  0.00    -0.014 A 
ATOM     76  C   UNL A   1      51.663  27.617  26.790  1.00  0.00     0.010 A 
ATOM     77  C   UNL A   1      51.061  28.157  24.501  1.00  0.00     0.010 A 
ATOM     78  C   UNL A   1      52.997  27.467  26.402  1.00  0.00     0.020 A 
ATOM     79  C   UNL A   1      52.391  27.989  24.106  1.00  0.00     0.020 A 
ATOM     80  C   UNL A   1      53.354  27.658  25.063  1.00  0.00     0.054 A 
BRANCH  80  81
ATOM     81  S   UNL A   1      55.083  27.417  24.571  1.00  0.00     0.124 S 
ATOM     82  O   UNL A   1      54.992  27.462  23.114  1.00  0.00    -0.237 OA
ATOM     83  O   UNL A   1      55.760  28.552  25.194  1.00  0.00    -0.237 OA
ATOM     84  O   UNL A   1      55.422  26.112  25.135  1.00  0.00    -0.744 OA
ENDBRANCH  80  81
ENDBRANCH  54  75
ENDBRANCH  28  29
ENDBRANCH  21  23
ENDBRANCH  20  21
ENDBRANCH   1  20
TORSDOF 16
ENDMDL
