MODEL 1
REMARK VINA RESULT:     -10.1      0.000      0.000
REMARK SMILES O=C(OCCOC(=O)c1ccccc1C1SCCS1)c1ccc(-c2c3nc(c(-c4ccc(S(=O)(=O)[O-])cc4)c4ccc([nH]4)c(-c4ccc(S(=O)(=O)[O-])cc4)c4nc(c(-c5ccc(S(=O)(=O)[O-])cc5)c5ccc2[nH]5)C=C4)C=C3)cc1
REMARK SMILES IDX 4 1 3 2 2 3 1 4 20 5 21 6 79 7 22 8 78 9 23 10 24 11 25 12
REMARK SMILES IDX 72 13 26 14 77 15 71 16 73 17 27 18 76 19 70 20 69 21 28 23
REMARK SMILES IDX 58 24 39 25 57 26 40 27 43 28 56 29 74 30 41 31 42 32 55 34
REMARK SMILES IDX 75 35 44 36 29 37 30 38 38 39 31 40 37 41 32 42 33 43 34 44
REMARK SMILES IDX 35 45 36 46 59 47 60 48 68 49 61 50 67 51 62 52 63 53 64 54
REMARK SMILES IDX 65 55 66 56 45 57 46 58 54 59 47 60 53 61 48 62 49 63 50 64
REMARK SMILES IDX 51 65 52 66 5 67 6 68 7 69 8 70 9 71 10 72 14 73 11 74 13 75
REMARK SMILES IDX 12 76 15 77 16 78 19 79 17 80 18 81
REMARK H PARENT 73 22 43 33
REMARK Flexibility Score: inf
ROOT
ATOM      1  C   UNL A   1      33.647  28.856  25.974  1.00  0.00     0.275 C 
ENDROOT
BRANCH   1   2
ATOM      2  O   UNL A   1      33.573  29.810  27.047  1.00  0.00    -0.458 OA
BRANCH   2   3
ATOM      3  C   UNL A   1      34.521  30.569  27.643  1.00  0.00     0.338 C 
ATOM      4  O   UNL A   1      34.280  31.772  27.768  1.00  0.00    -0.246 OA
BRANCH   3   5
ATOM      5  C   UNL A   1      35.871  30.090  28.110  1.00  0.00     0.060 A 
ATOM      6  C   UNL A   1      36.171  29.490  29.333  1.00  0.00     0.016 A 
ATOM      7  C   UNL A   1      36.934  30.248  27.194  1.00  0.00     0.016 A 
ATOM      8  C   UNL A   1      37.462  29.026  29.619  1.00  0.00     0.010 A 
ATOM      9  C   UNL A   1      38.226  29.777  27.468  1.00  0.00     0.010 A 
ATOM     10  C   UNL A   1      38.495  29.159  28.689  1.00  0.00    -0.014 A 
BRANCH  10  11
ATOM     11  C   UNL A   1      39.873  28.774  29.080  1.00  0.00     0.031 A 
ATOM     12  C   UNL A   1      40.631  29.699  29.962  1.00  0.00     0.074 A 
ATOM     13  C   UNL A   1      40.397  27.583  28.738  1.00  0.00     0.049 A 
ATOM     14  N   UNL A   1      41.802  29.523  30.505  1.00  0.00    -0.248 NA
ATOM     15  C   UNL A   1      39.987  30.982  30.283  1.00  0.00     0.031 C 
ATOM     16  C   UNL A   1      39.692  26.616  27.925  1.00  0.00     0.029 A 
ATOM     17  N   UNL A   1      41.576  26.950  29.033  1.00  0.00    -0.354 N 
ATOM     18  C   UNL A   1      42.039  30.673  31.236  1.00  0.00     0.074 A 
ATOM     19  C   UNL A   1      40.905  31.551  31.047  1.00  0.00     0.031 C 
ATOM     20  C   UNL A   1      40.396  25.480  27.832  1.00  0.00     0.029 A 
ATOM     21  C   UNL A   1      41.657  25.665  28.529  1.00  0.00     0.049 A 
ATOM     22  H   UNL A   1      42.297  27.370  29.556  1.00  0.00     0.167 HD
ATOM     23  C   UNL A   1      43.118  30.962  31.993  1.00  0.00     0.031 A 
ATOM     24  C   UNL A   1      42.635  24.743  28.618  1.00  0.00     0.031 A 
ATOM     25  C   UNL A   1      44.259  30.096  32.104  1.00  0.00     0.049 A 
ATOM     26  C   UNL A   1      43.866  25.135  29.386  1.00  0.00     0.074 A 
ATOM     27  C   UNL A   1      45.445  30.320  32.777  1.00  0.00     0.029 A 
ATOM     28  N   UNL A   1      44.362  28.844  31.509  1.00  0.00    -0.354 N 
ATOM     29  N   UNL A   1      44.084  26.239  30.062  1.00  0.00    -0.248 NA
ATOM     30  C   UNL A   1      44.980  24.182  29.399  1.00  0.00     0.031 C 
ATOM     31  C   UNL A   1      46.287  29.230  32.540  1.00  0.00     0.029 A 
ATOM     32  C   UNL A   1      45.601  28.292  31.780  1.00  0.00     0.049 A 
ATOM     33  H   UNL A   1      43.657  28.414  30.974  1.00  0.00     0.167 HD
ATOM     34  C   UNL A   1      45.357  26.111  30.594  1.00  0.00     0.074 A 
ATOM     35  C   UNL A   1      45.848  24.808  30.183  1.00  0.00     0.031 C 
ATOM     36  C   UNL A   1      46.058  26.992  31.348  1.00  0.00     0.031 A 
BRANCH  23  37
ATOM     37  C   UNL A   1      43.114  32.300  32.669  1.00  0.00    -0.014 A 
ATOM     38  C   UNL A   1      42.578  32.461  33.960  1.00  0.00     0.010 A 
ATOM     39  C   UNL A   1      43.594  33.424  31.975  1.00  0.00     0.010 A 
ATOM     40  C   UNL A   1      42.485  33.732  34.528  1.00  0.00     0.020 A 
ATOM     41  C   UNL A   1      43.528  34.692  32.552  1.00  0.00     0.020 A 
ATOM     42  C   UNL A   1      42.958  34.840  33.818  1.00  0.00     0.054 A 
BRANCH  42  43
ATOM     43  S   UNL A   1      42.829  36.477  34.584  1.00  0.00     0.124 S 
ATOM     44  O   UNL A   1      43.939  36.454  35.534  1.00  0.00    -0.237 OA
ATOM     45  O   UNL A   1      42.997  37.376  33.445  1.00  0.00    -0.237 OA
ATOM     46  O   UNL A   1      41.498  36.476  35.184  1.00  0.00    -0.744 OA
ENDBRANCH  42  43
ENDBRANCH  23  37
BRANCH  24  47
ATOM     47  C   UNL A   1      42.516  23.407  27.955  1.00  0.00    -0.014 A 
ATOM     48  C   UNL A   1      41.578  22.455  28.395  1.00  0.00     0.010 A 
ATOM     49  C   UNL A   1      43.360  23.067  26.879  1.00  0.00     0.010 A 
ATOM     50  C   UNL A   1      41.502  21.191  27.793  1.00  0.00     0.020 A 
ATOM     51  C   UNL A   1      43.267  21.818  26.253  1.00  0.00     0.020 A 
ATOM     52  C   UNL A   1      42.348  20.880  26.725  1.00  0.00     0.054 A 
BRANCH  52  53
ATOM     53  S   UNL A   1      42.218  19.246  25.943  1.00  0.00     0.124 S 
ATOM     54  O   UNL A   1      42.802  18.375  26.958  1.00  0.00    -0.237 OA
ATOM     55  O   UNL A   1      40.777  19.108  25.744  1.00  0.00    -0.237 OA
ATOM     56  O   UNL A   1      42.998  19.390  24.716  1.00  0.00    -0.744 OA
ENDBRANCH  52  53
ENDBRANCH  24  47
BRANCH  36  57
ATOM     57  C   UNL A   1      47.422  26.558  31.801  1.00  0.00    -0.014 A 
ATOM     58  C   UNL A   1      47.600  25.851  33.002  1.00  0.00     0.010 A 
ATOM     59  C   UNL A   1      48.529  26.809  30.972  1.00  0.00     0.010 A 
ATOM     60  C   UNL A   1      48.874  25.426  33.380  1.00  0.00     0.020 A 
ATOM     61  C   UNL A   1      49.798  26.356  31.330  1.00  0.00     0.020 A 
ATOM     62  C   UNL A   1      49.963  25.676  32.539  1.00  0.00     0.054 A 
BRANCH  62  63
ATOM     63  S   UNL A   1      51.597  25.058  33.023  1.00  0.00     0.124 S 
ATOM     64  O   UNL A   1      51.454  24.925  34.469  1.00  0.00    -0.237 OA
ATOM     65  O   UNL A   1      51.693  23.802  32.282  1.00  0.00    -0.237 OA
ATOM     66  O   UNL A   1      52.509  26.108  32.578  1.00  0.00    -0.744 OA
ENDBRANCH  62  63
ENDBRANCH  36  57
ENDBRANCH  10  11
ENDBRANCH   3   5
ENDBRANCH   2   3
ENDBRANCH   1   2
BRANCH   1  67
ATOM     67  C   UNL A   1      33.508  27.411  26.447  1.00  0.00     0.275 C 
BRANCH  67  68
ATOM     68  O   UNL A   1      33.824  26.478  25.404  1.00  0.00    -0.458 OA
BRANCH  68  69
ATOM     69  C   UNL A   1      33.699  25.173  25.740  1.00  0.00     0.338 C 
ATOM     70  O   UNL A   1      32.795  24.670  26.392  1.00  0.00    -0.246 OA
BRANCH  69  71
ATOM     71  C   UNL A   1      34.725  24.367  25.053  1.00  0.00     0.065 A 
ATOM     72  C   UNL A   1      35.809  24.002  25.882  1.00  0.00     0.016 A 
ATOM     73  C   UNL A   1      34.701  24.008  23.692  1.00  0.00    -0.010 A 
ATOM     74  C   UNL A   1      36.860  23.234  25.396  1.00  0.00     0.001 A 
ATOM     75  C   UNL A   1      35.838  23.307  23.212  1.00  0.00     0.006 A 
ATOM     76  C   UNL A   1      36.880  22.891  24.054  1.00  0.00     0.000 A 
BRANCH  73  77
ATOM     77  C   UNL A   1      33.560  24.231  22.703  1.00  0.00     0.134 C 
ATOM     78  S   UNL A   1      31.999  23.445  23.237  1.00  0.00    -0.142 SA
ATOM     79  S   UNL A   1      33.235  25.930  22.164  1.00  0.00    -0.142 SA
ATOM     80  C   UNL A   1      30.951  24.899  23.239  1.00  0.00     0.082 C 
ATOM     81  C   UNL A   1      31.423  25.807  22.126  1.00  0.00     0.082 C 
ENDBRANCH  73  77
ENDBRANCH  69  71
ENDBRANCH  68  69
ENDBRANCH  67  68
ENDBRANCH   1  67
TORSDOF 15
ENDMDL
MODEL 2
REMARK VINA RESULT:      -9.9      2.939      9.456
REMARK SMILES O=C(OCCOC(=O)c1ccccc1C1SCCS1)c1ccc(-c2c3nc(c(-c4ccc(S(=O)(=O)[O-])cc4)c4ccc([nH]4)c(-c4ccc(S(=O)(=O)[O-])cc4)c4nc(c(-c5ccc(S(=O)(=O)[O-])cc5)c5ccc2[nH]5)C=C4)C=C3)cc1
REMARK SMILES IDX 4 1 3 2 2 3 1 4 20 5 21 6 79 7 22 8 78 9 23 10 24 11 25 12
REMARK SMILES IDX 72 13 26 14 77 15 71 16 73 17 27 18 76 19 70 20 69 21 28 23
REMARK SMILES IDX 58 24 39 25 57 26 40 27 43 28 56 29 74 30 41 31 42 32 55 34
REMARK SMILES IDX 75 35 44 36 29 37 30 38 38 39 31 40 37 41 32 42 33 43 34 44
REMARK SMILES IDX 35 45 36 46 59 47 60 48 68 49 61 50 67 51 62 52 63 53 64 54
REMARK SMILES IDX 65 55 66 56 45 57 46 58 54 59 47 60 53 61 48 62 49 63 50 64
REMARK SMILES IDX 51 65 52 66 5 67 6 68 7 69 8 70 9 71 10 72 14 73 11 74 13 75
REMARK SMILES IDX 12 76 15 77 16 78 19 79 17 80 18 81
REMARK H PARENT 73 22 43 33
REMARK Flexibility Score: inf
ROOT
ATOM      1  C   UNL A   1      36.486  23.427  25.492  1.00  0.00     0.275 C 
ENDROOT
BRANCH   1   2
ATOM      2  O   UNL A   1      37.684  22.633  25.534  1.00  0.00    -0.458 OA
BRANCH   2   3
ATOM      3  C   UNL A   1      38.883  22.844  26.126  1.00  0.00     0.338 C 
ATOM      4  O   UNL A   1      39.639  21.875  26.220  1.00  0.00    -0.246 OA
BRANCH   3   5
ATOM      5  C   UNL A   1      39.350  24.138  26.736  1.00  0.00     0.060 A 
ATOM      6  C   UNL A   1      40.110  25.133  26.118  1.00  0.00     0.016 A 
ATOM      7  C   UNL A   1      38.951  24.373  28.071  1.00  0.00     0.016 A 
ATOM      8  C   UNL A   1      40.423  26.327  26.779  1.00  0.00     0.010 A 
ATOM      9  C   UNL A   1      39.251  25.570  28.736  1.00  0.00     0.010 A 
ATOM     10  C   UNL A   1      39.992  26.557  28.088  1.00  0.00    -0.014 A 
BRANCH  10  11
ATOM     11  C   UNL A   1      40.454  27.776  28.796  1.00  0.00     0.031 A 
ATOM     12  C   UNL A   1      41.881  27.845  29.204  1.00  0.00     0.074 A 
ATOM     13  C   UNL A   1      39.644  28.835  28.981  1.00  0.00     0.049 A 
ATOM     14  N   UNL A   1      42.522  28.844  29.742  1.00  0.00    -0.248 NA
ATOM     15  C   UNL A   1      42.694  26.642  28.971  1.00  0.00     0.031 C 
ATOM     16  C   UNL A   1      38.260  28.851  28.561  1.00  0.00     0.029 A 
ATOM     17  N   UNL A   1      39.831  30.087  29.506  1.00  0.00    -0.354 N 
ATOM     18  C   UNL A   1      43.818  28.393  29.911  1.00  0.00     0.074 A 
ATOM     19  C   UNL A   1      43.868  27.024  29.445  1.00  0.00     0.031 C 
ATOM     20  C   UNL A   1      37.722  30.061  28.766  1.00  0.00     0.029 A 
ATOM     21  C   UNL A   1      38.718  30.900  29.410  1.00  0.00     0.049 A 
ATOM     22  H   UNL A   1      40.679  30.379  29.912  1.00  0.00     0.167 HD
ATOM     23  C   UNL A   1      44.868  29.072  30.419  1.00  0.00     0.031 A 
ATOM     24  C   UNL A   1      38.522  32.176  29.797  1.00  0.00     0.031 A 
ATOM     25  C   UNL A   1      44.769  30.408  30.937  1.00  0.00     0.049 A 
ATOM     26  C   UNL A   1      39.684  32.870  30.449  1.00  0.00     0.074 A 
ATOM     27  C   UNL A   1      45.747  31.167  31.550  1.00  0.00     0.029 A 
ATOM     28  N   UNL A   1      43.612  31.178  30.918  1.00  0.00    -0.354 N 
ATOM     29  N   UNL A   1      40.906  32.423  30.619  1.00  0.00    -0.248 NA
ATOM     30  C   UNL A   1      39.451  34.221  30.971  1.00  0.00     0.031 C 
ATOM     31  C   UNL A   1      45.166  32.372  31.955  1.00  0.00     0.029 A 
ATOM     32  C   UNL A   1      43.845  32.397  31.530  1.00  0.00     0.049 A 
ATOM     33  H   UNL A   1      42.753  30.898  30.527  1.00  0.00     0.167 HD
ATOM     34  C   UNL A   1      41.596  33.442  31.256  1.00  0.00     0.074 A 
ATOM     35  C   UNL A   1      40.660  34.540  31.416  1.00  0.00     0.031 C 
ATOM     36  C   UNL A   1      42.884  33.465  31.677  1.00  0.00     0.031 A 
BRANCH  23  37
ATOM     37  C   UNL A   1      46.165  28.324  30.498  1.00  0.00    -0.014 A 
ATOM     38  C   UNL A   1      47.025  28.240  29.387  1.00  0.00     0.010 A 
ATOM     39  C   UNL A   1      46.495  27.641  31.680  1.00  0.00     0.010 A 
ATOM     40  C   UNL A   1      48.174  27.450  29.446  1.00  0.00     0.020 A 
ATOM     41  C   UNL A   1      47.658  26.873  31.752  1.00  0.00     0.020 A 
ATOM     42  C   UNL A   1      48.480  26.769  30.628  1.00  0.00     0.054 A 
BRANCH  42  43
ATOM     43  S   UNL A   1      49.982  25.756  30.678  1.00  0.00     0.124 S 
ATOM     44  O   UNL A   1      51.013  26.756  30.945  1.00  0.00    -0.237 OA
ATOM     45  O   UNL A   1      49.706  24.830  31.774  1.00  0.00    -0.237 OA
ATOM     46  O   UNL A   1      50.035  25.149  29.350  1.00  0.00    -0.744 OA
ENDBRANCH  42  43
ENDBRANCH  23  37
BRANCH  24  47
ATOM     47  C   UNL A   1      37.201  32.856  29.617  1.00  0.00    -0.014 A 
ATOM     48  C   UNL A   1      36.892  33.551  28.433  1.00  0.00     0.010 A 
ATOM     49  C   UNL A   1      36.239  32.827  30.646  1.00  0.00     0.010 A 
ATOM     50  C   UNL A   1      35.668  34.218  28.291  1.00  0.00     0.020 A 
ATOM     51  C   UNL A   1      35.001  33.465  30.498  1.00  0.00     0.020 A 
ATOM     52  C   UNL A   1      34.729  34.171  29.325  1.00  0.00     0.054 A 
BRANCH  52  53
ATOM     53  S   UNL A   1      33.140  35.023  29.112  1.00  0.00     0.124 S 
ATOM     54  O   UNL A   1      33.560  36.353  28.685  1.00  0.00    -0.237 OA
ATOM     55  O   UNL A   1      32.482  34.209  28.093  1.00  0.00    -0.237 OA
ATOM     56  O   UNL A   1      32.534  34.954  30.440  1.00  0.00    -0.744 OA
ENDBRANCH  52  53
ENDBRANCH  24  47
BRANCH  36  57
ATOM     57  C   UNL A   1      43.360  34.734  32.324  1.00  0.00    -0.014 A 
ATOM     58  C   UNL A   1      43.835  35.810  31.555  1.00  0.00     0.010 A 
ATOM     59  C   UNL A   1      43.266  34.865  33.720  1.00  0.00     0.010 A 
ATOM     60  C   UNL A   1      44.235  36.992  32.180  1.00  0.00     0.020 A 
ATOM     61  C   UNL A   1      43.633  36.056  34.344  1.00  0.00     0.020 A 
ATOM     62  C   UNL A   1      44.126  37.109  33.570  1.00  0.00     0.054 A 
BRANCH  62  63
ATOM     63  S   UNL A   1      44.593  38.676  34.350  1.00  0.00     0.124 S 
ATOM     64  O   UNL A   1      46.039  38.693  34.156  1.00  0.00    -0.237 OA
ATOM     65  O   UNL A   1      43.841  39.656  33.569  1.00  0.00    -0.237 OA
ATOM     66  O   UNL A   1      44.150  38.519  35.733  1.00  0.00    -0.744 OA
ENDBRANCH  62  63
ENDBRANCH  36  57
ENDBRANCH  10  11
ENDBRANCH   3   5
ENDBRANCH   2   3
ENDBRANCH   1   2
BRANCH   1  67
ATOM     67  C   UNL A   1      35.362  22.862  26.358  1.00  0.00     0.275 C 
BRANCH  67  68
ATOM     68  O   UNL A   1      34.810  21.664  25.797  1.00  0.00    -0.458 OA
BRANCH  68  69
ATOM     69  C   UNL A   1      33.461  21.562  25.867  1.00  0.00     0.338 C 
ATOM     70  O   UNL A   1      32.712  22.246  26.550  1.00  0.00    -0.246 OA
BRANCH  69  71
ATOM     71  C   UNL A   1      32.966  20.613  24.853  1.00  0.00     0.065 A 
ATOM     72  C   UNL A   1      32.971  19.268  25.284  1.00  0.00     0.016 A 
ATOM     73  C   UNL A   1      32.561  20.954  23.548  1.00  0.00    -0.010 A 
ATOM     74  C   UNL A   1      32.527  18.245  24.455  1.00  0.00     0.001 A 
ATOM     75  C   UNL A   1      32.208  19.871  22.702  1.00  0.00     0.006 A 
ATOM     76  C   UNL A   1      32.152  18.545  23.156  1.00  0.00     0.000 A 
BRANCH  73  77
ATOM     77  C   UNL A   1      32.399  22.360  22.975  1.00  0.00     0.134 C 
ATOM     78  S   UNL A   1      31.083  23.314  23.809  1.00  0.00    -0.142 SA
ATOM     79  S   UNL A   1      33.886  23.380  22.815  1.00  0.00    -0.142 SA
ATOM     80  C   UNL A   1      32.061  24.721  24.332  1.00  0.00     0.082 C 
ATOM     81  C   UNL A   1      33.122  24.960  23.282  1.00  0.00     0.082 C 
ENDBRANCH  73  77
ENDBRANCH  69  71
ENDBRANCH  68  69
ENDBRANCH  67  68
ENDBRANCH   1  67
TORSDOF 15
ENDMDL
MODEL 3
REMARK VINA RESULT:      -9.8      4.964     11.603
REMARK SMILES O=C(OCCOC(=O)c1ccccc1C1SCCS1)c1ccc(-c2c3nc(c(-c4ccc(S(=O)(=O)[O-])cc4)c4ccc([nH]4)c(-c4ccc(S(=O)(=O)[O-])cc4)c4nc(c(-c5ccc(S(=O)(=O)[O-])cc5)c5ccc2[nH]5)C=C4)C=C3)cc1
REMARK SMILES IDX 4 1 3 2 2 3 1 4 20 5 21 6 79 7 22 8 78 9 23 10 24 11 25 12
REMARK SMILES IDX 72 13 26 14 77 15 71 16 73 17 27 18 76 19 70 20 69 21 28 23
REMARK SMILES IDX 58 24 39 25 57 26 40 27 43 28 56 29 74 30 41 31 42 32 55 34
REMARK SMILES IDX 75 35 44 36 29 37 30 38 38 39 31 40 37 41 32 42 33 43 34 44
REMARK SMILES IDX 35 45 36 46 59 47 60 48 68 49 61 50 67 51 62 52 63 53 64 54
REMARK SMILES IDX 65 55 66 56 45 57 46 58 54 59 47 60 53 61 48 62 49 63 50 64
REMARK SMILES IDX 51 65 52 66 5 67 6 68 7 69 8 70 9 71 10 72 14 73 11 74 13 75
REMARK SMILES IDX 12 76 15 77 16 78 19 79 17 80 18 81
REMARK H PARENT 73 22 43 33
REMARK Flexibility Score: inf
ROOT
ATOM      1  C   UNL A   1      44.115  24.605  24.958  1.00  0.00     0.275 C 
ENDROOT
BRANCH   1   2
ATOM      2  O   UNL A   1      42.891  25.237  25.368  1.00  0.00    -0.458 OA
BRANCH   2   3
ATOM      3  C   UNL A   1      42.010  24.939  26.352  1.00  0.00     0.338 C 
ATOM      4  O   UNL A   1      41.376  23.888  26.238  1.00  0.00    -0.246 OA
BRANCH   3   5
ATOM      5  C   UNL A   1      41.688  25.807  27.540  1.00  0.00     0.060 A 
ATOM      6  C   UNL A   1      40.610  25.665  28.415  1.00  0.00     0.016 A 
ATOM      7  C   UNL A   1      42.594  26.858  27.803  1.00  0.00     0.016 A 
ATOM      8  C   UNL A   1      40.461  26.503  29.528  1.00  0.00     0.010 A 
ATOM      9  C   UNL A   1      42.458  27.693  28.920  1.00  0.00     0.010 A 
ATOM     10  C   UNL A   1      41.384  27.517  29.792  1.00  0.00    -0.014 A 
BRANCH  10  11
ATOM     11  C   UNL A   1      41.120  28.462  30.904  1.00  0.00     0.031 A 
ATOM     12  C   UNL A   1      42.056  28.459  32.058  1.00  0.00     0.074 A 
ATOM     13  C   UNL A   1      40.128  29.369  30.839  1.00  0.00     0.049 A 
ATOM     14  N   UNL A   1      42.077  29.259  33.086  1.00  0.00    -0.248 NA
ATOM     15  C   UNL A   1      43.108  27.432  32.052  1.00  0.00     0.031 C 
ATOM     16  C   UNL A   1      39.214  29.459  29.721  1.00  0.00     0.029 A 
ATOM     17  N   UNL A   1      39.729  30.393  31.658  1.00  0.00    -0.354 N 
ATOM     18  C   UNL A   1      43.146  28.836  33.853  1.00  0.00     0.074 A 
ATOM     19  C   UNL A   1      43.733  27.692  33.189  1.00  0.00     0.031 C 
ATOM     20  C   UNL A   1      38.401  30.514  29.863  1.00  0.00     0.029 A 
ATOM     21  C   UNL A   1      38.691  31.145  31.139  1.00  0.00     0.049 A 
ATOM     22  H   UNL A   1      40.143  30.577  32.532  1.00  0.00     0.167 HD
ATOM     23  C   UNL A   1      43.588  29.361  35.016  1.00  0.00     0.031 A 
ATOM     24  C   UNL A   1      38.047  32.219  31.636  1.00  0.00     0.031 A 
ATOM     25  C   UNL A   1      42.939  30.454  35.685  1.00  0.00     0.049 A 
ATOM     26  C   UNL A   1      38.499  32.717  32.979  1.00  0.00     0.074 A 
ATOM     27  C   UNL A   1      43.249  31.017  36.908  1.00  0.00     0.029 A 
ATOM     28  N   UNL A   1      41.834  31.138  35.192  1.00  0.00    -0.354 N 
ATOM     29  N   UNL A   1      39.507  32.294  33.705  1.00  0.00    -0.248 NA
ATOM     30  C   UNL A   1      37.737  33.817  33.579  1.00  0.00     0.031 C 
ATOM     31  C   UNL A   1      42.295  32.003  37.181  1.00  0.00     0.029 A 
ATOM     32  C   UNL A   1      41.434  32.105  36.097  1.00  0.00     0.049 A 
ATOM     33  H   UNL A   1      41.400  30.961  34.326  1.00  0.00     0.167 HD
ATOM     34  C   UNL A   1      39.511  33.082  34.844  1.00  0.00     0.074 A 
ATOM     35  C   UNL A   1      38.420  34.029  34.696  1.00  0.00     0.031 C 
ATOM     36  C   UNL A   1      40.337  33.026  35.917  1.00  0.00     0.031 A 
BRANCH  23  37
ATOM     37  C   UNL A   1      44.770  28.684  35.641  1.00  0.00    -0.014 A 
ATOM     38  C   UNL A   1      46.084  29.036  35.280  1.00  0.00     0.010 A 
ATOM     39  C   UNL A   1      44.562  27.637  36.554  1.00  0.00     0.010 A 
ATOM     40  C   UNL A   1      47.168  28.322  35.792  1.00  0.00     0.020 A 
ATOM     41  C   UNL A   1      45.645  26.939  37.089  1.00  0.00     0.020 A 
ATOM     42  C   UNL A   1      46.941  27.276  36.691  1.00  0.00     0.054 A 
BRANCH  42  43
ATOM     43  S   UNL A   1      48.368  26.371  37.345  1.00  0.00     0.124 S 
ATOM     44  O   UNL A   1      48.982  27.366  38.220  1.00  0.00    -0.237 OA
ATOM     45  O   UNL A   1      47.744  25.238  38.023  1.00  0.00    -0.237 OA
ATOM     46  O   UNL A   1      49.139  26.032  36.151  1.00  0.00    -0.744 OA
ENDBRANCH  42  43
ENDBRANCH  23  37
BRANCH  24  47
ATOM     47  C   UNL A   1      36.913  32.862  30.901  1.00  0.00    -0.014 A 
ATOM     48  C   UNL A   1      37.141  33.846  29.921  1.00  0.00     0.010 A 
ATOM     49  C   UNL A   1      35.581  32.504  31.191  1.00  0.00     0.010 A 
ATOM     50  C   UNL A   1      36.070  34.470  29.268  1.00  0.00     0.020 A 
ATOM     51  C   UNL A   1      34.508  33.101  30.519  1.00  0.00     0.020 A 
ATOM     52  C   UNL A   1      34.759  34.094  29.571  1.00  0.00     0.054 A 
BRANCH  52  53
ATOM     53  S   UNL A   1      33.386  34.900  28.697  1.00  0.00     0.124 S 
ATOM     54  O   UNL A   1      32.584  35.418  29.800  1.00  0.00    -0.237 OA
ATOM     55  O   UNL A   1      34.075  35.903  27.888  1.00  0.00    -0.237 OA
ATOM     56  O   UNL A   1      32.777  33.810  27.937  1.00  0.00    -0.744 OA
ENDBRANCH  52  53
ENDBRANCH  24  47
BRANCH  36  57
ATOM     57  C   UNL A   1      40.105  34.039  37.001  1.00  0.00    -0.014 A 
ATOM     58  C   UNL A   1      40.716  35.304  36.959  1.00  0.00     0.010 A 
ATOM     59  C   UNL A   1      39.210  33.734  38.040  1.00  0.00     0.010 A 
ATOM     60  C   UNL A   1      40.453  36.240  37.959  1.00  0.00     0.020 A 
ATOM     61  C   UNL A   1      38.919  34.680  39.023  1.00  0.00     0.020 A 
ATOM     62  C   UNL A   1      39.552  35.924  38.981  1.00  0.00     0.054 A 
BRANCH  62  63
ATOM     63  S   UNL A   1      39.180  37.180  40.233  1.00  0.00     0.124 S 
ATOM     64  O   UNL A   1      38.382  36.425  41.193  1.00  0.00    -0.237 OA
ATOM     65  O   UNL A   1      40.510  37.575  40.692  1.00  0.00    -0.237 OA
ATOM     66  O   UNL A   1      38.455  38.207  39.488  1.00  0.00    -0.744 OA
ENDBRANCH  62  63
ENDBRANCH  36  57
ENDBRANCH  10  11
ENDBRANCH   3   5
ENDBRANCH   2   3
ENDBRANCH   1   2
BRANCH   1  67
ATOM     67  C   UNL A   1      45.339  25.503  25.126  1.00  0.00     0.275 C 
BRANCH  67  68
ATOM     68  O   UNL A   1      45.703  25.652  26.504  1.00  0.00    -0.458 OA
BRANCH  68  69
ATOM     69  C   UNL A   1      46.143  24.525  27.111  1.00  0.00     0.338 C 
ATOM     70  O   UNL A   1      47.087  23.829  26.763  1.00  0.00    -0.246 OA
BRANCH  69  71
ATOM     71  C   UNL A   1      45.437  24.321  28.389  1.00  0.00     0.065 A 
ATOM     72  C   UNL A   1      44.454  23.307  28.339  1.00  0.00     0.016 A 
ATOM     73  C   UNL A   1      45.647  25.069  29.563  1.00  0.00    -0.010 A 
ATOM     74  C   UNL A   1      43.700  22.980  29.461  1.00  0.00     0.001 A 
ATOM     75  C   UNL A   1      44.792  24.770  30.655  1.00  0.00     0.006 A 
ATOM     76  C   UNL A   1      43.864  23.719  30.620  1.00  0.00     0.000 A 
BRANCH  73  77
ATOM     77  C   UNL A   1      46.735  26.113  29.804  1.00  0.00     0.134 C 
ATOM     78  S   UNL A   1      46.220  27.796  29.314  1.00  0.00    -0.142 SA
ATOM     79  S   UNL A   1      47.503  26.163  31.444  1.00  0.00    -0.142 SA
ATOM     80  C   UNL A   1      46.473  28.624  30.882  1.00  0.00     0.082 C 
ATOM     81  C   UNL A   1      47.653  27.969  31.563  1.00  0.00     0.082 C 
ENDBRANCH  73  77
ENDBRANCH  69  71
ENDBRANCH  68  69
ENDBRANCH  67  68
ENDBRANCH   1  67
TORSDOF 15
ENDMDL
