MODEL 1
REMARK VINA RESULT:     -12.8      0.000      0.000
REMARK SMILES C[C@]12c3ccccc3[C@](C)(c3ccccc31)[C@@H]1C(=O)N(c3ccc(C(=O)OCCOC(=O)c4ccc(-c5c6nc(c(-c7ccc(S(=O)(=O)[O-])cc7)c7ccc([nH]7)c(-c7ccc(S(=O)(=O)[O-])cc7)c7nc(c(-c8ccc(S(=O)(=O)[O-])cc8)c8ccc5[nH]8)C=C7)C=C6)cc4)cc3)C(=O)[C@H]12
REMARK SMILES IDX 29 1 28 2 27 3 25 4 26 5 24 6 21 7 22 8 94 9 23 10 93 11
REMARK SMILES IDX 20 12 1 13 2 14 16 15 3 16 97 17 15 18 11 19 8 20 4 21 17 22
REMARK SMILES IDX 95 23 14 24 12 25 9 26 7 27 5 28 18 29 96 30 13 31 10 32
REMARK SMILES IDX 6 33 19 34 30 35 31 36 32 37 33 38 34 39 92 40 35 41 91 42
REMARK SMILES IDX 36 43 37 44 38 45 85 46 39 47 90 48 84 49 86 50 40 51 89 52
REMARK SMILES IDX 83 53 82 54 41 56 71 57 52 58 70 59 53 60 56 61 69 62 87 63
REMARK SMILES IDX 54 64 55 65 68 67 88 68 57 69 42 70 43 71 51 72 44 73 50 74
REMARK SMILES IDX 45 75 46 76 47 77 48 78 49 79 72 80 73 81 81 82 74 83 80 84
REMARK SMILES IDX 75 85 76 86 77 87 78 88 79 89 58 90 59 91 67 92 60 93 66 94
REMARK SMILES IDX 61 95 62 96 63 97 64 98 65 99
REMARK H PARENT 86 55 56 66
REMARK Flexibility Score: inf
ROOT
ATOM      1  C   UNL A   1      43.289  23.304  25.334  1.00  0.00     0.275 C 
ENDROOT
BRANCH   1   2
ATOM      2  C   UNL A   1      43.585  21.931  25.943  1.00  0.00     0.275 C 
BRANCH   2   3
ATOM      3  O   UNL A   1      42.597  20.959  25.543  1.00  0.00    -0.458 OA
BRANCH   3   4
ATOM      4  C   UNL A   1      41.798  20.479  26.531  1.00  0.00     0.338 C 
ATOM      5  O   UNL A   1      42.159  19.903  27.539  1.00  0.00    -0.246 OA
BRANCH   4   6
ATOM      6  C   UNL A   1      40.385  20.878  26.290  1.00  0.00     0.060 A 
ATOM      7  C   UNL A   1      37.826  21.843  25.718  1.00  0.00     0.052 A 
ATOM      8  C   UNL A   1      38.714  22.631  26.446  1.00  0.00     0.028 A 
ATOM      9  C   UNL A   1      38.195  20.552  25.318  1.00  0.00     0.028 A 
ATOM     10  C   UNL A   1      39.963  22.117  26.788  1.00  0.00     0.018 A 
ATOM     11  C   UNL A   1      39.491  20.085  25.567  1.00  0.00     0.018 A 
BRANCH   7  12
ATOM     12  N   UNL A   1      36.555  22.343  25.424  1.00  0.00    -0.250 N 
ATOM     13  C   UNL A   1      34.032  26.075  25.920  1.00  0.00     0.022 C 
ATOM     14  C   UNL A   1      33.680  24.786  25.180  1.00  0.00     0.030 C 
ATOM     15  C   UNL A   1      33.462  24.938  23.650  1.00  0.00    -0.033 A 
ATOM     16  C   UNL A   1      32.368  24.097  25.677  1.00  0.00    -0.033 A 
ATOM     17  C   UNL A   1      34.680  23.640  25.484  1.00  0.00     0.108 C 
ATOM     18  C   UNL A   1      33.587  26.113  22.916  1.00  0.00     0.005 A 
ATOM     19  C   UNL A   1      33.062  23.726  22.984  1.00  0.00    -0.033 A 
ATOM     20  C   UNL A   1      32.124  22.823  25.060  1.00  0.00    -0.033 A 
ATOM     21  C   UNL A   1      31.497  24.594  26.644  1.00  0.00     0.005 A 
ATOM     22  C   UNL A   1      34.575  22.598  24.364  1.00  0.00     0.108 C 
ATOM     23  C   UNL A   1      36.169  23.670  25.647  1.00  0.00     0.238 C 
ATOM     24  C   UNL A   1      33.322  26.090  21.544  1.00  0.00     0.000 A 
ATOM     25  C   UNL A   1      32.787  23.721  21.619  1.00  0.00     0.005 A 
ATOM     26  C   UNL A   1      33.104  22.470  23.914  1.00  0.00     0.030 C 
ATOM     27  C   UNL A   1      31.021  22.070  25.455  1.00  0.00     0.005 A 
ATOM     28  C   UNL A   1      30.393  23.828  27.017  1.00  0.00     0.000 A 
ATOM     29  C   UNL A   1      35.547  21.573  24.841  1.00  0.00     0.238 C 
ATOM     30  O   UNL A   1      36.844  24.624  25.987  1.00  0.00    -0.274 OA
ATOM     31  C   UNL A   1      32.919  24.910  20.904  1.00  0.00     0.000 A 
ATOM     32  C   UNL A   1      32.839  21.138  23.218  1.00  0.00     0.022 C 
ATOM     33  C   UNL A   1      30.162  22.575  26.435  1.00  0.00     0.000 A 
ATOM     34  O   UNL A   1      35.514  20.378  24.618  1.00  0.00    -0.274 OA
ENDBRANCH   7  12
ENDBRANCH   4   6
ENDBRANCH   3   4
ENDBRANCH   2   3
ENDBRANCH   1   2
BRANCH   1  35
ATOM     35  O   UNL A   1      42.819  24.218  26.342  1.00  0.00    -0.458 OA
BRANCH  35  36
ATOM     36  C   UNL A   1      42.556  25.476  25.919  1.00  0.00     0.338 C 
ATOM     37  O   UNL A   1      42.593  25.898  24.776  1.00  0.00    -0.246 OA
BRANCH  36  38
ATOM     38  C   UNL A   1      42.073  26.267  27.061  1.00  0.00     0.060 A 
ATOM     39  C   UNL A   1      41.117  25.787  27.950  1.00  0.00     0.016 A 
ATOM     40  C   UNL A   1      42.673  27.503  27.282  1.00  0.00     0.016 A 
ATOM     41  C   UNL A   1      40.750  26.580  29.048  1.00  0.00     0.010 A 
ATOM     42  C   UNL A   1      42.350  28.268  28.400  1.00  0.00     0.010 A 
ATOM     43  C   UNL A   1      41.369  27.825  29.291  1.00  0.00    -0.014 A 
BRANCH  43  44
ATOM     44  C   UNL A   1      41.030  28.642  30.490  1.00  0.00     0.031 A 
ATOM     45  C   UNL A   1      41.842  28.542  31.758  1.00  0.00     0.074 A 
ATOM     46  C   UNL A   1      39.955  29.456  30.452  1.00  0.00     0.049 A 
ATOM     47  N   UNL A   1      41.711  29.221  32.871  1.00  0.00    -0.248 NA
ATOM     48  C   UNL A   1      42.917  27.537  31.801  1.00  0.00     0.031 C 
ATOM     49  C   UNL A   1      39.037  29.583  29.318  1.00  0.00     0.029 A 
ATOM     50  N   UNL A   1      39.461  30.344  31.378  1.00  0.00    -0.354 N 
ATOM     51  C   UNL A   1      42.676  28.724  33.740  1.00  0.00     0.074 A 
ATOM     52  C   UNL A   1      43.347  27.646  33.052  1.00  0.00     0.031 C 
ATOM     53  C   UNL A   1      38.142  30.547  29.582  1.00  0.00     0.029 A 
ATOM     54  C   UNL A   1      38.393  31.081  30.919  1.00  0.00     0.049 A 
ATOM     55  H   UNL A   1      39.835  30.443  32.282  1.00  0.00     0.167 HD
ATOM     56  C   UNL A   1      42.997  29.149  34.985  1.00  0.00     0.031 A 
ATOM     57  C   UNL A   1      37.704  32.090  31.490  1.00  0.00     0.031 A 
ATOM     58  C   UNL A   1      42.355  30.254  35.651  1.00  0.00     0.049 A 
ATOM     59  C   UNL A   1      38.103  32.572  32.857  1.00  0.00     0.074 A 
ATOM     60  C   UNL A   1      42.672  30.814  36.876  1.00  0.00     0.029 A 
ATOM     61  N   UNL A   1      41.278  30.969  35.150  1.00  0.00    -0.354 N 
ATOM     62  N   UNL A   1      39.077  32.147  33.625  1.00  0.00    -0.248 NA
ATOM     63  C   UNL A   1      37.320  33.676  33.432  1.00  0.00     0.031 C 
ATOM     64  C   UNL A   1      41.753  31.830  37.143  1.00  0.00     0.029 A 
ATOM     65  C   UNL A   1      40.904  31.949  36.054  1.00  0.00     0.049 A 
ATOM     66  H   UNL A   1      40.843  30.804  34.283  1.00  0.00     0.167 HD
ATOM     67  C   UNL A   1      39.037  32.943  34.766  1.00  0.00     0.074 A 
ATOM     68  C   UNL A   1      37.953  33.886  34.581  1.00  0.00     0.031 C 
ATOM     69  C   UNL A   1      39.827  32.888  35.865  1.00  0.00     0.031 A 
BRANCH  56  70
ATOM     70  C   UNL A   1      44.129  28.468  35.715  1.00  0.00    -0.014 A 
ATOM     71  C   UNL A   1      45.460  28.853  35.467  1.00  0.00     0.010 A 
ATOM     72  C   UNL A   1      43.884  27.349  36.532  1.00  0.00     0.010 A 
ATOM     73  C   UNL A   1      46.524  28.113  35.994  1.00  0.00     0.020 A 
ATOM     74  C   UNL A   1      44.944  26.624  37.085  1.00  0.00     0.020 A 
ATOM     75  C   UNL A   1      46.258  26.995  36.789  1.00  0.00     0.054 A 
BRANCH  75  76
ATOM     76  S   UNL A   1      47.648  26.020  37.429  1.00  0.00     0.124 S 
ATOM     77  O   UNL A   1      48.678  26.253  36.421  1.00  0.00    -0.237 OA
ATOM     78  O   UNL A   1      47.892  26.628  38.735  1.00  0.00    -0.237 OA
ATOM     79  O   UNL A   1      47.117  24.659  37.476  1.00  0.00    -0.744 OA
ENDBRANCH  75  76
ENDBRANCH  56  70
BRANCH  57  80
ATOM     80  C   UNL A   1      36.624  32.763  30.715  1.00  0.00    -0.014 A 
ATOM     81  C   UNL A   1      36.914  33.840  29.858  1.00  0.00     0.010 A 
ATOM     82  C   UNL A   1      35.283  32.382  30.901  1.00  0.00     0.010 A 
ATOM     83  C   UNL A   1      35.883  34.556  29.245  1.00  0.00     0.020 A 
ATOM     84  C   UNL A   1      34.250  33.077  30.265  1.00  0.00     0.020 A 
ATOM     85  C   UNL A   1      34.556  34.179  29.465  1.00  0.00     0.054 A 
BRANCH  85  86
ATOM     86  S   UNL A   1      33.230  35.155  28.702  1.00  0.00     0.124 S 
ATOM     87  O   UNL A   1      32.540  34.147  27.903  1.00  0.00    -0.237 OA
ATOM     88  O   UNL A   1      32.493  35.654  29.861  1.00  0.00    -0.237 OA
ATOM     89  O   UNL A   1      33.949  36.173  27.941  1.00  0.00    -0.744 OA
ENDBRANCH  85  86
ENDBRANCH  57  80
BRANCH  69  90
ATOM     90  C   UNL A   1      39.572  33.869  36.980  1.00  0.00    -0.014 A 
ATOM     91  C   UNL A   1      40.252  35.102  36.992  1.00  0.00     0.010 A 
ATOM     92  C   UNL A   1      38.786  33.508  38.086  1.00  0.00     0.010 A 
ATOM     93  C   UNL A   1      40.184  35.938  38.110  1.00  0.00     0.020 A 
ATOM     94  C   UNL A   1      38.693  34.355  39.195  1.00  0.00     0.020 A 
ATOM     95  C   UNL A   1      39.416  35.551  39.211  1.00  0.00     0.054 A 
BRANCH  95  96
ATOM     96  S   UNL A   1      39.380  36.623  40.673  1.00  0.00     0.124 S 
ATOM     97  O   UNL A   1      38.847  37.869  40.128  1.00  0.00    -0.237 OA
ATOM     98  O   UNL A   1      38.490  35.902  41.580  1.00  0.00    -0.237 OA
ATOM     99  O   UNL A   1      40.778  36.675  41.096  1.00  0.00    -0.744 OA
ENDBRANCH  95  96
ENDBRANCH  69  90
ENDBRANCH  43  44
ENDBRANCH  36  38
ENDBRANCH  35  36
ENDBRANCH   1  35
TORSDOF 15
ENDMDL
MODEL 2
REMARK VINA RESULT:     -12.3      0.631      2.503
REMARK SMILES C[C@]12c3ccccc3[C@](C)(c3ccccc31)[C@@H]1C(=O)N(c3ccc(C(=O)OCCOC(=O)c4ccc(-c5c6nc(c(-c7ccc(S(=O)(=O)[O-])cc7)c7ccc([nH]7)c(-c7ccc(S(=O)(=O)[O-])cc7)c7nc(c(-c8ccc(S(=O)(=O)[O-])cc8)c8ccc5[nH]8)C=C7)C=C6)cc4)cc3)C(=O)[C@H]12
REMARK SMILES IDX 29 1 28 2 27 3 25 4 26 5 24 6 21 7 22 8 94 9 23 10 93 11
REMARK SMILES IDX 20 12 1 13 2 14 16 15 3 16 97 17 15 18 11 19 8 20 4 21 17 22
REMARK SMILES IDX 95 23 14 24 12 25 9 26 7 27 5 28 18 29 96 30 13 31 10 32
REMARK SMILES IDX 6 33 19 34 30 35 31 36 32 37 33 38 34 39 92 40 35 41 91 42
REMARK SMILES IDX 36 43 37 44 38 45 85 46 39 47 90 48 84 49 86 50 40 51 89 52
REMARK SMILES IDX 83 53 82 54 41 56 71 57 52 58 70 59 53 60 56 61 69 62 87 63
REMARK SMILES IDX 54 64 55 65 68 67 88 68 57 69 42 70 43 71 51 72 44 73 50 74
REMARK SMILES IDX 45 75 46 76 47 77 48 78 49 79 72 80 73 81 81 82 74 83 80 84
REMARK SMILES IDX 75 85 76 86 77 87 78 88 79 89 58 90 59 91 67 92 60 93 66 94
REMARK SMILES IDX 61 95 62 96 63 97 64 98 65 99
REMARK H PARENT 86 55 56 66
REMARK Flexibility Score: inf
ROOT
ATOM      1  C   UNL A   1      43.384  23.183  25.233  1.00  0.00     0.275 C 
ENDROOT
BRANCH   1   2
ATOM      2  C   UNL A   1      43.386  21.798  25.884  1.00  0.00     0.275 C 
BRANCH   2   3
ATOM      3  O   UNL A   1      42.689  21.814  27.148  1.00  0.00    -0.458 OA
BRANCH   3   4
ATOM      4  C   UNL A   1      41.659  20.937  27.272  1.00  0.00     0.338 C 
ATOM      5  O   UNL A   1      41.691  19.856  27.826  1.00  0.00    -0.246 OA
BRANCH   4   6
ATOM      6  C   UNL A   1      40.405  21.540  26.747  1.00  0.00     0.060 A 
ATOM      7  C   UNL A   1      37.923  22.461  25.854  1.00  0.00     0.052 A 
ATOM      8  C   UNL A   1      38.385  21.214  25.441  1.00  0.00     0.028 A 
ATOM      9  C   UNL A   1      38.719  23.273  26.672  1.00  0.00     0.028 A 
ATOM     10  C   UNL A   1      39.653  20.791  25.833  1.00  0.00     0.018 A 
ATOM     11  C   UNL A   1      39.944  22.795  27.154  1.00  0.00     0.018 A 
BRANCH   7  12
ATOM     12  N   UNL A   1      36.672  22.904  25.414  1.00  0.00    -0.250 N 
ATOM     13  C   UNL A   1      33.139  21.567  22.910  1.00  0.00     0.022 C 
ATOM     14  C   UNL A   1      33.292  22.853  23.721  1.00  0.00     0.030 C 
ATOM     15  C   UNL A   1      32.293  23.017  24.899  1.00  0.00    -0.033 A 
ATOM     16  C   UNL A   1      33.106  24.163  22.890  1.00  0.00    -0.033 A 
ATOM     17  C   UNL A   1      34.750  23.078  24.198  1.00  0.00     0.108 C 
ATOM     18  C   UNL A   1      31.320  22.102  25.283  1.00  0.00     0.005 A 
ATOM     19  C   UNL A   1      32.409  24.267  25.605  1.00  0.00    -0.033 A 
ATOM     20  C   UNL A   1      33.382  25.358  23.639  1.00  0.00    -0.033 A 
ATOM     21  C   UNL A   1      32.749  24.238  21.545  1.00  0.00     0.005 A 
ATOM     22  C   UNL A   1      34.726  24.053  25.381  1.00  0.00     0.108 C 
ATOM     23  C   UNL A   1      35.765  22.102  24.711  1.00  0.00     0.238 C 
ATOM     24  C   UNL A   1      30.472  22.415  26.349  1.00  0.00     0.000 A 
ATOM     25  C   UNL A   1      31.549  24.572  26.656  1.00  0.00     0.005 A 
ATOM     26  C   UNL A   1      33.636  25.121  25.148  1.00  0.00     0.030 C 
ATOM     27  C   UNL A   1      33.316  26.595  23.004  1.00  0.00     0.005 A 
ATOM     28  C   UNL A   1      32.679  25.489  20.932  1.00  0.00     0.000 A 
ATOM     29  C   UNL A   1      36.184  24.187  25.666  1.00  0.00     0.238 C 
ATOM     30  O   UNL A   1      35.812  20.910  24.473  1.00  0.00    -0.274 OA
ATOM     31  C   UNL A   1      30.581  23.639  27.023  1.00  0.00     0.000 A 
ATOM     32  C   UNL A   1      33.892  26.381  25.971  1.00  0.00     0.022 C 
ATOM     33  C   UNL A   1      32.968  26.655  21.652  1.00  0.00     0.000 A 
ATOM     34  O   UNL A   1      36.747  25.150  26.151  1.00  0.00    -0.274 OA
ENDBRANCH   7  12
ENDBRANCH   4   6
ENDBRANCH   3   4
ENDBRANCH   2   3
ENDBRANCH   1   2
BRANCH   1  35
ATOM     35  O   UNL A   1      42.754  24.150  26.093  1.00  0.00    -0.458 OA
BRANCH  35  36
ATOM     36  C   UNL A   1      43.299  25.389  26.085  1.00  0.00     0.338 C 
ATOM     37  O   UNL A   1      44.042  25.867  25.246  1.00  0.00    -0.246 OA
BRANCH  36  38
ATOM     38  C   UNL A   1      42.746  26.156  27.211  1.00  0.00     0.060 A 
ATOM     39  C   UNL A   1      41.796  25.627  28.079  1.00  0.00     0.016 A 
ATOM     40  C   UNL A   1      43.271  27.424  27.440  1.00  0.00     0.016 A 
ATOM     41  C   UNL A   1      41.359  26.402  29.164  1.00  0.00     0.010 A 
ATOM     42  C   UNL A   1      42.880  28.173  28.546  1.00  0.00     0.010 A 
ATOM     43  C   UNL A   1      41.903  27.680  29.416  1.00  0.00    -0.014 A 
BRANCH  43  44
ATOM     44  C   UNL A   1      41.491  28.482  30.602  1.00  0.00     0.031 A 
ATOM     45  C   UNL A   1      42.268  28.422  31.894  1.00  0.00     0.074 A 
ATOM     46  C   UNL A   1      40.380  29.244  30.530  1.00  0.00     0.049 A 
ATOM     47  N   UNL A   1      42.073  29.095  33.001  1.00  0.00    -0.248 NA
ATOM     48  C   UNL A   1      43.388  27.469  31.971  1.00  0.00     0.031 C 
ATOM     49  C   UNL A   1      39.491  29.326  29.369  1.00  0.00     0.029 A 
ATOM     50  N   UNL A   1      39.817  30.109  31.439  1.00  0.00    -0.354 N 
ATOM     51  C   UNL A   1      43.034  28.646  33.900  1.00  0.00     0.074 A 
ATOM     52  C   UNL A   1      43.775  27.599  33.234  1.00  0.00     0.031 C 
ATOM     53  C   UNL A   1      38.544  30.247  29.605  1.00  0.00     0.029 A 
ATOM     54  C   UNL A   1      38.729  30.793  30.947  1.00  0.00     0.049 A 
ATOM     55  H   UNL A   1      40.159  30.226  32.354  1.00  0.00     0.167 HD
ATOM     56  C   UNL A   1      43.298  29.087  35.152  1.00  0.00     0.031 A 
ATOM     57  C   UNL A   1      37.977  31.770  31.495  1.00  0.00     0.031 A 
ATOM     58  C   UNL A   1      42.584  30.160  35.796  1.00  0.00     0.049 A 
ATOM     59  C   UNL A   1      38.312  32.272  32.872  1.00  0.00     0.074 A 
ATOM     60  C   UNL A   1      42.838  30.737  37.029  1.00  0.00     0.029 A 
ATOM     61  N   UNL A   1      41.490  30.823  35.262  1.00  0.00    -0.354 N 
ATOM     62  N   UNL A   1      39.282  31.894  33.669  1.00  0.00    -0.248 NA
ATOM     63  C   UNL A   1      37.461  33.338  33.421  1.00  0.00     0.031 C 
ATOM     64  C   UNL A   1      41.865  31.708  37.265  1.00  0.00     0.029 A 
ATOM     65  C   UNL A   1      41.043  31.786  36.152  1.00  0.00     0.049 A 
ATOM     66  H   UNL A   1      41.089  30.637  34.382  1.00  0.00     0.167 HD
ATOM     67  C   UNL A   1      39.170  32.688  34.806  1.00  0.00     0.074 A 
ATOM     68  C   UNL A   1      38.049  33.579  34.587  1.00  0.00     0.031 C 
ATOM     69  C   UNL A   1      39.929  32.672  35.928  1.00  0.00     0.031 A 
BRANCH  56  70
ATOM     70  C   UNL A   1      44.438  28.461  35.916  1.00  0.00    -0.014 A 
ATOM     71  C   UNL A   1      44.191  27.399  36.807  1.00  0.00     0.010 A 
ATOM     72  C   UNL A   1      45.729  29.019  35.864  1.00  0.00     0.010 A 
ATOM     73  C   UNL A   1      45.201  26.931  37.655  1.00  0.00     0.020 A 
ATOM     74  C   UNL A   1      46.749  28.534  36.688  1.00  0.00     0.020 A 
ATOM     75  C   UNL A   1      46.470  27.512  37.598  1.00  0.00     0.054 A 
BRANCH  75  76
ATOM     76  S   UNL A   1      47.757  26.924  38.733  1.00  0.00     0.124 S 
ATOM     77  O   UNL A   1      46.980  26.531  39.904  1.00  0.00    -0.237 OA
ATOM     78  O   UNL A   1      48.371  25.829  37.985  1.00  0.00    -0.237 OA
ATOM     79  O   UNL A   1      48.613  28.095  38.916  1.00  0.00    -0.744 OA
ENDBRANCH  75  76
ENDBRANCH  56  70
BRANCH  57  80
ATOM     80  C   UNL A   1      36.890  32.390  30.687  1.00  0.00    -0.014 A 
ATOM     81  C   UNL A   1      37.165  33.440  29.792  1.00  0.00     0.010 A 
ATOM     82  C   UNL A   1      35.556  31.987  30.877  1.00  0.00     0.010 A 
ATOM     83  C   UNL A   1      36.124  34.110  29.144  1.00  0.00     0.020 A 
ATOM     84  C   UNL A   1      34.513  32.636  30.207  1.00  0.00     0.020 A 
ATOM     85  C   UNL A   1      34.803  33.714  29.368  1.00  0.00     0.054 A 
BRANCH  85  86
ATOM     86  S   UNL A   1      33.463  34.632  28.559  1.00  0.00     0.124 S 
ATOM     87  O   UNL A   1      32.607  34.971  29.692  1.00  0.00    -0.237 OA
ATOM     88  O   UNL A   1      34.170  35.752  27.944  1.00  0.00    -0.237 OA
ATOM     89  O   UNL A   1      32.904  33.663  27.620  1.00  0.00    -0.744 OA
ENDBRANCH  85  86
ENDBRANCH  57  80
BRANCH  69  90
ATOM     90  C   UNL A   1      39.596  33.641  37.033  1.00  0.00    -0.014 A 
ATOM     91  C   UNL A   1      40.210  34.908  37.058  1.00  0.00     0.010 A 
ATOM     92  C   UNL A   1      38.800  33.243  38.120  1.00  0.00     0.010 A 
ATOM     93  C   UNL A   1      40.071  35.741  38.171  1.00  0.00     0.020 A 
ATOM     94  C   UNL A   1      38.634  34.086  39.223  1.00  0.00     0.020 A 
ATOM     95  C   UNL A   1      39.295  35.318  39.253  1.00  0.00     0.054 A 
BRANCH  95  96
ATOM     96  S   UNL A   1      39.166  36.390  40.710  1.00  0.00     0.124 S 
ATOM     97  O   UNL A   1      38.027  35.811  41.418  1.00  0.00    -0.237 OA
ATOM     98  O   UNL A   1      40.465  36.213  41.356  1.00  0.00    -0.237 OA
ATOM     99  O   UNL A   1      38.939  37.717  40.142  1.00  0.00    -0.744 OA
ENDBRANCH  95  96
ENDBRANCH  69  90
ENDBRANCH  43  44
ENDBRANCH  36  38
ENDBRANCH  35  36
ENDBRANCH   1  35
TORSDOF 15
ENDMDL
MODEL 3
REMARK VINA RESULT:     -12.3     11.518     19.163
REMARK SMILES C[C@]12c3ccccc3[C@](C)(c3ccccc31)[C@@H]1C(=O)N(c3ccc(C(=O)OCCOC(=O)c4ccc(-c5c6nc(c(-c7ccc(S(=O)(=O)[O-])cc7)c7ccc([nH]7)c(-c7ccc(S(=O)(=O)[O-])cc7)c7nc(c(-c8ccc(S(=O)(=O)[O-])cc8)c8ccc5[nH]8)C=C7)C=C6)cc4)cc3)C(=O)[C@H]12
REMARK SMILES IDX 29 1 28 2 27 3 25 4 26 5 24 6 21 7 22 8 94 9 23 10 93 11
REMARK SMILES IDX 20 12 1 13 2 14 16 15 3 16 97 17 15 18 11 19 8 20 4 21 17 22
REMARK SMILES IDX 95 23 14 24 12 25 9 26 7 27 5 28 18 29 96 30 13 31 10 32
REMARK SMILES IDX 6 33 19 34 30 35 31 36 32 37 33 38 34 39 92 40 35 41 91 42
REMARK SMILES IDX 36 43 37 44 38 45 85 46 39 47 90 48 84 49 86 50 40 51 89 52
REMARK SMILES IDX 83 53 82 54 41 56 71 57 52 58 70 59 53 60 56 61 69 62 87 63
REMARK SMILES IDX 54 64 55 65 68 67 88 68 57 69 42 70 43 71 51 72 44 73 50 74
REMARK SMILES IDX 45 75 46 76 47 77 48 78 49 79 72 80 73 81 81 82 74 83 80 84
REMARK SMILES IDX 75 85 76 86 77 87 78 88 79 89 58 90 59 91 67 92 60 93 66 94
REMARK SMILES IDX 61 95 62 96 63 97 64 98 65 99
REMARK H PARENT 86 55 56 66
REMARK Flexibility Score: inf
ROOT
ATOM      1  C   UNL A   1      45.596  39.114  27.991  1.00  0.00     0.275 C 
ENDROOT
BRANCH   1   2
ATOM      2  C   UNL A   1      44.619  38.995  26.819  1.00  0.00     0.275 C 
BRANCH   2   3
ATOM      3  O   UNL A   1      44.784  40.084  25.887  1.00  0.00    -0.458 OA
BRANCH   3   4
ATOM      4  C   UNL A   1      43.799  41.019  25.882  1.00  0.00     0.338 C 
ATOM      5  O   UNL A   1      42.896  41.125  26.689  1.00  0.00    -0.246 OA
BRANCH   4   6
ATOM      6  C   UNL A   1      44.044  42.019  24.809  1.00  0.00     0.060 A 
ATOM      7  C   UNL A   1      44.588  43.697  22.642  1.00  0.00     0.052 A 
ATOM      8  C   UNL A   1      45.597  42.887  23.157  1.00  0.00     0.028 A 
ATOM      9  C   UNL A   1      43.320  43.709  23.238  1.00  0.00     0.028 A 
ATOM     10  C   UNL A   1      45.339  42.105  24.280  1.00  0.00     0.018 A 
ATOM     11  C   UNL A   1      43.035  42.838  24.296  1.00  0.00     0.018 A 
BRANCH   7  12
ATOM     12  N   UNL A   1      44.867  44.519  21.547  1.00  0.00    -0.250 N 
ATOM     13  C   UNL A   1      44.237  44.758  17.065  1.00  0.00     0.022 C 
ATOM     14  C   UNL A   1      44.883  45.791  17.986  1.00  0.00     0.030 C 
ATOM     15  C   UNL A   1      44.138  47.151  18.083  1.00  0.00    -0.033 A 
ATOM     16  C   UNL A   1      46.338  46.193  17.583  1.00  0.00    -0.033 A 
ATOM     17  C   UNL A   1      45.175  45.221  19.398  1.00  0.00     0.108 C 
ATOM     18  C   UNL A   1      42.949  47.482  17.442  1.00  0.00     0.005 A 
ATOM     19  C   UNL A   1      44.800  48.134  18.901  1.00  0.00    -0.033 A 
ATOM     20  C   UNL A   1      46.973  47.064  18.532  1.00  0.00    -0.033 A 
ATOM     21  C   UNL A   1      47.025  45.757  16.452  1.00  0.00     0.005 A 
ATOM     22  C   UNL A   1      45.327  46.395  20.372  1.00  0.00     0.108 C 
ATOM     23  C   UNL A   1      44.367  44.297  20.258  1.00  0.00     0.238 C 
ATOM     24  C   UNL A   1      42.422  48.767  17.606  1.00  0.00     0.000 A 
ATOM     25  C   UNL A   1      44.272  49.413  19.044  1.00  0.00     0.005 A 
ATOM     26  C   UNL A   1      46.041  47.565  19.662  1.00  0.00     0.030 C 
ATOM     27  C   UNL A   1      48.295  47.451  18.330  1.00  0.00     0.005 A 
ATOM     28  C   UNL A   1      48.346  46.165  16.264  1.00  0.00     0.000 A 
ATOM     29  C   UNL A   1      45.648  45.673  21.637  1.00  0.00     0.238 C 
ATOM     30  O   UNL A   1      43.542  43.487  19.879  1.00  0.00    -0.274 OA
ATOM     31  C   UNL A   1      43.079  49.723  18.391  1.00  0.00     0.000 A 
ATOM     32  C   UNL A   1      46.685  48.524  20.661  1.00  0.00     0.022 C 
ATOM     33  C   UNL A   1      48.977  46.996  17.197  1.00  0.00     0.000 A 
ATOM     34  O   UNL A   1      46.309  46.092  22.568  1.00  0.00    -0.274 OA
ENDBRANCH   7  12
ENDBRANCH   4   6
ENDBRANCH   3   4
ENDBRANCH   2   3
ENDBRANCH   1   2
BRANCH   1  35
ATOM     35  O   UNL A   1      45.737  37.852  28.668  1.00  0.00    -0.458 OA
BRANCH  35  36
ATOM     36  C   UNL A   1      46.987  37.335  28.696  1.00  0.00     0.338 C 
ATOM     37  O   UNL A   1      48.028  37.922  28.932  1.00  0.00    -0.246 OA
BRANCH  36  38
ATOM     38  C   UNL A   1      46.899  35.878  28.518  1.00  0.00     0.060 A 
ATOM     39  C   UNL A   1      46.985  34.990  29.585  1.00  0.00     0.016 A 
ATOM     40  C   UNL A   1      46.636  35.405  27.236  1.00  0.00     0.016 A 
ATOM     41  C   UNL A   1      46.835  33.616  29.341  1.00  0.00     0.010 A 
ATOM     42  C   UNL A   1      46.432  34.048  27.000  1.00  0.00     0.010 A 
ATOM     43  C   UNL A   1      46.547  33.130  28.048  1.00  0.00    -0.014 A 
BRANCH  43  44
ATOM     44  C   UNL A   1      46.322  31.679  27.793  1.00  0.00     0.031 A 
ATOM     45  C   UNL A   1      44.960  31.056  27.976  1.00  0.00     0.074 A 
ATOM     46  C   UNL A   1      47.365  30.903  27.431  1.00  0.00     0.049 A 
ATOM     47  N   UNL A   1      44.585  29.821  27.747  1.00  0.00    -0.248 NA
ATOM     48  C   UNL A   1      43.886  31.911  28.509  1.00  0.00     0.031 C 
ATOM     49  C   UNL A   1      48.749  31.363  27.301  1.00  0.00     0.029 A 
ATOM     50  N   UNL A   1      47.424  29.573  27.088  1.00  0.00    -0.354 N 
ATOM     51  C   UNL A   1      43.245  29.752  28.111  1.00  0.00     0.074 A 
ATOM     52  C   UNL A   1      42.884  31.050  28.634  1.00  0.00     0.031 C 
ATOM     53  C   UNL A   1      49.504  30.357  26.833  1.00  0.00     0.029 A 
ATOM     54  C   UNL A   1      48.670  29.169  26.667  1.00  0.00     0.049 A 
ATOM     55  H   UNL A   1      46.649  28.969  27.137  1.00  0.00     0.167 HD
ATOM     56  C   UNL A   1      42.385  28.714  27.990  1.00  0.00     0.031 A 
ATOM     57  C   UNL A   1      49.098  27.987  26.177  1.00  0.00     0.031 A 
ATOM     58  C   UNL A   1      42.738  27.435  27.428  1.00  0.00     0.049 A 
ATOM     59  C   UNL A   1      48.117  26.859  26.015  1.00  0.00     0.074 A 
ATOM     60  C   UNL A   1      41.912  26.352  27.182  1.00  0.00     0.029 A 
ATOM     61  N   UNL A   1      44.011  27.069  27.017  1.00  0.00    -0.354 N 
ATOM     62  N   UNL A   1      46.833  26.844  26.282  1.00  0.00    -0.248 NA
ATOM     63  C   UNL A   1      48.635  25.593  25.475  1.00  0.00     0.031 C 
ATOM     64  C   UNL A   1      42.694  25.313  26.677  1.00  0.00     0.029 A 
ATOM     65  C   UNL A   1      43.996  25.768  26.543  1.00  0.00     0.049 A 
ATOM     66  H   UNL A   1      44.807  27.647  27.058  1.00  0.00     0.167 HD
ATOM     67  C   UNL A   1      46.387  25.575  25.926  1.00  0.00     0.074 A 
ATOM     68  C   UNL A   1      47.533  24.857  25.409  1.00  0.00     0.031 C 
ATOM     69  C   UNL A   1      45.138  25.058  26.025  1.00  0.00     0.031 A 
BRANCH  56  70
ATOM     70  C   UNL A   1      40.951  28.906  28.419  1.00  0.00    -0.014 A 
ATOM     71  C   UNL A   1      39.955  29.159  27.457  1.00  0.00     0.010 A 
ATOM     72  C   UNL A   1      40.616  28.983  29.784  1.00  0.00     0.010 A 
ATOM     73  C   UNL A   1      38.661  29.519  27.850  1.00  0.00     0.020 A 
ATOM     74  C   UNL A   1      39.316  29.313  30.181  1.00  0.00     0.020 A 
ATOM     75  C   UNL A   1      38.355  29.606  29.211  1.00  0.00     0.054 A 
BRANCH  75  76
ATOM     76  S   UNL A   1      36.685  30.117  29.704  1.00  0.00     0.124 S 
ATOM     77  O   UNL A   1      35.926  29.918  28.474  1.00  0.00    -0.237 OA
ATOM     78  O   UNL A   1      36.376  29.193  30.794  1.00  0.00    -0.237 OA
ATOM     79  O   UNL A   1      36.860  31.509  30.113  1.00  0.00    -0.744 OA
ENDBRANCH  75  76
ENDBRANCH  56  70
BRANCH  57  80
ATOM     80  C   UNL A   1      50.511  27.856  25.725  1.00  0.00    -0.014 A 
ATOM     81  C   UNL A   1      50.870  28.123  24.391  1.00  0.00     0.010 A 
ATOM     82  C   UNL A   1      51.492  27.377  26.611  1.00  0.00     0.010 A 
ATOM     83  C   UNL A   1      52.166  27.863  23.939  1.00  0.00     0.020 A 
ATOM     84  C   UNL A   1      52.799  27.145  26.171  1.00  0.00     0.020 A 
ATOM     85  C   UNL A   1      53.118  27.361  24.828  1.00  0.00     0.054 A 
BRANCH  85  86
ATOM     86  S   UNL A   1      54.781  26.979  24.209  1.00  0.00     0.124 S 
ATOM     87  O   UNL A   1      54.613  27.162  22.770  1.00  0.00    -0.237 OA
ATOM     88  O   UNL A   1      55.608  27.979  24.879  1.00  0.00    -0.237 OA
ATOM     89  O   UNL A   1      55.001  25.603  24.644  1.00  0.00    -0.744 OA
ENDBRANCH  85  86
ENDBRANCH  57  80
BRANCH  69  90
ATOM     90  C   UNL A   1      44.912  23.640  25.572  1.00  0.00    -0.014 A 
ATOM     91  C   UNL A   1      45.138  22.577  26.467  1.00  0.00     0.010 A 
ATOM     92  C   UNL A   1      44.628  23.353  24.226  1.00  0.00     0.010 A 
ATOM     93  C   UNL A   1      45.128  21.255  26.016  1.00  0.00     0.020 A 
ATOM     94  C   UNL A   1      44.589  22.030  23.776  1.00  0.00     0.020 A 
ATOM     95  C   UNL A   1      44.868  20.991  24.669  1.00  0.00     0.054 A 
BRANCH  95  96
ATOM     96  S   UNL A   1      44.909  19.273  24.090  1.00  0.00     0.124 S 
ATOM     97  O   UNL A   1      43.922  18.633  24.955  1.00  0.00    -0.237 OA
ATOM     98  O   UNL A   1      44.528  19.398  22.684  1.00  0.00    -0.237 OA
ATOM     99  O   UNL A   1      46.294  18.867  24.316  1.00  0.00    -0.744 OA
ENDBRANCH  95  96
ENDBRANCH  69  90
ENDBRANCH  43  44
ENDBRANCH  36  38
ENDBRANCH  35  36
ENDBRANCH   1  35
TORSDOF 15
ENDMDL
