MODEL 1
REMARK VINA RESULT:     -11.1      0.000      0.000
REMARK SMILES COc1cccc([C@@H]2CC(c3cccc(C)c3)=NN2C(=O)CCC(=O)OCCOC(=O)c2ccc(-c3c4nc(c(-c5ccc(S(=O)(=O)[O-])cc5)c5ccc([nH]5)c(-c5ccc(S(=O)(=O)[O-])cc5)c5nc(c(-c6ccc(S(=O)(=O)[O-])cc6)c6ccc3[nH]6)C=C5)C=C4)cc2)c1
REMARK SMILES IDX 27 1 26 2 24 3 25 4 23 5 22 6 20 7 21 8 19 9 8 10 9 11 10 12
REMARK SMILES IDX 18 13 7 14 3 15 4 16 92 17 5 18 6 19 2 20 1 21 11 22 12 23
REMARK SMILES IDX 17 24 13 25 15 26 14 27 16 28 28 29 29 30 30 31 31 32 32 33
REMARK SMILES IDX 33 34 91 35 34 36 90 37 35 38 36 39 37 40 84 41 38 42 89 43
REMARK SMILES IDX 83 44 85 45 39 46 88 47 82 48 81 49 40 51 70 52 51 53 69 54
REMARK SMILES IDX 52 55 55 56 68 57 86 58 53 59 54 60 67 62 87 63 56 64 41 65
REMARK SMILES IDX 42 66 50 67 43 68 49 69 44 70 45 71 46 72 47 73 48 74 71 75
REMARK SMILES IDX 72 76 80 77 73 78 79 79 74 80 75 81 76 82 77 83 78 84 57 85
REMARK SMILES IDX 58 86 66 87 59 88 65 89 60 90 61 91 62 92 63 93 64 94
REMARK H PARENT 85 50 55 61
REMARK Flexibility Score: inf
ROOT
ATOM      1  C   UNL A   1      35.091  32.581  28.924  1.00  0.00     0.274 C 
ENDROOT
BRANCH   1   2
ATOM      2  O   UNL A   1      34.006  31.889  28.261  1.00  0.00    -0.462 OA
BRANCH   2   3
ATOM      3  C   UNL A   1      34.358  30.789  27.541  1.00  0.00     0.306 C 
ATOM      4  O   UNL A   1      35.514  30.423  27.361  1.00  0.00    -0.252 OA
BRANCH   3   5
ATOM      5  C   UNL A   1      33.178  30.097  26.895  1.00  0.00     0.132 C 
BRANCH   5   6
ATOM      6  C   UNL A   1      33.164  28.571  26.988  1.00  0.00     0.114 C 
BRANCH   6   7
ATOM      7  C   UNL A   1      31.763  28.048  26.726  1.00  0.00     0.243 C 
ATOM      8  O   UNL A   1      30.939  28.091  27.646  1.00  0.00    -0.273 OA
BRANCH   7   9
ATOM      9  N   UNL A   1      31.507  27.447  25.504  1.00  0.00    -0.225 N 
ATOM     10  C   UNL A   1      31.432  28.060  24.171  1.00  0.00     0.147 C 
ATOM     11  C   UNL A   1      31.824  26.932  23.221  1.00  0.00     0.091 C 
ATOM     12  C   UNL A   1      31.875  25.794  24.191  1.00  0.00     0.071 C 
ATOM     13  N   UNL A   1      31.653  26.076  25.433  1.00  0.00    -0.174 NA
BRANCH  10  14
ATOM     14  C   UNL A   1      30.090  28.695  23.840  1.00  0.00    -0.019 A 
ATOM     15  C   UNL A   1      28.782  30.745  23.492  1.00  0.00     0.119 A 
ATOM     16  C   UNL A   1      27.713  29.979  23.042  1.00  0.00     0.046 A 
ATOM     17  C   UNL A   1      29.941  30.095  23.914  1.00  0.00     0.052 A 
ATOM     18  C   UNL A   1      27.813  28.588  23.001  1.00  0.00     0.004 A 
ATOM     19  C   UNL A   1      28.993  27.949  23.396  1.00  0.00     0.006 A 
BRANCH  15  20
ATOM     20  O   UNL A   1      28.593  32.099  23.476  1.00  0.00    -0.497 OA
ATOM     21  C   UNL A   1      28.726  32.749  22.216  1.00  0.00     0.278 C 
ENDBRANCH  15  20
ENDBRANCH  10  14
BRANCH  12  22
ATOM     22  C   UNL A   1      32.277  24.463  23.744  1.00  0.00    -0.002 A 
ATOM     23  C   UNL A   1      32.830  24.287  22.480  1.00  0.00     0.010 A 
ATOM     24  C   UNL A   1      32.034  23.377  24.591  1.00  0.00     0.013 A 
ATOM     25  C   UNL A   1      33.169  23.000  22.068  1.00  0.00     0.001 A 
ATOM     26  C   UNL A   1      32.358  22.084  24.174  1.00  0.00    -0.050 A 
ATOM     27  C   UNL A   1      32.936  21.907  22.909  1.00  0.00     0.003 A 
ATOM     28  C   UNL A   1      32.066  20.898  25.044  1.00  0.00     0.044 C 
ENDBRANCH  12  22
ENDBRANCH   7   9
ENDBRANCH   6   7
ENDBRANCH   5   6
ENDBRANCH   3   5
ENDBRANCH   2   3
ENDBRANCH   1   2
BRANCH   1  29
ATOM     29  C   UNL A   1      35.099  32.424  30.454  1.00  0.00     0.275 C 
BRANCH  29  30
ATOM     30  O   UNL A   1      36.391  32.086  30.999  1.00  0.00    -0.458 OA
BRANCH  30  31
ATOM     31  C   UNL A   1      36.664  30.770  30.911  1.00  0.00     0.338 C 
ATOM     32  O   UNL A   1      35.866  29.870  31.099  1.00  0.00    -0.246 OA
BRANCH  31  33
ATOM     33  C   UNL A   1      38.033  30.426  30.546  1.00  0.00     0.060 A 
ATOM     34  C   UNL A   1      38.359  30.461  29.186  1.00  0.00     0.016 A 
ATOM     35  C   UNL A   1      38.887  29.843  31.482  1.00  0.00     0.016 A 
ATOM     36  C   UNL A   1      39.568  29.932  28.753  1.00  0.00     0.010 A 
ATOM     37  C   UNL A   1      40.101  29.312  31.047  1.00  0.00     0.010 A 
ATOM     38  C   UNL A   1      40.449  29.364  29.685  1.00  0.00    -0.014 A 
BRANCH  38  39
ATOM     39  C   UNL A   1      41.816  29.012  29.257  1.00  0.00     0.031 A 
ATOM     40  C   UNL A   1      42.944  29.993  29.301  1.00  0.00     0.074 A 
ATOM     41  C   UNL A   1      42.005  27.749  28.836  1.00  0.00     0.049 A 
ATOM     42  N   UNL A   1      44.180  29.835  28.907  1.00  0.00    -0.248 NA
ATOM     43  C   UNL A   1      42.651  31.320  29.856  1.00  0.00     0.031 C 
ATOM     44  C   UNL A   1      40.968  26.712  28.812  1.00  0.00     0.029 A 
ATOM     45  N   UNL A   1      43.120  27.122  28.356  1.00  0.00    -0.354 N 
ATOM     46  C   UNL A   1      44.818  31.044  29.159  1.00  0.00     0.074 A 
ATOM     47  C   UNL A   1      43.825  31.930  29.731  1.00  0.00     0.031 C 
ATOM     48  C   UNL A   1      41.497  25.576  28.339  1.00  0.00     0.029 A 
ATOM     49  C   UNL A   1      42.894  25.816  27.998  1.00  0.00     0.049 A 
ATOM     50  H   UNL A   1      43.996  27.562  28.275  1.00  0.00     0.167 HD
ATOM     51  C   UNL A   1      46.112  31.372  28.929  1.00  0.00     0.031 A 
ATOM     52  C   UNL A   1      43.719  24.914  27.440  1.00  0.00     0.031 A 
ATOM     53  C   UNL A   1      47.077  30.473  28.347  1.00  0.00     0.049 A 
ATOM     54  C   UNL A   1      45.133  25.314  27.162  1.00  0.00     0.074 A 
ATOM     55  C   UNL A   1      48.411  30.704  28.058  1.00  0.00     0.029 A 
ATOM     56  N   UNL A   1      46.808  29.165  27.968  1.00  0.00    -0.354 N 
ATOM     57  N   UNL A   1      45.713  26.471  27.376  1.00  0.00    -0.248 NA
ATOM     58  C   UNL A   1      46.005  24.291  26.578  1.00  0.00     0.031 C 
ATOM     59  C   UNL A   1      48.939  29.544  27.476  1.00  0.00     0.029 A 
ATOM     60  C   UNL A   1      47.946  28.577  27.439  1.00  0.00     0.049 A 
ATOM     61  H   UNL A   1      45.936  28.718  28.061  1.00  0.00     0.167 HD
ATOM     62  C   UNL A   1      47.026  26.315  26.960  1.00  0.00     0.074 A 
ATOM     63  C   UNL A   1      47.155  24.946  26.495  1.00  0.00     0.031 C 
ATOM     64  C   UNL A   1      48.036  27.220  26.963  1.00  0.00     0.031 A 
BRANCH  51  65
ATOM     65  C   UNL A   1      46.549  32.772  29.276  1.00  0.00    -0.014 A 
ATOM     66  C   UNL A   1      46.434  33.822  28.348  1.00  0.00     0.010 A 
ATOM     67  C   UNL A   1      47.048  33.048  30.562  1.00  0.00     0.010 A 
ATOM     68  C   UNL A   1      46.844  35.117  28.688  1.00  0.00     0.020 A 
ATOM     69  C   UNL A   1      47.442  34.344  30.912  1.00  0.00     0.020 A 
ATOM     70  C   UNL A   1      47.354  35.368  29.966  1.00  0.00     0.054 A 
BRANCH  70  71
ATOM     71  S   UNL A   1      47.868  37.055  30.394  1.00  0.00     0.124 S 
ATOM     72  O   UNL A   1      48.028  37.664  29.076  1.00  0.00    -0.237 OA
ATOM     73  O   UNL A   1      46.742  37.550  31.181  1.00  0.00    -0.237 OA
ATOM     74  O   UNL A   1      49.107  36.859  31.144  1.00  0.00    -0.744 OA
ENDBRANCH  70  71
ENDBRANCH  51  65
BRANCH  52  75
ATOM     75  C   UNL A   1      43.195  23.562  27.127  1.00  0.00    -0.014 A 
ATOM     76  C   UNL A   1      42.890  23.207  25.805  1.00  0.00     0.010 A 
ATOM     77  C   UNL A   1      43.115  22.589  28.141  1.00  0.00     0.010 A 
ATOM     78  C   UNL A   1      42.525  21.894  25.495  1.00  0.00     0.020 A 
ATOM     79  C   UNL A   1      42.770  21.271  27.832  1.00  0.00     0.020 A 
ATOM     80  C   UNL A   1      42.476  20.933  26.510  1.00  0.00     0.054 A 
BRANCH  80  81
ATOM     81  S   UNL A   1      42.117  19.208  26.074  1.00  0.00     0.124 S 
ATOM     82  O   UNL A   1      42.952  19.013  24.894  1.00  0.00    -0.237 OA
ATOM     83  O   UNL A   1      42.531  18.481  27.271  1.00  0.00    -0.237 OA
ATOM     84  O   UNL A   1      40.676  19.214  25.830  1.00  0.00    -0.744 OA
ENDBRANCH  80  81
ENDBRANCH  52  75
BRANCH  64  85
ATOM     85  C   UNL A   1      49.362  26.738  26.451  1.00  0.00    -0.014 A 
ATOM     86  C   UNL A   1      50.339  26.249  27.335  1.00  0.00     0.010 A 
ATOM     87  C   UNL A   1      49.631  26.775  25.072  1.00  0.00     0.010 A 
ATOM     88  C   UNL A   1      51.585  25.846  26.851  1.00  0.00     0.020 A 
ATOM     89  C   UNL A   1      50.870  26.355  24.583  1.00  0.00     0.020 A 
ATOM     90  C   UNL A   1      51.845  25.911  25.478  1.00  0.00     0.054 A 
BRANCH  90  91
ATOM     91  S   UNL A   1      53.467  25.376  24.867  1.00  0.00     0.124 S 
ATOM     92  O   UNL A   1      54.376  26.122  25.733  1.00  0.00    -0.237 OA
ATOM     93  O   UNL A   1      53.436  23.931  25.083  1.00  0.00    -0.237 OA
ATOM     94  O   UNL A   1      53.458  25.790  23.466  1.00  0.00    -0.744 OA
ENDBRANCH  90  91
ENDBRANCH  64  85
ENDBRANCH  38  39
ENDBRANCH  31  33
ENDBRANCH  30  31
ENDBRANCH  29  30
ENDBRANCH   1  29
TORSDOF 20
ENDMDL
MODEL 2
REMARK VINA RESULT:     -10.6      1.198      8.651
REMARK SMILES COc1cccc([C@@H]2CC(c3cccc(C)c3)=NN2C(=O)CCC(=O)OCCOC(=O)c2ccc(-c3c4nc(c(-c5ccc(S(=O)(=O)[O-])cc5)c5ccc([nH]5)c(-c5ccc(S(=O)(=O)[O-])cc5)c5nc(c(-c6ccc(S(=O)(=O)[O-])cc6)c6ccc3[nH]6)C=C5)C=C4)cc2)c1
REMARK SMILES IDX 27 1 26 2 24 3 25 4 23 5 22 6 20 7 21 8 19 9 8 10 9 11 10 12
REMARK SMILES IDX 18 13 7 14 3 15 4 16 92 17 5 18 6 19 2 20 1 21 11 22 12 23
REMARK SMILES IDX 17 24 13 25 15 26 14 27 16 28 28 29 29 30 30 31 31 32 32 33
REMARK SMILES IDX 33 34 91 35 34 36 90 37 35 38 36 39 37 40 84 41 38 42 89 43
REMARK SMILES IDX 83 44 85 45 39 46 88 47 82 48 81 49 40 51 70 52 51 53 69 54
REMARK SMILES IDX 52 55 55 56 68 57 86 58 53 59 54 60 67 62 87 63 56 64 41 65
REMARK SMILES IDX 42 66 50 67 43 68 49 69 44 70 45 71 46 72 47 73 48 74 71 75
REMARK SMILES IDX 72 76 80 77 73 78 79 79 74 80 75 81 76 82 77 83 78 84 57 85
REMARK SMILES IDX 58 86 66 87 59 88 65 89 60 90 61 91 62 92 63 93 64 94
REMARK H PARENT 85 50 55 61
REMARK Flexibility Score: inf
ROOT
ATOM      1  C   UNL A   1      35.077  31.763  28.365  1.00  0.00     0.274 C 
ENDROOT
BRANCH   1   2
ATOM      2  O   UNL A   1      34.186  30.714  27.914  1.00  0.00    -0.462 OA
BRANCH   2   3
ATOM      3  C   UNL A   1      34.779  29.668  27.277  1.00  0.00     0.306 C 
ATOM      4  O   UNL A   1      35.942  29.324  27.451  1.00  0.00    -0.252 OA
BRANCH   3   5
ATOM      5  C   UNL A   1      33.884  29.013  26.248  1.00  0.00     0.132 C 
BRANCH   5   6
ATOM      6  C   UNL A   1      33.271  27.672  26.652  1.00  0.00     0.114 C 
BRANCH   6   7
ATOM      7  C   UNL A   1      31.757  27.750  26.577  1.00  0.00     0.243 C 
ATOM      8  O   UNL A   1      31.118  27.783  27.635  1.00  0.00    -0.273 OA
BRANCH   7   9
ATOM      9  N   UNL A   1      31.157  27.668  25.330  1.00  0.00    -0.225 N 
ATOM     10  C   UNL A   1      30.402  26.555  24.741  1.00  0.00     0.147 C 
ATOM     11  C   UNL A   1      29.448  27.232  23.759  1.00  0.00     0.091 C 
ATOM     12  C   UNL A   1      29.970  28.632  23.830  1.00  0.00     0.071 C 
ATOM     13  N   UNL A   1      30.939  28.853  24.658  1.00  0.00    -0.174 NA
BRANCH  10  14
ATOM     14  C   UNL A   1      31.262  25.473  24.105  1.00  0.00    -0.019 A 
ATOM     15  C   UNL A   1      32.598  24.734  22.181  1.00  0.00     0.119 A 
ATOM     16  C   UNL A   1      33.030  23.633  22.911  1.00  0.00     0.046 A 
ATOM     17  C   UNL A   1      31.699  25.619  22.773  1.00  0.00     0.052 A 
ATOM     18  C   UNL A   1      32.579  23.435  24.217  1.00  0.00     0.004 A 
ATOM     19  C   UNL A   1      31.701  24.347  24.811  1.00  0.00     0.006 A 
BRANCH  15  20
ATOM     20  O   UNL A   1      33.113  24.849  20.920  1.00  0.00    -0.497 OA
ATOM     21  C   UNL A   1      32.420  25.709  20.021  1.00  0.00     0.278 C 
ENDBRANCH  15  20
ENDBRANCH  10  14
BRANCH  12  22
ATOM     22  C   UNL A   1      29.318  29.699  23.076  1.00  0.00    -0.002 A 
ATOM     23  C   UNL A   1      28.637  29.409  21.899  1.00  0.00     0.010 A 
ATOM     24  C   UNL A   1      29.451  31.014  23.537  1.00  0.00     0.013 A 
ATOM     25  C   UNL A   1      28.056  30.453  21.182  1.00  0.00     0.001 A 
ATOM     26  C   UNL A   1      28.883  32.065  22.812  1.00  0.00    -0.050 A 
ATOM     27  C   UNL A   1      28.177  31.771  21.636  1.00  0.00     0.003 A 
ATOM     28  C   UNL A   1      29.049  33.486  23.259  1.00  0.00     0.044 C 
ENDBRANCH  12  22
ENDBRANCH   7   9
ENDBRANCH   6   7
ENDBRANCH   5   6
ENDBRANCH   3   5
ENDBRANCH   2   3
ENDBRANCH   1   2
BRANCH   1  29
ATOM     29  C   UNL A   1      35.176  31.893  29.894  1.00  0.00     0.275 C 
BRANCH  29  30
ATOM     30  O   UNL A   1      36.526  31.834  30.398  1.00  0.00    -0.458 OA
BRANCH  30  31
ATOM     31  C   UNL A   1      36.900  30.585  30.738  1.00  0.00     0.338 C 
ATOM     32  O   UNL A   1      36.246  29.813  31.414  1.00  0.00    -0.246 OA
BRANCH  31  33
ATOM     33  C   UNL A   1      38.193  30.147  30.229  1.00  0.00     0.060 A 
ATOM     34  C   UNL A   1      39.207  29.922  31.168  1.00  0.00     0.016 A 
ATOM     35  C   UNL A   1      38.470  30.206  28.863  1.00  0.00     0.016 A 
ATOM     36  C   UNL A   1      40.513  29.725  30.738  1.00  0.00     0.010 A 
ATOM     37  C   UNL A   1      39.782  30.007  28.433  1.00  0.00     0.010 A 
ATOM     38  C   UNL A   1      40.803  29.756  29.367  1.00  0.00    -0.014 A 
BRANCH  38  39
ATOM     39  C   UNL A   1      42.137  29.325  28.906  1.00  0.00     0.031 A 
ATOM     40  C   UNL A   1      42.414  27.923  28.465  1.00  0.00     0.074 A 
ATOM     41  C   UNL A   1      43.097  30.266  28.888  1.00  0.00     0.049 A 
ATOM     42  N   UNL A   1      43.548  27.395  28.088  1.00  0.00    -0.248 NA
ATOM     43  C   UNL A   1      41.277  26.995  28.443  1.00  0.00     0.031 C 
ATOM     44  C   UNL A   1      42.896  31.672  29.253  1.00  0.00     0.029 A 
ATOM     45  N   UNL A   1      44.419  30.191  28.550  1.00  0.00    -0.354 N 
ATOM     46  C   UNL A   1      43.269  26.067  27.787  1.00  0.00     0.074 A 
ATOM     47  C   UNL A   1      41.856  25.869  28.039  1.00  0.00     0.031 C 
ATOM     48  C   UNL A   1      44.057  32.328  29.120  1.00  0.00     0.029 A 
ATOM     49  C   UNL A   1      45.082  31.383  28.694  1.00  0.00     0.049 A 
ATOM     50  H   UNL A   1      44.851  29.365  28.233  1.00  0.00     0.167 HD
ATOM     51  C   UNL A   1      44.121  25.111  27.345  1.00  0.00     0.031 A 
ATOM     52  C   UNL A   1      46.381  31.681  28.519  1.00  0.00     0.031 A 
ATOM     53  C   UNL A   1      45.527  25.333  27.114  1.00  0.00     0.049 A 
ATOM     54  C   UNL A   1      47.308  30.598  28.066  1.00  0.00     0.074 A 
ATOM     55  C   UNL A   1      46.485  24.434  26.679  1.00  0.00     0.029 A 
ATOM     56  N   UNL A   1      46.175  26.547  27.299  1.00  0.00    -0.354 N 
ATOM     57  N   UNL A   1      47.035  29.339  27.818  1.00  0.00    -0.248 NA
ATOM     58  C   UNL A   1      48.710  30.973  27.862  1.00  0.00     0.031 C 
ATOM     59  C   UNL A   1      47.718  25.099  26.630  1.00  0.00     0.029 A 
ATOM     60  C   UNL A   1      47.521  26.421  26.996  1.00  0.00     0.049 A 
ATOM     61  H   UNL A   1      45.741  27.378  27.601  1.00  0.00     0.167 HD
ATOM     62  C   UNL A   1      48.233  28.768  27.417  1.00  0.00     0.074 A 
ATOM     63  C   UNL A   1      49.228  29.825  27.444  1.00  0.00     0.031 C 
ATOM     64  C   UNL A   1      48.490  27.486  27.057  1.00  0.00     0.031 A 
BRANCH  51  65
ATOM     65  C   UNL A   1      43.562  23.731  27.114  1.00  0.00    -0.014 A 
ATOM     66  C   UNL A   1      43.293  22.865  28.189  1.00  0.00     0.010 A 
ATOM     67  C   UNL A   1      43.268  23.307  25.806  1.00  0.00     0.010 A 
ATOM     68  C   UNL A   1      42.772  21.587  27.957  1.00  0.00     0.020 A 
ATOM     69  C   UNL A   1      42.731  22.036  25.570  1.00  0.00     0.020 A 
ATOM     70  C   UNL A   1      42.503  21.177  26.647  1.00  0.00     0.054 A 
BRANCH  70  71
ATOM     71  S   UNL A   1      41.816  19.521  26.365  1.00  0.00     0.124 S 
ATOM     72  O   UNL A   1      42.275  18.800  27.549  1.00  0.00    -0.237 OA
ATOM     73  O   UNL A   1      40.379  19.770  26.301  1.00  0.00    -0.237 OA
ATOM     74  O   UNL A   1      42.427  19.103  25.106  1.00  0.00    -0.744 OA
ENDBRANCH  70  71
ENDBRANCH  51  65
BRANCH  52  75
ATOM     75  C   UNL A   1      46.839  33.068  28.778  1.00  0.00    -0.014 A 
ATOM     76  C   UNL A   1      46.791  34.034  27.761  1.00  0.00     0.010 A 
ATOM     77  C   UNL A   1      47.213  33.452  30.079  1.00  0.00     0.010 A 
ATOM     78  C   UNL A   1      47.096  35.368  28.042  1.00  0.00     0.020 A 
ATOM     79  C   UNL A   1      47.499  34.788  30.368  1.00  0.00     0.020 A 
ATOM     80  C   UNL A   1      47.440  35.738  29.346  1.00  0.00     0.054 A 
BRANCH  80  81
ATOM     81  S   UNL A   1      47.718  37.491  29.721  1.00  0.00     0.124 S 
ATOM     82  O   UNL A   1      47.117  38.147  28.565  1.00  0.00    -0.237 OA
ATOM     83  O   UNL A   1      47.010  37.666  30.987  1.00  0.00    -0.237 OA
ATOM     84  O   UNL A   1      49.173  37.591  29.815  1.00  0.00    -0.744 OA
ENDBRANCH  80  81
ENDBRANCH  52  75
BRANCH  64  85
ATOM     85  C   UNL A   1      49.904  27.178  26.660  1.00  0.00    -0.014 A 
ATOM     86  C   UNL A   1      50.850  26.783  27.622  1.00  0.00     0.010 A 
ATOM     87  C   UNL A   1      50.288  27.286  25.313  1.00  0.00     0.010 A 
ATOM     88  C   UNL A   1      52.173  26.543  27.247  1.00  0.00     0.020 A 
ATOM     89  C   UNL A   1      51.607  27.029  24.932  1.00  0.00     0.020 A 
ATOM     90  C   UNL A   1      52.545  26.678  25.905  1.00  0.00     0.054 A 
BRANCH  90  91
ATOM     91  S   UNL A   1      54.267  26.356  25.435  1.00  0.00     0.124 S 
ATOM     92  O   UNL A   1      54.105  25.566  24.217  1.00  0.00    -0.237 OA
ATOM     93  O   UNL A   1      54.810  27.699  25.246  1.00  0.00    -0.237 OA
ATOM     94  O   UNL A   1      54.805  25.629  26.583  1.00  0.00    -0.744 OA
ENDBRANCH  90  91
ENDBRANCH  64  85
ENDBRANCH  38  39
ENDBRANCH  31  33
ENDBRANCH  30  31
ENDBRANCH  29  30
ENDBRANCH   1  29
TORSDOF 20
ENDMDL
MODEL 3
REMARK VINA RESULT:     -10.6      0.794      7.995
REMARK SMILES COc1cccc([C@@H]2CC(c3cccc(C)c3)=NN2C(=O)CCC(=O)OCCOC(=O)c2ccc(-c3c4nc(c(-c5ccc(S(=O)(=O)[O-])cc5)c5ccc([nH]5)c(-c5ccc(S(=O)(=O)[O-])cc5)c5nc(c(-c6ccc(S(=O)(=O)[O-])cc6)c6ccc3[nH]6)C=C5)C=C4)cc2)c1
REMARK SMILES IDX 27 1 26 2 24 3 25 4 23 5 22 6 20 7 21 8 19 9 8 10 9 11 10 12
REMARK SMILES IDX 18 13 7 14 3 15 4 16 92 17 5 18 6 19 2 20 1 21 11 22 12 23
REMARK SMILES IDX 17 24 13 25 15 26 14 27 16 28 28 29 29 30 30 31 31 32 32 33
REMARK SMILES IDX 33 34 91 35 34 36 90 37 35 38 36 39 37 40 84 41 38 42 89 43
REMARK SMILES IDX 83 44 85 45 39 46 88 47 82 48 81 49 40 51 70 52 51 53 69 54
REMARK SMILES IDX 52 55 55 56 68 57 86 58 53 59 54 60 67 62 87 63 56 64 41 65
REMARK SMILES IDX 42 66 50 67 43 68 49 69 44 70 45 71 46 72 47 73 48 74 71 75
REMARK SMILES IDX 72 76 80 77 73 78 79 79 74 80 75 81 76 82 77 83 78 84 57 85
REMARK SMILES IDX 58 86 66 87 59 88 65 89 60 90 61 91 62 92 63 93 64 94
REMARK H PARENT 85 50 55 61
REMARK Flexibility Score: inf
ROOT
ATOM      1  C   UNL A   1      35.210  32.272  28.718  1.00  0.00     0.274 C 
ENDROOT
BRANCH   1   2
ATOM      2  O   UNL A   1      34.130  31.482  28.167  1.00  0.00    -0.462 OA
BRANCH   2   3
ATOM      3  C   UNL A   1      33.117  32.184  27.588  1.00  0.00     0.306 C 
ATOM      4  O   UNL A   1      32.976  33.397  27.688  1.00  0.00    -0.252 OA
BRANCH   3   5
ATOM      5  C   UNL A   1      32.114  31.305  26.875  1.00  0.00     0.132 C 
BRANCH   5   6
ATOM      6  C   UNL A   1      32.693  30.111  26.115  1.00  0.00     0.114 C 
BRANCH   6   7
ATOM      7  C   UNL A   1      31.787  28.904  26.276  1.00  0.00     0.243 C 
ATOM      8  O   UNL A   1      31.443  28.576  27.417  1.00  0.00    -0.273 OA
BRANCH   7   9
ATOM      9  N   UNL A   1      31.478  28.162  25.147  1.00  0.00    -0.225 N 
ATOM     10  C   UNL A   1      31.249  28.625  23.772  1.00  0.00     0.147 C 
ATOM     11  C   UNL A   1      31.646  27.432  22.907  1.00  0.00     0.091 C 
ATOM     12  C   UNL A   1      31.862  26.409  23.977  1.00  0.00     0.071 C 
ATOM     13  N   UNL A   1      31.721  26.804  25.200  1.00  0.00    -0.174 NA
BRANCH  10  14
ATOM     14  C   UNL A   1      29.840  29.131  23.500  1.00  0.00    -0.019 A 
ATOM     15  C   UNL A   1      28.344  31.047  23.148  1.00  0.00     0.119 A 
ATOM     16  C   UNL A   1      27.319  30.176  22.800  1.00  0.00     0.046 A 
ATOM     17  C   UNL A   1      29.578  30.515  23.522  1.00  0.00     0.052 A 
ATOM     18  C   UNL A   1      27.535  28.797  22.812  1.00  0.00     0.004 A 
ATOM     19  C   UNL A   1      28.786  28.276  23.159  1.00  0.00     0.006 A 
BRANCH  15  20
ATOM     20  O   UNL A   1      28.040  32.379  23.085  1.00  0.00    -0.497 OA
ATOM     21  C   UNL A   1      29.134  33.289  23.123  1.00  0.00     0.278 C 
ENDBRANCH  15  20
ENDBRANCH  10  14
BRANCH  12  22
ATOM     22  C   UNL A   1      32.325  25.068  23.630  1.00  0.00    -0.002 A 
ATOM     23  C   UNL A   1      32.649  24.758  22.314  1.00  0.00     0.010 A 
ATOM     24  C   UNL A   1      32.371  24.100  24.640  1.00  0.00     0.013 A 
ATOM     25  C   UNL A   1      33.053  23.460  22.008  1.00  0.00     0.001 A 
ATOM     26  C   UNL A   1      32.760  22.794  24.333  1.00  0.00    -0.050 A 
ATOM     27  C   UNL A   1      33.109  22.485  23.010  1.00  0.00     0.003 A 
ATOM     28  C   UNL A   1      32.775  21.727  25.387  1.00  0.00     0.044 C 
ENDBRANCH  12  22
ENDBRANCH   7   9
ENDBRANCH   6   7
ENDBRANCH   5   6
ENDBRANCH   3   5
ENDBRANCH   2   3
ENDBRANCH   1   2
BRANCH   1  29
ATOM     29  C   UNL A   1      35.262  32.285  30.255  1.00  0.00     0.275 C 
BRANCH  29  30
ATOM     30  O   UNL A   1      36.599  32.215  30.794  1.00  0.00    -0.458 OA
BRANCH  30  31
ATOM     31  C   UNL A   1      37.001  30.950  31.024  1.00  0.00     0.338 C 
ATOM     32  O   UNL A   1      36.352  30.098  31.603  1.00  0.00    -0.246 OA
BRANCH  31  33
ATOM     33  C   UNL A   1      38.321  30.599  30.515  1.00  0.00     0.060 A 
ATOM     34  C   UNL A   1      38.460  30.483  29.127  1.00  0.00     0.016 A 
ATOM     35  C   UNL A   1      39.314  30.148  31.383  1.00  0.00     0.016 A 
ATOM     36  C   UNL A   1      39.620  29.935  28.594  1.00  0.00     0.010 A 
ATOM     37  C   UNL A   1      40.479  29.599  30.847  1.00  0.00     0.010 A 
ATOM     38  C   UNL A   1      40.638  29.501  29.453  1.00  0.00    -0.014 A 
BRANCH  38  39
ATOM     39  C   UNL A   1      41.949  29.133  28.883  1.00  0.00     0.031 A 
ATOM     40  C   UNL A   1      42.250  27.750  28.402  1.00  0.00     0.074 A 
ATOM     41  C   UNL A   1      42.863  30.115  28.803  1.00  0.00     0.049 A 
ATOM     42  N   UNL A   1      43.373  27.276  27.930  1.00  0.00    -0.248 NA
ATOM     43  C   UNL A   1      41.156  26.773  28.456  1.00  0.00     0.031 C 
ATOM     44  C   UNL A   1      42.632  31.508  29.202  1.00  0.00     0.029 A 
ATOM     45  N   UNL A   1      44.156  30.102  28.361  1.00  0.00    -0.354 N 
ATOM     46  C   UNL A   1      43.127  25.940  27.633  1.00  0.00     0.074 A 
ATOM     47  C   UNL A   1      41.749  25.678  27.992  1.00  0.00     0.031 C 
ATOM     48  C   UNL A   1      43.750  32.215  28.988  1.00  0.00     0.029 A 
ATOM     49  C   UNL A   1      44.778  31.321  28.470  1.00  0.00     0.049 A 
ATOM     50  H   UNL A   1      44.597  29.299  28.001  1.00  0.00     0.167 HD
ATOM     51  C   UNL A   1      43.982  25.027  27.112  1.00  0.00     0.031 A 
ATOM     52  C   UNL A   1      46.045  31.677  28.198  1.00  0.00     0.031 A 
ATOM     53  C   UNL A   1      45.354  25.313  26.776  1.00  0.00     0.049 A 
ATOM     54  C   UNL A   1      46.979  30.640  27.659  1.00  0.00     0.074 A 
ATOM     55  C   UNL A   1      46.313  24.461  26.254  1.00  0.00     0.029 A 
ATOM     56  N   UNL A   1      45.962  26.552  26.926  1.00  0.00    -0.354 N 
ATOM     57  N   UNL A   1      46.741  29.373  27.415  1.00  0.00    -0.248 NA
ATOM     58  C   UNL A   1      48.343  31.078  27.350  1.00  0.00     0.031 C 
ATOM     59  C   UNL A   1      47.509  25.179  26.118  1.00  0.00     0.029 A 
ATOM     60  C   UNL A   1      47.285  26.487  26.517  1.00  0.00     0.049 A 
ATOM     61  H   UNL A   1      45.519  27.359  27.273  1.00  0.00     0.167 HD
ATOM     62  C   UNL A   1      47.927  28.859  26.913  1.00  0.00     0.074 A 
ATOM     63  C   UNL A   1      48.875  29.958  26.878  1.00  0.00     0.031 C 
ATOM     64  C   UNL A   1      48.209  27.593  26.517  1.00  0.00     0.031 A 
BRANCH  51  65
ATOM     65  C   UNL A   1      43.466  23.626  26.907  1.00  0.00    -0.014 A 
ATOM     66  C   UNL A   1      43.157  22.796  27.999  1.00  0.00     0.010 A 
ATOM     67  C   UNL A   1      43.253  23.146  25.602  1.00  0.00     0.010 A 
ATOM     68  C   UNL A   1      42.678  21.498  27.790  1.00  0.00     0.020 A 
ATOM     69  C   UNL A   1      42.757  21.855  25.389  1.00  0.00     0.020 A 
ATOM     70  C   UNL A   1      42.489  21.032  26.484  1.00  0.00     0.054 A 
BRANCH  70  71
ATOM     71  S   UNL A   1      41.854  19.351  26.232  1.00  0.00     0.124 S 
ATOM     72  O   UNL A   1      42.532  18.955  25.001  1.00  0.00    -0.237 OA
ATOM     73  O   UNL A   1      42.288  18.653  27.440  1.00  0.00    -0.237 OA
ATOM     74  O   UNL A   1      40.410  19.541  26.115  1.00  0.00    -0.744 OA
ENDBRANCH  70  71
ENDBRANCH  51  65
BRANCH  52  75
ATOM     75  C   UNL A   1      46.463  33.079  28.440  1.00  0.00    -0.014 A 
ATOM     76  C   UNL A   1      47.062  33.443  29.655  1.00  0.00     0.010 A 
ATOM     77  C   UNL A   1      46.368  34.028  27.404  1.00  0.00     0.010 A 
ATOM     78  C   UNL A   1      47.576  34.731  29.830  1.00  0.00     0.020 A 
ATOM     79  C   UNL A   1      46.898  35.310  27.568  1.00  0.00     0.020 A 
ATOM     80  C   UNL A   1      47.497  35.653  28.781  1.00  0.00     0.054 A 
BRANCH  80  81
ATOM     81  S   UNL A   1      48.273  37.282  28.980  1.00  0.00     0.124 S 
ATOM     82  O   UNL A   1      48.689  37.588  27.616  1.00  0.00    -0.237 OA
ATOM     83  O   UNL A   1      47.180  38.096  29.507  1.00  0.00    -0.237 OA
ATOM     84  O   UNL A   1      49.357  37.026  29.926  1.00  0.00    -0.744 OA
ENDBRANCH  80  81
ENDBRANCH  52  75
BRANCH  64  85
ATOM     85  C   UNL A   1      49.599  27.351  26.006  1.00  0.00    -0.014 A 
ATOM     86  C   UNL A   1      49.903  27.511  24.643  1.00  0.00     0.010 A 
ATOM     87  C   UNL A   1      50.611  26.960  26.900  1.00  0.00     0.010 A 
ATOM     88  C   UNL A   1      51.189  27.239  24.174  1.00  0.00     0.020 A 
ATOM     89  C   UNL A   1      51.903  26.705  26.437  1.00  0.00     0.020 A 
ATOM     90  C   UNL A   1      52.179  26.828  25.073  1.00  0.00     0.054 A 
BRANCH  90  91
ATOM     91  S   UNL A   1      53.846  26.486  24.446  1.00  0.00     0.124 S 
ATOM     92  O   UNL A   1      54.342  25.519  25.422  1.00  0.00    -0.237 OA
ATOM     93  O   UNL A   1      53.589  25.954  23.109  1.00  0.00    -0.237 OA
ATOM     94  O   UNL A   1      54.497  27.793  24.476  1.00  0.00    -0.744 OA
ENDBRANCH  90  91
ENDBRANCH  64  85
ENDBRANCH  38  39
ENDBRANCH  31  33
ENDBRANCH  30  31
ENDBRANCH  29  30
ENDBRANCH   1  29
TORSDOF 20
ENDMDL
