MODEL 1
REMARK VINA RESULT:     -10.9      0.000      0.000
REMARK SMILES Cc1c(Cl)cc2c(c1C)O[C@@H](C(F)(F)F)C(C(=O)OCCOC(=O)c1ccc(-c3c4nc(c(-c5ccc(S(=O)(=O)[O-])cc5)c5ccc([nH]5)c(-c5ccc(S(=O)(=O)[O-])cc5)c5nc(c(-c6ccc(S(=O)(=O)[O-])cc6)c6ccc3[nH]6)C=C5)C=C4)cc1)=C2
REMARK SMILES IDX 21 1 20 2 19 3 17 4 18 5 16 6 1 7 2 8 3 9 8 10 4 11 5 12
REMARK SMILES IDX 7 13 9 14 6 15 10 16 85 17 11 18 12 19 13 20 14 21 15 22
REMARK SMILES IDX 22 23 23 24 24 25 25 26 26 27 84 28 27 29 83 30 28 31 29 32
REMARK SMILES IDX 30 33 77 34 31 35 82 36 76 37 78 38 32 39 81 40 75 41 74 42
REMARK SMILES IDX 33 44 63 45 44 46 62 47 45 48 48 49 61 50 79 51 46 52 47 53
REMARK SMILES IDX 60 55 80 56 49 57 34 58 35 59 43 60 36 61 42 62 37 63 38 64
REMARK SMILES IDX 39 65 40 66 41 67 64 68 65 69 73 70 66 71 72 72 67 73 68 74
REMARK SMILES IDX 69 75 70 76 71 77 50 78 51 79 59 80 52 81 58 82 53 83 54 84
REMARK SMILES IDX 55 85 56 86 57 87
REMARK H PARENT 78 43 48 54
REMARK Flexibility Score: inf
ROOT
ATOM      1  C   UNL A   1      33.386  29.321  25.630  1.00  0.00     0.275 C 
ENDROOT
BRANCH   1   2
ATOM      2  C   UNL A   1      32.048  28.605  25.800  1.00  0.00     0.275 C 
BRANCH   2   3
ATOM      3  O   UNL A   1      32.257  27.185  25.955  1.00  0.00    -0.459 OA
BRANCH   3   4
ATOM      4  C   UNL A   1      32.308  26.460  24.815  1.00  0.00     0.338 C 
ATOM      5  O   UNL A   1      31.935  26.819  23.715  1.00  0.00    -0.246 OA
BRANCH   4   6
ATOM      6  C   UNL A   1      32.947  25.157  25.068  1.00  0.00     0.087 C 
ATOM      7  C   UNL A   1      37.206  20.198  25.215  1.00  0.00     0.046 C 
ATOM      8  C   UNL A   1      36.379  21.456  25.326  1.00  0.00    -0.026 A 
ATOM      9  C   UNL A   1      37.017  22.664  25.676  1.00  0.00     0.045 A 
ATOM     10  C   UNL A   1      34.996  21.487  24.999  1.00  0.00    -0.004 A 
ATOM     11  Cl  UNL A   1      38.709  22.744  26.036  1.00  0.00    -0.084 Cl
ATOM     12  C   UNL A   1      36.316  23.870  25.704  1.00  0.00     0.032 A 
ATOM     13  C   UNL A   1      34.296  22.714  25.057  1.00  0.00     0.131 A 
ATOM     14  C   UNL A   1      34.218  20.268  24.569  1.00  0.00     0.049 C 
ATOM     15  C   UNL A   1      34.962  23.896  25.376  1.00  0.00     0.019 A 
ATOM     16  O   UNL A   1      32.966  22.699  24.714  1.00  0.00    -0.475 OA
ATOM     17  C   UNL A   1      34.273  25.164  25.249  1.00  0.00     0.027 C 
ATOM     18  C   UNL A   1      32.154  23.886  24.964  1.00  0.00     0.316 C 
BRANCH  18  19
ATOM     19  C   UNL A   1      31.194  23.625  26.137  1.00  0.00     0.430 C 
ATOM     20  F   UNL A   1      30.654  22.390  26.111  1.00  0.00    -0.167 F 
ATOM     21  F   UNL A   1      31.816  23.784  27.332  1.00  0.00    -0.167 F 
ATOM     22  F   UNL A   1      30.168  24.515  26.138  1.00  0.00    -0.167 F 
ENDBRANCH  18  19
ENDBRANCH   4   6
ENDBRANCH   3   4
ENDBRANCH   2   3
ENDBRANCH   1   2
BRANCH   1  23
ATOM     23  O   UNL A   1      34.233  29.009  26.751  1.00  0.00    -0.458 OA
BRANCH  23  24
ATOM     24  C   UNL A   1      34.516  30.040  27.578  1.00  0.00     0.338 C 
ATOM     25  O   UNL A   1      33.765  30.934  27.933  1.00  0.00    -0.246 OA
BRANCH  24  26
ATOM     26  C   UNL A   1      35.901  29.919  28.061  1.00  0.00     0.060 A 
ATOM     27  C   UNL A   1      36.950  30.167  27.181  1.00  0.00     0.016 A 
ATOM     28  C   UNL A   1      36.162  29.420  29.334  1.00  0.00     0.016 A 
ATOM     29  C   UNL A   1      38.246  29.780  27.517  1.00  0.00     0.010 A 
ATOM     30  C   UNL A   1      37.484  29.163  29.718  1.00  0.00     0.010 A 
ATOM     31  C   UNL A   1      38.540  29.285  28.797  1.00  0.00    -0.014 A 
BRANCH  31  32
ATOM     32  C   UNL A   1      39.932  28.864  29.144  1.00  0.00     0.031 A 
ATOM     33  C   UNL A   1      40.823  29.765  29.971  1.00  0.00     0.074 A 
ATOM     34  C   UNL A   1      40.398  27.656  28.758  1.00  0.00     0.049 A 
ATOM     35  N   UNL A   1      42.090  29.622  30.272  1.00  0.00    -0.248 NA
ATOM     36  C   UNL A   1      40.218  30.990  30.520  1.00  0.00     0.031 C 
ATOM     37  C   UNL A   1      39.645  26.660  27.990  1.00  0.00     0.029 A 
ATOM     38  N   UNL A   1      41.608  27.043  28.982  1.00  0.00    -0.354 N 
ATOM     39  C   UNL A   1      42.443  30.759  30.994  1.00  0.00     0.074 A 
ATOM     40  C   UNL A   1      41.264  31.590  31.071  1.00  0.00     0.031 C 
ATOM     41  C   UNL A   1      40.372  25.540  27.882  1.00  0.00     0.029 A 
ATOM     42  C   UNL A   1      41.684  25.765  28.475  1.00  0.00     0.049 A 
ATOM     43  H   UNL A   1      42.350  27.478  29.461  1.00  0.00     0.167 HD
ATOM     44  C   UNL A   1      43.637  31.079  31.550  1.00  0.00     0.031 A 
ATOM     45  C   UNL A   1      42.700  24.878  28.456  1.00  0.00     0.031 A 
ATOM     46  C   UNL A   1      44.797  30.227  31.521  1.00  0.00     0.049 A 
ATOM     47  C   UNL A   1      44.029  25.276  29.031  1.00  0.00     0.074 A 
ATOM     48  C   UNL A   1      46.046  30.458  32.071  1.00  0.00     0.029 A 
ATOM     49  N   UNL A   1      44.846  28.974  30.930  1.00  0.00    -0.354 N 
ATOM     50  N   UNL A   1      44.353  26.378  29.662  1.00  0.00    -0.248 NA
ATOM     51  C   UNL A   1      45.138  24.327  28.860  1.00  0.00     0.031 C 
ATOM     52  C   UNL A   1      46.864  29.365  31.772  1.00  0.00     0.029 A 
ATOM     53  C   UNL A   1      46.110  28.432  31.077  1.00  0.00     0.049 A 
ATOM     54  H   UNL A   1      44.092  28.536  30.472  1.00  0.00     0.167 HD
ATOM     55  C   UNL A   1      45.706  26.257  29.959  1.00  0.00     0.074 A 
ATOM     56  C   UNL A   1      46.132  24.964  29.465  1.00  0.00     0.031 C 
ATOM     57  C   UNL A   1      46.522  27.147  30.573  1.00  0.00     0.031 A 
BRANCH  44  58
ATOM     58  C   UNL A   1      43.764  32.421  32.221  1.00  0.00    -0.014 A 
ATOM     59  C   UNL A   1      44.029  33.588  31.482  1.00  0.00     0.010 A 
ATOM     60  C   UNL A   1      43.562  32.525  33.611  1.00  0.00     0.010 A 
ATOM     61  C   UNL A   1      44.127  34.826  32.126  1.00  0.00     0.020 A 
ATOM     62  C   UNL A   1      43.633  33.764  34.254  1.00  0.00     0.020 A 
ATOM     63  C   UNL A   1      43.932  34.906  33.508  1.00  0.00     0.054 A 
BRANCH  63  64
ATOM     64  S   UNL A   1      44.045  36.529  34.311  1.00  0.00     0.124 S 
ATOM     65  O   UNL A   1      44.011  36.168  35.726  1.00  0.00    -0.237 OA
ATOM     66  O   UNL A   1      45.323  37.040  33.824  1.00  0.00    -0.237 OA
ATOM     67  O   UNL A   1      42.866  37.242  33.824  1.00  0.00    -0.744 OA
ENDBRANCH  63  64
ENDBRANCH  44  58
BRANCH  45  68
ATOM     68  C   UNL A   1      42.505  23.543  27.825  1.00  0.00    -0.014 A 
ATOM     69  C   UNL A   1      43.006  23.284  26.538  1.00  0.00     0.010 A 
ATOM     70  C   UNL A   1      41.847  22.512  28.524  1.00  0.00     0.010 A 
ATOM     71  C   UNL A   1      42.857  22.016  25.964  1.00  0.00     0.020 A 
ATOM     72  C   UNL A   1      41.724  21.237  27.965  1.00  0.00     0.020 A 
ATOM     73  C   UNL A   1      42.225  20.999  26.684  1.00  0.00     0.054 A 
BRANCH  73  74
ATOM     74  S   UNL A   1      42.112  19.344  25.950  1.00  0.00     0.124 S 
ATOM     75  O   UNL A   1      42.934  19.487  24.752  1.00  0.00    -0.237 OA
ATOM     76  O   UNL A   1      42.667  18.494  27.000  1.00  0.00    -0.237 OA
ATOM     77  O   UNL A   1      40.681  19.172  25.711  1.00  0.00    -0.744 OA
ENDBRANCH  73  74
ENDBRANCH  45  68
BRANCH  57  78
ATOM     78  C   UNL A   1      47.967  26.768  30.740  1.00  0.00    -0.014 A 
ATOM     79  C   UNL A   1      48.925  27.182  29.797  1.00  0.00     0.010 A 
ATOM     80  C   UNL A   1      48.387  26.087  31.896  1.00  0.00     0.010 A 
ATOM     81  C   UNL A   1      50.280  26.919  30.009  1.00  0.00     0.020 A 
ATOM     82  C   UNL A   1      49.744  25.842  32.122  1.00  0.00     0.020 A 
ATOM     83  C   UNL A   1      50.682  26.259  31.175  1.00  0.00     0.054 A 
BRANCH  83  84
ATOM     84  S   UNL A   1      52.456  26.014  31.466  1.00  0.00     0.124 S 
ATOM     85  O   UNL A   1      53.005  26.132  30.118  1.00  0.00    -0.237 OA
ATOM     86  O   UNL A   1      52.783  27.109  32.376  1.00  0.00    -0.237 OA
ATOM     87  O   UNL A   1      52.531  24.679  32.054  1.00  0.00    -0.744 OA
ENDBRANCH  83  84
ENDBRANCH  57  78
ENDBRANCH  31  32
ENDBRANCH  24  26
ENDBRANCH  23  24
ENDBRANCH   1  23
TORSDOF 15
ENDMDL
MODEL 2
REMARK VINA RESULT:     -10.7      4.350     10.220
REMARK SMILES Cc1c(Cl)cc2c(c1C)O[C@@H](C(F)(F)F)C(C(=O)OCCOC(=O)c1ccc(-c3c4nc(c(-c5ccc(S(=O)(=O)[O-])cc5)c5ccc([nH]5)c(-c5ccc(S(=O)(=O)[O-])cc5)c5nc(c(-c6ccc(S(=O)(=O)[O-])cc6)c6ccc3[nH]6)C=C5)C=C4)cc1)=C2
REMARK SMILES IDX 21 1 20 2 19 3 17 4 18 5 16 6 1 7 2 8 3 9 8 10 4 11 5 12
REMARK SMILES IDX 7 13 9 14 6 15 10 16 85 17 11 18 12 19 13 20 14 21 15 22
REMARK SMILES IDX 22 23 23 24 24 25 25 26 26 27 84 28 27 29 83 30 28 31 29 32
REMARK SMILES IDX 30 33 77 34 31 35 82 36 76 37 78 38 32 39 81 40 75 41 74 42
REMARK SMILES IDX 33 44 63 45 44 46 62 47 45 48 48 49 61 50 79 51 46 52 47 53
REMARK SMILES IDX 60 55 80 56 49 57 34 58 35 59 43 60 36 61 42 62 37 63 38 64
REMARK SMILES IDX 39 65 40 66 41 67 64 68 65 69 73 70 66 71 72 72 67 73 68 74
REMARK SMILES IDX 69 75 70 76 71 77 50 78 51 79 59 80 52 81 58 82 53 83 54 84
REMARK SMILES IDX 55 85 56 86 57 87
REMARK H PARENT 78 43 48 54
REMARK Flexibility Score: inf
ROOT
ATOM      1  C   UNL A   1      39.676  22.201  26.402  1.00  0.00     0.275 C 
ENDROOT
BRANCH   1   2
ATOM      2  C   UNL A   1      38.580  21.578  25.542  1.00  0.00     0.275 C 
BRANCH   2   3
ATOM      3  O   UNL A   1      37.353  22.328  25.677  1.00  0.00    -0.459 OA
BRANCH   3   4
ATOM      4  C   UNL A   1      36.209  21.650  25.433  1.00  0.00     0.338 C 
ATOM      5  O   UNL A   1      36.100  20.449  25.284  1.00  0.00    -0.246 OA
BRANCH   4   6
ATOM      6  C   UNL A   1      35.060  22.574  25.427  1.00  0.00     0.087 C 
ATOM      7  C   UNL A   1      31.068  27.604  26.652  1.00  0.00     0.046 C 
ATOM      8  C   UNL A   1      32.131  26.606  26.262  1.00  0.00    -0.026 A 
ATOM      9  C   UNL A   1      33.442  27.066  26.013  1.00  0.00     0.045 A 
ATOM     10  C   UNL A   1      31.884  25.207  26.227  1.00  0.00    -0.004 A 
ATOM     11  Cl  UNL A   1      33.861  28.744  26.088  1.00  0.00    -0.084 Cl
ATOM     12  C   UNL A   1      34.479  26.176  25.738  1.00  0.00     0.032 A 
ATOM     13  C   UNL A   1      32.943  24.321  25.922  1.00  0.00     0.131 A 
ATOM     14  C   UNL A   1      30.535  24.596  26.518  1.00  0.00     0.049 C 
ATOM     15  C   UNL A   1      34.233  24.805  25.712  1.00  0.00     0.019 A 
ATOM     16  O   UNL A   1      32.660  22.977  25.919  1.00  0.00    -0.475 OA
ATOM     17  C   UNL A   1      35.336  23.873  25.586  1.00  0.00     0.027 C 
ATOM     18  C   UNL A   1      33.656  22.043  25.403  1.00  0.00     0.316 C 
BRANCH  18  19
ATOM     19  C   UNL A   1      33.198  21.489  24.043  1.00  0.00     0.430 C 
ATOM     20  F   UNL A   1      31.862  21.551  23.872  1.00  0.00    -0.167 F 
ATOM     21  F   UNL A   1      33.781  22.154  23.015  1.00  0.00    -0.167 F 
ATOM     22  F   UNL A   1      33.565  20.190  23.894  1.00  0.00    -0.167 F 
ENDBRANCH  18  19
ENDBRANCH   4   6
ENDBRANCH   3   4
ENDBRANCH   2   3
ENDBRANCH   1   2
BRANCH   1  23
ATOM     23  O   UNL A   1      39.376  23.592  26.616  1.00  0.00    -0.458 OA
BRANCH  23  24
ATOM     24  C   UNL A   1      40.433  24.434  26.580  1.00  0.00     0.338 C 
ATOM     25  O   UNL A   1      41.439  24.332  25.895  1.00  0.00    -0.246 OA
BRANCH  24  26
ATOM     26  C   UNL A   1      40.188  25.572  27.480  1.00  0.00     0.060 A 
ATOM     27  C   UNL A   1      40.927  26.739  27.314  1.00  0.00     0.016 A 
ATOM     28  C   UNL A   1      39.338  25.433  28.574  1.00  0.00     0.016 A 
ATOM     29  C   UNL A   1      40.929  27.708  28.315  1.00  0.00     0.010 A 
ATOM     30  C   UNL A   1      39.238  26.473  29.507  1.00  0.00     0.010 A 
ATOM     31  C   UNL A   1      40.074  27.601  29.422  1.00  0.00    -0.014 A 
BRANCH  31  32
ATOM     32  C   UNL A   1      40.092  28.643  30.496  1.00  0.00     0.031 A 
ATOM     33  C   UNL A   1      41.157  28.617  31.572  1.00  0.00     0.074 A 
ATOM     34  C   UNL A   1      39.184  29.642  30.495  1.00  0.00     0.049 A 
ATOM     35  N   UNL A   1      41.264  29.362  32.643  1.00  0.00    -0.248 NA
ATOM     36  C   UNL A   1      42.229  27.619  31.435  1.00  0.00     0.031 C 
ATOM     37  C   UNL A   1      38.122  29.824  29.502  1.00  0.00     0.029 A 
ATOM     38  N   UNL A   1      39.023  30.715  31.340  1.00  0.00    -0.354 N 
ATOM     39  C   UNL A   1      42.378  28.889  33.331  1.00  0.00     0.074 A 
ATOM     40  C   UNL A   1      42.902  27.780  32.566  1.00  0.00     0.031 C 
ATOM     41  C   UNL A   1      37.480  30.976  29.744  1.00  0.00     0.029 A 
ATOM     42  C   UNL A   1      38.007  31.565  30.969  1.00  0.00     0.049 A 
ATOM     43  H   UNL A   1      39.583  30.860  32.137  1.00  0.00     0.167 HD
ATOM     44  C   UNL A   1      42.922  29.338  34.487  1.00  0.00     0.031 A 
ATOM     45  C   UNL A   1      37.523  32.679  31.556  1.00  0.00     0.031 A 
ATOM     46  C   UNL A   1      42.433  30.476  35.221  1.00  0.00     0.049 A 
ATOM     47  C   UNL A   1      38.107  33.128  32.865  1.00  0.00     0.074 A 
ATOM     48  C   UNL A   1      42.929  31.018  36.395  1.00  0.00     0.029 A 
ATOM     49  N   UNL A   1      41.354  31.260  34.843  1.00  0.00    -0.354 N 
ATOM     50  N   UNL A   1      39.127  32.631  33.521  1.00  0.00    -0.248 NA
ATOM     51  C   UNL A   1      37.453  34.264  33.530  1.00  0.00     0.031 C 
ATOM     52  C   UNL A   1      42.120  32.101  36.751  1.00  0.00     0.029 A 
ATOM     53  C   UNL A   1      41.151  32.263  35.774  1.00  0.00     0.049 A 
ATOM     54  H   UNL A   1      40.813  31.122  34.032  1.00  0.00     0.167 HD
ATOM     55  C   UNL A   1      39.234  33.390  34.680  1.00  0.00     0.074 A 
ATOM     56  C   UNL A   1      38.195  34.398  34.621  1.00  0.00     0.031 C 
ATOM     57  C   UNL A   1      40.108  33.254  35.707  1.00  0.00     0.031 A 
BRANCH  44  58
ATOM     58  C   UNL A   1      44.098  28.586  35.052  1.00  0.00    -0.014 A 
ATOM     59  C   UNL A   1      43.921  27.491  35.917  1.00  0.00     0.010 A 
ATOM     60  C   UNL A   1      45.404  28.949  34.669  1.00  0.00     0.010 A 
ATOM     61  C   UNL A   1      45.028  26.798  36.417  1.00  0.00     0.020 A 
ATOM     62  C   UNL A   1      46.511  28.241  35.145  1.00  0.00     0.020 A 
ATOM     63  C   UNL A   1      46.316  27.179  36.031  1.00  0.00     0.054 A 
BRANCH  63  64
ATOM     64  S   UNL A   1      47.731  26.248  36.680  1.00  0.00     0.124 S 
ATOM     65  O   UNL A   1      48.861  26.983  36.116  1.00  0.00    -0.237 OA
ATOM     66  O   UNL A   1      47.561  26.370  38.125  1.00  0.00    -0.237 OA
ATOM     67  O   UNL A   1      47.538  24.901  36.144  1.00  0.00    -0.744 OA
ENDBRANCH  63  64
ENDBRANCH  44  58
BRANCH  45  68
ATOM     68  C   UNL A   1      36.392  33.416  30.927  1.00  0.00    -0.014 A 
ATOM     69  C   UNL A   1      35.230  33.700  31.664  1.00  0.00     0.010 A 
ATOM     70  C   UNL A   1      36.486  33.870  29.597  1.00  0.00     0.010 A 
ATOM     71  C   UNL A   1      34.185  34.428  31.085  1.00  0.00     0.020 A 
ATOM     72  C   UNL A   1      35.457  34.623  29.026  1.00  0.00     0.020 A 
ATOM     73  C   UNL A   1      34.309  34.892  29.772  1.00  0.00     0.054 A 
BRANCH  73  74
ATOM     74  S   UNL A   1      32.974  35.899  29.068  1.00  0.00     0.124 S 
ATOM     75  O   UNL A   1      33.716  36.958  28.393  1.00  0.00    -0.237 OA
ATOM     76  O   UNL A   1      32.289  34.950  28.195  1.00  0.00    -0.237 OA
ATOM     77  O   UNL A   1      32.209  36.319  30.240  1.00  0.00    -0.744 OA
ENDBRANCH  73  74
ENDBRANCH  45  68
BRANCH  57  78
ATOM     78  C   UNL A   1      39.978  34.204  36.865  1.00  0.00    -0.014 A 
ATOM     79  C   UNL A   1      40.455  35.522  36.761  1.00  0.00     0.010 A 
ATOM     80  C   UNL A   1      39.285  33.811  38.023  1.00  0.00     0.010 A 
ATOM     81  C   UNL A   1      40.240  36.433  37.797  1.00  0.00     0.020 A 
ATOM     82  C   UNL A   1      39.048  34.725  39.052  1.00  0.00     0.020 A 
ATOM     83  C   UNL A   1      39.529  36.032  38.933  1.00  0.00     0.054 A 
BRANCH  83  84
ATOM     84  S   UNL A   1      39.186  37.261  40.221  1.00  0.00     0.124 S 
ATOM     85  O   UNL A   1      38.316  36.518  41.128  1.00  0.00    -0.237 OA
ATOM     86  O   UNL A   1      40.519  37.563  40.737  1.00  0.00    -0.237 OA
ATOM     87  O   UNL A   1      38.541  38.354  39.497  1.00  0.00    -0.744 OA
ENDBRANCH  83  84
ENDBRANCH  57  78
ENDBRANCH  31  32
ENDBRANCH  24  26
ENDBRANCH  23  24
ENDBRANCH   1  23
TORSDOF 15
ENDMDL
MODEL 3
REMARK VINA RESULT:     -10.7      3.172      4.181
REMARK SMILES Cc1c(Cl)cc2c(c1C)O[C@@H](C(F)(F)F)C(C(=O)OCCOC(=O)c1ccc(-c3c4nc(c(-c5ccc(S(=O)(=O)[O-])cc5)c5ccc([nH]5)c(-c5ccc(S(=O)(=O)[O-])cc5)c5nc(c(-c6ccc(S(=O)(=O)[O-])cc6)c6ccc3[nH]6)C=C5)C=C4)cc1)=C2
REMARK SMILES IDX 21 1 20 2 19 3 17 4 18 5 16 6 1 7 2 8 3 9 8 10 4 11 5 12
REMARK SMILES IDX 7 13 9 14 6 15 10 16 85 17 11 18 12 19 13 20 14 21 15 22
REMARK SMILES IDX 22 23 23 24 24 25 25 26 26 27 84 28 27 29 83 30 28 31 29 32
REMARK SMILES IDX 30 33 77 34 31 35 82 36 76 37 78 38 32 39 81 40 75 41 74 42
REMARK SMILES IDX 33 44 63 45 44 46 62 47 45 48 48 49 61 50 79 51 46 52 47 53
REMARK SMILES IDX 60 55 80 56 49 57 34 58 35 59 43 60 36 61 42 62 37 63 38 64
REMARK SMILES IDX 39 65 40 66 41 67 64 68 65 69 73 70 66 71 72 72 67 73 68 74
REMARK SMILES IDX 69 75 70 76 71 77 50 78 51 79 59 80 52 81 58 82 53 83 54 84
REMARK SMILES IDX 55 85 56 86 57 87
REMARK H PARENT 78 43 48 54
REMARK Flexibility Score: inf
ROOT
ATOM      1  C   UNL A   1      34.220  31.550  28.461  1.00  0.00     0.275 C 
ENDROOT
BRANCH   1   2
ATOM      2  C   UNL A   1      33.359  31.358  27.215  1.00  0.00     0.275 C 
BRANCH   2   3
ATOM      3  O   UNL A   1      32.793  30.030  27.200  1.00  0.00    -0.459 OA
BRANCH   3   4
ATOM      4  C   UNL A   1      32.065  29.703  26.109  1.00  0.00     0.338 C 
ATOM      5  O   UNL A   1      31.364  30.454  25.457  1.00  0.00    -0.246 OA
BRANCH   4   6
ATOM      6  C   UNL A   1      32.279  28.288  25.757  1.00  0.00     0.087 C 
ATOM      7  C   UNL A   1      32.583  21.761  25.977  1.00  0.00     0.046 C 
ATOM      8  C   UNL A   1      32.274  23.238  25.933  1.00  0.00    -0.026 A 
ATOM      9  C   UNL A   1      31.031  23.690  26.424  1.00  0.00     0.045 A 
ATOM     10  C   UNL A   1      33.226  24.201  25.502  1.00  0.00    -0.004 A 
ATOM     11  Cl  UNL A   1      29.825  22.603  27.025  1.00  0.00    -0.084 Cl
ATOM     12  C   UNL A   1      30.732  25.051  26.489  1.00  0.00     0.032 A 
ATOM     13  C   UNL A   1      32.896  25.575  25.552  1.00  0.00     0.131 A 
ATOM     14  C   UNL A   1      34.602  23.840  24.999  1.00  0.00     0.049 C 
ATOM     15  C   UNL A   1      31.672  25.991  26.072  1.00  0.00     0.019 A 
ATOM     16  O   UNL A   1      33.855  26.469  25.144  1.00  0.00    -0.475 OA
ATOM     17  C   UNL A   1      31.427  27.403  26.287  1.00  0.00     0.027 C 
ATOM     18  C   UNL A   1      33.491  27.872  24.973  1.00  0.00     0.316 C 
BRANCH  18  19
ATOM     19  C   UNL A   1      33.443  28.222  23.476  1.00  0.00     0.430 C 
ATOM     20  F   UNL A   1      34.174  29.312  23.166  1.00  0.00    -0.167 F 
ATOM     21  F   UNL A   1      33.885  27.192  22.712  1.00  0.00    -0.167 F 
ATOM     22  F   UNL A   1      32.170  28.460  23.068  1.00  0.00    -0.167 F 
ENDBRANCH  18  19
ENDBRANCH   4   6
ENDBRANCH   3   4
ENDBRANCH   2   3
ENDBRANCH   1   2
BRANCH   1  23
ATOM     23  O   UNL A   1      35.389  30.718  28.360  1.00  0.00    -0.458 OA
BRANCH  23  24
ATOM     24  C   UNL A   1      36.156  30.645  29.471  1.00  0.00     0.338 C 
ATOM     25  O   UNL A   1      35.872  31.027  30.595  1.00  0.00    -0.246 OA
BRANCH  24  26
ATOM     26  C   UNL A   1      37.424  29.969  29.151  1.00  0.00     0.060 A 
ATOM     27  C   UNL A   1      38.197  29.451  30.186  1.00  0.00     0.016 A 
ATOM     28  C   UNL A   1      37.917  29.980  27.849  1.00  0.00     0.016 A 
ATOM     29  C   UNL A   1      39.518  29.077  29.947  1.00  0.00     0.010 A 
ATOM     30  C   UNL A   1      39.197  29.471  27.591  1.00  0.00     0.010 A 
ATOM     31  C   UNL A   1      40.038  29.066  28.644  1.00  0.00    -0.014 A 
BRANCH  31  32
ATOM     32  C   UNL A   1      41.460  28.672  28.400  1.00  0.00     0.031 A 
ATOM     33  C   UNL A   1      42.580  29.668  28.613  1.00  0.00     0.074 A 
ATOM     34  C   UNL A   1      41.766  27.410  28.027  1.00  0.00     0.049 A 
ATOM     35  N   UNL A   1      43.855  29.545  28.342  1.00  0.00    -0.248 NA
ATOM     36  C   UNL A   1      42.219  30.974  29.188  1.00  0.00     0.031 C 
ATOM     37  C   UNL A   1      40.801  26.327  27.821  1.00  0.00     0.029 A 
ATOM     38  N   UNL A   1      42.979  26.812  27.783  1.00  0.00    -0.354 N 
ATOM     39  C   UNL A   1      44.435  30.769  28.664  1.00  0.00     0.074 A 
ATOM     40  C   UNL A   1      43.370  31.628  29.130  1.00  0.00     0.031 C 
ATOM     41  C   UNL A   1      41.459  25.187  27.567  1.00  0.00     0.029 A 
ATOM     42  C   UNL A   1      42.886  25.472  27.484  1.00  0.00     0.049 A 
ATOM     43  H   UNL A   1      43.835  27.298  27.818  1.00  0.00     0.167 HD
ATOM     44  C   UNL A   1      45.735  31.143  28.586  1.00  0.00     0.031 A 
ATOM     45  C   UNL A   1      43.831  24.570  27.148  1.00  0.00     0.031 A 
ATOM     46  C   UNL A   1      46.804  30.272  28.173  1.00  0.00     0.049 A 
ATOM     47  C   UNL A   1      45.258  25.021  27.016  1.00  0.00     0.074 A 
ATOM     48  C   UNL A   1      48.156  30.556  28.078  1.00  0.00     0.029 A 
ATOM     49  N   UNL A   1      46.648  28.944  27.808  1.00  0.00    -0.354 N 
ATOM     50  N   UNL A   1      45.774  26.198  27.275  1.00  0.00    -0.248 NA
ATOM     51  C   UNL A   1      46.224  24.033  26.514  1.00  0.00     0.031 C 
ATOM     52  C   UNL A   1      48.810  29.413  27.611  1.00  0.00     0.029 A 
ATOM     53  C   UNL A   1      47.874  28.403  27.461  1.00  0.00     0.049 A 
ATOM     54  H   UNL A   1      45.791  28.458  27.797  1.00  0.00     0.167 HD
ATOM     55  C   UNL A   1      47.123  26.095  26.960  1.00  0.00     0.074 A 
ATOM     56  C   UNL A   1      47.351  24.733  26.522  1.00  0.00     0.031 C 
ATOM     57  C   UNL A   1      48.084  27.049  27.018  1.00  0.00     0.031 A 
BRANCH  44  58
ATOM     58  C   UNL A   1      46.080  32.568  28.932  1.00  0.00    -0.014 A 
ATOM     59  C   UNL A   1      46.524  32.923  30.218  1.00  0.00     0.010 A 
ATOM     60  C   UNL A   1      46.008  33.562  27.936  1.00  0.00     0.010 A 
ATOM     61  C   UNL A   1      46.854  34.251  30.511  1.00  0.00     0.020 A 
ATOM     62  C   UNL A   1      46.362  34.884  28.218  1.00  0.00     0.020 A 
ATOM     63  C   UNL A   1      46.767  35.223  29.511  1.00  0.00     0.054 A 
BRANCH  63  64
ATOM     64  S   UNL A   1      47.222  36.932  29.916  1.00  0.00     0.124 S 
ATOM     65  O   UNL A   1      48.589  37.009  29.408  1.00  0.00    -0.237 OA
ATOM     66  O   UNL A   1      46.232  37.712  29.178  1.00  0.00    -0.237 OA
ATOM     67  O   UNL A   1      47.097  36.991  31.371  1.00  0.00    -0.744 OA
ENDBRANCH  63  64
ENDBRANCH  44  58
BRANCH  45  68
ATOM     68  C   UNL A   1      43.444  23.160  26.867  1.00  0.00    -0.014 A 
ATOM     69  C   UNL A   1      43.678  22.595  25.602  1.00  0.00     0.010 A 
ATOM     70  C   UNL A   1      42.869  22.362  27.875  1.00  0.00     0.010 A 
ATOM     71  C   UNL A   1      43.351  21.258  25.352  1.00  0.00     0.020 A 
ATOM     72  C   UNL A   1      42.568  21.019  27.638  1.00  0.00     0.020 A 
ATOM     73  C   UNL A   1      42.805  20.476  26.374  1.00  0.00     0.054 A 
BRANCH  73  74
ATOM     74  S   UNL A   1      42.460  18.725  26.049  1.00  0.00     0.124 S 
ATOM     75  O   UNL A   1      42.783  18.108  27.331  1.00  0.00    -0.237 OA
ATOM     76  O   UNL A   1      41.043  18.744  25.694  1.00  0.00    -0.237 OA
ATOM     77  O   UNL A   1      43.365  18.397  24.950  1.00  0.00    -0.744 OA
ENDBRANCH  73  74
ENDBRANCH  45  68
BRANCH  57  78
ATOM     78  C   UNL A   1      49.472  26.669  26.585  1.00  0.00    -0.014 A 
ATOM     79  C   UNL A   1      50.352  26.042  27.485  1.00  0.00     0.010 A 
ATOM     80  C   UNL A   1      49.864  26.843  25.246  1.00  0.00     0.010 A 
ATOM     81  C   UNL A   1      51.602  25.595  27.052  1.00  0.00     0.020 A 
ATOM     82  C   UNL A   1      51.105  26.377  24.804  1.00  0.00     0.020 A 
ATOM     83  C   UNL A   1      51.967  25.757  25.712  1.00  0.00     0.054 A 
BRANCH  83  84
ATOM     84  S   UNL A   1      53.558  25.085  25.158  1.00  0.00     0.124 S 
ATOM     85  O   UNL A   1      54.495  25.717  26.082  1.00  0.00    -0.237 OA
ATOM     86  O   UNL A   1      53.375  23.646  25.335  1.00  0.00    -0.237 OA
ATOM     87  O   UNL A   1      53.659  25.528  23.769  1.00  0.00    -0.744 OA
ENDBRANCH  83  84
ENDBRANCH  57  78
ENDBRANCH  31  32
ENDBRANCH  24  26
ENDBRANCH  23  24
ENDBRANCH   1  23
TORSDOF 15
ENDMDL
