MODEL 1
REMARK VINA RESULT:     -11.6      0.000      0.000
REMARK SMILES C[C@@H]1[C@@H](C(=O)OCCOC(=O)c2ccc(-c3c4nc(c(-c5ccc(S(=O)(=O)[O-])cc5)c5ccc([nH]5)c(-c5ccc(S(=O)(=O)[O-])cc5)c5nc(c(-c6ccc(S(=O)(=O)[O-])cc6)c6ccc3[nH]6)C=C5)C=C4)cc2)CCN1C(=O)[C@@H]1C[C@@H]2CCCC[C@@H]2[NH2+]1
REMARK SMILES IDX 8 1 7 2 6 3 4 4 5 5 3 6 1 7 2 8 74 9 72 10 73 11 75 12 76 13
REMARK SMILES IDX 77 14 78 15 85 16 79 17 84 18 80 21 83 22 81 23 82 24 9 25
REMARK SMILES IDX 10 26 11 27 12 28 13 29 71 30 14 31 70 32 15 33 16 34 17 35
REMARK SMILES IDX 64 36 18 37 69 38 63 39 65 40 19 41 68 42 62 43 61 44 20 46
REMARK SMILES IDX 50 47 31 48 49 49 32 50 35 51 48 52 66 53 33 54 34 55 47 57
REMARK SMILES IDX 67 58 36 59 21 60 22 61 30 62 23 63 29 64 24 65 25 66 26 67
REMARK SMILES IDX 27 68 28 69 51 70 52 71 60 72 53 73 59 74 54 75 55 76 56 77
REMARK SMILES IDX 57 78 58 79 37 80 38 81 46 82 39 83 45 84 40 85 41 86 42 87
REMARK SMILES IDX 43 88 44 89
REMARK H PARENT 85 19 85 20 65 45 35 56
REMARK Flexibility Score: inf
ROOT
ATOM      1  C   UNL A   1      34.787  31.332  28.740  1.00  0.00     0.275 C 
ENDROOT
BRANCH   1   2
ATOM      2  C   UNL A   1      33.775  31.290  27.590  1.00  0.00     0.274 C 
BRANCH   2   3
ATOM      3  O   UNL A   1      33.830  30.048  26.862  1.00  0.00    -0.462 OA
BRANCH   3   4
ATOM      4  C   UNL A   1      32.951  29.909  25.828  1.00  0.00     0.311 C 
ATOM      5  O   UNL A   1      31.922  30.556  25.700  1.00  0.00    -0.252 OA
BRANCH   4   6
ATOM      6  C   UNL A   1      33.472  28.881  24.835  1.00  0.00     0.123 C 
ATOM      7  C   UNL A   1      33.811  28.510  22.370  1.00  0.00     0.032 C 
ATOM      8  C   UNL A   1      32.833  29.026  23.436  1.00  0.00     0.096 C 
ATOM      9  N   UNL A   1      31.593  28.234  23.512  1.00  0.00    -0.334 N 
ATOM     10  C   UNL A   1      33.054  27.468  25.226  1.00  0.00     0.039 C 
ATOM     11  C   UNL A   1      31.631  27.382  24.695  1.00  0.00     0.121 C 
BRANCH   9  12
ATOM     12  C   UNL A   1      30.344  28.507  22.958  1.00  0.00     0.281 C 
ATOM     13  O   UNL A   1      30.167  28.274  21.750  1.00  0.00    -0.268 OA
BRANCH  12  14
ATOM     14  C   UNL A   1      29.203  29.249  23.738  1.00  0.00     0.273 C 
ATOM     15  C   UNL A   1      27.781  29.240  23.229  1.00  0.00     0.085 C 
ATOM     16  N   UNL A   1      29.525  30.722  23.874  1.00  0.00    -0.333 N 
ATOM     17  C   UNL A   1      27.668  30.510  22.428  1.00  0.00     0.054 C 
ATOM     18  C   UNL A   1      28.378  31.499  23.339  1.00  0.00     0.186 C 
ATOM     19  H   UNL A   1      30.368  30.942  23.343  1.00  0.00     0.347 HD
ATOM     20  H   UNL A   1      29.686  30.960  24.853  1.00  0.00     0.347 HD
ATOM     21  C   UNL A   1      28.381  30.485  21.075  1.00  0.00     0.010 C 
ATOM     22  C   UNL A   1      28.741  32.808  22.614  1.00  0.00     0.065 C 
ATOM     23  C   UNL A   1      28.126  31.795  20.361  1.00  0.00     0.001 C 
ATOM     24  C   UNL A   1      27.944  32.977  21.317  1.00  0.00     0.006 C 
ENDBRANCH  12  14
ENDBRANCH   9  12
ENDBRANCH   4   6
ENDBRANCH   3   4
ENDBRANCH   2   3
ENDBRANCH   1   2
BRANCH   1  25
ATOM     25  O   UNL A   1      35.461  30.071  28.921  1.00  0.00    -0.458 OA
BRANCH  25  26
ATOM     26  C   UNL A   1      36.360  30.034  29.935  1.00  0.00     0.338 C 
ATOM     27  O   UNL A   1      36.124  30.167  31.123  1.00  0.00    -0.246 OA
BRANCH  26  28
ATOM     28  C   UNL A   1      37.688  29.645  29.415  1.00  0.00     0.060 A 
ATOM     29  C   UNL A   1      38.613  29.139  30.331  1.00  0.00     0.016 A 
ATOM     30  C   UNL A   1      38.044  29.798  28.072  1.00  0.00     0.016 A 
ATOM     31  C   UNL A   1      39.885  28.760  29.904  1.00  0.00     0.010 A 
ATOM     32  C   UNL A   1      39.334  29.445  27.649  1.00  0.00     0.010 A 
ATOM     33  C   UNL A   1      40.261  28.920  28.561  1.00  0.00    -0.014 A 
BRANCH  33  34
ATOM     34  C   UNL A   1      41.660  28.603  28.174  1.00  0.00     0.031 A 
ATOM     35  C   UNL A   1      42.757  29.544  28.564  1.00  0.00     0.074 A 
ATOM     36  C   UNL A   1      41.961  27.453  27.543  1.00  0.00     0.049 A 
ATOM     37  N   UNL A   1      44.046  29.404  28.414  1.00  0.00    -0.248 NA
ATOM     38  C   UNL A   1      42.347  30.831  29.146  1.00  0.00     0.031 C 
ATOM     39  C   UNL A   1      40.983  26.510  27.024  1.00  0.00     0.029 A 
ATOM     40  N   UNL A   1      43.169  26.837  27.301  1.00  0.00    -0.354 N 
ATOM     41  C   UNL A   1      44.600  30.617  28.793  1.00  0.00     0.074 A 
ATOM     42  C   UNL A   1      43.510  31.459  29.242  1.00  0.00     0.031 C 
ATOM     43  C   UNL A   1      41.605  25.363  26.707  1.00  0.00     0.029 A 
ATOM     44  C   UNL A   1      43.036  25.514  26.925  1.00  0.00     0.049 A 
ATOM     45  H   UNL A   1      44.037  27.294  27.387  1.00  0.00     0.167 HD
ATOM     46  C   UNL A   1      45.893  31.009  28.704  1.00  0.00     0.031 A 
ATOM     47  C   UNL A   1      43.966  24.542  26.807  1.00  0.00     0.031 A 
ATOM     48  C   UNL A   1      46.956  30.168  28.218  1.00  0.00     0.049 A 
ATOM     49  C   UNL A   1      45.415  24.951  26.877  1.00  0.00     0.074 A 
ATOM     50  C   UNL A   1      48.286  30.490  28.016  1.00  0.00     0.029 A 
ATOM     51  N   UNL A   1      46.810  28.835  27.864  1.00  0.00    -0.354 N 
ATOM     52  N   UNL A   1      45.927  26.115  27.198  1.00  0.00    -0.248 NA
ATOM     53  C   UNL A   1      46.410  23.942  26.485  1.00  0.00     0.031 C 
ATOM     54  C   UNL A   1      48.936  29.363  27.501  1.00  0.00     0.029 A 
ATOM     55  C   UNL A   1      48.025  28.320  27.444  1.00  0.00     0.049 A 
ATOM     56  H   UNL A   1      45.967  28.329  27.903  1.00  0.00     0.167 HD
ATOM     57  C   UNL A   1      47.295  25.996  26.986  1.00  0.00     0.074 A 
ATOM     58  C   UNL A   1      47.543  24.621  26.603  1.00  0.00     0.031 C 
ATOM     59  C   UNL A   1      48.252  26.954  27.048  1.00  0.00     0.031 A 
BRANCH  46  60
ATOM     60  C   UNL A   1      46.197  32.442  29.034  1.00  0.00    -0.014 A 
ATOM     61  C   UNL A   1      46.550  32.842  30.334  1.00  0.00     0.010 A 
ATOM     62  C   UNL A   1      46.131  33.409  28.012  1.00  0.00     0.010 A 
ATOM     63  C   UNL A   1      46.796  34.189  30.614  1.00  0.00     0.020 A 
ATOM     64  C   UNL A   1      46.403  34.751  28.281  1.00  0.00     0.020 A 
ATOM     65  C   UNL A   1      46.719  35.135  29.585  1.00  0.00     0.054 A 
BRANCH  65  66
ATOM     66  S   UNL A   1      47.058  36.873  29.973  1.00  0.00     0.124 S 
ATOM     67  O   UNL A   1      45.770  37.321  30.497  1.00  0.00    -0.237 OA
ATOM     68  O   UNL A   1      48.136  36.776  30.954  1.00  0.00    -0.237 OA
ATOM     69  O   UNL A   1      47.441  37.448  28.686  1.00  0.00    -0.744 OA
ENDBRANCH  65  66
ENDBRANCH  46  60
BRANCH  47  70
ATOM     70  C   UNL A   1      43.597  23.106  26.596  1.00  0.00    -0.014 A 
ATOM     71  C   UNL A   1      42.954  22.387  27.626  1.00  0.00     0.010 A 
ATOM     72  C   UNL A   1      43.909  22.427  25.406  1.00  0.00     0.010 A 
ATOM     73  C   UNL A   1      42.662  21.025  27.483  1.00  0.00     0.020 A 
ATOM     74  C   UNL A   1      43.579  21.077  25.239  1.00  0.00     0.020 A 
ATOM     75  C   UNL A   1      42.978  20.377  26.287  1.00  0.00     0.054 A 
BRANCH  75  76
ATOM     76  S   UNL A   1      42.580  18.616  26.096  1.00  0.00     0.124 S 
ATOM     77  O   UNL A   1      41.169  18.664  25.723  1.00  0.00    -0.237 OA
ATOM     78  O   UNL A   1      43.497  18.189  25.042  1.00  0.00    -0.237 OA
ATOM     79  O   UNL A   1      42.861  18.062  27.419  1.00  0.00    -0.744 OA
ENDBRANCH  75  76
ENDBRANCH  47  70
BRANCH  59  80
ATOM     80  C   UNL A   1      49.650  26.557  26.659  1.00  0.00    -0.014 A 
ATOM     81  C   UNL A   1      50.536  26.014  27.608  1.00  0.00     0.010 A 
ATOM     82  C   UNL A   1      50.063  26.669  25.320  1.00  0.00     0.010 A 
ATOM     83  C   UNL A   1      51.820  25.615  27.230  1.00  0.00     0.020 A 
ATOM     84  C   UNL A   1      51.338  26.247  24.934  1.00  0.00     0.020 A 
ATOM     85  C   UNL A   1      52.213  25.733  25.894  1.00  0.00     0.054 A 
BRANCH  85  86
ATOM     86  S   UNL A   1      53.868  25.164  25.420  1.00  0.00     0.124 S 
ATOM     87  O   UNL A   1      54.537  25.059  26.713  1.00  0.00    -0.237 OA
ATOM     88  O   UNL A   1      53.591  23.895  24.750  1.00  0.00    -0.237 OA
ATOM     89  O   UNL A   1      54.362  26.227  24.546  1.00  0.00    -0.744 OA
ENDBRANCH  85  86
ENDBRANCH  59  80
ENDBRANCH  33  34
ENDBRANCH  26  28
ENDBRANCH  25  26
ENDBRANCH   1  25
TORSDOF 16
ENDMDL
MODEL 2
REMARK VINA RESULT:     -11.5      6.963     12.188
REMARK SMILES C[C@@H]1[C@@H](C(=O)OCCOC(=O)c2ccc(-c3c4nc(c(-c5ccc(S(=O)(=O)[O-])cc5)c5ccc([nH]5)c(-c5ccc(S(=O)(=O)[O-])cc5)c5nc(c(-c6ccc(S(=O)(=O)[O-])cc6)c6ccc3[nH]6)C=C5)C=C4)cc2)CCN1C(=O)[C@@H]1C[C@@H]2CCCC[C@@H]2[NH2+]1
REMARK SMILES IDX 8 1 7 2 6 3 4 4 5 5 3 6 1 7 2 8 74 9 72 10 73 11 75 12 76 13
REMARK SMILES IDX 77 14 78 15 85 16 79 17 84 18 80 21 83 22 81 23 82 24 9 25
REMARK SMILES IDX 10 26 11 27 12 28 13 29 71 30 14 31 70 32 15 33 16 34 17 35
REMARK SMILES IDX 64 36 18 37 69 38 63 39 65 40 19 41 68 42 62 43 61 44 20 46
REMARK SMILES IDX 50 47 31 48 49 49 32 50 35 51 48 52 66 53 33 54 34 55 47 57
REMARK SMILES IDX 67 58 36 59 21 60 22 61 30 62 23 63 29 64 24 65 25 66 26 67
REMARK SMILES IDX 27 68 28 69 51 70 52 71 60 72 53 73 59 74 54 75 55 76 56 77
REMARK SMILES IDX 57 78 58 79 37 80 38 81 46 82 39 83 45 84 40 85 41 86 42 87
REMARK SMILES IDX 43 88 44 89
REMARK H PARENT 85 19 85 20 65 45 35 56
REMARK Flexibility Score: inf
ROOT
ATOM      1  C   UNL A   1      39.223  22.804  26.488  1.00  0.00     0.275 C 
ENDROOT
BRANCH   1   2
ATOM      2  C   UNL A   1      38.243  22.145  25.510  1.00  0.00     0.274 C 
BRANCH   2   3
ATOM      3  O   UNL A   1      36.879  22.234  25.966  1.00  0.00    -0.462 OA
BRANCH   3   4
ATOM      4  C   UNL A   1      36.024  22.959  25.187  1.00  0.00     0.311 C 
ATOM      5  O   UNL A   1      36.119  24.160  24.985  1.00  0.00    -0.252 OA
BRANCH   4   6
ATOM      6  C   UNL A   1      34.982  22.042  24.565  1.00  0.00     0.123 C 
ATOM      7  C   UNL A   1      32.863  22.093  23.209  1.00  0.00     0.032 C 
ATOM      8  C   UNL A   1      33.610  22.731  24.389  1.00  0.00     0.096 C 
ATOM      9  N   UNL A   1      32.928  22.532  25.679  1.00  0.00    -0.334 N 
ATOM     10  C   UNL A   1      34.634  20.884  25.494  1.00  0.00     0.039 C 
ATOM     11  C   UNL A   1      33.631  21.514  26.450  1.00  0.00     0.121 C 
BRANCH   9  12
ATOM     12  C   UNL A   1      32.104  23.410  26.380  1.00  0.00     0.281 C 
ATOM     13  O   UNL A   1      31.986  23.262  27.608  1.00  0.00    -0.268 OA
BRANCH  12  14
ATOM     14  C   UNL A   1      31.186  24.471  25.676  1.00  0.00     0.273 C 
ATOM     15  C   UNL A   1      31.695  25.292  24.516  1.00  0.00     0.085 C 
ATOM     16  N   UNL A   1      30.717  25.510  26.673  1.00  0.00    -0.333 N 
ATOM     17  C   UNL A   1      32.189  26.564  25.154  1.00  0.00     0.054 C 
ATOM     18  C   UNL A   1      31.071  26.852  26.145  1.00  0.00     0.186 C 
ATOM     19  H   UNL A   1      31.177  25.360  27.571  1.00  0.00     0.347 HD
ATOM     20  H   UNL A   1      29.708  25.440  26.808  1.00  0.00     0.347 HD
ATOM     21  C   UNL A   1      33.507  26.433  25.920  1.00  0.00     0.010 C 
ATOM     22  C   UNL A   1      31.479  27.897  27.201  1.00  0.00     0.065 C 
ATOM     23  C   UNL A   1      33.908  27.795  26.446  1.00  0.00     0.001 C 
ATOM     24  C   UNL A   1      32.710  28.694  26.762  1.00  0.00     0.006 C 
ENDBRANCH  12  14
ENDBRANCH   9  12
ENDBRANCH   4   6
ENDBRANCH   3   4
ENDBRANCH   2   3
ENDBRANCH   1   2
BRANCH   1  25
ATOM     25  O   UNL A   1      38.979  24.216  26.637  1.00  0.00    -0.458 OA
BRANCH  25  26
ATOM     26  C   UNL A   1      40.072  25.009  26.523  1.00  0.00     0.338 C 
ATOM     27  O   UNL A   1      40.838  25.064  25.577  1.00  0.00    -0.246 OA
BRANCH  26  28
ATOM     28  C   UNL A   1      40.137  25.943  27.667  1.00  0.00     0.060 A 
ATOM     29  C   UNL A   1      39.284  25.697  28.746  1.00  0.00     0.016 A 
ATOM     30  C   UNL A   1      40.982  27.057  27.682  1.00  0.00     0.016 A 
ATOM     31  C   UNL A   1      39.292  26.546  29.852  1.00  0.00     0.010 A 
ATOM     32  C   UNL A   1      40.967  27.927  28.782  1.00  0.00     0.010 A 
ATOM     33  C   UNL A   1      40.126  27.675  29.875  1.00  0.00    -0.014 A 
BRANCH  33  34
ATOM     34  C   UNL A   1      40.024  28.608  31.027  1.00  0.00     0.031 A 
ATOM     35  C   UNL A   1      41.134  28.654  32.030  1.00  0.00     0.074 A 
ATOM     36  C   UNL A   1      38.986  29.458  31.141  1.00  0.00     0.049 A 
ATOM     37  N   UNL A   1      41.286  29.463  33.044  1.00  0.00    -0.248 NA
ATOM     38  C   UNL A   1      42.176  27.623  31.910  1.00  0.00     0.031 C 
ATOM     39  C   UNL A   1      37.804  29.442  30.294  1.00  0.00     0.029 A 
ATOM     40  N   UNL A   1      38.790  30.550  31.956  1.00  0.00    -0.354 N 
ATOM     41  C   UNL A   1      42.386  28.985  33.740  1.00  0.00     0.074 A 
ATOM     42  C   UNL A   1      42.901  27.854  32.995  1.00  0.00     0.031 C 
ATOM     43  C   UNL A   1      37.106  30.572  30.494  1.00  0.00     0.029 A 
ATOM     44  C   UNL A   1      37.748  31.356  31.540  1.00  0.00     0.049 A 
ATOM     45  H   UNL A   1      39.336  30.735  32.755  1.00  0.00     0.167 HD
ATOM     46  C   UNL A   1      42.872  29.412  34.929  1.00  0.00     0.031 A 
ATOM     47  C   UNL A   1      37.386  32.593  31.942  1.00  0.00     0.031 A 
ATOM     48  C   UNL A   1      42.321  30.516  35.672  1.00  0.00     0.049 A 
ATOM     49  C   UNL A   1      38.050  33.148  33.177  1.00  0.00     0.074 A 
ATOM     50  C   UNL A   1      42.688  30.984  36.921  1.00  0.00     0.029 A 
ATOM     51  N   UNL A   1      41.287  31.329  35.231  1.00  0.00    -0.354 N 
ATOM     52  N   UNL A   1      39.066  32.665  33.851  1.00  0.00    -0.248 NA
ATOM     53  C   UNL A   1      37.467  34.367  33.755  1.00  0.00     0.031 C 
ATOM     54  C   UNL A   1      41.851  32.054  37.252  1.00  0.00     0.029 A 
ATOM     55  C   UNL A   1      41.004  32.294  36.183  1.00  0.00     0.049 A 
ATOM     56  H   UNL A   1      40.822  31.233  34.369  1.00  0.00     0.167 HD
ATOM     57  C   UNL A   1      39.202  33.484  34.965  1.00  0.00     0.074 A 
ATOM     58  C   UNL A   1      38.228  34.548  34.825  1.00  0.00     0.031 C 
ATOM     59  C   UNL A   1      40.020  33.336  36.035  1.00  0.00     0.031 A 
BRANCH  46  60
ATOM     60  C   UNL A   1      43.982  28.609  35.543  1.00  0.00    -0.014 A 
ATOM     61  C   UNL A   1      43.723  27.503  36.371  1.00  0.00     0.010 A 
ATOM     62  C   UNL A   1      45.316  28.972  35.279  1.00  0.00     0.010 A 
ATOM     63  C   UNL A   1      44.780  26.797  36.952  1.00  0.00     0.020 A 
ATOM     64  C   UNL A   1      46.375  28.252  35.835  1.00  0.00     0.020 A 
ATOM     65  C   UNL A   1      46.099  27.178  36.682  1.00  0.00     0.054 A 
BRANCH  65  66
ATOM     66  S   UNL A   1      47.451  26.234  37.437  1.00  0.00     0.124 S 
ATOM     67  O   UNL A   1      48.525  26.418  36.464  1.00  0.00    -0.237 OA
ATOM     68  O   UNL A   1      47.639  26.913  38.716  1.00  0.00    -0.237 OA
ATOM     69  O   UNL A   1      46.917  24.878  37.528  1.00  0.00    -0.744 OA
ENDBRANCH  65  66
ENDBRANCH  46  60
BRANCH  47  70
ATOM     70  C   UNL A   1      36.352  33.398  31.217  1.00  0.00    -0.014 A 
ATOM     71  C   UNL A   1      35.142  33.732  31.862  1.00  0.00     0.010 A 
ATOM     72  C   UNL A   1      36.530  33.806  29.884  1.00  0.00     0.010 A 
ATOM     73  C   UNL A   1      34.129  34.422  31.184  1.00  0.00     0.020 A 
ATOM     74  C   UNL A   1      35.540  34.536  29.216  1.00  0.00     0.020 A 
ATOM     75  C   UNL A   1      34.336  34.819  29.861  1.00  0.00     0.054 A 
BRANCH  75  76
ATOM     76  S   UNL A   1      33.029  35.732  28.992  1.00  0.00     0.124 S 
ATOM     77  O   UNL A   1      33.800  36.707  28.226  1.00  0.00    -0.237 OA
ATOM     78  O   UNL A   1      32.372  34.689  28.207  1.00  0.00    -0.237 OA
ATOM     79  O   UNL A   1      32.224  36.284  30.079  1.00  0.00    -0.744 OA
ENDBRANCH  75  76
ENDBRANCH  47  70
BRANCH  59  80
ATOM     80  C   UNL A   1      39.873  34.328  37.157  1.00  0.00    -0.014 A 
ATOM     81  C   UNL A   1      39.043  34.052  38.259  1.00  0.00     0.010 A 
ATOM     82  C   UNL A   1      40.620  35.519  37.143  1.00  0.00     0.010 A 
ATOM     83  C   UNL A   1      38.941  34.962  39.314  1.00  0.00     0.020 A 
ATOM     84  C   UNL A   1      40.540  36.419  38.208  1.00  0.00     0.020 A 
ATOM     85  C   UNL A   1      39.691  36.140  39.282  1.00  0.00     0.054 A 
BRANCH  85  86
ATOM     86  S   UNL A   1      39.578  37.283  40.685  1.00  0.00     0.124 S 
ATOM     87  O   UNL A   1      40.978  37.438  41.067  1.00  0.00    -0.237 OA
ATOM     88  O   UNL A   1      38.954  38.463  40.088  1.00  0.00    -0.237 OA
ATOM     89  O   UNL A   1      38.744  36.567  41.649  1.00  0.00    -0.744 OA
ENDBRANCH  85  86
ENDBRANCH  59  80
ENDBRANCH  33  34
ENDBRANCH  26  28
ENDBRANCH  25  26
ENDBRANCH   1  25
TORSDOF 16
ENDMDL
MODEL 3
REMARK VINA RESULT:     -11.5      1.154      8.340
REMARK SMILES C[C@@H]1[C@@H](C(=O)OCCOC(=O)c2ccc(-c3c4nc(c(-c5ccc(S(=O)(=O)[O-])cc5)c5ccc([nH]5)c(-c5ccc(S(=O)(=O)[O-])cc5)c5nc(c(-c6ccc(S(=O)(=O)[O-])cc6)c6ccc3[nH]6)C=C5)C=C4)cc2)CCN1C(=O)[C@@H]1C[C@@H]2CCCC[C@@H]2[NH2+]1
REMARK SMILES IDX 8 1 7 2 6 3 4 4 5 5 3 6 1 7 2 8 74 9 72 10 73 11 75 12 76 13
REMARK SMILES IDX 77 14 78 15 85 16 79 17 84 18 80 21 83 22 81 23 82 24 9 25
REMARK SMILES IDX 10 26 11 27 12 28 13 29 71 30 14 31 70 32 15 33 16 34 17 35
REMARK SMILES IDX 64 36 18 37 69 38 63 39 65 40 19 41 68 42 62 43 61 44 20 46
REMARK SMILES IDX 50 47 31 48 49 49 32 50 35 51 48 52 66 53 33 54 34 55 47 57
REMARK SMILES IDX 67 58 36 59 21 60 22 61 30 62 23 63 29 64 24 65 25 66 26 67
REMARK SMILES IDX 27 68 28 69 51 70 52 71 60 72 53 73 59 74 54 75 55 76 56 77
REMARK SMILES IDX 57 78 58 79 37 80 38 81 46 82 39 83 45 84 40 85 41 86 42 87
REMARK SMILES IDX 43 88 44 89
REMARK H PARENT 85 19 85 20 65 45 35 56
REMARK Flexibility Score: inf
ROOT
ATOM      1  C   UNL A   1      34.557  30.015  27.447  1.00  0.00     0.275 C 
ENDROOT
BRANCH   1   2
ATOM      2  C   UNL A   1      33.229  29.300  27.176  1.00  0.00     0.274 C 
BRANCH   2   3
ATOM      3  O   UNL A   1      33.424  27.984  26.623  1.00  0.00    -0.462 OA
BRANCH   3   4
ATOM      4  C   UNL A   1      32.406  27.092  26.801  1.00  0.00     0.311 C 
ATOM      5  O   UNL A   1      31.405  27.306  27.468  1.00  0.00    -0.252 OA
BRANCH   4   6
ATOM      6  C   UNL A   1      32.674  25.828  25.998  1.00  0.00     0.123 C 
ATOM      7  C   UNL A   1      34.061  24.959  24.088  1.00  0.00     0.032 C 
ATOM      8  C   UNL A   1      33.189  26.126  24.572  1.00  0.00     0.096 C 
ATOM      9  N   UNL A   1      31.968  26.306  23.768  1.00  0.00    -0.334 N 
ATOM     10  C   UNL A   1      31.384  25.066  25.713  1.00  0.00     0.039 C 
ATOM     11  C   UNL A   1      30.816  25.810  24.512  1.00  0.00     0.121 C 
BRANCH   9  12
ATOM     12  C   UNL A   1      31.723  27.211  22.737  1.00  0.00     0.281 C 
ATOM     13  O   UNL A   1      31.614  26.776  21.578  1.00  0.00    -0.268 OA
BRANCH  12  14
ATOM     14  C   UNL A   1      31.745  28.767  22.939  1.00  0.00     0.273 C 
ATOM     15  C   UNL A   1      31.074  29.406  24.131  1.00  0.00     0.085 C 
ATOM     16  N   UNL A   1      31.109  29.464  21.754  1.00  0.00    -0.333 N 
ATOM     17  C   UNL A   1      29.704  29.778  23.628  1.00  0.00     0.054 C 
ATOM     18  C   UNL A   1      30.038  30.358  22.262  1.00  0.00     0.186 C 
ATOM     19  H   UNL A   1      30.710  28.772  21.120  1.00  0.00     0.347 HD
ATOM     20  H   UNL A   1      31.809  30.006  21.246  1.00  0.00     0.347 HD
ATOM     21  C   UNL A   1      28.743  28.602  23.445  1.00  0.00     0.010 C 
ATOM     22  C   UNL A   1      28.795  30.487  21.361  1.00  0.00     0.065 C 
ATOM     23  C   UNL A   1      27.396  29.133  23.002  1.00  0.00     0.001 C 
ATOM     24  C   UNL A   1      27.498  30.415  22.172  1.00  0.00     0.006 C 
ENDBRANCH  12  14
ENDBRANCH   9  12
ENDBRANCH   4   6
ENDBRANCH   3   4
ENDBRANCH   2   3
ENDBRANCH   1   2
BRANCH   1  25
ATOM     25  O   UNL A   1      35.398  29.279  28.357  1.00  0.00    -0.458 OA
BRANCH  25  26
ATOM     26  C   UNL A   1      36.262  30.029  29.084  1.00  0.00     0.338 C 
ATOM     27  O   UNL A   1      35.976  30.829  29.957  1.00  0.00    -0.246 OA
BRANCH  26  28
ATOM     28  C   UNL A   1      37.653  29.630  28.781  1.00  0.00     0.060 A 
ATOM     29  C   UNL A   1      38.439  29.186  29.847  1.00  0.00     0.016 A 
ATOM     30  C   UNL A   1      38.197  29.715  27.496  1.00  0.00     0.016 A 
ATOM     31  C   UNL A   1      39.762  28.801  29.627  1.00  0.00     0.010 A 
ATOM     32  C   UNL A   1      39.536  29.356  27.283  1.00  0.00     0.010 A 
ATOM     33  C   UNL A   1      40.325  28.894  28.345  1.00  0.00    -0.014 A 
BRANCH  33  34
ATOM     34  C   UNL A   1      41.767  28.574  28.180  1.00  0.00     0.031 A 
ATOM     35  C   UNL A   1      42.160  27.239  27.629  1.00  0.00     0.074 A 
ATOM     36  C   UNL A   1      42.716  29.490  28.451  1.00  0.00     0.049 A 
ATOM     37  N   UNL A   1      43.350  26.803  27.314  1.00  0.00    -0.248 NA
ATOM     38  C   UNL A   1      41.084  26.249  27.466  1.00  0.00     0.031 C 
ATOM     39  C   UNL A   1      42.471  30.777  29.081  1.00  0.00     0.029 A 
ATOM     40  N   UNL A   1      44.061  29.519  28.160  1.00  0.00    -0.354 N 
ATOM     41  C   UNL A   1      43.186  25.461  27.004  1.00  0.00     0.074 A 
ATOM     42  C   UNL A   1      41.770  25.173  27.107  1.00  0.00     0.031 C 
ATOM     43  C   UNL A   1      43.567  31.543  28.955  1.00  0.00     0.029 A 
ATOM     44  C   UNL A   1      44.620  30.774  28.306  1.00  0.00     0.049 A 
ATOM     45  H   UNL A   1      44.572  28.726  27.877  1.00  0.00     0.167 HD
ATOM     46  C   UNL A   1      44.143  24.545  26.731  1.00  0.00     0.031 A 
ATOM     47  C   UNL A   1      45.828  31.243  27.926  1.00  0.00     0.031 A 
ATOM     48  C   UNL A   1      45.550  24.845  26.671  1.00  0.00     0.049 A 
ATOM     49  C   UNL A   1      46.849  30.239  27.457  1.00  0.00     0.074 A 
ATOM     50  C   UNL A   1      46.610  23.977  26.476  1.00  0.00     0.029 A 
ATOM     51  N   UNL A   1      46.093  26.115  26.800  1.00  0.00    -0.354 N 
ATOM     52  N   UNL A   1      46.691  28.961  27.205  1.00  0.00    -0.248 NA
ATOM     53  C   UNL A   1      48.231  30.718  27.301  1.00  0.00     0.031 C 
ATOM     54  C   UNL A   1      47.796  24.716  26.527  1.00  0.00     0.029 A 
ATOM     55  C   UNL A   1      47.473  26.054  26.690  1.00  0.00     0.049 A 
ATOM     56  H   UNL A   1      45.575  26.938  26.950  1.00  0.00     0.167 HD
ATOM     57  C   UNL A   1      47.962  28.473  26.925  1.00  0.00     0.074 A 
ATOM     58  C   UNL A   1      48.861  29.608  26.943  1.00  0.00     0.031 C 
ATOM     59  C   UNL A   1      48.356  27.191  26.727  1.00  0.00     0.031 A 
BRANCH  46  60
ATOM     60  C   UNL A   1      43.702  23.116  26.589  1.00  0.00    -0.014 A 
ATOM     61  C   UNL A   1      42.814  22.523  27.503  1.00  0.00     0.010 A 
ATOM     62  C   UNL A   1      44.189  22.353  25.511  1.00  0.00     0.010 A 
ATOM     63  C   UNL A   1      42.449  21.182  27.361  1.00  0.00     0.020 A 
ATOM     64  C   UNL A   1      43.805  21.021  25.349  1.00  0.00     0.020 A 
ATOM     65  C   UNL A   1      42.949  20.439  26.285  1.00  0.00     0.054 A 
BRANCH  65  66
ATOM     66  S   UNL A   1      42.446  18.705  26.116  1.00  0.00     0.124 S 
ATOM     67  O   UNL A   1      41.033  18.835  25.771  1.00  0.00    -0.237 OA
ATOM     68  O   UNL A   1      43.313  18.225  25.043  1.00  0.00    -0.237 OA
ATOM     69  O   UNL A   1      42.716  18.135  27.433  1.00  0.00    -0.744 OA
ENDBRANCH  65  66
ENDBRANCH  46  60
BRANCH  47  70
ATOM     70  C   UNL A   1      46.172  32.699  27.978  1.00  0.00    -0.014 A 
ATOM     71  C   UNL A   1      46.679  33.259  29.170  1.00  0.00     0.010 A 
ATOM     72  C   UNL A   1      45.968  33.549  26.878  1.00  0.00     0.010 A 
ATOM     73  C   UNL A   1      46.941  34.632  29.269  1.00  0.00     0.020 A 
ATOM     74  C   UNL A   1      46.272  34.913  26.955  1.00  0.00     0.020 A 
ATOM     75  C   UNL A   1      46.735  35.452  28.157  1.00  0.00     0.054 A 
BRANCH  75  76
ATOM     76  S   UNL A   1      47.096  37.227  28.281  1.00  0.00     0.124 S 
ATOM     77  O   UNL A   1      48.439  37.302  27.714  1.00  0.00    -0.237 OA
ATOM     78  O   UNL A   1      46.036  37.830  27.477  1.00  0.00    -0.237 OA
ATOM     79  O   UNL A   1      47.006  37.489  29.716  1.00  0.00    -0.744 OA
ENDBRANCH  75  76
ENDBRANCH  47  70
BRANCH  59  80
ATOM     80  C   UNL A   1      49.829  26.943  26.550  1.00  0.00    -0.014 A 
ATOM     81  C   UNL A   1      50.649  26.653  27.656  1.00  0.00     0.010 A 
ATOM     82  C   UNL A   1      50.389  26.936  25.260  1.00  0.00     0.010 A 
ATOM     83  C   UNL A   1      52.009  26.388  27.478  1.00  0.00     0.020 A 
ATOM     84  C   UNL A   1      51.744  26.646  25.077  1.00  0.00     0.020 A 
ATOM     85  C   UNL A   1      52.548  26.385  26.189  1.00  0.00     0.054 A 
BRANCH  85  86
ATOM     86  S   UNL A   1      54.305  25.992  25.980  1.00  0.00     0.124 S 
ATOM     87  O   UNL A   1      54.644  25.412  27.276  1.00  0.00    -0.237 OA
ATOM     88  O   UNL A   1      54.293  25.057  24.856  1.00  0.00    -0.237 OA
ATOM     89  O   UNL A   1      54.920  27.288  25.697  1.00  0.00    -0.744 OA
ENDBRANCH  85  86
ENDBRANCH  59  80
ENDBRANCH  33  34
ENDBRANCH  26  28
ENDBRANCH  25  26
ENDBRANCH   1  25
TORSDOF 16
ENDMDL
