MODEL 1
REMARK VINA RESULT:     -11.4      0.000      0.000
REMARK SMILES O=C(OCCOC(=O)[C@H]1CC(=O)N(Cc2ccccc2CN2CCCC2=O)C1)c1ccc(-c2c3nc(c(-c4ccc(S(=O)(=O)[O-])cc4)c4ccc([nH]4)c(-c4ccc(S(=O)(=O)[O-])cc4)c4nc(c(-c5ccc(S(=O)(=O)[O-])cc5)c5ccc2[nH]5)C=C4)C=C3)cc1
REMARK SMILES IDX 5 1 4 2 3 3 2 4 1 5 29 6 30 7 88 8 31 9 87 10 32 11 33 12
REMARK SMILES IDX 34 13 81 14 35 15 86 16 80 17 82 18 36 19 85 20 79 21 78 22
REMARK SMILES IDX 37 24 67 25 48 26 66 27 49 28 52 29 65 30 83 31 50 32 51 33
REMARK SMILES IDX 64 35 84 36 53 37 38 38 39 39 47 40 40 41 46 42 41 43 42 44
REMARK SMILES IDX 43 45 44 46 45 47 68 48 69 49 77 50 70 51 76 52 71 53 72 54
REMARK SMILES IDX 73 55 74 56 75 57 54 58 55 59 63 60 56 61 62 62 57 63 58 64
REMARK SMILES IDX 59 65 60 66 61 67 6 68 7 69 8 70 9 71 10 72 28 73 11 74
REMARK SMILES IDX 13 75 12 76 14 77 15 78 16 79 20 80 17 81 19 82 18 83 21 84
REMARK SMILES IDX 22 85 23 86 26 87 24 88 25 89 27 90
REMARK H PARENT 82 23 52 34
REMARK Flexibility Score: inf
ROOT
ATOM      1  C   UNL A   1      35.673  23.026  24.191  1.00  0.00     0.274 C 
ENDROOT
BRANCH   1   2
ATOM      2  C   UNL A   1      36.598  23.569  25.285  1.00  0.00     0.275 C 
BRANCH   2   3
ATOM      3  O   UNL A   1      37.783  22.774  25.456  1.00  0.00    -0.458 OA
BRANCH   3   4
ATOM      4  C   UNL A   1      38.913  23.013  26.154  1.00  0.00     0.338 C 
ATOM      5  O   UNL A   1      39.718  22.089  26.266  1.00  0.00    -0.246 OA
BRANCH   4   6
ATOM      6  C   UNL A   1      39.216  24.277  26.912  1.00  0.00     0.060 A 
ATOM      7  C   UNL A   1      38.865  24.596  28.225  1.00  0.00     0.016 A 
ATOM      8  C   UNL A   1      40.009  25.209  26.219  1.00  0.00     0.016 A 
ATOM      9  C   UNL A   1      39.373  25.739  28.859  1.00  0.00     0.010 A 
ATOM     10  C   UNL A   1      40.565  26.320  26.851  1.00  0.00     0.010 A 
ATOM     11  C   UNL A   1      40.238  26.594  28.179  1.00  0.00    -0.014 A 
BRANCH  11  12
ATOM     12  C   UNL A   1      40.622  27.892  28.767  1.00  0.00     0.031 A 
ATOM     13  C   UNL A   1      42.014  28.009  29.310  1.00  0.00     0.074 A 
ATOM     14  C   UNL A   1      39.753  28.917  28.832  1.00  0.00     0.049 A 
ATOM     15  N   UNL A   1      42.579  29.006  29.932  1.00  0.00    -0.248 NA
ATOM     16  C   UNL A   1      42.878  26.826  29.147  1.00  0.00     0.031 C 
ATOM     17  C   UNL A   1      38.383  28.901  28.320  1.00  0.00     0.029 A 
ATOM     18  N   UNL A   1      39.893  30.170  29.370  1.00  0.00    -0.354 N 
ATOM     19  C   UNL A   1      43.855  28.561  30.254  1.00  0.00     0.074 A 
ATOM     20  C   UNL A   1      43.959  27.190  29.813  1.00  0.00     0.031 C 
ATOM     21  C   UNL A   1      37.804  30.086  28.578  1.00  0.00     0.029 A 
ATOM     22  C   UNL A   1      38.753  30.936  29.292  1.00  0.00     0.049 A 
ATOM     23  H   UNL A   1      40.731  30.492  29.774  1.00  0.00     0.167 HD
ATOM     24  C   UNL A   1      44.858  29.242  30.852  1.00  0.00     0.031 A 
ATOM     25  C   UNL A   1      38.509  32.178  29.759  1.00  0.00     0.031 A 
ATOM     26  C   UNL A   1      44.725  30.596  31.299  1.00  0.00     0.049 A 
ATOM     27  C   UNL A   1      39.627  32.913  30.454  1.00  0.00     0.074 A 
ATOM     28  C   UNL A   1      45.667  31.399  31.912  1.00  0.00     0.029 A 
ATOM     29  N   UNL A   1      43.561  31.346  31.186  1.00  0.00    -0.354 N 
ATOM     30  N   UNL A   1      40.847  32.500  30.710  1.00  0.00    -0.248 NA
ATOM     31  C   UNL A   1      39.348  34.281  30.910  1.00  0.00     0.031 C 
ATOM     32  C   UNL A   1      45.054  32.618  32.219  1.00  0.00     0.029 A 
ATOM     33  C   UNL A   1      43.753  32.598  31.735  1.00  0.00     0.049 A 
ATOM     34  H   UNL A   1      42.723  31.030  30.775  1.00  0.00     0.167 HD
ATOM     35  C   UNL A   1      41.493  33.568  31.324  1.00  0.00     0.074 A 
ATOM     36  C   UNL A   1      40.527  34.646  31.402  1.00  0.00     0.031 C 
ATOM     37  C   UNL A   1      42.770  33.654  31.773  1.00  0.00     0.031 A 
BRANCH  24  38
ATOM     38  C   UNL A   1      46.138  28.486  31.087  1.00  0.00    -0.014 A 
ATOM     39  C   UNL A   1      47.138  28.418  30.098  1.00  0.00     0.010 A 
ATOM     40  C   UNL A   1      46.304  27.761  32.279  1.00  0.00     0.010 A 
ATOM     41  C   UNL A   1      48.234  27.567  30.259  1.00  0.00     0.020 A 
ATOM     42  C   UNL A   1      47.417  26.938  32.460  1.00  0.00     0.020 A 
ATOM     43  C   UNL A   1      48.356  26.819  31.433  1.00  0.00     0.054 A 
BRANCH  43  44
ATOM     44  S   UNL A   1      49.751  25.672  31.590  1.00  0.00     0.124 S 
ATOM     45  O   UNL A   1      49.262  24.748  32.611  1.00  0.00    -0.237 OA
ATOM     46  O   UNL A   1      49.865  25.117  30.244  1.00  0.00    -0.237 OA
ATOM     47  O   UNL A   1      50.858  26.530  32.006  1.00  0.00    -0.744 OA
ENDBRANCH  43  44
ENDBRANCH  24  38
BRANCH  25  48
ATOM     48  C   UNL A   1      37.165  32.793  29.564  1.00  0.00    -0.014 A 
ATOM     49  C   UNL A   1      36.262  32.909  30.636  1.00  0.00     0.010 A 
ATOM     50  C   UNL A   1      36.798  33.318  28.309  1.00  0.00     0.010 A 
ATOM     51  C   UNL A   1      35.022  33.534  30.458  1.00  0.00     0.020 A 
ATOM     52  C   UNL A   1      35.569  33.965  28.133  1.00  0.00     0.020 A 
ATOM     53  C   UNL A   1      34.687  34.067  29.209  1.00  0.00     0.054 A 
BRANCH  53  54
ATOM     54  S   UNL A   1      33.106  34.942  29.030  1.00  0.00     0.124 S 
ATOM     55  O   UNL A   1      32.573  34.890  30.388  1.00  0.00    -0.237 OA
ATOM     56  O   UNL A   1      33.531  36.262  28.570  1.00  0.00    -0.237 OA
ATOM     57  O   UNL A   1      32.380  34.149  28.041  1.00  0.00    -0.744 OA
ENDBRANCH  53  54
ENDBRANCH  25  48
BRANCH  37  58
ATOM     58  C   UNL A   1      43.232  34.968  32.341  1.00  0.00    -0.014 A 
ATOM     59  C   UNL A   1      43.812  35.952  31.525  1.00  0.00     0.010 A 
ATOM     60  C   UNL A   1      42.930  35.270  33.683  1.00  0.00     0.010 A 
ATOM     61  C   UNL A   1      44.072  37.225  32.042  1.00  0.00     0.020 A 
ATOM     62  C   UNL A   1      43.164  36.547  34.193  1.00  0.00     0.020 A 
ATOM     63  C   UNL A   1      43.734  37.518  33.367  1.00  0.00     0.054 A 
BRANCH  63  64
ATOM     64  S   UNL A   1      43.968  39.211  33.975  1.00  0.00     0.124 S 
ATOM     65  O   UNL A   1      45.146  39.642  33.226  1.00  0.00    -0.237 OA
ATOM     66  O   UNL A   1      42.713  39.859  33.603  1.00  0.00    -0.237 OA
ATOM     67  O   UNL A   1      44.173  39.038  35.411  1.00  0.00    -0.744 OA
ENDBRANCH  63  64
ENDBRANCH  37  58
ENDBRANCH  11  12
ENDBRANCH   4   6
ENDBRANCH   3   4
ENDBRANCH   2   3
ENDBRANCH   1   2
BRANCH   1  68
ATOM     68  O   UNL A   1      34.320  23.487  24.357  1.00  0.00    -0.462 OA
BRANCH  68  69
ATOM     69  C   UNL A   1      33.325  22.552  24.363  1.00  0.00     0.311 C 
ATOM     70  O   UNL A   1      33.494  21.347  24.259  1.00  0.00    -0.252 OA
BRANCH  69  71
ATOM     71  C   UNL A   1      31.991  23.218  24.581  1.00  0.00     0.128 C 
ATOM     72  C   UNL A   1      31.375  23.012  25.956  1.00  0.00     0.117 C 
ATOM     73  C   UNL A   1      32.136  24.724  24.494  1.00  0.00     0.135 C 
ATOM     74  C   UNL A   1      30.544  24.269  26.131  1.00  0.00     0.223 C 
ATOM     75  N   UNL A   1      31.007  25.219  25.235  1.00  0.00    -0.337 N 
ATOM     76  O   UNL A   1      29.635  24.406  26.932  1.00  0.00    -0.275 OA
BRANCH  75  77
ATOM     77  C   UNL A   1      30.404  26.535  25.040  1.00  0.00     0.155 C 
BRANCH  77  78
ATOM     78  C   UNL A   1      31.183  27.682  25.660  1.00  0.00    -0.024 A 
ATOM     79  C   UNL A   1      31.722  27.466  26.945  1.00  0.00     0.006 A 
ATOM     80  C   UNL A   1      31.416  28.927  25.021  1.00  0.00    -0.024 A 
ATOM     81  C   UNL A   1      32.500  28.433  27.580  1.00  0.00     0.000 A 
ATOM     82  C   UNL A   1      32.240  29.869  25.669  1.00  0.00     0.006 A 
ATOM     83  C   UNL A   1      32.773  29.629  26.933  1.00  0.00     0.000 A 
BRANCH  80  84
ATOM     84  C   UNL A   1      30.931  29.246  23.625  1.00  0.00     0.155 C 
BRANCH  84  85
ATOM     85  N   UNL A   1      29.556  29.688  23.486  1.00  0.00    -0.338 N 
ATOM     86  C   UNL A   1      28.560  28.912  22.783  1.00  0.00     0.120 C 
ATOM     87  C   UNL A   1      29.085  30.948  23.827  1.00  0.00     0.222 C 
ATOM     88  C   UNL A   1      27.582  29.967  22.301  1.00  0.00     0.031 C 
ATOM     89  C   UNL A   1      27.640  31.019  23.398  1.00  0.00     0.102 C 
ATOM     90  O   UNL A   1      29.689  31.841  24.397  1.00  0.00    -0.275 OA
ENDBRANCH  84  85
ENDBRANCH  80  84
ENDBRANCH  77  78
ENDBRANCH  75  77
ENDBRANCH  69  71
ENDBRANCH  68  69
ENDBRANCH   1  68
TORSDOF 18
ENDMDL
MODEL 2
REMARK VINA RESULT:     -11.3      2.878      9.806
REMARK SMILES O=C(OCCOC(=O)[C@H]1CC(=O)N(Cc2ccccc2CN2CCCC2=O)C1)c1ccc(-c2c3nc(c(-c4ccc(S(=O)(=O)[O-])cc4)c4ccc([nH]4)c(-c4ccc(S(=O)(=O)[O-])cc4)c4nc(c(-c5ccc(S(=O)(=O)[O-])cc5)c5ccc2[nH]5)C=C4)C=C3)cc1
REMARK SMILES IDX 5 1 4 2 3 3 2 4 1 5 29 6 30 7 88 8 31 9 87 10 32 11 33 12
REMARK SMILES IDX 34 13 81 14 35 15 86 16 80 17 82 18 36 19 85 20 79 21 78 22
REMARK SMILES IDX 37 24 67 25 48 26 66 27 49 28 52 29 65 30 83 31 50 32 51 33
REMARK SMILES IDX 64 35 84 36 53 37 38 38 39 39 47 40 40 41 46 42 41 43 42 44
REMARK SMILES IDX 43 45 44 46 45 47 68 48 69 49 77 50 70 51 76 52 71 53 72 54
REMARK SMILES IDX 73 55 74 56 75 57 54 58 55 59 63 60 56 61 62 62 57 63 58 64
REMARK SMILES IDX 59 65 60 66 61 67 6 68 7 69 8 70 9 71 10 72 28 73 11 74
REMARK SMILES IDX 13 75 12 76 14 77 15 78 16 79 20 80 17 81 19 82 18 83 21 84
REMARK SMILES IDX 22 85 23 86 26 87 24 88 25 89 27 90
REMARK H PARENT 82 23 52 34
REMARK Flexibility Score: inf
ROOT
ATOM      1  C   UNL A   1      32.147  29.618  25.259  1.00  0.00     0.274 C 
ENDROOT
BRANCH   1   2
ATOM      2  C   UNL A   1      32.224  30.271  26.643  1.00  0.00     0.275 C 
BRANCH   2   3
ATOM      3  O   UNL A   1      33.434  29.944  27.346  1.00  0.00    -0.458 OA
BRANCH   3   4
ATOM      4  C   UNL A   1      34.467  30.721  27.732  1.00  0.00     0.338 C 
ATOM      5  O   UNL A   1      34.372  31.933  27.535  1.00  0.00    -0.246 OA
BRANCH   4   6
ATOM      6  C   UNL A   1      35.778  30.220  28.274  1.00  0.00     0.060 A 
ATOM      7  C   UNL A   1      36.036  29.684  29.538  1.00  0.00     0.016 A 
ATOM      8  C   UNL A   1      36.844  30.237  27.358  1.00  0.00     0.016 A 
ATOM      9  C   UNL A   1      37.270  29.091  29.840  1.00  0.00     0.010 A 
ATOM     10  C   UNL A   1      38.057  29.603  27.625  1.00  0.00     0.010 A 
ATOM     11  C   UNL A   1      38.277  29.033  28.879  1.00  0.00    -0.014 A 
BRANCH  11  12
ATOM     12  C   UNL A   1      39.635  28.588  29.244  1.00  0.00     0.031 A 
ATOM     13  C   UNL A   1      40.493  29.562  29.993  1.00  0.00     0.074 A 
ATOM     14  C   UNL A   1      40.091  27.370  28.900  1.00  0.00     0.049 A 
ATOM     15  N   UNL A   1      41.735  29.451  30.373  1.00  0.00    -0.248 NA
ATOM     16  C   UNL A   1      39.865  30.850  30.338  1.00  0.00     0.031 C 
ATOM     17  C   UNL A   1      39.327  26.350  28.183  1.00  0.00     0.029 A 
ATOM     18  N   UNL A   1      41.317  26.789  29.100  1.00  0.00    -0.354 N 
ATOM     19  C   UNL A   1      42.043  30.662  30.981  1.00  0.00     0.074 A 
ATOM     20  C   UNL A   1      40.880  31.511  30.867  1.00  0.00     0.031 C 
ATOM     21  C   UNL A   1      40.104  25.270  27.993  1.00  0.00     0.029 A 
ATOM     22  C   UNL A   1      41.428  25.530  28.555  1.00  0.00     0.049 A 
ATOM     23  H   UNL A   1      42.048  27.230  29.588  1.00  0.00     0.167 HD
ATOM     24  C   UNL A   1      43.190  31.028  31.596  1.00  0.00     0.031 A 
ATOM     25  C   UNL A   1      42.486  24.696  28.508  1.00  0.00     0.031 A 
ATOM     26  C   UNL A   1      44.337  30.175  31.680  1.00  0.00     0.049 A 
ATOM     27  C   UNL A   1      43.770  25.131  29.168  1.00  0.00     0.074 A 
ATOM     28  C   UNL A   1      45.556  30.425  32.280  1.00  0.00     0.029 A 
ATOM     29  N   UNL A   1      44.406  28.900  31.132  1.00  0.00    -0.354 N 
ATOM     30  N   UNL A   1      44.035  26.261  29.784  1.00  0.00    -0.248 NA
ATOM     31  C   UNL A   1      44.891  24.183  29.144  1.00  0.00     0.031 C 
ATOM     32  C   UNL A   1      46.381  29.320  32.047  1.00  0.00     0.029 A 
ATOM     33  C   UNL A   1      45.653  28.355  31.363  1.00  0.00     0.049 A 
ATOM     34  H   UNL A   1      43.673  28.452  30.650  1.00  0.00     0.167 HD
ATOM     35  C   UNL A   1      45.339  26.145  30.252  1.00  0.00     0.074 A 
ATOM     36  C   UNL A   1      45.811  24.836  29.846  1.00  0.00     0.031 C 
ATOM     37  C   UNL A   1      46.078  27.036  30.960  1.00  0.00     0.031 A 
BRANCH  24  38
ATOM     38  C   UNL A   1      43.237  32.423  32.156  1.00  0.00    -0.014 A 
ATOM     39  C   UNL A   1      43.699  33.506  31.382  1.00  0.00     0.010 A 
ATOM     40  C   UNL A   1      42.898  32.640  33.503  1.00  0.00     0.010 A 
ATOM     41  C   UNL A   1      43.908  34.755  31.970  1.00  0.00     0.020 A 
ATOM     42  C   UNL A   1      43.071  33.897  34.085  1.00  0.00     0.020 A 
ATOM     43  C   UNL A   1      43.609  34.937  33.323  1.00  0.00     0.054 A 
BRANCH  43  44
ATOM     44  S   UNL A   1      43.952  36.549  34.080  1.00  0.00     0.124 S 
ATOM     45  O   UNL A   1      45.370  36.724  33.774  1.00  0.00    -0.237 OA
ATOM     46  O   UNL A   1      43.042  37.439  33.365  1.00  0.00    -0.237 OA
ATOM     47  O   UNL A   1      43.640  36.341  35.491  1.00  0.00    -0.744 OA
ENDBRANCH  43  44
ENDBRANCH  24  38
BRANCH  25  48
ATOM     48  C   UNL A   1      42.359  23.373  27.831  1.00  0.00    -0.014 A 
ATOM     49  C   UNL A   1      42.981  23.134  26.592  1.00  0.00     0.010 A 
ATOM     50  C   UNL A   1      41.655  22.322  28.450  1.00  0.00     0.010 A 
ATOM     51  C   UNL A   1      42.900  21.875  25.987  1.00  0.00     0.020 A 
ATOM     52  C   UNL A   1      41.592  21.054  27.859  1.00  0.00     0.020 A 
ATOM     53  C   UNL A   1      42.214  20.839  26.629  1.00  0.00     0.054 A 
BRANCH  53  54
ATOM     54  S   UNL A   1      42.196  19.195  25.857  1.00  0.00     0.124 S 
ATOM     55  O   UNL A   1      40.771  18.989  25.611  1.00  0.00    -0.237 OA
ATOM     56  O   UNL A   1      43.018  19.400  24.667  1.00  0.00    -0.237 OA
ATOM     57  O   UNL A   1      42.787  18.328  26.873  1.00  0.00    -0.744 OA
ENDBRANCH  53  54
ENDBRANCH  25  48
BRANCH  37  58
ATOM     58  C   UNL A   1      47.455  26.620  31.401  1.00  0.00    -0.014 A 
ATOM     59  C   UNL A   1      47.659  25.937  32.610  1.00  0.00     0.010 A 
ATOM     60  C   UNL A   1      48.530  26.783  30.506  1.00  0.00     0.010 A 
ATOM     61  C   UNL A   1      48.919  25.411  32.912  1.00  0.00     0.020 A 
ATOM     62  C   UNL A   1      49.780  26.236  30.793  1.00  0.00     0.020 A 
ATOM     63  C   UNL A   1      49.967  25.552  31.995  1.00  0.00     0.054 A 
BRANCH  63  64
ATOM     64  S   UNL A   1      51.555  24.755  32.356  1.00  0.00     0.124 S 
ATOM     65  O   UNL A   1      52.435  25.370  31.367  1.00  0.00    -0.237 OA
ATOM     66  O   UNL A   1      51.799  25.142  33.743  1.00  0.00    -0.237 OA
ATOM     67  O   UNL A   1      51.284  23.334  32.151  1.00  0.00    -0.744 OA
ENDBRANCH  63  64
ENDBRANCH  37  58
ENDBRANCH  11  12
ENDBRANCH   4   6
ENDBRANCH   3   4
ENDBRANCH   2   3
ENDBRANCH   1   2
BRANCH   1  68
ATOM     68  O   UNL A   1      33.453  29.375  24.708  1.00  0.00    -0.462 OA
BRANCH  68  69
ATOM     69  C   UNL A   1      33.540  28.564  23.613  1.00  0.00     0.311 C 
ATOM     70  O   UNL A   1      34.068  28.868  22.554  1.00  0.00    -0.252 OA
BRANCH  69  71
ATOM     71  C   UNL A   1      32.945  27.214  23.920  1.00  0.00     0.128 C 
ATOM     72  C   UNL A   1      32.693  26.322  22.714  1.00  0.00     0.117 C 
ATOM     73  C   UNL A   1      33.907  26.395  24.755  1.00  0.00     0.135 C 
ATOM     74  C   UNL A   1      32.819  24.932  23.307  1.00  0.00     0.223 C 
ATOM     75  N   UNL A   1      33.503  25.037  24.508  1.00  0.00    -0.337 N 
ATOM     76  O   UNL A   1      32.394  23.908  22.798  1.00  0.00    -0.275 OA
BRANCH  75  77
ATOM     77  C   UNL A   1      33.748  23.923  25.419  1.00  0.00     0.155 C 
BRANCH  77  78
ATOM     78  C   UNL A   1      35.119  23.285  25.280  1.00  0.00    -0.024 A 
ATOM     79  C   UNL A   1      36.199  23.954  25.894  1.00  0.00     0.006 A 
ATOM     80  C   UNL A   1      35.368  22.063  24.603  1.00  0.00    -0.024 A 
ATOM     81  C   UNL A   1      37.489  23.424  25.873  1.00  0.00     0.000 A 
ATOM     82  C   UNL A   1      36.672  21.532  24.635  1.00  0.00     0.006 A 
ATOM     83  C   UNL A   1      37.722  22.203  25.257  1.00  0.00     0.000 A 
BRANCH  80  84
ATOM     84  C   UNL A   1      34.278  21.237  23.958  1.00  0.00     0.155 C 
BRANCH  84  85
ATOM     85  N   UNL A   1      33.899  20.004  24.623  1.00  0.00    -0.338 N 
ATOM     86  C   UNL A   1      34.710  18.810  24.563  1.00  0.00     0.120 C 
ATOM     87  C   UNL A   1      32.667  19.764  25.214  1.00  0.00     0.222 C 
ATOM     88  C   UNL A   1      33.696  17.697  24.745  1.00  0.00     0.031 C 
ATOM     89  C   UNL A   1      32.657  18.323  25.663  1.00  0.00     0.102 C 
ATOM     90  O   UNL A   1      31.754  20.555  25.385  1.00  0.00    -0.275 OA
ENDBRANCH  84  85
ENDBRANCH  80  84
ENDBRANCH  77  78
ENDBRANCH  75  77
ENDBRANCH  69  71
ENDBRANCH  68  69
ENDBRANCH   1  68
TORSDOF 18
ENDMDL
MODEL 3
REMARK VINA RESULT:     -11.0      4.221      7.216
REMARK SMILES O=C(OCCOC(=O)[C@H]1CC(=O)N(Cc2ccccc2CN2CCCC2=O)C1)c1ccc(-c2c3nc(c(-c4ccc(S(=O)(=O)[O-])cc4)c4ccc([nH]4)c(-c4ccc(S(=O)(=O)[O-])cc4)c4nc(c(-c5ccc(S(=O)(=O)[O-])cc5)c5ccc2[nH]5)C=C4)C=C3)cc1
REMARK SMILES IDX 5 1 4 2 3 3 2 4 1 5 29 6 30 7 88 8 31 9 87 10 32 11 33 12
REMARK SMILES IDX 34 13 81 14 35 15 86 16 80 17 82 18 36 19 85 20 79 21 78 22
REMARK SMILES IDX 37 24 67 25 48 26 66 27 49 28 52 29 65 30 83 31 50 32 51 33
REMARK SMILES IDX 64 35 84 36 53 37 38 38 39 39 47 40 40 41 46 42 41 43 42 44
REMARK SMILES IDX 43 45 44 46 45 47 68 48 69 49 77 50 70 51 76 52 71 53 72 54
REMARK SMILES IDX 73 55 74 56 75 57 54 58 55 59 63 60 56 61 62 62 57 63 58 64
REMARK SMILES IDX 59 65 60 66 61 67 6 68 7 69 8 70 9 71 10 72 28 73 11 74
REMARK SMILES IDX 13 75 12 76 14 77 15 78 16 79 20 80 17 81 19 82 18 83 21 84
REMARK SMILES IDX 22 85 23 86 26 87 24 88 25 89 27 90
REMARK H PARENT 82 23 52 34
REMARK Flexibility Score: inf
ROOT
ATOM      1  C   UNL A   1      40.446  19.482  26.098  1.00  0.00     0.274 C 
ENDROOT
BRANCH   1   2
ATOM      2  C   UNL A   1      39.372  20.512  25.732  1.00  0.00     0.275 C 
BRANCH   2   3
ATOM      3  O   UNL A   1      39.453  21.706  26.527  1.00  0.00    -0.458 OA
BRANCH   3   4
ATOM      4  C   UNL A   1      38.896  22.922  26.351  1.00  0.00     0.338 C 
ATOM      5  O   UNL A   1      37.938  23.003  25.582  1.00  0.00    -0.246 OA
BRANCH   4   6
ATOM      6  C   UNL A   1      39.422  24.211  26.922  1.00  0.00     0.060 A 
ATOM      7  C   UNL A   1      40.135  25.215  26.262  1.00  0.00     0.016 A 
ATOM      8  C   UNL A   1      39.086  24.446  28.266  1.00  0.00     0.016 A 
ATOM      9  C   UNL A   1      40.404  26.444  26.879  1.00  0.00     0.010 A 
ATOM     10  C   UNL A   1      39.299  25.682  28.875  1.00  0.00     0.010 A 
ATOM     11  C   UNL A   1      39.971  26.688  28.180  1.00  0.00    -0.014 A 
BRANCH  11  12
ATOM     12  C   UNL A   1      40.414  27.896  28.903  1.00  0.00     0.031 A 
ATOM     13  C   UNL A   1      41.776  27.855  29.528  1.00  0.00     0.074 A 
ATOM     14  C   UNL A   1      39.622  28.976  29.014  1.00  0.00     0.049 A 
ATOM     15  N   UNL A   1      42.375  28.746  30.267  1.00  0.00    -0.248 NA
ATOM     16  C   UNL A   1      42.558  26.625  29.305  1.00  0.00     0.031 C 
ATOM     17  C   UNL A   1      38.288  29.114  28.431  1.00  0.00     0.029 A 
ATOM     18  N   UNL A   1      39.822  30.164  29.670  1.00  0.00    -0.354 N 
ATOM     19  C   UNL A   1      43.592  28.175  30.615  1.00  0.00     0.074 A 
ATOM     20  C   UNL A   1      43.621  26.843  30.058  1.00  0.00     0.031 C 
ATOM     21  C   UNL A   1      37.784  30.315  28.763  1.00  0.00     0.029 A 
ATOM     22  C   UNL A   1      38.749  31.022  29.601  1.00  0.00     0.049 A 
ATOM     23  H   UNL A   1      40.656  30.382  30.146  1.00  0.00     0.167 HD
ATOM     24  C   UNL A   1      44.606  28.720  31.325  1.00  0.00     0.031 A 
ATOM     25  C   UNL A   1      38.570  32.234  30.166  1.00  0.00     0.031 A 
ATOM     26  C   UNL A   1      44.547  30.037  31.885  1.00  0.00     0.049 A 
ATOM     27  C   UNL A   1      39.695  32.815  30.983  1.00  0.00     0.074 A 
ATOM     28  C   UNL A   1      45.507  30.707  32.618  1.00  0.00     0.029 A 
ATOM     29  N   UNL A   1      43.451  30.883  31.779  1.00  0.00    -0.354 N 
ATOM     30  N   UNL A   1      40.864  32.286  31.266  1.00  0.00    -0.248 NA
ATOM     31  C   UNL A   1      39.492  34.157  31.545  1.00  0.00     0.031 C 
ATOM     32  C   UNL A   1      44.969  31.940  33.001  1.00  0.00     0.029 A 
ATOM     33  C   UNL A   1      43.701  32.064  32.448  1.00  0.00     0.049 A 
ATOM     34  H   UNL A   1      42.618  30.672  31.297  1.00  0.00     0.167 HD
ATOM     35  C   UNL A   1      41.549  33.243  32.007  1.00  0.00     0.074 A 
ATOM     36  C   UNL A   1      40.663  34.384  32.131  1.00  0.00     0.031 C 
ATOM     37  C   UNL A   1      42.799  33.188  32.530  1.00  0.00     0.031 A 
BRANCH  24  38
ATOM     38  C   UNL A   1      45.810  27.848  31.558  1.00  0.00    -0.014 A 
ATOM     39  C   UNL A   1      45.727  26.684  32.347  1.00  0.00     0.010 A 
ATOM     40  C   UNL A   1      47.060  28.246  31.054  1.00  0.00     0.010 A 
ATOM     41  C   UNL A   1      46.884  25.989  32.703  1.00  0.00     0.020 A 
ATOM     42  C   UNL A   1      48.215  27.531  31.377  1.00  0.00     0.020 A 
ATOM     43  C   UNL A   1      48.123  26.429  32.229  1.00  0.00     0.054 A 
BRANCH  43  44
ATOM     44  S   UNL A   1      49.618  25.549  32.759  1.00  0.00     0.124 S 
ATOM     45  O   UNL A   1      49.083  24.637  33.767  1.00  0.00    -0.237 OA
ATOM     46  O   UNL A   1      50.075  24.920  31.523  1.00  0.00    -0.237 OA
ATOM     47  O   UNL A   1      50.480  26.610  33.273  1.00  0.00    -0.744 OA
ENDBRANCH  43  44
ENDBRANCH  24  38
BRANCH  25  48
ATOM     48  C   UNL A   1      37.290  32.968  29.955  1.00  0.00    -0.014 A 
ATOM     49  C   UNL A   1      37.040  33.653  28.753  1.00  0.00     0.010 A 
ATOM     50  C   UNL A   1      36.285  32.944  30.942  1.00  0.00     0.010 A 
ATOM     51  C   UNL A   1      35.815  34.297  28.541  1.00  0.00     0.020 A 
ATOM     52  C   UNL A   1      35.050  33.566  30.725  1.00  0.00     0.020 A 
ATOM     53  C   UNL A   1      34.823  34.242  29.526  1.00  0.00     0.054 A 
BRANCH  53  54
ATOM     54  S   UNL A   1      33.216  35.019  29.190  1.00  0.00     0.124 S 
ATOM     55  O   UNL A   1      32.662  34.142  28.163  1.00  0.00    -0.237 OA
ATOM     56  O   UNL A   1      32.561  34.954  30.494  1.00  0.00    -0.237 OA
ATOM     57  O   UNL A   1      33.568  36.364  28.743  1.00  0.00    -0.744 OA
ENDBRANCH  53  54
ENDBRANCH  25  48
BRANCH  37  58
ATOM     58  C   UNL A   1      43.323  34.407  33.239  1.00  0.00    -0.014 A 
ATOM     59  C   UNL A   1      44.110  35.358  32.570  1.00  0.00     0.010 A 
ATOM     60  C   UNL A   1      42.880  34.672  34.549  1.00  0.00     0.010 A 
ATOM     61  C   UNL A   1      44.437  36.563  33.200  1.00  0.00     0.020 A 
ATOM     62  C   UNL A   1      43.183  35.884  35.169  1.00  0.00     0.020 A 
ATOM     63  C   UNL A   1      43.960  36.823  34.489  1.00  0.00     0.054 A 
BRANCH  63  64
ATOM     64  S   UNL A   1      44.295  38.443  35.234  1.00  0.00     0.124 S 
ATOM     65  O   UNL A   1      43.913  38.222  36.626  1.00  0.00    -0.237 OA
ATOM     66  O   UNL A   1      45.726  38.614  34.993  1.00  0.00    -0.237 OA
ATOM     67  O   UNL A   1      43.430  39.353  34.487  1.00  0.00    -0.744 OA
ENDBRANCH  63  64
ENDBRANCH  37  58
ENDBRANCH  11  12
ENDBRANCH   4   6
ENDBRANCH   3   4
ENDBRANCH   2   3
ENDBRANCH   1   2
BRANCH   1  68
ATOM     68  O   UNL A   1      41.693  20.109  26.448  1.00  0.00    -0.462 OA
BRANCH  68  69
ATOM     69  C   UNL A   1      42.778  19.851  25.660  1.00  0.00     0.311 C 
ATOM     70  O   UNL A   1      42.936  18.841  24.992  1.00  0.00    -0.252 OA
BRANCH  69  71
ATOM     71  C   UNL A   1      43.725  21.022  25.685  1.00  0.00     0.128 C 
ATOM     72  C   UNL A   1      44.507  21.257  24.402  1.00  0.00     0.117 C 
ATOM     73  C   UNL A   1      42.956  22.316  25.857  1.00  0.00     0.135 C 
ATOM     74  C   UNL A   1      44.749  22.753  24.439  1.00  0.00     0.223 C 
ATOM     75  N   UNL A   1      43.843  23.314  25.324  1.00  0.00    -0.337 N 
ATOM     76  O   UNL A   1      45.595  23.346  23.788  1.00  0.00    -0.275 OA
BRANCH  75  77
ATOM     77  C   UNL A   1      43.817  24.726  25.696  1.00  0.00     0.155 C 
BRANCH  77  78
ATOM     78  C   UNL A   1      44.854  25.122  26.733  1.00  0.00    -0.024 A 
ATOM     79  C   UNL A   1      45.145  24.178  27.738  1.00  0.00     0.006 A 
ATOM     80  C   UNL A   1      45.554  26.357  26.732  1.00  0.00    -0.024 A 
ATOM     81  C   UNL A   1      46.121  24.420  28.704  1.00  0.00     0.000 A 
ATOM     82  C   UNL A   1      46.563  26.557  27.694  1.00  0.00     0.006 A 
ATOM     83  C   UNL A   1      46.842  25.604  28.671  1.00  0.00     0.000 A 
BRANCH  80  84
ATOM     84  C   UNL A   1      45.360  27.418  25.672  1.00  0.00     0.155 C 
BRANCH  84  85
ATOM     85  N   UNL A   1      44.358  28.437  25.930  1.00  0.00    -0.338 N 
ATOM     86  C   UNL A   1      44.553  29.487  26.903  1.00  0.00     0.120 C 
ATOM     87  C   UNL A   1      43.061  28.422  25.437  1.00  0.00     0.222 C 
ATOM     88  C   UNL A   1      43.137  29.832  27.322  1.00  0.00     0.031 C 
ATOM     89  C   UNL A   1      42.332  29.590  26.055  1.00  0.00     0.102 C 
ATOM     90  O   UNL A   1      42.578  27.645  24.629  1.00  0.00    -0.275 OA
ENDBRANCH  84  85
ENDBRANCH  80  84
ENDBRANCH  77  78
ENDBRANCH  75  77
ENDBRANCH  69  71
ENDBRANCH  68  69
ENDBRANCH   1  68
TORSDOF 18
ENDMDL
