MODEL 1
REMARK VINA RESULT:      -8.6      0.000      0.000
REMARK SMILES CC[C@@H]([NH3+])C(=O)NCCOCC(=O)OCCOC(=O)c1ccc(-c2c3nc(c(-c4ccc(S(=O)(=O)[O-])cc4)c4ccc([nH]4)c(-c4ccc(S(=O)(=O)[O-])cc4)c4nc(c(-c5ccc(S(=O)(=O)[O-])cc5)c5ccc2[nH]5)C=C4)C=C3)cc1
REMARK SMILES IDX 14 1 12 2 13 3 11 4 10 5 9 6 8 7 7 8 5 9 6 10 3 12 2 13 1 14
REMARK SMILES IDX 4 15 15 19 16 20 17 21 18 22 19 23 20 24 21 25 79 26 22 27
REMARK SMILES IDX 78 28 23 29 24 30 25 31 72 32 26 33 77 34 71 35 73 36 27 37
REMARK SMILES IDX 76 38 70 39 69 40 28 42 58 43 39 44 57 45 40 46 43 47 56 48
REMARK SMILES IDX 74 49 41 50 42 51 55 53 75 54 44 55 29 56 30 57 38 58 31 59
REMARK SMILES IDX 37 60 32 61 33 62 34 63 35 64 36 65 59 66 60 67 68 68 61 69
REMARK SMILES IDX 67 70 62 71 63 72 64 73 65 74 66 75 45 76 46 77 54 78 47 79
REMARK SMILES IDX 53 80 48 81 49 82 50 83 51 84 52 85
REMARK H PARENT 7 11 4 16 4 17 4 18 73 41 43 52
REMARK Flexibility Score: inf
ROOT
ATOM      1  O   UNL A   1      42.670  20.017  26.000  1.00  0.00    -0.460 OA
ENDROOT
BRANCH   1   2
ATOM      2  C   UNL A   1      43.374  18.887  25.726  1.00  0.00     0.332 C 
ATOM      3  O   UNL A   1      43.472  17.929  26.488  1.00  0.00    -0.250 OA
BRANCH   2   4
ATOM      4  C   UNL A   1      44.008  18.885  24.331  1.00  0.00     0.282 C 
BRANCH   4   5
ATOM      5  O   UNL A   1      45.363  19.250  24.130  1.00  0.00    -0.368 OA
BRANCH   5   6
ATOM      6  C   UNL A   1      45.986  19.905  25.244  1.00  0.00     0.182 C 
BRANCH   6   7
ATOM      7  C   UNL A   1      45.785  21.430  25.242  1.00  0.00     0.144 C 
BRANCH   7   8
ATOM      8  N   UNL A   1      45.212  21.919  26.475  1.00  0.00    -0.349 N 
ATOM      9  C   UNL A   1      44.308  22.896  26.720  1.00  0.00     0.278 C 
ATOM     10  O   UNL A   1      44.034  23.083  27.912  1.00  0.00    -0.268 OA
ATOM     11  H   UNL A   1      45.538  21.460  27.282  1.00  0.00     0.163 HD
BRANCH   9  12
ATOM     12  C   UNL A   1      43.517  23.647  25.627  1.00  0.00     0.270 C 
BRANCH  12  13
ATOM     13  C   UNL A   1      44.198  24.754  24.827  1.00  0.00     0.072 C 
ATOM     14  C   UNL A   1      45.623  25.027  25.311  1.00  0.00     0.011 C 
ENDBRANCH  12  13
BRANCH  12  15
ATOM     15  N   UNL A   1      42.883  22.655  24.741  1.00  0.00    -0.347 N 
ATOM     16  H   UNL A   1      42.501  23.126  23.921  1.00  0.00     0.345 HD
ATOM     17  H   UNL A   1      42.131  22.184  25.243  1.00  0.00     0.345 HD
ATOM     18  H   UNL A   1      43.577  21.969  24.446  1.00  0.00     0.345 HD
ENDBRANCH  12  15
ENDBRANCH   9  12
ENDBRANCH   7   8
ENDBRANCH   6   7
ENDBRANCH   5   6
ENDBRANCH   4   5
ENDBRANCH   2   4
ENDBRANCH   1   2
BRANCH   1  19
ATOM     19  C   UNL A   1      41.405  19.819  26.663  1.00  0.00     0.274 C 
BRANCH  19  20
ATOM     20  C   UNL A   1      40.310  20.754  26.135  1.00  0.00     0.275 C 
BRANCH  20  21
ATOM     21  O   UNL A   1      39.995  21.824  27.052  1.00  0.00    -0.458 OA
BRANCH  21  22
ATOM     22  C   UNL A   1      39.125  22.717  26.530  1.00  0.00     0.338 C 
ATOM     23  O   UNL A   1      38.187  22.446  25.802  1.00  0.00    -0.246 OA
BRANCH  22  24
ATOM     24  C   UNL A   1      39.366  24.107  26.933  1.00  0.00     0.060 A 
ATOM     25  C   UNL A   1      40.036  24.939  26.042  1.00  0.00     0.016 A 
ATOM     26  C   UNL A   1      39.250  24.463  28.282  1.00  0.00     0.016 A 
ATOM     27  C   UNL A   1      40.667  26.086  26.527  1.00  0.00     0.010 A 
ATOM     28  C   UNL A   1      39.829  25.655  28.746  1.00  0.00     0.010 A 
ATOM     29  C   UNL A   1      40.591  26.459  27.885  1.00  0.00    -0.014 A 
BRANCH  29  30
ATOM     30  C   UNL A   1      41.289  27.699  28.354  1.00  0.00     0.031 A 
ATOM     31  C   UNL A   1      40.550  28.929  28.838  1.00  0.00     0.074 A 
ATOM     32  C   UNL A   1      42.637  27.699  28.393  1.00  0.00     0.049 A 
ATOM     33  N   UNL A   1      41.032  30.044  29.339  1.00  0.00    -0.248 NA
ATOM     34  C   UNL A   1      39.084  28.916  28.763  1.00  0.00     0.031 C 
ATOM     35  C   UNL A   1      43.490  26.582  27.982  1.00  0.00     0.029 A 
ATOM     36  N   UNL A   1      43.524  28.663  28.803  1.00  0.00    -0.354 N 
ATOM     37  C   UNL A   1      39.933  30.832  29.677  1.00  0.00     0.074 A 
ATOM     38  C   UNL A   1      38.754  30.083  29.302  1.00  0.00     0.031 C 
ATOM     39  C   UNL A   1      44.771  26.908  28.192  1.00  0.00     0.029 A 
ATOM     40  C   UNL A   1      44.838  28.289  28.655  1.00  0.00     0.049 A 
ATOM     41  H   UNL A   1      43.247  29.535  29.166  1.00  0.00     0.167 HD
ATOM     42  C   UNL A   1      39.905  32.074  30.225  1.00  0.00     0.031 A 
ATOM     43  C   UNL A   1      45.981  28.984  28.805  1.00  0.00     0.031 A 
ATOM     44  C   UNL A   1      41.076  32.867  30.500  1.00  0.00     0.049 A 
ATOM     45  C   UNL A   1      45.920  30.414  29.236  1.00  0.00     0.074 A 
ATOM     46  C   UNL A   1      41.148  34.140  31.045  1.00  0.00     0.029 A 
ATOM     47  N   UNL A   1      42.377  32.490  30.205  1.00  0.00    -0.354 N 
ATOM     48  N   UNL A   1      44.872  31.125  29.573  1.00  0.00    -0.248 NA
ATOM     49  C   UNL A   1      47.194  31.140  29.289  1.00  0.00     0.031 C 
ATOM     50  C   UNL A   1      42.481  34.565  30.996  1.00  0.00     0.029 A 
ATOM     51  C   UNL A   1      43.249  33.530  30.489  1.00  0.00     0.049 A 
ATOM     52  H   UNL A   1      42.643  31.612  29.849  1.00  0.00     0.167 HD
ATOM     53  C   UNL A   1      45.358  32.390  29.875  1.00  0.00     0.074 A 
ATOM     54  C   UNL A   1      46.797  32.337  29.702  1.00  0.00     0.031 C 
ATOM     55  C   UNL A   1      44.671  33.491  30.263  1.00  0.00     0.031 A 
BRANCH  42  56
ATOM     56  C   UNL A   1      38.563  32.702  30.513  1.00  0.00    -0.014 A 
ATOM     57  C   UNL A   1      37.794  33.284  29.488  1.00  0.00     0.010 A 
ATOM     58  C   UNL A   1      38.011  32.603  31.804  1.00  0.00     0.010 A 
ATOM     59  C   UNL A   1      36.502  33.760  29.753  1.00  0.00     0.020 A 
ATOM     60  C   UNL A   1      36.717  33.063  32.070  1.00  0.00     0.020 A 
ATOM     61  C   UNL A   1      35.972  33.645  31.043  1.00  0.00     0.054 A 
BRANCH  61  62
ATOM     62  S   UNL A   1      34.278  34.224  31.349  1.00  0.00     0.124 S 
ATOM     63  O   UNL A   1      33.719  34.250  29.999  1.00  0.00    -0.237 OA
ATOM     64  O   UNL A   1      33.739  33.192  32.231  1.00  0.00    -0.237 OA
ATOM     65  O   UNL A   1      34.464  35.533  31.969  1.00  0.00    -0.744 OA
ENDBRANCH  61  62
ENDBRANCH  42  56
BRANCH  43  66
ATOM     66  C   UNL A   1      47.259  28.326  28.430  1.00  0.00    -0.014 A 
ATOM     67  C   UNL A   1      48.023  27.630  29.378  1.00  0.00     0.010 A 
ATOM     68  C   UNL A   1      47.643  28.296  27.075  1.00  0.00     0.010 A 
ATOM     69  C   UNL A   1      49.132  26.882  28.970  1.00  0.00     0.020 A 
ATOM     70  C   UNL A   1      48.729  27.525  26.661  1.00  0.00     0.020 A 
ATOM     71  C   UNL A   1      49.466  26.821  27.612  1.00  0.00     0.054 A 
BRANCH  71  72
ATOM     72  S   UNL A   1      50.813  25.727  27.081  1.00  0.00     0.124 S 
ATOM     73  O   UNL A   1      50.791  25.902  25.632  1.00  0.00    -0.237 OA
ATOM     74  O   UNL A   1      51.972  26.287  27.770  1.00  0.00    -0.237 OA
ATOM     75  O   UNL A   1      50.391  24.413  27.561  1.00  0.00    -0.744 OA
ENDBRANCH  71  72
ENDBRANCH  43  66
BRANCH  55  76
ATOM     76  C   UNL A   1      45.477  34.734  30.516  1.00  0.00    -0.014 A 
ATOM     77  C   UNL A   1      45.715  35.661  29.485  1.00  0.00     0.010 A 
ATOM     78  C   UNL A   1      46.016  34.971  31.793  1.00  0.00     0.010 A 
ATOM     79  C   UNL A   1      46.526  36.776  29.713  1.00  0.00     0.020 A 
ATOM     80  C   UNL A   1      46.807  36.097  32.030  1.00  0.00     0.020 A 
ATOM     81  C   UNL A   1      47.076  36.980  30.982  1.00  0.00     0.054 A 
BRANCH  81  82
ATOM     82  S   UNL A   1      48.139  38.424  31.253  1.00  0.00     0.124 S 
ATOM     83  O   UNL A   1      47.318  39.240  32.144  1.00  0.00    -0.237 OA
ATOM     84  O   UNL A   1      49.333  37.838  31.858  1.00  0.00    -0.237 OA
ATOM     85  O   UNL A   1      48.332  38.968  29.912  1.00  0.00    -0.744 OA
ENDBRANCH  81  82
ENDBRANCH  55  76
ENDBRANCH  29  30
ENDBRANCH  22  24
ENDBRANCH  21  22
ENDBRANCH  20  21
ENDBRANCH  19  20
ENDBRANCH   1  19
TORSDOF 21
ENDMDL
MODEL 2
REMARK VINA RESULT:      -8.4      1.545      2.135
REMARK SMILES CC[C@@H]([NH3+])C(=O)NCCOCC(=O)OCCOC(=O)c1ccc(-c2c3nc(c(-c4ccc(S(=O)(=O)[O-])cc4)c4ccc([nH]4)c(-c4ccc(S(=O)(=O)[O-])cc4)c4nc(c(-c5ccc(S(=O)(=O)[O-])cc5)c5ccc2[nH]5)C=C4)C=C3)cc1
REMARK SMILES IDX 14 1 12 2 13 3 11 4 10 5 9 6 8 7 7 8 5 9 6 10 3 12 2 13 1 14
REMARK SMILES IDX 4 15 15 19 16 20 17 21 18 22 19 23 20 24 21 25 79 26 22 27
REMARK SMILES IDX 78 28 23 29 24 30 25 31 72 32 26 33 77 34 71 35 73 36 27 37
REMARK SMILES IDX 76 38 70 39 69 40 28 42 58 43 39 44 57 45 40 46 43 47 56 48
REMARK SMILES IDX 74 49 41 50 42 51 55 53 75 54 44 55 29 56 30 57 38 58 31 59
REMARK SMILES IDX 37 60 32 61 33 62 34 63 35 64 36 65 59 66 60 67 68 68 61 69
REMARK SMILES IDX 67 70 62 71 63 72 64 73 65 74 66 75 45 76 46 77 54 78 47 79
REMARK SMILES IDX 53 80 48 81 49 82 50 83 51 84 52 85
REMARK H PARENT 7 11 4 16 4 17 4 18 73 41 43 52
REMARK Flexibility Score: inf
ROOT
ATOM      1  O   UNL A   1      42.773  20.062  26.016  1.00  0.00    -0.460 OA
ENDROOT
BRANCH   1   2
ATOM      2  C   UNL A   1      43.456  18.982  25.554  1.00  0.00     0.332 C 
ATOM      3  O   UNL A   1      43.516  17.900  26.132  1.00  0.00    -0.250 OA
BRANCH   2   4
ATOM      4  C   UNL A   1      44.122  19.216  24.194  1.00  0.00     0.282 C 
BRANCH   4   5
ATOM      5  O   UNL A   1      45.504  19.512  24.084  1.00  0.00    -0.368 OA
BRANCH   5   6
ATOM      6  C   UNL A   1      46.090  20.116  25.246  1.00  0.00     0.182 C 
BRANCH   6   7
ATOM      7  C   UNL A   1      45.882  21.639  25.309  1.00  0.00     0.144 C 
BRANCH   7   8
ATOM      8  N   UNL A   1      45.188  22.059  26.505  1.00  0.00    -0.349 N 
ATOM      9  C   UNL A   1      44.164  22.923  26.693  1.00  0.00     0.278 C 
ATOM     10  O   UNL A   1      43.803  23.078  27.866  1.00  0.00    -0.268 OA
ATOM     11  H   UNL A   1      45.520  21.643  27.332  1.00  0.00     0.163 HD
BRANCH   9  12
ATOM     12  C   UNL A   1      43.352  23.575  25.552  1.00  0.00     0.270 C 
BRANCH  12  13
ATOM     13  C   UNL A   1      43.684  24.995  25.104  1.00  0.00     0.072 C 
ATOM     14  C   UNL A   1      45.149  25.355  25.354  1.00  0.00     0.011 C 
ENDBRANCH  12  13
BRANCH  12  15
ATOM     15  N   UNL A   1      43.316  22.645  24.409  1.00  0.00    -0.347 N 
ATOM     16  H   UNL A   1      43.287  23.176  23.540  1.00  0.00     0.345 HD
ATOM     17  H   UNL A   1      42.486  22.056  24.477  1.00  0.00     0.345 HD
ATOM     18  H   UNL A   1      44.151  22.059  24.422  1.00  0.00     0.345 HD
ENDBRANCH  12  15
ENDBRANCH   9  12
ENDBRANCH   7   8
ENDBRANCH   6   7
ENDBRANCH   5   6
ENDBRANCH   4   5
ENDBRANCH   2   4
ENDBRANCH   1   2
BRANCH   1  19
ATOM     19  C   UNL A   1      41.560  19.770  26.739  1.00  0.00     0.274 C 
BRANCH  19  20
ATOM     20  C   UNL A   1      40.356  20.563  26.216  1.00  0.00     0.275 C 
BRANCH  20  21
ATOM     21  O   UNL A   1      40.093  21.756  26.986  1.00  0.00    -0.458 OA
BRANCH  21  22
ATOM     22  C   UNL A   1      39.224  22.591  26.372  1.00  0.00     0.338 C 
ATOM     23  O   UNL A   1      38.426  22.269  25.510  1.00  0.00    -0.246 OA
BRANCH  22  24
ATOM     24  C   UNL A   1      39.276  23.978  26.847  1.00  0.00     0.060 A 
ATOM     25  C   UNL A   1      40.022  24.893  26.112  1.00  0.00     0.016 A 
ATOM     26  C   UNL A   1      38.893  24.271  28.161  1.00  0.00     0.016 A 
ATOM     27  C   UNL A   1      40.462  26.064  26.731  1.00  0.00     0.010 A 
ATOM     28  C   UNL A   1      39.281  25.485  28.751  1.00  0.00     0.010 A 
ATOM     29  C   UNL A   1      40.116  26.377  28.062  1.00  0.00    -0.014 A 
BRANCH  29  30
ATOM     30  C   UNL A   1      40.616  27.647  28.680  1.00  0.00     0.031 A 
ATOM     31  C   UNL A   1      39.748  28.877  28.855  1.00  0.00     0.074 A 
ATOM     32  C   UNL A   1      41.881  27.678  29.145  1.00  0.00     0.049 A 
ATOM     33  N   UNL A   1      40.035  30.017  29.440  1.00  0.00    -0.248 NA
ATOM     34  C   UNL A   1      38.383  28.828  28.319  1.00  0.00     0.031 C 
ATOM     35  C   UNL A   1      42.832  26.567  29.070  1.00  0.00     0.029 A 
ATOM     36  N   UNL A   1      42.582  28.674  29.778  1.00  0.00    -0.354 N 
ATOM     37  C   UNL A   1      38.878  30.792  29.380  1.00  0.00     0.074 A 
ATOM     38  C   UNL A   1      37.887  30.006  28.680  1.00  0.00     0.031 C 
ATOM     39  C   UNL A   1      43.976  26.927  29.664  1.00  0.00     0.029 A 
ATOM     40  C   UNL A   1      43.878  28.325  30.070  1.00  0.00     0.049 A 
ATOM     41  H   UNL A   1      42.195  29.552  30.000  1.00  0.00     0.167 HD
ATOM     42  C   UNL A   1      38.664  32.051  29.842  1.00  0.00     0.031 A 
ATOM     43  C   UNL A   1      44.906  29.049  30.548  1.00  0.00     0.031 A 
ATOM     44  C   UNL A   1      39.679  32.879  30.444  1.00  0.00     0.049 A 
ATOM     45  C   UNL A   1      44.697  30.491  30.881  1.00  0.00     0.074 A 
ATOM     46  C   UNL A   1      39.560  34.170  30.934  1.00  0.00     0.029 A 
ATOM     47  N   UNL A   1      41.010  32.521  30.593  1.00  0.00    -0.354 N 
ATOM     48  N   UNL A   1      43.590  31.190  30.840  1.00  0.00    -0.248 NA
ATOM     49  C   UNL A   1      45.881  31.246  31.308  1.00  0.00     0.031 C 
ATOM     50  C   UNL A   1      40.836  34.622  31.294  1.00  0.00     0.029 A 
ATOM     51  C   UNL A   1      41.735  33.588  31.098  1.00  0.00     0.049 A 
ATOM     52  H   UNL A   1      41.384  31.637  30.373  1.00  0.00     0.167 HD
ATOM     53  C   UNL A   1      43.941  32.474  31.231  1.00  0.00     0.074 A 
ATOM     54  C   UNL A   1      45.361  32.448  31.527  1.00  0.00     0.031 C 
ATOM     55  C   UNL A   1      43.156  33.573  31.337  1.00  0.00     0.031 A 
BRANCH  42  56
ATOM     56  C   UNL A   1      37.294  32.660  29.663  1.00  0.00    -0.014 A 
ATOM     57  C   UNL A   1      36.395  32.765  30.741  1.00  0.00     0.010 A 
ATOM     58  C   UNL A   1      36.948  33.241  28.429  1.00  0.00     0.010 A 
ATOM     59  C   UNL A   1      35.174  33.435  30.583  1.00  0.00     0.020 A 
ATOM     60  C   UNL A   1      35.737  33.923  28.271  1.00  0.00     0.020 A 
ATOM     61  C   UNL A   1      34.854  34.012  29.348  1.00  0.00     0.054 A 
BRANCH  61  62
ATOM     62  S   UNL A   1      33.287  34.917  29.184  1.00  0.00     0.124 S 
ATOM     63  O   UNL A   1      32.774  34.883  30.552  1.00  0.00    -0.237 OA
ATOM     64  O   UNL A   1      33.722  36.227  28.708  1.00  0.00    -0.237 OA
ATOM     65  O   UNL A   1      32.529  34.127  28.217  1.00  0.00    -0.744 OA
ENDBRANCH  61  62
ENDBRANCH  42  56
BRANCH  43  66
ATOM     66  C   UNL A   1      46.244  28.407  30.625  1.00  0.00    -0.014 A 
ATOM     67  C   UNL A   1      46.655  27.720  31.776  1.00  0.00     0.010 A 
ATOM     68  C   UNL A   1      47.059  28.381  29.476  1.00  0.00     0.010 A 
ATOM     69  C   UNL A   1      47.845  26.986  31.765  1.00  0.00     0.020 A 
ATOM     70  C   UNL A   1      48.230  27.624  29.452  1.00  0.00     0.020 A 
ATOM     71  C   UNL A   1      48.615  26.929  30.598  1.00  0.00     0.054 A 
BRANCH  71  72
ATOM     72  S   UNL A   1      50.074  25.852  30.552  1.00  0.00     0.124 S 
ATOM     73  O   UNL A   1      49.851  24.990  31.707  1.00  0.00    -0.237 OA
ATOM     74  O   UNL A   1      49.956  25.207  29.246  1.00  0.00    -0.237 OA
ATOM     75  O   UNL A   1      51.190  26.788  30.673  1.00  0.00    -0.744 OA
ENDBRANCH  71  72
ENDBRANCH  43  66
BRANCH  55  76
ATOM     76  C   UNL A   1      43.827  34.841  31.785  1.00  0.00    -0.014 A 
ATOM     77  C   UNL A   1      44.357  35.745  30.847  1.00  0.00     0.010 A 
ATOM     78  C   UNL A   1      43.943  35.125  33.157  1.00  0.00     0.010 A 
ATOM     79  C   UNL A   1      45.043  36.885  31.276  1.00  0.00     0.020 A 
ATOM     80  C   UNL A   1      44.606  36.275  33.589  1.00  0.00     0.020 A 
ATOM     81  C   UNL A   1      45.173  37.136  32.646  1.00  0.00     0.054 A 
BRANCH  81  82
ATOM     82  S   UNL A   1      46.080  38.612  33.183  1.00  0.00     0.124 S 
ATOM     83  O   UNL A   1      47.339  38.039  33.650  1.00  0.00    -0.237 OA
ATOM     84  O   UNL A   1      46.165  39.402  31.957  1.00  0.00    -0.237 OA
ATOM     85  O   UNL A   1      45.228  39.180  34.224  1.00  0.00    -0.744 OA
ENDBRANCH  81  82
ENDBRANCH  55  76
ENDBRANCH  29  30
ENDBRANCH  22  24
ENDBRANCH  21  22
ENDBRANCH  20  21
ENDBRANCH  19  20
ENDBRANCH   1  19
TORSDOF 21
ENDMDL
MODEL 3
REMARK VINA RESULT:      -8.2      5.152     10.814
REMARK SMILES CC[C@@H]([NH3+])C(=O)NCCOCC(=O)OCCOC(=O)c1ccc(-c2c3nc(c(-c4ccc(S(=O)(=O)[O-])cc4)c4ccc([nH]4)c(-c4ccc(S(=O)(=O)[O-])cc4)c4nc(c(-c5ccc(S(=O)(=O)[O-])cc5)c5ccc2[nH]5)C=C4)C=C3)cc1
REMARK SMILES IDX 14 1 12 2 13 3 11 4 10 5 9 6 8 7 7 8 5 9 6 10 3 12 2 13 1 14
REMARK SMILES IDX 4 15 15 19 16 20 17 21 18 22 19 23 20 24 21 25 79 26 22 27
REMARK SMILES IDX 78 28 23 29 24 30 25 31 72 32 26 33 77 34 71 35 73 36 27 37
REMARK SMILES IDX 76 38 70 39 69 40 28 42 58 43 39 44 57 45 40 46 43 47 56 48
REMARK SMILES IDX 74 49 41 50 42 51 55 53 75 54 44 55 29 56 30 57 38 58 31 59
REMARK SMILES IDX 37 60 32 61 33 62 34 63 35 64 36 65 59 66 60 67 68 68 61 69
REMARK SMILES IDX 67 70 62 71 63 72 64 73 65 74 66 75 45 76 46 77 54 78 47 79
REMARK SMILES IDX 53 80 48 81 49 82 50 83 51 84 52 85
REMARK H PARENT 7 11 4 16 4 17 4 18 73 41 43 52
REMARK Flexibility Score: inf
ROOT
ATOM      1  O   UNL A   1      33.929  28.675  25.679  1.00  0.00    -0.460 OA
ENDROOT
BRANCH   1   2
ATOM      2  C   UNL A   1      32.672  28.483  25.199  1.00  0.00     0.332 C 
ATOM      3  O   UNL A   1      31.981  29.364  24.693  1.00  0.00    -0.250 OA
BRANCH   2   4
ATOM      4  C   UNL A   1      32.196  27.031  25.296  1.00  0.00     0.282 C 
BRANCH   4   5
ATOM      5  O   UNL A   1      30.836  26.709  25.537  1.00  0.00    -0.368 OA
BRANCH   5   6
ATOM      6  C   UNL A   1      30.133  26.161  24.413  1.00  0.00     0.182 C 
BRANCH   6   7
ATOM      7  C   UNL A   1      29.194  27.171  23.732  1.00  0.00     0.144 C 
BRANCH   7   8
ATOM      8  N   UNL A   1      29.902  28.127  22.911  1.00  0.00    -0.349 N 
ATOM      9  C   UNL A   1      29.471  29.195  22.202  1.00  0.00     0.278 C 
ATOM     10  O   UNL A   1      30.345  29.812  21.581  1.00  0.00    -0.268 OA
ATOM     11  H   UNL A   1      30.873  27.972  22.857  1.00  0.00     0.163 HD
BRANCH   9  12
ATOM     12  C   UNL A   1      28.033  29.755  22.256  1.00  0.00     0.270 C 
BRANCH  12  13
ATOM     13  C   UNL A   1      27.605  30.627  23.433  1.00  0.00     0.072 C 
ATOM     14  C   UNL A   1      28.407  31.926  23.515  1.00  0.00     0.011 C 
ENDBRANCH  12  13
BRANCH  12  15
ATOM     15  N   UNL A   1      27.733  30.406  20.967  1.00  0.00    -0.347 N 
ATOM     16  H   UNL A   1      28.604  30.684  20.517  1.00  0.00     0.345 HD
ATOM     17  H   UNL A   1      27.155  31.230  21.131  1.00  0.00     0.345 HD
ATOM     18  H   UNL A   1      27.232  29.752  20.366  1.00  0.00     0.345 HD
ENDBRANCH  12  15
ENDBRANCH   9  12
ENDBRANCH   7   8
ENDBRANCH   6   7
ENDBRANCH   5   6
ENDBRANCH   4   5
ENDBRANCH   2   4
ENDBRANCH   1   2
BRANCH   1  19
ATOM     19  C   UNL A   1      34.059  28.645  27.115  1.00  0.00     0.274 C 
BRANCH  19  20
ATOM     20  C   UNL A   1      35.019  29.718  27.643  1.00  0.00     0.275 C 
BRANCH  20  21
ATOM     21  O   UNL A   1      36.048  29.178  28.500  1.00  0.00    -0.458 OA
BRANCH  21  22
ATOM     22  C   UNL A   1      37.109  30.007  28.626  1.00  0.00     0.338 C 
ATOM     23  O   UNL A   1      37.056  31.171  28.980  1.00  0.00    -0.246 OA
BRANCH  22  24
ATOM     24  C   UNL A   1      38.404  29.388  28.324  1.00  0.00     0.060 A 
ATOM     25  C   UNL A   1      39.282  29.165  29.379  1.00  0.00     0.016 A 
ATOM     26  C   UNL A   1      38.865  29.364  27.003  1.00  0.00     0.016 A 
ATOM     27  C   UNL A   1      40.643  29.007  29.108  1.00  0.00     0.010 A 
ATOM     28  C   UNL A   1      40.225  29.134  26.737  1.00  0.00     0.010 A 
ATOM     29  C   UNL A   1      41.144  29.004  27.789  1.00  0.00    -0.014 A 
BRANCH  29  30
ATOM     30  C   UNL A   1      42.613  28.833  27.554  1.00  0.00     0.031 A 
ATOM     31  C   UNL A   1      43.618  29.947  27.762  1.00  0.00     0.074 A 
ATOM     32  C   UNL A   1      43.066  27.616  27.190  1.00  0.00     0.049 A 
ATOM     33  N   UNL A   1      44.927  29.913  27.664  1.00  0.00    -0.248 NA
ATOM     34  C   UNL A   1      43.100  31.269  28.135  1.00  0.00     0.031 C 
ATOM     35  C   UNL A   1      42.225  26.437  26.972  1.00  0.00     0.029 A 
ATOM     36  N   UNL A   1      44.340  27.167  26.945  1.00  0.00    -0.354 N 
ATOM     37  C   UNL A   1      45.381  31.186  28.007  1.00  0.00     0.074 A 
ATOM     38  C   UNL A   1      44.209  31.982  28.293  1.00  0.00     0.031 C 
ATOM     39  C   UNL A   1      43.004  25.393  26.662  1.00  0.00     0.029 A 
ATOM     40  C   UNL A   1      44.385  25.849  26.558  1.00  0.00     0.049 A 
ATOM     41  H   UNL A   1      45.140  27.732  27.037  1.00  0.00     0.167 HD
ATOM     42  C   UNL A   1      46.654  31.657  28.057  1.00  0.00     0.031 A 
ATOM     43  C   UNL A   1      45.401  25.093  26.104  1.00  0.00     0.031 A 
ATOM     44  C   UNL A   1      47.817  30.899  27.670  1.00  0.00     0.049 A 
ATOM     45  C   UNL A   1      46.768  25.687  25.993  1.00  0.00     0.074 A 
ATOM     46  C   UNL A   1      49.146  31.294  27.677  1.00  0.00     0.029 A 
ATOM     47  N   UNL A   1      47.791  29.611  27.158  1.00  0.00    -0.354 N 
ATOM     48  N   UNL A   1      47.174  26.881  26.347  1.00  0.00    -0.248 NA
ATOM     49  C   UNL A   1      47.809  24.838  25.402  1.00  0.00     0.031 C 
ATOM     50  C   UNL A   1      49.909  30.280  27.086  1.00  0.00     0.029 A 
ATOM     51  C   UNL A   1      49.066  29.225  26.779  1.00  0.00     0.049 A 
ATOM     52  H   UNL A   1      46.984  29.053  27.077  1.00  0.00     0.167 HD
ATOM     53  C   UNL A   1      48.521  26.933  26.018  1.00  0.00     0.074 A 
ATOM     54  C   UNL A   1      48.865  25.640  25.458  1.00  0.00     0.031 C 
ATOM     55  C   UNL A   1      49.392  27.960  26.172  1.00  0.00     0.031 A 
BRANCH  42  56
ATOM     56  C   UNL A   1      46.874  33.088  28.485  1.00  0.00    -0.014 A 
ATOM     57  C   UNL A   1      47.188  33.413  29.817  1.00  0.00     0.010 A 
ATOM     58  C   UNL A   1      46.883  34.109  27.515  1.00  0.00     0.010 A 
ATOM     59  C   UNL A   1      47.500  34.732  30.171  1.00  0.00     0.020 A 
ATOM     60  C   UNL A   1      47.209  35.425  27.861  1.00  0.00     0.020 A 
ATOM     61  C   UNL A   1      47.511  35.730  29.190  1.00  0.00     0.054 A 
BRANCH  61  62
ATOM     62  S   UNL A   1      47.967  37.423  29.665  1.00  0.00     0.124 S 
ATOM     63  O   UNL A   1      47.893  38.126  28.385  1.00  0.00    -0.237 OA
ATOM     64  O   UNL A   1      46.933  37.774  30.635  1.00  0.00    -0.237 OA
ATOM     65  O   UNL A   1      49.312  37.279  30.217  1.00  0.00    -0.744 OA
ENDBRANCH  61  62
ENDBRANCH  42  56
BRANCH  43  66
ATOM     66  C   UNL A   1      45.097  23.718  25.629  1.00  0.00    -0.014 A 
ATOM     67  C   UNL A   1      44.689  23.480  24.308  1.00  0.00     0.010 A 
ATOM     68  C   UNL A   1      45.346  22.626  26.484  1.00  0.00     0.010 A 
ATOM     69  C   UNL A   1      44.569  22.168  23.839  1.00  0.00     0.020 A 
ATOM     70  C   UNL A   1      45.258  21.318  26.009  1.00  0.00     0.020 A 
ATOM     71  C   UNL A   1      44.871  21.097  24.688  1.00  0.00     0.054 A 
BRANCH  71  72
ATOM     72  S   UNL A   1      44.858  19.409  24.022  1.00  0.00     0.124 S 
ATOM     73  O   UNL A   1      46.248  19.004  24.197  1.00  0.00    -0.237 OA
ATOM     74  O   UNL A   1      43.887  18.734  24.879  1.00  0.00    -0.237 OA
ATOM     75  O   UNL A   1      44.428  19.595  22.637  1.00  0.00    -0.744 OA
ENDBRANCH  71  72
ENDBRANCH  43  66
BRANCH  55  76
ATOM     76  C   UNL A   1      50.803  27.721  25.712  1.00  0.00    -0.014 A 
ATOM     77  C   UNL A   1      51.234  28.162  24.448  1.00  0.00     0.010 A 
ATOM     78  C   UNL A   1      51.704  27.034  26.546  1.00  0.00     0.010 A 
ATOM     79  C   UNL A   1      52.526  27.870  24.002  1.00  0.00     0.020 A 
ATOM     80  C   UNL A   1      53.004  26.764  26.114  1.00  0.00     0.020 A 
ATOM     81  C   UNL A   1      53.399  27.162  24.835  1.00  0.00     0.054 A 
BRANCH  81  82
ATOM     82  S   UNL A   1      55.066  26.780  24.232  1.00  0.00     0.124 S 
ATOM     83  O   UNL A   1      55.323  25.485  24.856  1.00  0.00    -0.237 OA
ATOM     84  O   UNL A   1      54.888  26.756  22.782  1.00  0.00    -0.237 OA
ATOM     85  O   UNL A   1      55.877  27.887  24.735  1.00  0.00    -0.744 OA
ENDBRANCH  81  82
ENDBRANCH  55  76
ENDBRANCH  29  30
ENDBRANCH  22  24
ENDBRANCH  21  22
ENDBRANCH  20  21
ENDBRANCH  19  20
ENDBRANCH   1  19
TORSDOF 21
ENDMDL
