MODEL 1
REMARK VINA RESULT:      -9.9      0.000      0.000
REMARK SMILES [NH3+][C@H](Cc1ccc2nsnc2c1)C(=O)OCCOC(=O)c1ccc(-c2c3nc(c(-c4ccc(S(=O)(=O)[O-])cc4)c4ccc([nH]4)c(-c4ccc(S(=O)(=O)[O-])cc4)c4nc(c(-c5ccc(S(=O)(=O)[O-])cc5)c5ccc2[nH]5)C=C4)C=C3)cc1
REMARK SMILES IDX 17 1 16 2 15 3 13 4 14 5 2 6 1 7 3 11 4 12 5 13 12 14 6 15
REMARK SMILES IDX 11 16 7 17 10 18 8 19 9 20 18 21 19 22 20 23 21 24 22 25
REMARK SMILES IDX 80 26 23 27 79 28 24 29 25 30 26 31 73 32 27 33 78 34 72 35
REMARK SMILES IDX 74 36 28 37 77 38 71 39 70 40 29 42 59 43 40 44 58 45 41 46
REMARK SMILES IDX 44 47 57 48 75 49 42 50 43 51 56 53 76 54 45 55 30 56 31 57
REMARK SMILES IDX 39 58 32 59 38 60 33 61 34 62 35 63 36 64 37 65 60 66 61 67
REMARK SMILES IDX 69 68 62 69 68 70 63 71 64 72 65 73 66 74 67 75 46 76 47 77
REMARK SMILES IDX 55 78 48 79 54 80 49 81 50 82 51 83 52 84 53 85
REMARK H PARENT 1 8 1 9 1 10 74 41 44 52
REMARK Flexibility Score: inf
ROOT
ATOM      1  C   UNL A   1      44.106  23.879  25.630  1.00  0.00     0.275 C 
ENDROOT
BRANCH   1   2
ATOM      2  C   UNL A   1      43.726  22.559  24.958  1.00  0.00     0.274 C 
BRANCH   2   3
ATOM      3  O   UNL A   1      43.695  21.490  25.921  1.00  0.00    -0.458 OA
BRANCH   3   4
ATOM      4  C   UNL A   1      42.629  20.653  25.920  1.00  0.00     0.365 C 
ATOM      5  O   UNL A   1      42.615  19.565  25.354  1.00  0.00    -0.245 OA
BRANCH   4   6
ATOM      6  C   UNL A   1      41.409  21.222  26.680  1.00  0.00     0.296 C 
BRANCH   6   7
ATOM      7  N   UNL A   1      41.565  21.074  28.147  1.00  0.00    -0.346 N 
ATOM      8  H   UNL A   1      40.707  20.691  28.544  1.00  0.00     0.345 HD
ATOM      9  H   UNL A   1      41.754  21.986  28.563  1.00  0.00     0.345 HD
ATOM     10  H   UNL A   1      42.342  20.444  28.345  1.00  0.00     0.345 HD
ENDBRANCH   6   7
BRANCH   6  11
ATOM     11  C   UNL A   1      40.005  20.831  26.165  1.00  0.00     0.113 C 
BRANCH  11  12
ATOM     12  C   UNL A   1      38.897  21.853  25.936  1.00  0.00    -0.039 A 
ATOM     13  C   UNL A   1      38.936  23.177  26.455  1.00  0.00     0.006 A 
ATOM     14  C   UNL A   1      37.779  21.397  25.189  1.00  0.00     0.035 A 
ATOM     15  C   UNL A   1      37.875  24.099  26.353  1.00  0.00     0.032 A 
ATOM     16  C   UNL A   1      36.684  22.283  25.052  1.00  0.00     0.105 A 
ATOM     17  C   UNL A   1      36.729  23.656  25.659  1.00  0.00     0.104 A 
ATOM     18  N   UNL A   1      35.533  22.028  24.410  1.00  0.00    -0.173 NA
ATOM     19  N   UNL A   1      35.602  24.361  25.468  1.00  0.00    -0.173 NA
ATOM     20  S   UNL A   1      34.582  23.376  24.601  1.00  0.00     0.069 S 
ENDBRANCH  11  12
ENDBRANCH   6  11
ENDBRANCH   4   6
ENDBRANCH   3   4
ENDBRANCH   2   3
ENDBRANCH   1   2
BRANCH   1  21
ATOM     21  O   UNL A   1      43.045  24.335  26.488  1.00  0.00    -0.458 OA
BRANCH  21  22
ATOM     22  C   UNL A   1      42.393  25.437  26.054  1.00  0.00     0.338 C 
ATOM     23  O   UNL A   1      42.021  25.675  24.914  1.00  0.00    -0.246 OA
BRANCH  22  24
ATOM     24  C   UNL A   1      42.003  26.259  27.209  1.00  0.00     0.060 A 
ATOM     25  C   UNL A   1      42.674  27.471  27.390  1.00  0.00     0.016 A 
ATOM     26  C   UNL A   1      41.021  25.846  28.112  1.00  0.00     0.016 A 
ATOM     27  C   UNL A   1      42.367  28.280  28.477  1.00  0.00     0.010 A 
ATOM     28  C   UNL A   1      40.714  26.660  29.206  1.00  0.00     0.010 A 
ATOM     29  C   UNL A   1      41.391  27.877  29.398  1.00  0.00    -0.014 A 
BRANCH  29  30
ATOM     30  C   UNL A   1      41.125  28.729  30.578  1.00  0.00     0.031 A 
ATOM     31  C   UNL A   1      41.988  28.603  31.800  1.00  0.00     0.074 A 
ATOM     32  C   UNL A   1      40.148  29.654  30.519  1.00  0.00     0.049 A 
ATOM     33  N   UNL A   1      41.922  29.265  32.926  1.00  0.00    -0.248 NA
ATOM     34  C   UNL A   1      43.070  27.608  31.747  1.00  0.00     0.031 C 
ATOM     35  C   UNL A   1      39.273  29.888  29.368  1.00  0.00     0.029 A 
ATOM     36  N   UNL A   1      39.734  30.576  31.446  1.00  0.00    -0.354 N 
ATOM     37  C   UNL A   1      42.950  28.768  33.717  1.00  0.00     0.074 A 
ATOM     38  C   UNL A   1      43.607  27.728  32.954  1.00  0.00     0.031 C 
ATOM     39  C   UNL A   1      38.432  30.895  29.655  1.00  0.00     0.029 A 
ATOM     40  C   UNL A   1      38.683  31.351  31.019  1.00  0.00     0.049 A 
ATOM     41  H   UNL A   1      40.151  30.675  32.333  1.00  0.00     0.167 HD
ATOM     42  C   UNL A   1      43.315  29.149  34.965  1.00  0.00     0.031 A 
ATOM     43  C   UNL A   1      37.988  32.309  31.663  1.00  0.00     0.031 A 
ATOM     44  C   UNL A   1      42.646  30.174  35.723  1.00  0.00     0.049 A 
ATOM     45  C   UNL A   1      38.381  32.672  33.070  1.00  0.00     0.074 A 
ATOM     46  C   UNL A   1      42.930  30.622  37.002  1.00  0.00     0.029 A 
ATOM     47  N   UNL A   1      41.561  30.911  35.274  1.00  0.00    -0.354 N 
ATOM     48  N   UNL A   1      39.354  32.188  33.805  1.00  0.00    -0.248 NA
ATOM     49  C   UNL A   1      37.586  33.716  33.730  1.00  0.00     0.031 C 
ATOM     50  C   UNL A   1      41.988  31.601  37.341  1.00  0.00     0.029 A 
ATOM     51  C   UNL A   1      41.153  31.799  36.253  1.00  0.00     0.049 A 
ATOM     52  H   UNL A   1      41.143  30.815  34.388  1.00  0.00     0.167 HD
ATOM     53  C   UNL A   1      39.296  32.878  35.010  1.00  0.00     0.074 A 
ATOM     54  C   UNL A   1      38.212  33.833  34.892  1.00  0.00     0.031 C 
ATOM     55  C   UNL A   1      40.063  32.732  36.119  1.00  0.00     0.031 A 
BRANCH  42  56
ATOM     56  C   UNL A   1      44.482  28.437  35.596  1.00  0.00    -0.014 A 
ATOM     57  C   UNL A   1      45.783  28.963  35.512  1.00  0.00     0.010 A 
ATOM     58  C   UNL A   1      44.267  27.252  36.323  1.00  0.00     0.010 A 
ATOM     59  C   UNL A   1      46.853  28.303  36.125  1.00  0.00     0.020 A 
ATOM     60  C   UNL A   1      45.330  26.602  36.956  1.00  0.00     0.020 A 
ATOM     61  C   UNL A   1      46.620  27.126  36.842  1.00  0.00     0.054 A 
BRANCH  61  62
ATOM     62  S   UNL A   1      48.021  26.312  37.658  1.00  0.00     0.124 S 
ATOM     63  O   UNL A   1      47.562  26.241  39.043  1.00  0.00    -0.237 OA
ATOM     64  O   UNL A   1      48.102  25.034  36.958  1.00  0.00    -0.237 OA
ATOM     65  O   UNL A   1      49.138  27.224  37.418  1.00  0.00    -0.744 OA
ENDBRANCH  61  62
ENDBRANCH  42  56
BRANCH  43  66
ATOM     66  C   UNL A   1      36.827  32.965  31.000  1.00  0.00    -0.014 A 
ATOM     67  C   UNL A   1      35.510  32.690  31.407  1.00  0.00     0.010 A 
ATOM     68  C   UNL A   1      37.041  33.863  29.938  1.00  0.00     0.010 A 
ATOM     69  C   UNL A   1      34.428  33.279  30.745  1.00  0.00     0.020 A 
ATOM     70  C   UNL A   1      35.964  34.476  29.294  1.00  0.00     0.020 A 
ATOM     71  C   UNL A   1      34.662  34.165  29.690  1.00  0.00     0.054 A 
BRANCH  71  72
ATOM     72  S   UNL A   1      33.247  34.941  28.860  1.00  0.00     0.124 S 
ATOM     73  O   UNL A   1      33.860  36.118  28.254  1.00  0.00    -0.237 OA
ATOM     74  O   UNL A   1      32.814  33.901  27.930  1.00  0.00    -0.237 OA
ATOM     75  O   UNL A   1      32.317  35.212  29.954  1.00  0.00    -0.744 OA
ENDBRANCH  71  72
ENDBRANCH  43  66
BRANCH  55  76
ATOM     76  C   UNL A   1      39.762  33.643  37.280  1.00  0.00    -0.014 A 
ATOM     77  C   UNL A   1      40.302  34.940  37.343  1.00  0.00     0.010 A 
ATOM     78  C   UNL A   1      38.921  33.197  38.314  1.00  0.00     0.010 A 
ATOM     79  C   UNL A   1      40.046  35.757  38.448  1.00  0.00     0.020 A 
ATOM     80  C   UNL A   1      38.639  34.021  39.406  1.00  0.00     0.020 A 
ATOM     81  C   UNL A   1      39.223  35.288  39.476  1.00  0.00     0.054 A 
BRANCH  81  82
ATOM     82  S   UNL A   1      38.899  36.368  40.898  1.00  0.00     0.124 S 
ATOM     83  O   UNL A   1      38.479  37.607  40.248  1.00  0.00    -0.237 OA
ATOM     84  O   UNL A   1      37.850  35.649  41.617  1.00  0.00    -0.237 OA
ATOM     85  O   UNL A   1      40.187  36.429  41.584  1.00  0.00    -0.744 OA
ENDBRANCH  81  82
ENDBRANCH  55  76
ENDBRANCH  29  30
ENDBRANCH  22  24
ENDBRANCH  21  22
ENDBRANCH   1  21
TORSDOF 17
ENDMDL
MODEL 2
REMARK VINA RESULT:      -9.7      5.330      6.800
REMARK SMILES [NH3+][C@H](Cc1ccc2nsnc2c1)C(=O)OCCOC(=O)c1ccc(-c2c3nc(c(-c4ccc(S(=O)(=O)[O-])cc4)c4ccc([nH]4)c(-c4ccc(S(=O)(=O)[O-])cc4)c4nc(c(-c5ccc(S(=O)(=O)[O-])cc5)c5ccc2[nH]5)C=C4)C=C3)cc1
REMARK SMILES IDX 17 1 16 2 15 3 13 4 14 5 2 6 1 7 3 11 4 12 5 13 12 14 6 15
REMARK SMILES IDX 11 16 7 17 10 18 8 19 9 20 18 21 19 22 20 23 21 24 22 25
REMARK SMILES IDX 80 26 23 27 79 28 24 29 25 30 26 31 73 32 27 33 78 34 72 35
REMARK SMILES IDX 74 36 28 37 77 38 71 39 70 40 29 42 59 43 40 44 58 45 41 46
REMARK SMILES IDX 44 47 57 48 75 49 42 50 43 51 56 53 76 54 45 55 30 56 31 57
REMARK SMILES IDX 39 58 32 59 38 60 33 61 34 62 35 63 36 64 37 65 60 66 61 67
REMARK SMILES IDX 69 68 62 69 68 70 63 71 64 72 65 73 66 74 67 75 46 76 47 77
REMARK SMILES IDX 55 78 48 79 54 80 49 81 50 82 51 83 52 84 53 85
REMARK H PARENT 1 8 1 9 1 10 74 41 44 52
REMARK Flexibility Score: inf
ROOT
ATOM      1  C   UNL A   1      39.047  20.679  25.473  1.00  0.00     0.275 C 
ENDROOT
BRANCH   1   2
ATOM      2  C   UNL A   1      39.941  19.513  25.898  1.00  0.00     0.274 C 
BRANCH   2   3
ATOM      3  O   UNL A   1      41.259  19.653  25.337  1.00  0.00    -0.458 OA
BRANCH   3   4
ATOM      4  C   UNL A   1      42.291  19.022  25.950  1.00  0.00     0.365 C 
ATOM      5  O   UNL A   1      42.857  18.035  25.492  1.00  0.00    -0.245 OA
BRANCH   4   6
ATOM      6  C   UNL A   1      42.667  19.654  27.310  1.00  0.00     0.296 C 
BRANCH   6   7
ATOM      7  N   UNL A   1      42.203  18.820  28.444  1.00  0.00    -0.346 N 
ATOM      8  H   UNL A   1      42.997  18.584  29.040  1.00  0.00     0.345 HD
ATOM      9  H   UNL A   1      41.780  17.964  28.087  1.00  0.00     0.345 HD
ATOM     10  H   UNL A   1      41.513  19.338  28.988  1.00  0.00     0.345 HD
ENDBRANCH   6   7
BRANCH   6  11
ATOM     11  C   UNL A   1      42.383  21.163  27.494  1.00  0.00     0.113 C 
BRANCH  11  12
ATOM     12  C   UNL A   1      43.162  22.244  26.755  1.00  0.00    -0.039 A 
ATOM     13  C   UNL A   1      42.629  22.981  25.661  1.00  0.00     0.006 A 
ATOM     14  C   UNL A   1      44.492  22.465  27.201  1.00  0.00     0.035 A 
ATOM     15  C   UNL A   1      43.368  23.903  24.892  1.00  0.00     0.032 A 
ATOM     16  C   UNL A   1      45.280  23.383  26.467  1.00  0.00     0.105 A 
ATOM     17  C   UNL A   1      44.709  24.105  25.281  1.00  0.00     0.104 A 
ATOM     18  N   UNL A   1      46.560  23.703  26.714  1.00  0.00    -0.173 NA
ATOM     19  N   UNL A   1      45.592  24.915  24.674  1.00  0.00    -0.173 NA
ATOM     20  S   UNL A   1      47.011  24.775  25.529  1.00  0.00     0.069 S 
ENDBRANCH  11  12
ENDBRANCH   6  11
ENDBRANCH   4   6
ENDBRANCH   3   4
ENDBRANCH   2   3
ENDBRANCH   1   2
BRANCH   1  21
ATOM     21  O   UNL A   1      39.351  21.856  26.243  1.00  0.00    -0.458 OA
BRANCH  21  22
ATOM     22  C   UNL A   1      38.537  22.913  26.016  1.00  0.00     0.338 C 
ATOM     23  O   UNL A   1      37.420  22.892  25.520  1.00  0.00    -0.246 OA
BRANCH  22  24
ATOM     24  C   UNL A   1      39.111  24.113  26.641  1.00  0.00     0.060 A 
ATOM     25  C   UNL A   1      39.793  25.006  25.811  1.00  0.00     0.016 A 
ATOM     26  C   UNL A   1      39.009  24.352  28.013  1.00  0.00     0.016 A 
ATOM     27  C   UNL A   1      40.378  26.146  26.347  1.00  0.00     0.010 A 
ATOM     28  C   UNL A   1      39.600  25.498  28.552  1.00  0.00     0.010 A 
ATOM     29  C   UNL A   1      40.294  26.396  27.723  1.00  0.00    -0.014 A 
BRANCH  29  30
ATOM     30  C   UNL A   1      40.975  27.587  28.277  1.00  0.00     0.031 A 
ATOM     31  C   UNL A   1      42.473  27.678  28.233  1.00  0.00     0.074 A 
ATOM     32  C   UNL A   1      40.239  28.607  28.758  1.00  0.00     0.049 A 
ATOM     33  N   UNL A   1      43.253  28.640  28.655  1.00  0.00    -0.248 NA
ATOM     34  C   UNL A   1      43.188  26.541  27.632  1.00  0.00     0.031 C 
ATOM     35  C   UNL A   1      38.776  28.641  28.814  1.00  0.00     0.029 A 
ATOM     36  N   UNL A   1      40.622  29.815  29.282  1.00  0.00    -0.354 N 
ATOM     37  C   UNL A   1      44.549  28.227  28.373  1.00  0.00     0.074 A 
ATOM     38  C   UNL A   1      44.454  26.915  27.770  1.00  0.00     0.031 C 
ATOM     39  C   UNL A   1      38.385  29.816  29.335  1.00  0.00     0.029 A 
ATOM     40  C   UNL A   1      39.567  30.599  29.683  1.00  0.00     0.049 A 
ATOM     41  H   UNL A   1      41.563  30.095  29.362  1.00  0.00     0.167 HD
ATOM     42  C   UNL A   1      45.711  28.886  28.592  1.00  0.00     0.031 A 
ATOM     43  C   UNL A   1      39.556  31.806  30.281  1.00  0.00     0.031 A 
ATOM     44  C   UNL A   1      45.798  30.186  29.207  1.00  0.00     0.049 A 
ATOM     45  C   UNL A   1      40.866  32.491  30.564  1.00  0.00     0.074 A 
ATOM     46  C   UNL A   1      46.930  30.932  29.487  1.00  0.00     0.029 A 
ATOM     47  N   UNL A   1      44.711  30.933  29.635  1.00  0.00    -0.354 N 
ATOM     48  N   UNL A   1      42.084  32.083  30.294  1.00  0.00    -0.248 NA
ATOM     49  C   UNL A   1      40.799  33.801  31.225  1.00  0.00     0.031 C 
ATOM     50  C   UNL A   1      46.529  32.112  30.125  1.00  0.00     0.029 A 
ATOM     51  C   UNL A   1      45.145  32.124  30.191  1.00  0.00     0.049 A 
ATOM     52  H   UNL A   1      43.770  30.657  29.555  1.00  0.00     0.167 HD
ATOM     53  C   UNL A   1      42.928  33.093  30.741  1.00  0.00     0.074 A 
ATOM     54  C   UNL A   1      42.078  34.143  31.269  1.00  0.00     0.031 C 
ATOM     55  C   UNL A   1      44.283  33.148  30.724  1.00  0.00     0.031 A 
BRANCH  42  56
ATOM     56  C   UNL A   1      46.988  28.201  28.182  1.00  0.00    -0.014 A 
ATOM     57  C   UNL A   1      47.573  27.214  28.994  1.00  0.00     0.010 A 
ATOM     58  C   UNL A   1      47.583  28.514  26.947  1.00  0.00     0.010 A 
ATOM     59  C   UNL A   1      48.745  26.569  28.589  1.00  0.00     0.020 A 
ATOM     60  C   UNL A   1      48.742  27.855  26.527  1.00  0.00     0.020 A 
ATOM     61  C   UNL A   1      49.323  26.894  27.358  1.00  0.00     0.054 A 
BRANCH  61  62
ATOM     62  S   UNL A   1      50.822  26.013  26.841  1.00  0.00     0.124 S 
ATOM     63  O   UNL A   1      50.660  25.970  25.390  1.00  0.00    -0.237 OA
ATOM     64  O   UNL A   1      51.890  26.883  27.328  1.00  0.00    -0.237 OA
ATOM     65  O   UNL A   1      50.716  24.722  27.517  1.00  0.00    -0.744 OA
ENDBRANCH  61  62
ENDBRANCH  42  56
BRANCH  43  66
ATOM     66  C   UNL A   1      38.266  32.428  30.688  1.00  0.00    -0.014 A 
ATOM     67  C   UNL A   1      37.526  33.216  29.789  1.00  0.00     0.010 A 
ATOM     68  C   UNL A   1      37.779  32.242  31.995  1.00  0.00     0.010 A 
ATOM     69  C   UNL A   1      36.338  33.831  30.200  1.00  0.00     0.020 A 
ATOM     70  C   UNL A   1      36.578  32.831  32.400  1.00  0.00     0.020 A 
ATOM     71  C   UNL A   1      35.874  33.637  31.504  1.00  0.00     0.054 A 
BRANCH  71  72
ATOM     72  S   UNL A   1      34.318  34.421  32.011  1.00  0.00     0.124 S 
ATOM     73  O   UNL A   1      33.760  33.425  32.919  1.00  0.00    -0.237 OA
ATOM     74  O   UNL A   1      34.774  35.662  32.633  1.00  0.00    -0.237 OA
ATOM     75  O   UNL A   1      33.598  34.594  30.752  1.00  0.00    -0.744 OA
ENDBRANCH  71  72
ENDBRANCH  43  66
BRANCH  55  76
ATOM     76  C   UNL A   1      44.921  34.395  31.278  1.00  0.00    -0.014 A 
ATOM     77  C   UNL A   1      45.175  35.507  30.456  1.00  0.00     0.010 A 
ATOM     78  C   UNL A   1      45.261  34.455  32.641  1.00  0.00     0.010 A 
ATOM     79  C   UNL A   1      45.805  36.640  30.977  1.00  0.00     0.020 A 
ATOM     80  C   UNL A   1      45.865  35.597  33.173  1.00  0.00     0.020 A 
ATOM     81  C   UNL A   1      46.153  36.674  32.331  1.00  0.00     0.054 A 
BRANCH  81  82
ATOM     82  S   UNL A   1      46.966  38.157  32.988  1.00  0.00     0.124 S 
ATOM     83  O   UNL A   1      47.787  37.601  34.061  1.00  0.00    -0.237 OA
ATOM     84  O   UNL A   1      47.702  38.661  31.832  1.00  0.00    -0.237 OA
ATOM     85  O   UNL A   1      45.852  38.995  33.426  1.00  0.00    -0.744 OA
ENDBRANCH  81  82
ENDBRANCH  55  76
ENDBRANCH  29  30
ENDBRANCH  22  24
ENDBRANCH  21  22
ENDBRANCH   1  21
TORSDOF 17
ENDMDL
MODEL 3
REMARK VINA RESULT:      -9.6      4.164     11.837
REMARK SMILES [NH3+][C@H](Cc1ccc2nsnc2c1)C(=O)OCCOC(=O)c1ccc(-c2c3nc(c(-c4ccc(S(=O)(=O)[O-])cc4)c4ccc([nH]4)c(-c4ccc(S(=O)(=O)[O-])cc4)c4nc(c(-c5ccc(S(=O)(=O)[O-])cc5)c5ccc2[nH]5)C=C4)C=C3)cc1
REMARK SMILES IDX 17 1 16 2 15 3 13 4 14 5 2 6 1 7 3 11 4 12 5 13 12 14 6 15
REMARK SMILES IDX 11 16 7 17 10 18 8 19 9 20 18 21 19 22 20 23 21 24 22 25
REMARK SMILES IDX 80 26 23 27 79 28 24 29 25 30 26 31 73 32 27 33 78 34 72 35
REMARK SMILES IDX 74 36 28 37 77 38 71 39 70 40 29 42 59 43 40 44 58 45 41 46
REMARK SMILES IDX 44 47 57 48 75 49 42 50 43 51 56 53 76 54 45 55 30 56 31 57
REMARK SMILES IDX 39 58 32 59 38 60 33 61 34 62 35 63 36 64 37 65 60 66 61 67
REMARK SMILES IDX 69 68 62 69 68 70 63 71 64 72 65 73 66 74 67 75 46 76 47 77
REMARK SMILES IDX 55 78 48 79 54 80 49 81 50 82 51 83 52 84 53 85
REMARK H PARENT 1 8 1 9 1 10 74 41 44 52
REMARK Flexibility Score: inf
ROOT
ATOM      1  C   UNL A   1      34.368  32.629  27.775  1.00  0.00     0.275 C 
ENDROOT
BRANCH   1   2
ATOM      2  C   UNL A   1      33.579  33.785  28.394  1.00  0.00     0.274 C 
BRANCH   2   3
ATOM      3  O   UNL A   1      34.379  34.481  29.366  1.00  0.00    -0.458 OA
BRANCH   3   4
ATOM      4  C   UNL A   1      34.026  34.393  30.673  1.00  0.00     0.365 C 
ATOM      5  O   UNL A   1      33.370  35.245  31.263  1.00  0.00    -0.245 OA
BRANCH   4   6
ATOM      6  C   UNL A   1      34.563  33.118  31.361  1.00  0.00     0.296 C 
BRANCH   6   7
ATOM      7  N   UNL A   1      34.164  33.060  32.788  1.00  0.00    -0.346 N 
ATOM      8  H   UNL A   1      34.963  33.301  33.375  1.00  0.00     0.345 HD
ATOM      9  H   UNL A   1      33.848  32.118  33.015  1.00  0.00     0.345 HD
ATOM     10  H   UNL A   1      33.407  33.722  32.956  1.00  0.00     0.345 HD
ENDBRANCH   6   7
BRANCH   6  11
ATOM     11  C   UNL A   1      36.045  32.750  31.118  1.00  0.00     0.113 C 
BRANCH  11  12
ATOM     12  C   UNL A   1      37.070  32.665  32.243  1.00  0.00    -0.039 A 
ATOM     13  C   UNL A   1      37.785  33.793  32.734  1.00  0.00     0.006 A 
ATOM     14  C   UNL A   1      37.306  31.368  32.770  1.00  0.00     0.035 A 
ATOM     15  C   UNL A   1      38.816  33.721  33.692  1.00  0.00     0.032 A 
ATOM     16  C   UNL A   1      38.330  31.237  33.739  1.00  0.00     0.105 A 
ATOM     17  C   UNL A   1      39.108  32.436  34.198  1.00  0.00     0.104 A 
ATOM     18  N   UNL A   1      38.718  30.096  34.331  1.00  0.00    -0.173 NA
ATOM     19  N   UNL A   1      40.064  32.140  35.094  1.00  0.00    -0.173 NA
ATOM     20  S   UNL A   1      39.981  30.497  35.332  1.00  0.00     0.069 S 
ENDBRANCH  11  12
ENDBRANCH   6  11
ENDBRANCH   4   6
ENDBRANCH   3   4
ENDBRANCH   2   3
ENDBRANCH   1   2
BRANCH   1  21
ATOM     21  O   UNL A   1      34.067  31.394  28.448  1.00  0.00    -0.458 OA
BRANCH  21  22
ATOM     22  C   UNL A   1      34.506  30.280  27.819  1.00  0.00     0.338 C 
ATOM     23  O   UNL A   1      33.957  29.682  26.905  1.00  0.00    -0.246 OA
BRANCH  22  24
ATOM     24  C   UNL A   1      35.874  29.977  28.262  1.00  0.00     0.060 A 
ATOM     25  C   UNL A   1      36.899  30.114  27.323  1.00  0.00     0.016 A 
ATOM     26  C   UNL A   1      36.151  29.544  29.560  1.00  0.00     0.016 A 
ATOM     27  C   UNL A   1      38.210  29.819  27.675  1.00  0.00     0.010 A 
ATOM     28  C   UNL A   1      37.471  29.245  29.914  1.00  0.00     0.010 A 
ATOM     29  C   UNL A   1      38.505  29.374  28.970  1.00  0.00    -0.014 A 
BRANCH  29  30
ATOM     30  C   UNL A   1      39.901  29.011  29.303  1.00  0.00     0.031 A 
ATOM     31  C   UNL A   1      40.766  29.982  30.052  1.00  0.00     0.074 A 
ATOM     32  C   UNL A   1      40.360  27.785  28.984  1.00  0.00     0.049 A 
ATOM     33  N   UNL A   1      42.006  29.847  30.445  1.00  0.00    -0.248 NA
ATOM     34  C   UNL A   1      40.156  31.272  30.411  1.00  0.00     0.031 C 
ATOM     35  C   UNL A   1      39.592  26.750  28.289  1.00  0.00     0.029 A 
ATOM     36  N   UNL A   1      41.579  27.202  29.212  1.00  0.00    -0.354 N 
ATOM     37  C   UNL A   1      42.328  31.031  31.096  1.00  0.00     0.074 A 
ATOM     38  C   UNL A   1      41.162  31.886  31.021  1.00  0.00     0.031 C 
ATOM     39  C   UNL A   1      40.358  25.654  28.156  1.00  0.00     0.029 A 
ATOM     40  C   UNL A   1      41.677  25.923  28.720  1.00  0.00     0.049 A 
ATOM     41  H   UNL A   1      42.315  27.656  29.684  1.00  0.00     0.167 HD
ATOM     42  C   UNL A   1      43.488  31.371  31.706  1.00  0.00     0.031 A 
ATOM     43  C   UNL A   1      42.720  25.070  28.710  1.00  0.00     0.031 A 
ATOM     44  C   UNL A   1      44.648  30.520  31.763  1.00  0.00     0.049 A 
ATOM     45  C   UNL A   1      44.016  25.497  29.346  1.00  0.00     0.074 A 
ATOM     46  C   UNL A   1      45.878  30.779  32.345  1.00  0.00     0.029 A 
ATOM     47  N   UNL A   1      44.723  29.246  31.221  1.00  0.00    -0.354 N 
ATOM     48  N   UNL A   1      44.303  26.623  29.954  1.00  0.00    -0.248 NA
ATOM     49  C   UNL A   1      45.124  24.533  29.301  1.00  0.00     0.031 C 
ATOM     50  C   UNL A   1      46.710  29.677  32.115  1.00  0.00     0.029 A 
ATOM     51  C   UNL A   1      45.981  28.711  31.440  1.00  0.00     0.049 A 
ATOM     52  H   UNL A   1      43.990  28.789  30.750  1.00  0.00     0.167 HD
ATOM     53  C   UNL A   1      45.622  26.499  30.375  1.00  0.00     0.074 A 
ATOM     54  C   UNL A   1      46.063  25.176  29.979  1.00  0.00     0.031 C 
ATOM     55  C   UNL A   1      46.403  27.398  31.024  1.00  0.00     0.031 A 
BRANCH  42  56
ATOM     56  C   UNL A   1      43.566  32.732  32.344  1.00  0.00    -0.014 A 
ATOM     57  C   UNL A   1      43.288  32.909  33.711  1.00  0.00     0.010 A 
ATOM     58  C   UNL A   1      43.969  33.841  31.578  1.00  0.00     0.010 A 
ATOM     59  C   UNL A   1      43.388  34.175  34.296  1.00  0.00     0.020 A 
ATOM     60  C   UNL A   1      44.092  35.104  32.163  1.00  0.00     0.020 A 
ATOM     61  C   UNL A   1      43.789  35.265  33.517  1.00  0.00     0.054 A 
BRANCH  61  62
ATOM     62  S   UNL A   1      43.948  36.889  34.311  1.00  0.00     0.124 S 
ATOM     63  O   UNL A   1      42.883  37.648  33.659  1.00  0.00    -0.237 OA
ATOM     64  O   UNL A   1      43.726  36.580  35.721  1.00  0.00    -0.237 OA
ATOM     65  O   UNL A   1      45.307  37.308  33.974  1.00  0.00    -0.744 OA
ENDBRANCH  61  62
ENDBRANCH  42  56
BRANCH  43  66
ATOM     66  C   UNL A   1      42.596  23.744  28.044  1.00  0.00    -0.014 A 
ATOM     67  C   UNL A   1      42.969  23.571  26.700  1.00  0.00     0.010 A 
ATOM     68  C   UNL A   1      42.085  22.645  28.759  1.00  0.00     0.010 A 
ATOM     69  C   UNL A   1      42.803  22.331  26.074  1.00  0.00     0.020 A 
ATOM     70  C   UNL A   1      41.946  21.397  28.146  1.00  0.00     0.020 A 
ATOM     71  C   UNL A   1      42.290  21.253  26.801  1.00  0.00     0.054 A 
BRANCH  71  72
ATOM     72  S   UNL A   1      42.108  19.644  25.981  1.00  0.00     0.124 S 
ATOM     73  O   UNL A   1      43.071  19.750  24.890  1.00  0.00    -0.237 OA
ATOM     74  O   UNL A   1      42.455  18.704  27.045  1.00  0.00    -0.237 OA
ATOM     75  O   UNL A   1      40.704  19.624  25.578  1.00  0.00    -0.744 OA
ENDBRANCH  71  72
ENDBRANCH  43  66
BRANCH  55  76
ATOM     76  C   UNL A   1      47.806  26.965  31.359  1.00  0.00    -0.014 A 
ATOM     77  C   UNL A   1      48.843  27.068  30.414  1.00  0.00     0.010 A 
ATOM     78  C   UNL A   1      48.091  26.458  32.640  1.00  0.00     0.010 A 
ATOM     79  C   UNL A   1      50.129  26.624  30.727  1.00  0.00     0.020 A 
ATOM     80  C   UNL A   1      49.383  26.040  32.967  1.00  0.00     0.020 A 
ATOM     81  C   UNL A   1      50.389  26.105  32.000  1.00  0.00     0.054 A 
BRANCH  81  82
ATOM     82  S   UNL A   1      52.069  25.539  32.387  1.00  0.00     0.124 S 
ATOM     83  O   UNL A   1      52.848  26.142  31.309  1.00  0.00    -0.237 OA
ATOM     84  O   UNL A   1      52.300  26.098  33.717  1.00  0.00    -0.237 OA
ATOM     85  O   UNL A   1      51.961  24.083  32.341  1.00  0.00    -0.744 OA
ENDBRANCH  81  82
ENDBRANCH  55  76
ENDBRANCH  29  30
ENDBRANCH  22  24
ENDBRANCH  21  22
ENDBRANCH   1  21
TORSDOF 17
ENDMDL
