MODEL 1
REMARK VINA RESULT:     -10.7      0.000      0.000
REMARK SMILES Cc1cc(=O)cc(C)n1C[C@H]1CCCC[C@@H]1C(=O)OCCOC(=O)c1ccc(-c2c3nc(c(-c4ccc(S(=O)(=O)[O-])cc4)c4ccc([nH]4)c(-c4ccc(S(=O)(=O)[O-])cc4)c4nc(c(-c5ccc(S(=O)(=O)[O-])cc5)c5ccc2[nH]5)C=C4)C=C3)cc1
REMARK SMILES IDX 21 1 20 2 19 3 17 4 18 5 16 6 11 7 12 8 13 9 15 10 14 11
REMARK SMILES IDX 10 12 9 13 1 14 2 15 3 16 4 17 7 18 5 19 6 20 8 21 22 22
REMARK SMILES IDX 23 23 24 24 25 25 26 26 84 27 27 28 83 29 28 30 29 31 30 32
REMARK SMILES IDX 77 33 31 34 82 35 76 36 78 37 32 38 81 39 75 40 74 41 33 43
REMARK SMILES IDX 63 44 44 45 62 46 45 47 48 48 61 49 79 50 46 51 47 52 60 54
REMARK SMILES IDX 80 55 49 56 34 57 35 58 43 59 36 60 42 61 37 62 38 63 39 64
REMARK SMILES IDX 40 65 41 66 64 67 65 68 73 69 66 70 72 71 67 72 68 73 69 74
REMARK SMILES IDX 70 75 71 76 50 77 51 78 59 79 52 80 58 81 53 82 54 83 55 84
REMARK SMILES IDX 56 85 57 86
REMARK H PARENT 78 42 48 53
REMARK Flexibility Score: inf
ROOT
ATOM      1  C   UNL A   1      33.404  30.456  27.564  1.00  0.00     0.275 C 
ENDROOT
BRANCH   1   2
ATOM      2  C   UNL A   1      32.879  29.668  26.361  1.00  0.00     0.274 C 
BRANCH   2   3
ATOM      3  O   UNL A   1      33.044  28.242  26.561  1.00  0.00    -0.462 OA
BRANCH   3   4
ATOM      4  C   UNL A   1      31.946  27.574  27.002  1.00  0.00     0.309 C 
ATOM      5  O   UNL A   1      31.115  28.057  27.764  1.00  0.00    -0.252 OA
BRANCH   4   6
ATOM      6  C   UNL A   1      31.852  26.122  26.496  1.00  0.00     0.104 C 
ATOM      7  C   UNL A   1      32.809  25.690  25.345  1.00  0.00     0.023 C 
ATOM      8  C   UNL A   1      32.486  26.519  24.089  1.00  0.00     0.006 C 
ATOM      9  C   UNL A   1      31.038  26.345  23.631  1.00  0.00     0.000 C 
ATOM     10  C   UNL A   1      30.394  25.842  26.079  1.00  0.00     0.016 C 
ATOM     11  C   UNL A   1      30.051  26.542  24.770  1.00  0.00     0.001 C 
BRANCH   7  12
ATOM     12  C   UNL A   1      32.647  24.155  25.090  1.00  0.00     0.126 C 
BRANCH  12  13
ATOM     13  N   UNL A   1      33.927  23.414  24.918  1.00  0.00    -0.349 N 
ATOM     14  C   UNL A   1      33.820  22.689  27.351  1.00  0.00     0.064 C 
ATOM     15  C   UNL A   1      34.555  22.806  26.036  1.00  0.00     0.018 A 
ATOM     16  C   UNL A   1      35.777  22.248  25.960  1.00  0.00     0.073 A 
ATOM     17  C   UNL A   1      36.496  22.244  24.677  1.00  0.00     0.182 A 
ATOM     18  C   UNL A   1      34.519  23.217  23.640  1.00  0.00     0.018 A 
ATOM     19  O   UNL A   1      37.647  21.830  24.594  1.00  0.00    -0.290 OA
ATOM     20  C   UNL A   1      35.748  22.689  23.493  1.00  0.00     0.073 A 
ATOM     21  C   UNL A   1      33.760  23.481  22.361  1.00  0.00     0.064 C 
ENDBRANCH  12  13
ENDBRANCH   7  12
ENDBRANCH   4   6
ENDBRANCH   3   4
ENDBRANCH   2   3
ENDBRANCH   1   2
BRANCH   1  22
ATOM     22  O   UNL A   1      34.829  30.613  27.454  1.00  0.00    -0.458 OA
BRANCH  22  23
ATOM     23  C   UNL A   1      35.486  30.907  28.603  1.00  0.00     0.338 C 
ATOM     24  O   UNL A   1      35.035  31.561  29.536  1.00  0.00    -0.246 OA
BRANCH  23  25
ATOM     25  C   UNL A   1      36.819  30.244  28.627  1.00  0.00     0.060 A 
ATOM     26  C   UNL A   1      37.434  29.894  29.830  1.00  0.00     0.016 A 
ATOM     27  C   UNL A   1      37.531  30.073  27.435  1.00  0.00     0.016 A 
ATOM     28  C   UNL A   1      38.790  29.555  29.851  1.00  0.00     0.010 A 
ATOM     29  C   UNL A   1      38.851  29.590  27.456  1.00  0.00     0.010 A 
ATOM     30  C   UNL A   1      39.520  29.360  28.669  1.00  0.00    -0.014 A 
BRANCH  30  31
ATOM     31  C   UNL A   1      40.951  28.911  28.701  1.00  0.00     0.031 A 
ATOM     32  C   UNL A   1      42.067  29.867  29.069  1.00  0.00     0.074 A 
ATOM     33  C   UNL A   1      41.279  27.637  28.390  1.00  0.00     0.049 A 
ATOM     34  N   UNL A   1      43.357  29.744  28.873  1.00  0.00    -0.248 NA
ATOM     35  C   UNL A   1      41.686  31.125  29.733  1.00  0.00     0.031 C 
ATOM     36  C   UNL A   1      40.336  26.561  28.073  1.00  0.00     0.029 A 
ATOM     37  N   UNL A   1      42.508  27.023  28.297  1.00  0.00    -0.354 N 
ATOM     38  C   UNL A   1      43.932  30.932  29.316  1.00  0.00     0.074 A 
ATOM     39  C   UNL A   1      42.850  31.759  29.811  1.00  0.00     0.031 C 
ATOM     40  C   UNL A   1      41.007  25.416  27.895  1.00  0.00     0.029 A 
ATOM     41  C   UNL A   1      42.435  25.698  27.935  1.00  0.00     0.049 A 
ATOM     42  H   UNL A   1      43.358  27.488  28.473  1.00  0.00     0.167 HD
ATOM     43  C   UNL A   1      45.237  31.303  29.299  1.00  0.00     0.031 A 
ATOM     44  C   UNL A   1      43.387  24.809  27.594  1.00  0.00     0.031 A 
ATOM     45  C   UNL A   1      46.318  30.456  28.858  1.00  0.00     0.049 A 
ATOM     46  C   UNL A   1      44.816  25.253  27.527  1.00  0.00     0.074 A 
ATOM     47  C   UNL A   1      47.670  30.752  28.787  1.00  0.00     0.029 A 
ATOM     48  N   UNL A   1      46.179  29.142  28.442  1.00  0.00    -0.354 N 
ATOM     49  N   UNL A   1      45.323  26.427  27.809  1.00  0.00    -0.248 NA
ATOM     50  C   UNL A   1      45.794  24.261  27.061  1.00  0.00     0.031 C 
ATOM     51  C   UNL A   1      48.343  29.626  28.299  1.00  0.00     0.029 A 
ATOM     52  C   UNL A   1      47.417  28.615  28.112  1.00  0.00     0.049 A 
ATOM     53  H   UNL A   1      45.325  28.654  28.388  1.00  0.00     0.167 HD
ATOM     54  C   UNL A   1      46.683  26.318  27.552  1.00  0.00     0.074 A 
ATOM     55  C   UNL A   1      46.922  24.957  27.115  1.00  0.00     0.031 C 
ATOM     56  C   UNL A   1      47.644  27.265  27.664  1.00  0.00     0.031 A 
BRANCH  43  57
ATOM     57  C   UNL A   1      45.588  32.706  29.728  1.00  0.00    -0.014 A 
ATOM     58  C   UNL A   1      45.550  33.785  28.828  1.00  0.00     0.010 A 
ATOM     59  C   UNL A   1      45.860  32.961  31.087  1.00  0.00     0.010 A 
ATOM     60  C   UNL A   1      45.796  35.087  29.275  1.00  0.00     0.020 A 
ATOM     61  C   UNL A   1      46.085  34.264  31.541  1.00  0.00     0.020 A 
ATOM     62  C   UNL A   1      46.061  35.319  30.630  1.00  0.00     0.054 A 
BRANCH  62  63
ATOM     63  S   UNL A   1      46.324  37.026  31.190  1.00  0.00     0.124 S 
ATOM     64  O   UNL A   1      46.147  37.780  29.951  1.00  0.00    -0.237 OA
ATOM     65  O   UNL A   1      45.273  37.202  32.187  1.00  0.00    -0.237 OA
ATOM     66  O   UNL A   1      47.685  37.012  31.720  1.00  0.00    -0.744 OA
ENDBRANCH  62  63
ENDBRANCH  43  57
BRANCH  44  67
ATOM     67  C   UNL A   1      42.988  23.427  27.212  1.00  0.00    -0.014 A 
ATOM     68  C   UNL A   1      42.833  23.081  25.860  1.00  0.00     0.010 A 
ATOM     69  C   UNL A   1      42.841  22.433  28.198  1.00  0.00     0.010 A 
ATOM     70  C   UNL A   1      42.562  21.757  25.499  1.00  0.00     0.020 A 
ATOM     71  C   UNL A   1      42.601  21.106  27.839  1.00  0.00     0.020 A 
ATOM     72  C   UNL A   1      42.462  20.776  26.490  1.00  0.00     0.054 A 
BRANCH  72  73
ATOM     73  S   UNL A   1      42.232  19.046  25.995  1.00  0.00     0.124 S 
ATOM     74  O   UNL A   1      43.060  18.961  24.797  1.00  0.00    -0.237 OA
ATOM     75  O   UNL A   1      42.725  18.315  27.159  1.00  0.00    -0.237 OA
ATOM     76  O   UNL A   1      40.790  18.944  25.772  1.00  0.00    -0.744 OA
ENDBRANCH  72  73
ENDBRANCH  44  67
BRANCH  56  77
ATOM     77  C   UNL A   1      49.050  26.855  27.331  1.00  0.00    -0.014 A 
ATOM     78  C   UNL A   1      49.536  26.934  26.014  1.00  0.00     0.010 A 
ATOM     79  C   UNL A   1      49.903  26.405  28.355  1.00  0.00     0.010 A 
ATOM     80  C   UNL A   1      50.843  26.538  25.722  1.00  0.00     0.020 A 
ATOM     81  C   UNL A   1      51.217  26.028  28.070  1.00  0.00     0.020 A 
ATOM     82  C   UNL A   1      51.674  26.084  26.751  1.00  0.00     0.054 A 
BRANCH  82  83
ATOM     83  S   UNL A   1      53.374  25.595  26.349  1.00  0.00     0.124 S 
ATOM     84  O   UNL A   1      54.021  25.641  27.658  1.00  0.00    -0.237 OA
ATOM     85  O   UNL A   1      53.199  24.260  25.781  1.00  0.00    -0.237 OA
ATOM     86  O   UNL A   1      53.813  26.616  25.400  1.00  0.00    -0.744 OA
ENDBRANCH  82  83
ENDBRANCH  56  77
ENDBRANCH  30  31
ENDBRANCH  23  25
ENDBRANCH  22  23
ENDBRANCH   1  22
TORSDOF 16
ENDMDL
MODEL 2
REMARK VINA RESULT:     -10.6      4.813      9.267
REMARK SMILES Cc1cc(=O)cc(C)n1C[C@H]1CCCC[C@@H]1C(=O)OCCOC(=O)c1ccc(-c2c3nc(c(-c4ccc(S(=O)(=O)[O-])cc4)c4ccc([nH]4)c(-c4ccc(S(=O)(=O)[O-])cc4)c4nc(c(-c5ccc(S(=O)(=O)[O-])cc5)c5ccc2[nH]5)C=C4)C=C3)cc1
REMARK SMILES IDX 21 1 20 2 19 3 17 4 18 5 16 6 11 7 12 8 13 9 15 10 14 11
REMARK SMILES IDX 10 12 9 13 1 14 2 15 3 16 4 17 7 18 5 19 6 20 8 21 22 22
REMARK SMILES IDX 23 23 24 24 25 25 26 26 84 27 27 28 83 29 28 30 29 31 30 32
REMARK SMILES IDX 77 33 31 34 82 35 76 36 78 37 32 38 81 39 75 40 74 41 33 43
REMARK SMILES IDX 63 44 44 45 62 46 45 47 48 48 61 49 79 50 46 51 47 52 60 54
REMARK SMILES IDX 80 55 49 56 34 57 35 58 43 59 36 60 42 61 37 62 38 63 39 64
REMARK SMILES IDX 40 65 41 66 64 67 65 68 73 69 66 70 72 71 67 72 68 73 69 74
REMARK SMILES IDX 70 75 71 76 50 77 51 78 59 79 52 80 58 81 53 82 54 83 55 84
REMARK SMILES IDX 56 85 57 86
REMARK H PARENT 78 42 48 53
REMARK Flexibility Score: inf
ROOT
ATOM      1  C   UNL A   1      32.277  30.574  26.605  1.00  0.00     0.275 C 
ENDROOT
BRANCH   1   2
ATOM      2  C   UNL A   1      31.827  29.467  25.648  1.00  0.00     0.274 C 
BRANCH   2   3
ATOM      3  O   UNL A   1      32.418  28.194  26.009  1.00  0.00    -0.462 OA
BRANCH   3   4
ATOM      4  C   UNL A   1      31.662  27.395  26.806  1.00  0.00     0.309 C 
ATOM      5  O   UNL A   1      31.057  27.794  27.795  1.00  0.00    -0.252 OA
BRANCH   4   6
ATOM      6  C   UNL A   1      31.662  25.913  26.385  1.00  0.00     0.104 C 
ATOM      7  C   UNL A   1      32.591  25.491  25.207  1.00  0.00     0.023 C 
ATOM      8  C   UNL A   1      32.135  26.217  23.928  1.00  0.00     0.006 C 
ATOM      9  C   UNL A   1      30.685  25.901  23.563  1.00  0.00     0.000 C 
ATOM     10  C   UNL A   1      30.212  25.493  26.067  1.00  0.00     0.016 C 
ATOM     11  C   UNL A   1      29.745  26.086  24.744  1.00  0.00     0.001 C 
BRANCH   7  12
ATOM     12  C   UNL A   1      32.543  23.936  25.045  1.00  0.00     0.126 C 
BRANCH  12  13
ATOM     13  N   UNL A   1      33.875  23.283  24.915  1.00  0.00    -0.349 N 
ATOM     14  C   UNL A   1      33.787  22.640  27.372  1.00  0.00     0.064 C 
ATOM     15  C   UNL A   1      34.529  22.762  26.061  1.00  0.00     0.018 A 
ATOM     16  C   UNL A   1      35.789  22.291  26.019  1.00  0.00     0.073 A 
ATOM     17  C   UNL A   1      36.524  22.293  24.745  1.00  0.00     0.182 A 
ATOM     18  C   UNL A   1      34.496  23.082  23.651  1.00  0.00     0.018 A 
ATOM     19  O   UNL A   1      37.702  21.959  24.689  1.00  0.00    -0.290 OA
ATOM     20  C   UNL A   1      35.762  22.639  23.538  1.00  0.00     0.073 A 
ATOM     21  C   UNL A   1      33.737  23.245  22.355  1.00  0.00     0.064 C 
ENDBRANCH  12  13
ENDBRANCH   7  12
ENDBRANCH   4   6
ENDBRANCH   3   4
ENDBRANCH   2   3
ENDBRANCH   1   2
BRANCH   1  22
ATOM     22  O   UNL A   1      33.686  30.451  26.858  1.00  0.00    -0.458 OA
BRANCH  22  23
ATOM     23  C   UNL A   1      34.237  31.413  27.638  1.00  0.00     0.338 C 
ATOM     24  O   UNL A   1      33.695  32.461  27.970  1.00  0.00    -0.246 OA
BRANCH  23  25
ATOM     25  C   UNL A   1      35.577  30.986  28.129  1.00  0.00     0.060 A 
ATOM     26  C   UNL A   1      35.793  29.699  28.621  1.00  0.00     0.016 A 
ATOM     27  C   UNL A   1      36.615  31.921  28.214  1.00  0.00     0.016 A 
ATOM     28  C   UNL A   1      36.954  29.411  29.344  1.00  0.00     0.010 A 
ATOM     29  C   UNL A   1      37.837  31.575  28.816  1.00  0.00     0.010 A 
ATOM     30  C   UNL A   1      38.015  30.324  29.430  1.00  0.00    -0.014 A 
BRANCH  30  31
ATOM     31  C   UNL A   1      39.293  29.973  30.134  1.00  0.00     0.031 A 
ATOM     32  C   UNL A   1      40.217  28.901  29.596  1.00  0.00     0.074 A 
ATOM     33  C   UNL A   1      39.644  30.603  31.277  1.00  0.00     0.049 A 
ATOM     34  N   UNL A   1      41.193  28.271  30.203  1.00  0.00    -0.248 NA
ATOM     35  C   UNL A   1      40.016  28.475  28.200  1.00  0.00     0.031 C 
ATOM     36  C   UNL A   1      38.912  31.704  31.910  1.00  0.00     0.029 A 
ATOM     37  N   UNL A   1      40.721  30.413  32.113  1.00  0.00    -0.354 N 
ATOM     38  C   UNL A   1      41.669  27.327  29.298  1.00  0.00     0.074 A 
ATOM     39  C   UNL A   1      40.888  27.479  28.088  1.00  0.00     0.031 C 
ATOM     40  C   UNL A   1      39.590  32.135  32.981  1.00  0.00     0.029 A 
ATOM     41  C   UNL A   1      40.725  31.251  33.203  1.00  0.00     0.049 A 
ATOM     42  H   UNL A   1      41.420  29.740  31.947  1.00  0.00     0.167 HD
ATOM     43  C   UNL A   1      42.656  26.411  29.466  1.00  0.00     0.031 A 
ATOM     44  C   UNL A   1      41.496  31.280  34.307  1.00  0.00     0.031 A 
ATOM     45  C   UNL A   1      43.469  26.299  30.651  1.00  0.00     0.049 A 
ATOM     46  C   UNL A   1      42.543  30.227  34.500  1.00  0.00     0.074 A 
ATOM     47  C   UNL A   1      44.481  25.390  30.919  1.00  0.00     0.029 A 
ATOM     48  N   UNL A   1      43.389  27.137  31.752  1.00  0.00    -0.354 N 
ATOM     49  N   UNL A   1      42.880  29.250  33.695  1.00  0.00    -0.248 NA
ATOM     50  C   UNL A   1      43.288  30.260  35.766  1.00  0.00     0.031 C 
ATOM     51  C   UNL A   1      44.990  25.659  32.195  1.00  0.00     0.029 A 
ATOM     52  C   UNL A   1      44.329  26.765  32.700  1.00  0.00     0.049 A 
ATOM     53  H   UNL A   1      42.757  27.886  31.847  1.00  0.00     0.167 HD
ATOM     54  C   UNL A   1      43.877  28.547  34.359  1.00  0.00     0.074 A 
ATOM     55  C   UNL A   1      44.104  29.224  35.619  1.00  0.00     0.031 C 
ATOM     56  C   UNL A   1      44.538  27.435  33.958  1.00  0.00     0.031 A 
BRANCH  43  57
ATOM     57  C   UNL A   1      42.899  25.412  28.362  1.00  0.00    -0.014 A 
ATOM     58  C   UNL A   1      43.873  25.628  27.372  1.00  0.00     0.010 A 
ATOM     59  C   UNL A   1      42.208  24.185  28.381  1.00  0.00     0.010 A 
ATOM     60  C   UNL A   1      44.137  24.645  26.413  1.00  0.00     0.020 A 
ATOM     61  C   UNL A   1      42.484  23.191  27.437  1.00  0.00     0.020 A 
ATOM     62  C   UNL A   1      43.441  23.431  26.451  1.00  0.00     0.054 A 
BRANCH  62  63
ATOM     63  S   UNL A   1      43.842  22.153  25.226  1.00  0.00     0.124 S 
ATOM     64  O   UNL A   1      45.191  21.763  25.628  1.00  0.00    -0.237 OA
ATOM     65  O   UNL A   1      42.805  21.152  25.455  1.00  0.00    -0.237 OA
ATOM     66  O   UNL A   1      43.753  22.856  23.949  1.00  0.00    -0.744 OA
ENDBRANCH  62  63
ENDBRANCH  43  57
BRANCH  44  67
ATOM     67  C   UNL A   1      41.235  32.310  35.350  1.00  0.00    -0.014 A 
ATOM     68  C   UNL A   1      41.915  33.538  35.322  1.00  0.00     0.010 A 
ATOM     69  C   UNL A   1      40.244  32.094  36.326  1.00  0.00     0.010 A 
ATOM     70  C   UNL A   1      41.591  34.543  36.239  1.00  0.00     0.020 A 
ATOM     71  C   UNL A   1      39.897  33.107  37.223  1.00  0.00     0.020 A 
ATOM     72  C   UNL A   1      40.575  34.325  37.174  1.00  0.00     0.054 A 
BRANCH  72  73
ATOM     73  S   UNL A   1      40.086  35.684  38.274  1.00  0.00     0.124 S 
ATOM     74  O   UNL A   1      38.950  35.105  38.983  1.00  0.00    -0.237 OA
ATOM     75  O   UNL A   1      41.292  35.894  39.072  1.00  0.00    -0.237 OA
ATOM     76  O   UNL A   1      39.765  36.770  37.349  1.00  0.00    -0.744 OA
ENDBRANCH  72  73
ENDBRANCH  44  67
BRANCH  56  77
ATOM     77  C   UNL A   1      45.591  26.896  34.883  1.00  0.00    -0.014 A 
ATOM     78  C   UNL A   1      45.278  25.923  35.848  1.00  0.00     0.010 A 
ATOM     79  C   UNL A   1      46.917  27.352  34.769  1.00  0.00     0.010 A 
ATOM     80  C   UNL A   1      46.268  25.440  36.707  1.00  0.00     0.020 A 
ATOM     81  C   UNL A   1      47.913  26.856  35.612  1.00  0.00     0.020 A 
ATOM     82  C   UNL A   1      47.579  25.913  36.586  1.00  0.00     0.054 A 
BRANCH  82  83
ATOM     83  S   UNL A   1      48.851  25.255  37.700  1.00  0.00     0.124 S 
ATOM     84  O   UNL A   1      48.285  25.548  39.014  1.00  0.00    -0.237 OA
ATOM     85  O   UNL A   1      48.897  23.841  37.335  1.00  0.00    -0.237 OA
ATOM     86  O   UNL A   1      50.046  26.021  37.351  1.00  0.00    -0.744 OA
ENDBRANCH  82  83
ENDBRANCH  56  77
ENDBRANCH  30  31
ENDBRANCH  23  25
ENDBRANCH  22  23
ENDBRANCH   1  22
TORSDOF 16
ENDMDL
MODEL 3
REMARK VINA RESULT:     -10.5      5.962     10.763
REMARK SMILES Cc1cc(=O)cc(C)n1C[C@H]1CCCC[C@@H]1C(=O)OCCOC(=O)c1ccc(-c2c3nc(c(-c4ccc(S(=O)(=O)[O-])cc4)c4ccc([nH]4)c(-c4ccc(S(=O)(=O)[O-])cc4)c4nc(c(-c5ccc(S(=O)(=O)[O-])cc5)c5ccc2[nH]5)C=C4)C=C3)cc1
REMARK SMILES IDX 21 1 20 2 19 3 17 4 18 5 16 6 11 7 12 8 13 9 15 10 14 11
REMARK SMILES IDX 10 12 9 13 1 14 2 15 3 16 4 17 7 18 5 19 6 20 8 21 22 22
REMARK SMILES IDX 23 23 24 24 25 25 26 26 84 27 27 28 83 29 28 30 29 31 30 32
REMARK SMILES IDX 77 33 31 34 82 35 76 36 78 37 32 38 81 39 75 40 74 41 33 43
REMARK SMILES IDX 63 44 44 45 62 46 45 47 48 48 61 49 79 50 46 51 47 52 60 54
REMARK SMILES IDX 80 55 49 56 34 57 35 58 43 59 36 60 42 61 37 62 38 63 39 64
REMARK SMILES IDX 40 65 41 66 64 67 65 68 73 69 66 70 72 71 67 72 68 73 69 74
REMARK SMILES IDX 70 75 71 76 50 77 51 78 59 79 52 80 58 81 53 82 54 83 55 84
REMARK SMILES IDX 56 85 57 86
REMARK H PARENT 78 42 48 53
REMARK Flexibility Score: inf
ROOT
ATOM      1  C   UNL A   1      32.905  31.442  27.545  1.00  0.00     0.275 C 
ENDROOT
BRANCH   1   2
ATOM      2  C   UNL A   1      33.666  30.332  26.815  1.00  0.00     0.274 C 
BRANCH   2   3
ATOM      3  O   UNL A   1      33.533  29.066  27.508  1.00  0.00    -0.462 OA
BRANCH   3   4
ATOM      4  C   UNL A   1      32.376  28.389  27.289  1.00  0.00     0.309 C 
ATOM      5  O   UNL A   1      31.586  28.085  28.176  1.00  0.00    -0.252 OA
BRANCH   4   6
ATOM      6  C   UNL A   1      32.155  27.989  25.818  1.00  0.00     0.104 C 
ATOM      7  C   UNL A   1      31.003  26.988  25.502  1.00  0.00     0.023 C 
ATOM      8  C   UNL A   1      31.307  25.644  26.188  1.00  0.00     0.006 C 
ATOM      9  C   UNL A   1      32.636  25.043  25.729  1.00  0.00     0.000 C 
ATOM     10  C   UNL A   1      33.480  27.435  25.256  1.00  0.00     0.016 C 
ATOM     11  C   UNL A   1      33.775  26.046  25.808  1.00  0.00     0.001 C 
BRANCH   7  12
ATOM     12  C   UNL A   1      30.865  26.836  23.952  1.00  0.00     0.126 C 
BRANCH  12  13
ATOM     13  N   UNL A   1      30.005  27.862  23.300  1.00  0.00    -0.349 N 
ATOM     14  C   UNL A   1      32.050  28.810  22.125  1.00  0.00     0.064 C 
ATOM     15  C   UNL A   1      30.591  28.887  22.512  1.00  0.00     0.018 A 
ATOM     16  C   UNL A   1      29.876  29.914  22.020  1.00  0.00     0.073 A 
ATOM     17  C   UNL A   1      28.430  29.986  22.283  1.00  0.00     0.182 A 
ATOM     18  C   UNL A   1      28.585  27.811  23.367  1.00  0.00     0.018 A 
ATOM     19  O   UNL A   1      27.766  30.954  21.930  1.00  0.00    -0.290 OA
ATOM     20  C   UNL A   1      27.811  28.815  22.918  1.00  0.00     0.073 A 
ATOM     21  C   UNL A   1      27.854  26.578  23.842  1.00  0.00     0.064 C 
ENDBRANCH  12  13
ENDBRANCH   7  12
ENDBRANCH   4   6
ENDBRANCH   3   4
ENDBRANCH   2   3
ENDBRANCH   1   2
BRANCH   1  22
ATOM     22  O   UNL A   1      33.500  32.715  27.242  1.00  0.00    -0.458 OA
BRANCH  22  23
ATOM     23  C   UNL A   1      33.500  33.626  28.246  1.00  0.00     0.338 C 
ATOM     24  O   UNL A   1      32.628  34.461  28.452  1.00  0.00    -0.246 OA
BRANCH  23  25
ATOM     25  C   UNL A   1      34.674  33.419  29.140  1.00  0.00     0.060 A 
ATOM     26  C   UNL A   1      35.896  34.043  28.890  1.00  0.00     0.016 A 
ATOM     27  C   UNL A   1      34.595  32.489  30.183  1.00  0.00     0.016 A 
ATOM     28  C   UNL A   1      37.051  33.612  29.549  1.00  0.00     0.010 A 
ATOM     29  C   UNL A   1      35.736  32.168  30.939  1.00  0.00     0.010 A 
ATOM     30  C   UNL A   1      36.996  32.694  30.609  1.00  0.00    -0.014 A 
BRANCH  30  31
ATOM     31  C   UNL A   1      38.229  32.304  31.368  1.00  0.00     0.031 A 
ATOM     32  C   UNL A   1      39.187  31.262  30.828  1.00  0.00     0.074 A 
ATOM     33  C   UNL A   1      38.510  32.870  32.563  1.00  0.00     0.049 A 
ATOM     34  N   UNL A   1      40.127  30.599  31.458  1.00  0.00    -0.248 NA
ATOM     35  C   UNL A   1      39.072  30.914  29.402  1.00  0.00     0.031 C 
ATOM     36  C   UNL A   1      37.739  33.934  33.211  1.00  0.00     0.029 A 
ATOM     37  N   UNL A   1      39.536  32.632  33.451  1.00  0.00    -0.354 N 
ATOM     38  C   UNL A   1      40.658  29.706  30.532  1.00  0.00     0.074 A 
ATOM     39  C   UNL A   1      39.951  29.925  29.287  1.00  0.00     0.031 C 
ATOM     40  C   UNL A   1      38.350  34.305  34.343  1.00  0.00     0.029 A 
ATOM     41  C   UNL A   1      39.473  33.410  34.584  1.00  0.00     0.049 A 
ATOM     42  H   UNL A   1      40.246  31.969  33.290  1.00  0.00     0.167 HD
ATOM     43  C   UNL A   1      41.636  28.781  30.708  1.00  0.00     0.031 A 
ATOM     44  C   UNL A   1      40.176  33.377  35.732  1.00  0.00     0.031 A 
ATOM     45  C   UNL A   1      42.377  28.604  31.932  1.00  0.00     0.049 A 
ATOM     46  C   UNL A   1      41.212  32.314  35.929  1.00  0.00     0.074 A 
ATOM     47  C   UNL A   1      43.373  27.681  32.209  1.00  0.00     0.029 A 
ATOM     48  N   UNL A   1      42.229  29.379  33.070  1.00  0.00    -0.354 N 
ATOM     49  N   UNL A   1      41.599  31.383  35.093  1.00  0.00    -0.248 NA
ATOM     50  C   UNL A   1      41.880  32.277  37.237  1.00  0.00     0.031 C 
ATOM     51  C   UNL A   1      43.804  27.879  33.526  1.00  0.00     0.029 A 
ATOM     52  C   UNL A   1      43.111  28.956  34.051  1.00  0.00     0.049 A 
ATOM     53  H   UNL A   1      41.590  30.123  33.168  1.00  0.00     0.167 HD
ATOM     54  C   UNL A   1      42.557  30.643  35.775  1.00  0.00     0.074 A 
ATOM     55  C   UNL A   1      42.706  31.250  37.082  1.00  0.00     0.031 C 
ATOM     56  C   UNL A   1      43.244  29.555  35.354  1.00  0.00     0.031 A 
BRANCH  43  57
ATOM     57  C   UNL A   1      41.948  27.844  29.567  1.00  0.00    -0.014 A 
ATOM     58  C   UNL A   1      41.140  26.729  29.287  1.00  0.00     0.010 A 
ATOM     59  C   UNL A   1      43.014  28.149  28.699  1.00  0.00     0.010 A 
ATOM     60  C   UNL A   1      41.404  25.927  28.170  1.00  0.00     0.020 A 
ATOM     61  C   UNL A   1      43.267  27.364  27.570  1.00  0.00     0.020 A 
ATOM     62  C   UNL A   1      42.466  26.251  27.318  1.00  0.00     0.054 A 
BRANCH  62  63
ATOM     63  S   UNL A   1      42.752  25.224  25.849  1.00  0.00     0.124 S 
ATOM     64  O   UNL A   1      41.985  24.022  26.168  1.00  0.00    -0.237 OA
ATOM     65  O   UNL A   1      42.209  26.046  24.772  1.00  0.00    -0.237 OA
ATOM     66  O   UNL A   1      44.202  25.048  25.825  1.00  0.00    -0.744 OA
ENDBRANCH  62  63
ENDBRANCH  43  57
BRANCH  44  67
ATOM     67  C   UNL A   1      39.850  34.348  36.812  1.00  0.00    -0.014 A 
ATOM     68  C   UNL A   1      39.051  33.959  37.899  1.00  0.00     0.010 A 
ATOM     69  C   UNL A   1      40.406  35.641  36.794  1.00  0.00     0.010 A 
ATOM     70  C   UNL A   1      38.833  34.840  38.963  1.00  0.00     0.020 A 
ATOM     71  C   UNL A   1      40.216  36.511  37.869  1.00  0.00     0.020 A 
ATOM     72  C   UNL A   1      39.429  36.105  38.947  1.00  0.00     0.054 A 
BRANCH  72  73
ATOM     73  S   UNL A   1      39.236  37.186  40.392  1.00  0.00     0.124 S 
ATOM     74  O   UNL A   1      40.622  37.426  40.778  1.00  0.00    -0.237 OA
ATOM     75  O   UNL A   1      38.525  38.334  39.836  1.00  0.00    -0.237 OA
ATOM     76  O   UNL A   1      38.454  36.373  41.323  1.00  0.00    -0.744 OA
ENDBRANCH  72  73
ENDBRANCH  44  67
BRANCH  56  77
ATOM     77  C   UNL A   1      44.241  28.965  36.309  1.00  0.00    -0.014 A 
ATOM     78  C   UNL A   1      43.917  27.843  37.093  1.00  0.00     0.010 A 
ATOM     79  C   UNL A   1      45.526  29.527  36.408  1.00  0.00     0.010 A 
ATOM     80  C   UNL A   1      44.854  27.314  37.983  1.00  0.00     0.020 A 
ATOM     81  C   UNL A   1      46.472  28.987  37.282  1.00  0.00     0.020 A 
ATOM     82  C   UNL A   1      46.124  27.892  38.076  1.00  0.00     0.054 A 
BRANCH  82  83
ATOM     83  S   UNL A   1      47.329  27.173  39.225  1.00  0.00     0.124 S 
ATOM     84  O   UNL A   1      47.334  25.770  38.822  1.00  0.00    -0.237 OA
ATOM     85  O   UNL A   1      48.548  27.919  38.920  1.00  0.00    -0.237 OA
ATOM     86  O   UNL A   1      46.755  27.443  40.542  1.00  0.00    -0.744 OA
ENDBRANCH  82  83
ENDBRANCH  56  77
ENDBRANCH  30  31
ENDBRANCH  23  25
ENDBRANCH  22  23
ENDBRANCH   1  22
TORSDOF 16
ENDMDL
