MODEL 1
REMARK VINA RESULT:      -9.9      0.000      0.000
REMARK SMILES Cn1ccnc(N[C@H]2C=C[C@H](C(=O)OCCOC(=O)c3ccc(-c4c5nc(c(-c6ccc(S(=O)(=O)[O-])cc6)c6ccc([nH]6)c(-c6ccc(S(=O)(=O)[O-])cc6)c6nc(c(-c7ccc(S(=O)(=O)[O-])cc7)c7ccc4[nH]7)C=C6)C=C5)cc3)C2)c1=O
REMARK SMILES IDX 16 1 15 2 14 3 12 4 13 5 11 6 8 7 9 8 80 9 10 10 7 11 6 13
REMARK SMILES IDX 1 14 2 15 3 16 81 17 4 18 82 19 5 20 17 21 18 22 19 23 20 24
REMARK SMILES IDX 21 25 79 26 22 27 78 28 23 29 24 30 25 31 72 32 26 33 77 34
REMARK SMILES IDX 71 35 73 36 27 37 76 38 70 39 69 40 28 42 58 43 39 44 57 45
REMARK SMILES IDX 40 46 43 47 56 48 74 49 41 50 42 51 55 53 75 54 44 55 29 56
REMARK SMILES IDX 30 57 38 58 31 59 37 60 32 61 33 62 34 63 35 64 36 65 59 66
REMARK SMILES IDX 60 67 68 68 61 69 67 70 62 71 63 72 64 73 65 74 66 75 45 76
REMARK SMILES IDX 46 77 54 78 47 79 53 80 48 81 49 82 50 83 51 84 52 85
REMARK H PARENT 7 12 73 41 43 52
REMARK Flexibility Score: inf
ROOT
ATOM      1  C   UNL A   1      33.527  29.100  27.257  1.00  0.00     0.275 C 
ENDROOT
BRANCH   1   2
ATOM      2  C   UNL A   1      31.997  29.154  27.241  1.00  0.00     0.274 C 
BRANCH   2   3
ATOM      3  O   UNL A   1      31.429  27.948  26.698  1.00  0.00    -0.462 OA
BRANCH   3   4
ATOM      4  C   UNL A   1      31.306  27.893  25.342  1.00  0.00     0.312 C 
ATOM      5  O   UNL A   1      31.006  28.843  24.628  1.00  0.00    -0.252 OA
BRANCH   4   6
ATOM      6  C   UNL A   1      31.571  26.483  24.829  1.00  0.00     0.124 C 
ATOM      7  C   UNL A   1      33.881  25.850  25.265  1.00  0.00     0.105 C 
ATOM      8  C   UNL A   1      33.684  26.192  23.829  1.00  0.00    -0.006 C 
ATOM      9  C   UNL A   1      32.455  25.684  25.799  1.00  0.00     0.048 C 
ATOM     10  C   UNL A   1      32.415  26.548  23.587  1.00  0.00    -0.014 C 
BRANCH   7  11
ATOM     11  N   UNL A   1      34.746  24.715  25.428  1.00  0.00    -0.359 N 
ATOM     12  H   UNL A   1      35.705  24.928  25.380  1.00  0.00     0.162 HD
BRANCH  11  13
ATOM     13  C   UNL A   1      34.475  23.384  25.641  1.00  0.00     0.193 A 
ATOM     14  C   UNL A   1      32.623  20.392  24.146  1.00  0.00     0.153 C 
ATOM     15  N   UNL A   1      33.384  21.236  25.041  1.00  0.00    -0.314 N 
ATOM     16  C   UNL A   1      33.587  20.884  26.352  1.00  0.00     0.109 A 
ATOM     17  C   UNL A   1      33.916  22.421  24.544  1.00  0.00     0.293 A 
ATOM     18  C   UNL A   1      34.253  21.695  27.180  1.00  0.00     0.131 A 
ATOM     19  O   UNL A   1      33.945  22.708  23.355  1.00  0.00    -0.265 OA
ATOM     20  N   UNL A   1      34.681  22.956  26.866  1.00  0.00    -0.233 NA
ENDBRANCH  11  13
ENDBRANCH   7  11
ENDBRANCH   4   6
ENDBRANCH   3   4
ENDBRANCH   2   3
ENDBRANCH   1   2
BRANCH   1  21
ATOM     21  O   UNL A   1      34.109  30.407  27.092  1.00  0.00    -0.458 OA
BRANCH  21  22
ATOM     22  C   UNL A   1      34.790  30.858  28.169  1.00  0.00     0.338 C 
ATOM     23  O   UNL A   1      34.415  31.677  28.991  1.00  0.00    -0.246 OA
BRANCH  22  24
ATOM     24  C   UNL A   1      36.073  30.156  28.296  1.00  0.00     0.060 A 
ATOM     25  C   UNL A   1      36.419  29.653  29.546  1.00  0.00     0.016 A 
ATOM     26  C   UNL A   1      37.006  30.181  27.263  1.00  0.00     0.016 A 
ATOM     27  C   UNL A   1      37.740  29.317  29.820  1.00  0.00     0.010 A 
ATOM     28  C   UNL A   1      38.304  29.717  27.508  1.00  0.00     0.010 A 
ATOM     29  C   UNL A   1      38.700  29.325  28.802  1.00  0.00    -0.014 A 
BRANCH  29  30
ATOM     30  C   UNL A   1      40.116  28.955  29.090  1.00  0.00     0.031 A 
ATOM     31  C   UNL A   1      41.053  29.970  29.696  1.00  0.00     0.074 A 
ATOM     32  C   UNL A   1      40.573  27.717  28.807  1.00  0.00     0.049 A 
ATOM     33  N   UNL A   1      42.357  29.938  29.793  1.00  0.00    -0.248 NA
ATOM     34  C   UNL A   1      40.444  31.191  30.250  1.00  0.00     0.031 C 
ATOM     35  C   UNL A   1      39.769  26.609  28.285  1.00  0.00     0.029 A 
ATOM     36  N   UNL A   1      41.832  27.180  28.921  1.00  0.00    -0.354 N 
ATOM     37  C   UNL A   1      42.729  31.158  30.349  1.00  0.00     0.074 A 
ATOM     38  C   UNL A   1      41.511  31.907  30.574  1.00  0.00     0.031 C 
ATOM     39  C   UNL A   1      40.542  25.521  28.157  1.00  0.00     0.029 A 
ATOM     40  C   UNL A   1      41.916  25.880  28.480  1.00  0.00     0.049 A 
ATOM     41  H   UNL A   1      42.600  27.678  29.283  1.00  0.00     0.167 HD
ATOM     42  C   UNL A   1      43.974  31.613  30.635  1.00  0.00     0.031 A 
ATOM     43  C   UNL A   1      42.981  25.077  28.292  1.00  0.00     0.031 A 
ATOM     44  C   UNL A   1      45.172  30.837  30.452  1.00  0.00     0.049 A 
ATOM     45  C   UNL A   1      44.356  25.614  28.576  1.00  0.00     0.074 A 
ATOM     46  C   UNL A   1      46.482  31.201  30.712  1.00  0.00     0.029 A 
ATOM     47  N   UNL A   1      45.207  29.531  29.986  1.00  0.00    -0.354 N 
ATOM     48  N   UNL A   1      44.698  26.798  29.024  1.00  0.00    -0.248 NA
ATOM     49  C   UNL A   1      45.487  24.715  28.314  1.00  0.00     0.031 C 
ATOM     50  C   UNL A   1      47.311  30.130  30.365  1.00  0.00     0.029 A 
ATOM     51  C   UNL A   1      46.513  29.078  29.944  1.00  0.00     0.049 A 
ATOM     52  H   UNL A   1      44.417  29.004  29.724  1.00  0.00     0.167 HD
ATOM     53  C   UNL A   1      46.084  26.776  29.123  1.00  0.00     0.074 A 
ATOM     54  C   UNL A   1      46.515  25.461  28.695  1.00  0.00     0.031 C 
ATOM     55  C   UNL A   1      46.922  27.759  29.534  1.00  0.00     0.031 A 
BRANCH  42  56
ATOM     56  C   UNL A   1      44.111  33.030  31.128  1.00  0.00    -0.014 A 
ATOM     57  C   UNL A   1      44.199  33.334  32.497  1.00  0.00     0.010 A 
ATOM     58  C   UNL A   1      44.196  34.078  30.191  1.00  0.00     0.010 A 
ATOM     59  C   UNL A   1      44.326  34.661  32.922  1.00  0.00     0.020 A 
ATOM     60  C   UNL A   1      44.353  35.403  30.609  1.00  0.00     0.020 A 
ATOM     61  C   UNL A   1      44.398  35.688  31.974  1.00  0.00     0.054 A 
BRANCH  61  62
ATOM     62  S   UNL A   1      44.578  37.398  32.550  1.00  0.00     0.124 S 
ATOM     63  O   UNL A   1      45.789  37.316  33.363  1.00  0.00    -0.237 OA
ATOM     64  O   UNL A   1      44.712  38.146  31.302  1.00  0.00    -0.237 OA
ATOM     65  O   UNL A   1      43.346  37.647  33.293  1.00  0.00    -0.744 OA
ENDBRANCH  61  62
ENDBRANCH  42  56
BRANCH  43  66
ATOM     66  C   UNL A   1      42.788  23.704  27.751  1.00  0.00    -0.014 A 
ATOM     67  C   UNL A   1      42.590  22.614  28.614  1.00  0.00     0.010 A 
ATOM     68  C   UNL A   1      42.766  23.486  26.359  1.00  0.00     0.010 A 
ATOM     69  C   UNL A   1      42.384  21.331  28.099  1.00  0.00     0.020 A 
ATOM     70  C   UNL A   1      42.527  22.212  25.840  1.00  0.00     0.020 A 
ATOM     71  C   UNL A   1      42.349  21.138  26.714  1.00  0.00     0.054 A 
BRANCH  71  72
ATOM     72  S   UNL A   1      42.019  19.477  26.065  1.00  0.00     0.124 S 
ATOM     73  O   UNL A   1      40.574  19.512  25.865  1.00  0.00    -0.237 OA
ATOM     74  O   UNL A   1      42.826  19.446  24.848  1.00  0.00    -0.237 OA
ATOM     75  O   UNL A   1      42.482  18.594  27.133  1.00  0.00    -0.744 OA
ENDBRANCH  71  72
ENDBRANCH  43  66
BRANCH  55  76
ATOM     76  C   UNL A   1      48.388  27.434  29.607  1.00  0.00    -0.014 A 
ATOM     77  C   UNL A   1      49.248  27.690  28.525  1.00  0.00     0.010 A 
ATOM     78  C   UNL A   1      48.922  26.942  30.811  1.00  0.00     0.010 A 
ATOM     79  C   UNL A   1      50.619  27.445  28.644  1.00  0.00     0.020 A 
ATOM     80  C   UNL A   1      50.294  26.717  30.941  1.00  0.00     0.020 A 
ATOM     81  C   UNL A   1      51.133  26.964  29.854  1.00  0.00     0.054 A 
BRANCH  81  82
ATOM     82  S   UNL A   1      52.924  26.724  30.008  1.00  0.00     0.124 S 
ATOM     83  O   UNL A   1      53.279  26.219  28.686  1.00  0.00    -0.237 OA
ATOM     84  O   UNL A   1      53.402  28.070  30.317  1.00  0.00    -0.237 OA
ATOM     85  O   UNL A   1      53.052  25.760  31.099  1.00  0.00    -0.744 OA
ENDBRANCH  81  82
ENDBRANCH  55  76
ENDBRANCH  29  30
ENDBRANCH  22  24
ENDBRANCH  21  22
ENDBRANCH   1  21
TORSDOF 16
ENDMDL
MODEL 2
REMARK VINA RESULT:      -9.9      5.282     10.186
REMARK SMILES Cn1ccnc(N[C@H]2C=C[C@H](C(=O)OCCOC(=O)c3ccc(-c4c5nc(c(-c6ccc(S(=O)(=O)[O-])cc6)c6ccc([nH]6)c(-c6ccc(S(=O)(=O)[O-])cc6)c6nc(c(-c7ccc(S(=O)(=O)[O-])cc7)c7ccc4[nH]7)C=C6)C=C5)cc3)C2)c1=O
REMARK SMILES IDX 16 1 15 2 14 3 12 4 13 5 11 6 8 7 9 8 80 9 10 10 7 11 6 13
REMARK SMILES IDX 1 14 2 15 3 16 81 17 4 18 82 19 5 20 17 21 18 22 19 23 20 24
REMARK SMILES IDX 21 25 79 26 22 27 78 28 23 29 24 30 25 31 72 32 26 33 77 34
REMARK SMILES IDX 71 35 73 36 27 37 76 38 70 39 69 40 28 42 58 43 39 44 57 45
REMARK SMILES IDX 40 46 43 47 56 48 74 49 41 50 42 51 55 53 75 54 44 55 29 56
REMARK SMILES IDX 30 57 38 58 31 59 37 60 32 61 33 62 34 63 35 64 36 65 59 66
REMARK SMILES IDX 60 67 68 68 61 69 67 70 62 71 63 72 64 73 65 74 66 75 45 76
REMARK SMILES IDX 46 77 54 78 47 79 53 80 48 81 49 82 50 83 51 84 52 85
REMARK H PARENT 7 12 73 41 43 52
REMARK Flexibility Score: inf
ROOT
ATOM      1  C   UNL A   1      40.264  23.320  26.435  1.00  0.00     0.275 C 
ENDROOT
BRANCH   1   2
ATOM      2  C   UNL A   1      39.201  22.234  26.614  1.00  0.00     0.274 C 
BRANCH   2   3
ATOM      3  O   UNL A   1      38.557  21.911  25.367  1.00  0.00    -0.462 OA
BRANCH   3   4
ATOM      4  C   UNL A   1      37.195  21.969  25.355  1.00  0.00     0.312 C 
ATOM      5  O   UNL A   1      36.456  21.100  25.801  1.00  0.00    -0.252 OA
BRANCH   4   6
ATOM      6  C   UNL A   1      36.711  23.252  24.692  1.00  0.00     0.124 C 
ATOM      7  C   UNL A   1      34.317  23.126  24.268  1.00  0.00     0.105 C 
ATOM      8  C   UNL A   1      35.092  22.927  23.012  1.00  0.00    -0.006 C 
ATOM      9  C   UNL A   1      35.348  23.696  25.246  1.00  0.00     0.048 C 
ATOM     10  C   UNL A   1      36.410  22.988  23.243  1.00  0.00    -0.014 C 
BRANCH   7  11
ATOM     11  N   UNL A   1      33.149  23.933  24.051  1.00  0.00    -0.359 N 
ATOM     12  H   UNL A   1      32.338  23.419  23.834  1.00  0.00     0.162 HD
BRANCH  11  13
ATOM     13  C   UNL A   1      32.958  25.294  24.092  1.00  0.00     0.193 A 
ATOM     14  C   UNL A   1      34.035  28.556  22.413  1.00  0.00     0.153 C 
ATOM     15  N   UNL A   1      33.426  27.607  23.318  1.00  0.00    -0.314 N 
ATOM     16  C   UNL A   1      32.902  28.006  24.523  1.00  0.00     0.109 A 
ATOM     17  C   UNL A   1      33.376  26.269  22.943  1.00  0.00     0.293 A 
ATOM     18  C   UNL A   1      32.385  27.111  25.371  1.00  0.00     0.131 A 
ATOM     19  O   UNL A   1      33.641  25.867  21.818  1.00  0.00    -0.265 OA
ATOM     20  N   UNL A   1      32.423  25.754  25.199  1.00  0.00    -0.233 NA
ENDBRANCH  11  13
ENDBRANCH   7  11
ENDBRANCH   4   6
ENDBRANCH   3   4
ENDBRANCH   2   3
ENDBRANCH   1   2
BRANCH   1  21
ATOM     21  O   UNL A   1      39.677  24.631  26.338  1.00  0.00    -0.458 OA
BRANCH  21  22
ATOM     22  C   UNL A   1      40.570  25.646  26.311  1.00  0.00     0.338 C 
ATOM     23  O   UNL A   1      41.167  26.079  25.340  1.00  0.00    -0.246 OA
BRANCH  22  24
ATOM     24  C   UNL A   1      40.692  26.258  27.639  1.00  0.00     0.060 A 
ATOM     25  C   UNL A   1      39.736  25.931  28.597  1.00  0.00     0.016 A 
ATOM     26  C   UNL A   1      41.594  27.292  27.870  1.00  0.00     0.016 A 
ATOM     27  C   UNL A   1      39.575  26.731  29.721  1.00  0.00     0.010 A 
ATOM     28  C   UNL A   1      41.511  28.014  29.067  1.00  0.00     0.010 A 
ATOM     29  C   UNL A   1      40.470  27.775  29.985  1.00  0.00    -0.014 A 
BRANCH  29  30
ATOM     30  C   UNL A   1      40.306  28.629  31.196  1.00  0.00     0.031 A 
ATOM     31  C   UNL A   1      39.257  29.713  31.218  1.00  0.00     0.074 A 
ATOM     32  C   UNL A   1      41.093  28.446  32.277  1.00  0.00     0.049 A 
ATOM     33  N   UNL A   1      39.116  30.711  32.052  1.00  0.00    -0.248 NA
ATOM     34  C   UNL A   1      38.244  29.681  30.150  1.00  0.00     0.031 C 
ATOM     35  C   UNL A   1      42.103  27.395  32.430  1.00  0.00     0.029 A 
ATOM     36  N   UNL A   1      41.168  29.145  33.458  1.00  0.00    -0.354 N 
ATOM     37  C   UNL A   1      38.049  31.463  31.570  1.00  0.00     0.074 A 
ATOM     38  C   UNL A   1      37.575  30.803  30.373  1.00  0.00     0.031 C 
ATOM     39  C   UNL A   1      42.667  27.496  33.642  1.00  0.00     0.029 A 
ATOM     40  C   UNL A   1      42.145  28.681  34.308  1.00  0.00     0.049 A 
ATOM     41  H   UNL A   1      40.579  29.903  33.674  1.00  0.00     0.167 HD
ATOM     42  C   UNL A   1      37.522  32.605  32.077  1.00  0.00     0.031 A 
ATOM     43  C   UNL A   1      42.619  29.180  35.466  1.00  0.00     0.031 A 
ATOM     44  C   UNL A   1      37.972  33.223  33.297  1.00  0.00     0.049 A 
ATOM     45  C   UNL A   1      42.049  30.468  35.990  1.00  0.00     0.074 A 
ATOM     46  C   UNL A   1      37.506  34.378  33.900  1.00  0.00     0.029 A 
ATOM     47  N   UNL A   1      38.976  32.724  34.114  1.00  0.00    -0.354 N 
ATOM     48  N   UNL A   1      41.097  31.211  35.481  1.00  0.00    -0.248 NA
ATOM     49  C   UNL A   1      42.630  30.994  37.233  1.00  0.00     0.031 C 
ATOM     50  C   UNL A   1      38.255  34.599  35.060  1.00  0.00     0.029 A 
ATOM     51  C   UNL A   1      39.149  33.551  35.210  1.00  0.00     0.049 A 
ATOM     52  H   UNL A   1      39.490  31.902  33.939  1.00  0.00     0.167 HD
ATOM     53  C   UNL A   1      40.944  32.279  36.356  1.00  0.00     0.074 A 
ATOM     54  C   UNL A   1      41.897  32.082  37.429  1.00  0.00     0.031 C 
ATOM     55  C   UNL A   1      40.089  33.328  36.278  1.00  0.00     0.031 A 
BRANCH  42  56
ATOM     56  C   UNL A   1      36.434  33.290  31.290  1.00  0.00    -0.014 A 
ATOM     57  C   UNL A   1      35.138  33.455  31.807  1.00  0.00     0.010 A 
ATOM     58  C   UNL A   1      36.734  33.818  30.020  1.00  0.00     0.010 A 
ATOM     59  C   UNL A   1      34.151  34.097  31.051  1.00  0.00     0.020 A 
ATOM     60  C   UNL A   1      35.760  34.485  29.272  1.00  0.00     0.020 A 
ATOM     61  C   UNL A   1      34.468  34.604  29.786  1.00  0.00     0.054 A 
BRANCH  61  62
ATOM     62  S   UNL A   1      33.174  35.445  28.832  1.00  0.00     0.124 S 
ATOM     63  O   UNL A   1      33.956  36.368  28.012  1.00  0.00    -0.237 OA
ATOM     64  O   UNL A   1      32.542  34.345  28.107  1.00  0.00    -0.237 OA
ATOM     65  O   UNL A   1      32.341  36.074  29.854  1.00  0.00    -0.744 OA
ENDBRANCH  61  62
ENDBRANCH  42  56
BRANCH  43  66
ATOM     66  C   UNL A   1      43.732  28.487  36.171  1.00  0.00    -0.014 A 
ATOM     67  C   UNL A   1      43.480  27.378  36.994  1.00  0.00     0.010 A 
ATOM     68  C   UNL A   1      45.062  28.917  35.992  1.00  0.00     0.010 A 
ATOM     69  C   UNL A   1      44.533  26.716  37.633  1.00  0.00     0.020 A 
ATOM     70  C   UNL A   1      46.119  28.239  36.601  1.00  0.00     0.020 A 
ATOM     71  C   UNL A   1      45.847  27.148  37.429  1.00  0.00     0.054 A 
BRANCH  71  72
ATOM     72  S   UNL A   1      47.204  26.239  38.218  1.00  0.00     0.124 S 
ATOM     73  O   UNL A   1      48.173  27.301  38.471  1.00  0.00    -0.237 OA
ATOM     74  O   UNL A   1      46.561  25.673  39.401  1.00  0.00    -0.237 OA
ATOM     75  O   UNL A   1      47.596  25.263  37.203  1.00  0.00    -0.744 OA
ENDBRANCH  71  72
ENDBRANCH  43  66
BRANCH  55  76
ATOM     76  C   UNL A   1      40.093  34.313  37.414  1.00  0.00    -0.014 A 
ATOM     77  C   UNL A   1      40.875  35.480  37.367  1.00  0.00     0.010 A 
ATOM     78  C   UNL A   1      39.235  34.101  38.507  1.00  0.00     0.010 A 
ATOM     79  C   UNL A   1      40.806  36.414  38.405  1.00  0.00     0.020 A 
ATOM     80  C   UNL A   1      39.146  35.042  39.534  1.00  0.00     0.020 A 
ATOM     81  C   UNL A   1      39.938  36.190  39.479  1.00  0.00     0.054 A 
BRANCH  81  82
ATOM     82  S   UNL A   1      39.812  37.452  40.777  1.00  0.00     0.124 S 
ATOM     83  O   UNL A   1      41.210  37.814  40.987  1.00  0.00    -0.237 OA
ATOM     84  O   UNL A   1      38.984  38.477  40.147  1.00  0.00    -0.237 OA
ATOM     85  O   UNL A   1      39.177  36.744  41.887  1.00  0.00    -0.744 OA
ENDBRANCH  81  82
ENDBRANCH  55  76
ENDBRANCH  29  30
ENDBRANCH  22  24
ENDBRANCH  21  22
ENDBRANCH   1  21
TORSDOF 16
ENDMDL
MODEL 3
REMARK VINA RESULT:      -9.8      1.308      2.065
REMARK SMILES Cn1ccnc(N[C@H]2C=C[C@H](C(=O)OCCOC(=O)c3ccc(-c4c5nc(c(-c6ccc(S(=O)(=O)[O-])cc6)c6ccc([nH]6)c(-c6ccc(S(=O)(=O)[O-])cc6)c6nc(c(-c7ccc(S(=O)(=O)[O-])cc7)c7ccc4[nH]7)C=C6)C=C5)cc3)C2)c1=O
REMARK SMILES IDX 16 1 15 2 14 3 12 4 13 5 11 6 8 7 9 8 80 9 10 10 7 11 6 13
REMARK SMILES IDX 1 14 2 15 3 16 81 17 4 18 82 19 5 20 17 21 18 22 19 23 20 24
REMARK SMILES IDX 21 25 79 26 22 27 78 28 23 29 24 30 25 31 72 32 26 33 77 34
REMARK SMILES IDX 71 35 73 36 27 37 76 38 70 39 69 40 28 42 58 43 39 44 57 45
REMARK SMILES IDX 40 46 43 47 56 48 74 49 41 50 42 51 55 53 75 54 44 55 29 56
REMARK SMILES IDX 30 57 38 58 31 59 37 60 32 61 33 62 34 63 35 64 36 65 59 66
REMARK SMILES IDX 60 67 68 68 61 69 67 70 62 71 63 72 64 73 65 74 66 75 45 76
REMARK SMILES IDX 46 77 54 78 47 79 53 80 48 81 49 82 50 83 51 84 52 85
REMARK H PARENT 7 12 73 41 43 52
REMARK Flexibility Score: inf
ROOT
ATOM      1  C   UNL A   1      33.496  29.122  25.752  1.00  0.00     0.275 C 
ENDROOT
BRANCH   1   2
ATOM      2  C   UNL A   1      33.958  28.400  24.484  1.00  0.00     0.274 C 
BRANCH   2   3
ATOM      3  O   UNL A   1      33.022  27.383  24.081  1.00  0.00    -0.462 OA
BRANCH   3   4
ATOM      4  C   UNL A   1      33.536  26.140  23.861  1.00  0.00     0.312 C 
ATOM      5  O   UNL A   1      33.538  25.566  22.778  1.00  0.00    -0.252 OA
BRANCH   4   6
ATOM      6  C   UNL A   1      34.090  25.545  25.149  1.00  0.00     0.124 C 
ATOM      7  C   UNL A   1      33.789  23.129  25.156  1.00  0.00     0.105 C 
ATOM      8  C   UNL A   1      32.797  23.792  26.047  1.00  0.00    -0.006 C 
ATOM      9  C   UNL A   1      34.828  24.222  24.891  1.00  0.00     0.048 C 
ATOM     10  C   UNL A   1      32.954  25.123  26.039  1.00  0.00    -0.014 C 
BRANCH   7  11
ATOM     11  N   UNL A   1      34.293  21.914  25.733  1.00  0.00    -0.359 N 
ATOM     12  H   UNL A   1      34.638  22.015  26.649  1.00  0.00     0.162 HD
BRANCH  11  13
ATOM     13  C   UNL A   1      34.380  20.634  25.236  1.00  0.00     0.193 A 
ATOM     14  C   UNL A   1      32.441  17.350  24.969  1.00  0.00     0.153 C 
ATOM     15  N   UNL A   1      33.490  18.343  24.890  1.00  0.00    -0.314 N 
ATOM     16  C   UNL A   1      34.792  17.984  24.645  1.00  0.00     0.109 A 
ATOM     17  C   UNL A   1      33.153  19.681  25.064  1.00  0.00     0.293 A 
ATOM     18  C   UNL A   1      35.760  18.907  24.621  1.00  0.00     0.131 A 
ATOM     19  O   UNL A   1      32.002  20.095  25.091  1.00  0.00    -0.265 OA
ATOM     20  N   UNL A   1      35.592  20.227  24.939  1.00  0.00    -0.233 NA
ENDBRANCH  11  13
ENDBRANCH   7  11
ENDBRANCH   4   6
ENDBRANCH   3   4
ENDBRANCH   2   3
ENDBRANCH   1   2
BRANCH   1  21
ATOM     21  O   UNL A   1      34.388  28.884  26.857  1.00  0.00    -0.458 OA
BRANCH  21  22
ATOM     22  C   UNL A   1      34.643  29.972  27.617  1.00  0.00     0.338 C 
ATOM     23  O   UNL A   1      33.872  30.873  27.900  1.00  0.00    -0.246 OA
BRANCH  22  24
ATOM     24  C   UNL A   1      36.003  29.908  28.165  1.00  0.00     0.060 A 
ATOM     25  C   UNL A   1      37.067  30.107  27.290  1.00  0.00     0.016 A 
ATOM     26  C   UNL A   1      36.232  29.450  29.459  1.00  0.00     0.016 A 
ATOM     27  C   UNL A   1      38.347  29.703  27.648  1.00  0.00     0.010 A 
ATOM     28  C   UNL A   1      37.543  29.168  29.860  1.00  0.00     0.010 A 
ATOM     29  C   UNL A   1      38.611  29.245  28.945  1.00  0.00    -0.014 A 
BRANCH  29  30
ATOM     30  C   UNL A   1      39.987  28.821  29.336  1.00  0.00     0.031 A 
ATOM     31  C   UNL A   1      40.877  29.766  30.104  1.00  0.00     0.074 A 
ATOM     32  C   UNL A   1      40.448  27.597  29.005  1.00  0.00     0.049 A 
ATOM     33  N   UNL A   1      42.165  29.696  30.320  1.00  0.00    -0.248 NA
ATOM     34  C   UNL A   1      40.238  30.957  30.689  1.00  0.00     0.031 C 
ATOM     35  C   UNL A   1      39.680  26.550  28.327  1.00  0.00     0.029 A 
ATOM     36  N   UNL A   1      41.682  27.024  29.196  1.00  0.00    -0.354 N 
ATOM     37  C   UNL A   1      42.502  30.863  31.000  1.00  0.00     0.074 A 
ATOM     38  C   UNL A   1      41.281  31.622  31.165  1.00  0.00     0.031 C 
ATOM     39  C   UNL A   1      40.443  25.457  28.190  1.00  0.00     0.029 A 
ATOM     40  C   UNL A   1      41.786  25.758  28.667  1.00  0.00     0.049 A 
ATOM     41  H   UNL A   1      42.419  27.475  29.666  1.00  0.00     0.167 HD
ATOM     42  C   UNL A   1      43.721  31.266  31.436  1.00  0.00     0.031 A 
ATOM     43  C   UNL A   1      42.851  24.947  28.520  1.00  0.00     0.031 A 
ATOM     44  C   UNL A   1      44.919  30.478  31.308  1.00  0.00     0.049 A 
ATOM     45  C   UNL A   1      44.201  25.428  28.973  1.00  0.00     0.074 A 
ATOM     46  C   UNL A   1      46.204  30.791  31.718  1.00  0.00     0.029 A 
ATOM     47  N   UNL A   1      44.977  29.209  30.750  1.00  0.00    -0.354 N 
ATOM     48  N   UNL A   1      44.518  26.567  29.540  1.00  0.00    -0.248 NA
ATOM     49  C   UNL A   1      45.337  24.525  28.751  1.00  0.00     0.031 C 
ATOM     50  C   UNL A   1      47.044  29.729  31.371  1.00  0.00     0.029 A 
ATOM     51  C   UNL A   1      46.273  28.730  30.798  1.00  0.00     0.049 A 
ATOM     52  H   UNL A   1      44.207  28.722  30.375  1.00  0.00     0.167 HD
ATOM     53  C   UNL A   1      45.887  26.506  29.767  1.00  0.00     0.074 A 
ATOM     54  C   UNL A   1      46.336  25.217  29.283  1.00  0.00     0.031 C 
ATOM     55  C   UNL A   1      46.698  27.436  30.328  1.00  0.00     0.031 A 
BRANCH  42  56
ATOM     56  C   UNL A   1      43.833  32.640  32.046  1.00  0.00    -0.014 A 
ATOM     57  C   UNL A   1      43.980  33.792  31.255  1.00  0.00     0.010 A 
ATOM     58  C   UNL A   1      43.748  32.779  33.444  1.00  0.00     0.010 A 
ATOM     59  C   UNL A   1      44.080  35.053  31.853  1.00  0.00     0.020 A 
ATOM     60  C   UNL A   1      43.819  34.039  34.045  1.00  0.00     0.020 A 
ATOM     61  C   UNL A   1      44.003  35.168  33.245  1.00  0.00     0.054 A 
BRANCH  61  62
ATOM     62  S   UNL A   1      44.122  36.815  33.995  1.00  0.00     0.124 S 
ATOM     63  O   UNL A   1      45.097  37.471  33.126  1.00  0.00    -0.237 OA
ATOM     64  O   UNL A   1      42.753  37.316  33.891  1.00  0.00    -0.237 OA
ATOM     65  O   UNL A   1      44.582  36.547  35.355  1.00  0.00    -0.744 OA
ENDBRANCH  61  62
ENDBRANCH  42  56
BRANCH  43  66
ATOM     66  C   UNL A   1      42.688  23.622  27.860  1.00  0.00    -0.014 A 
ATOM     67  C   UNL A   1      42.909  23.476  26.481  1.00  0.00     0.010 A 
ATOM     68  C   UNL A   1      42.340  22.488  28.621  1.00  0.00     0.010 A 
ATOM     69  C   UNL A   1      42.778  22.224  25.873  1.00  0.00     0.020 A 
ATOM     70  C   UNL A   1      42.241  21.231  28.023  1.00  0.00     0.020 A 
ATOM     71  C   UNL A   1      42.449  21.108  26.648  1.00  0.00     0.054 A 
BRANCH  71  72
ATOM     72  S   UNL A   1      42.344  19.482  25.850  1.00  0.00     0.124 S 
ATOM     73  O   UNL A   1      43.318  19.611  24.771  1.00  0.00    -0.237 OA
ATOM     74  O   UNL A   1      42.714  18.573  26.932  1.00  0.00    -0.237 OA
ATOM     75  O   UNL A   1      40.948  19.399  25.427  1.00  0.00    -0.744 OA
ENDBRANCH  71  72
ENDBRANCH  43  66
BRANCH  55  76
ATOM     76  C   UNL A   1      48.145  27.072  30.515  1.00  0.00    -0.014 A 
ATOM     77  C   UNL A   1      49.093  27.305  29.503  1.00  0.00     0.010 A 
ATOM     78  C   UNL A   1      48.570  26.566  31.756  1.00  0.00     0.010 A 
ATOM     79  C   UNL A   1      50.443  27.022  29.728  1.00  0.00     0.020 A 
ATOM     80  C   UNL A   1      49.921  26.305  31.992  1.00  0.00     0.020 A 
ATOM     81  C   UNL A   1      50.849  26.529  30.973  1.00  0.00     0.054 A 
BRANCH  81  82
ATOM     82  S   UNL A   1      52.615  26.242  31.266  1.00  0.00     0.124 S 
ATOM     83  O   UNL A   1      53.164  26.311  29.915  1.00  0.00    -0.237 OA
ATOM     84  O   UNL A   1      52.978  27.347  32.150  1.00  0.00    -0.237 OA
ATOM     85  O   UNL A   1      52.653  24.919  31.887  1.00  0.00    -0.744 OA
ENDBRANCH  81  82
ENDBRANCH  55  76
ENDBRANCH  29  30
ENDBRANCH  22  24
ENDBRANCH  21  22
ENDBRANCH   1  21
TORSDOF 16
ENDMDL
