MODEL 1
REMARK VINA RESULT:     -10.1      0.000      0.000
REMARK SMILES Cc1cc(Cl)cc2c1O[C@H](C(F)(F)F)C(C(=O)OCCOC(=O)c1ccc(-c3c4nc(c(-c5ccc(S(=O)(=O)[O-])cc5)c5ccc([nH]5)c(-c5ccc(S(=O)(=O)[O-])cc5)c5nc(c(-c6ccc(S(=O)(=O)[O-])cc6)c6ccc3[nH]6)C=C5)C=C4)cc1)=C2
REMARK SMILES IDX 20 1 19 2 18 3 16 4 17 5 15 6 1 7 2 8 3 9 8 10 4 11 7 12
REMARK SMILES IDX 9 13 5 14 6 15 84 16 10 17 11 18 12 19 13 20 14 21 21 22
REMARK SMILES IDX 22 23 23 24 24 25 25 26 83 27 26 28 82 29 27 30 28 31 29 32
REMARK SMILES IDX 76 33 30 34 81 35 75 36 77 37 31 38 80 39 74 40 73 41 32 43
REMARK SMILES IDX 62 44 43 45 61 46 44 47 47 48 60 49 78 50 45 51 46 52 59 54
REMARK SMILES IDX 79 55 48 56 33 57 34 58 42 59 35 60 41 61 36 62 37 63 38 64
REMARK SMILES IDX 39 65 40 66 63 67 64 68 72 69 65 70 71 71 66 72 67 73 68 74
REMARK SMILES IDX 69 75 70 76 49 77 50 78 58 79 51 80 57 81 52 82 53 83 54 84
REMARK SMILES IDX 55 85 56 86
REMARK H PARENT 77 42 47 53
REMARK Flexibility Score: inf
ROOT
ATOM      1  C   UNL A   1      40.589  19.877  26.356  1.00  0.00     0.275 C 
ENDROOT
BRANCH   1   2
ATOM      2  C   UNL A   1      42.066  19.879  25.956  1.00  0.00     0.275 C 
BRANCH   2   3
ATOM      3  O   UNL A   1      42.814  20.869  26.696  1.00  0.00    -0.459 OA
BRANCH   3   4
ATOM      4  C   UNL A   1      43.168  21.969  25.994  1.00  0.00     0.338 C 
ATOM      5  O   UNL A   1      42.607  22.410  25.004  1.00  0.00    -0.246 OA
BRANCH   4   6
ATOM      6  C   UNL A   1      44.358  22.609  26.583  1.00  0.00     0.087 C 
ATOM      7  C   UNL A   1      48.903  24.963  27.258  1.00  0.00     0.048 C 
ATOM      8  C   UNL A   1      47.577  24.911  27.958  1.00  0.00    -0.007 A 
ATOM      9  C   UNL A   1      47.370  25.762  29.058  1.00  0.00     0.027 A 
ATOM     10  C   UNL A   1      46.529  24.086  27.523  1.00  0.00     0.131 A 
ATOM     11  C   UNL A   1      46.148  25.775  29.726  1.00  0.00     0.042 A 
ATOM     12  C   UNL A   1      45.301  24.120  28.191  1.00  0.00     0.019 A 
ATOM     13  O   UNL A   1      46.764  23.262  26.456  1.00  0.00    -0.475 OA
ATOM     14  Cl  UNL A   1      45.912  26.828  31.064  1.00  0.00    -0.084 Cl
ATOM     15  C   UNL A   1      45.112  24.954  29.299  1.00  0.00     0.032 A 
ATOM     16  C   UNL A   1      44.194  23.328  27.697  1.00  0.00     0.027 C 
ATOM     17  C   UNL A   1      45.653  22.559  25.830  1.00  0.00     0.316 C 
BRANCH  17  18
ATOM     18  C   UNL A   1      45.492  23.079  24.392  1.00  0.00     0.430 C 
ATOM     19  F   UNL A   1      46.684  23.463  23.873  1.00  0.00    -0.167 F 
ATOM     20  F   UNL A   1      45.008  22.120  23.566  1.00  0.00    -0.167 F 
ATOM     21  F   UNL A   1      44.658  24.140  24.318  1.00  0.00    -0.167 F 
ENDBRANCH  17  18
ENDBRANCH   4   6
ENDBRANCH   3   4
ENDBRANCH   2   3
ENDBRANCH   1   2
BRANCH   1  22
ATOM     22  O   UNL A   1      40.283  21.020  27.176  1.00  0.00    -0.458 OA
BRANCH  22  23
ATOM     23  C   UNL A   1      39.479  21.936  26.591  1.00  0.00     0.338 C 
ATOM     24  O   UNL A   1      38.585  21.729  25.788  1.00  0.00    -0.246 OA
BRANCH  23  25
ATOM     25  C   UNL A   1      39.754  23.277  27.128  1.00  0.00     0.060 A 
ATOM     26  C   UNL A   1      39.300  24.375  26.410  1.00  0.00     0.016 A 
ATOM     27  C   UNL A   1      40.645  23.453  28.183  1.00  0.00     0.016 A 
ATOM     28  C   UNL A   1      39.882  25.621  26.608  1.00  0.00     0.010 A 
ATOM     29  C   UNL A   1      41.093  24.744  28.493  1.00  0.00     0.010 A 
ATOM     30  C   UNL A   1      40.769  25.839  27.671  1.00  0.00    -0.014 A 
BRANCH  30  31
ATOM     31  C   UNL A   1      41.362  27.192  27.895  1.00  0.00     0.031 A 
ATOM     32  C   UNL A   1      42.743  27.520  27.373  1.00  0.00     0.074 A 
ATOM     33  C   UNL A   1      40.658  28.145  28.544  1.00  0.00     0.049 A 
ATOM     34  N   UNL A   1      43.492  28.565  27.621  1.00  0.00    -0.248 NA
ATOM     35  C   UNL A   1      43.370  26.544  26.465  1.00  0.00     0.031 C 
ATOM     36  C   UNL A   1      39.289  27.998  29.051  1.00  0.00     0.029 A 
ATOM     37  N   UNL A   1      40.985  29.438  28.873  1.00  0.00    -0.354 N 
ATOM     38  C   UNL A   1      44.692  28.344  26.952  1.00  0.00     0.074 A 
ATOM     39  C   UNL A   1      44.580  27.059  26.298  1.00  0.00     0.031 C 
ATOM     40  C   UNL A   1      38.873  29.168  29.555  1.00  0.00     0.029 A 
ATOM     41  C   UNL A   1      39.981  30.112  29.532  1.00  0.00     0.049 A 
ATOM     42  H   UNL A   1      41.856  29.845  28.659  1.00  0.00     0.167 HD
ATOM     43  C   UNL A   1      45.787  29.142  26.885  1.00  0.00     0.031 A 
ATOM     44  C   UNL A   1      39.956  31.331  30.105  1.00  0.00     0.031 A 
ATOM     45  C   UNL A   1      45.874  30.441  27.502  1.00  0.00     0.049 A 
ATOM     46  C   UNL A   1      41.206  32.162  30.086  1.00  0.00     0.074 A 
ATOM     47  C   UNL A   1      46.938  31.327  27.495  1.00  0.00     0.029 A 
ATOM     48  N   UNL A   1      44.853  31.049  28.219  1.00  0.00    -0.354 N 
ATOM     49  N   UNL A   1      42.356  31.905  29.511  1.00  0.00    -0.248 NA
ATOM     50  C   UNL A   1      41.164  33.436  30.815  1.00  0.00     0.031 C 
ATOM     51  C   UNL A   1      46.580  32.445  28.254  1.00  0.00     0.029 A 
ATOM     52  C   UNL A   1      45.270  32.286  28.678  1.00  0.00     0.049 A 
ATOM     53  H   UNL A   1      43.963  30.658  28.376  1.00  0.00     0.167 HD
ATOM     54  C   UNL A   1      43.172  32.990  29.799  1.00  0.00     0.074 A 
ATOM     55  C   UNL A   1      42.377  33.918  30.577  1.00  0.00     0.031 C 
ATOM     56  C   UNL A   1      44.468  33.196  29.455  1.00  0.00     0.031 A 
BRANCH  43  57
ATOM     57  C   UNL A   1      46.997  28.627  26.147  1.00  0.00    -0.014 A 
ATOM     58  C   UNL A   1      46.918  28.197  24.811  1.00  0.00     0.010 A 
ATOM     59  C   UNL A   1      48.253  28.637  26.785  1.00  0.00     0.010 A 
ATOM     60  C   UNL A   1      48.063  27.759  24.137  1.00  0.00     0.020 A 
ATOM     61  C   UNL A   1      49.406  28.228  26.106  1.00  0.00     0.020 A 
ATOM     62  C   UNL A   1      49.300  27.779  24.789  1.00  0.00     0.054 A 
BRANCH  62  63
ATOM     63  S   UNL A   1      50.772  27.237  23.877  1.00  0.00     0.124 S 
ATOM     64  O   UNL A   1      51.642  28.406  23.986  1.00  0.00    -0.237 OA
ATOM     65  O   UNL A   1      51.201  26.064  24.634  1.00  0.00    -0.237 OA
ATOM     66  O   UNL A   1      50.270  26.960  22.534  1.00  0.00    -0.744 OA
ENDBRANCH  62  63
ENDBRANCH  43  57
BRANCH  44  67
ATOM     67  C   UNL A   1      38.722  31.805  30.790  1.00  0.00    -0.014 A 
ATOM     68  C   UNL A   1      38.469  31.458  32.127  1.00  0.00     0.010 A 
ATOM     69  C   UNL A   1      37.807  32.639  30.116  1.00  0.00     0.010 A 
ATOM     70  C   UNL A   1      37.325  31.933  32.778  1.00  0.00     0.020 A 
ATOM     71  C   UNL A   1      36.681  33.144  30.774  1.00  0.00     0.020 A 
ATOM     72  C   UNL A   1      36.444  32.779  32.099  1.00  0.00     0.054 A 
BRANCH  72  73
ATOM     73  S   UNL A   1      35.001  33.431  32.986  1.00  0.00     0.124 S 
ATOM     74  O   UNL A   1      35.314  33.089  34.369  1.00  0.00    -0.237 OA
ATOM     75  O   UNL A   1      35.049  34.855  32.658  1.00  0.00    -0.237 OA
ATOM     76  O   UNL A   1      33.878  32.702  32.399  1.00  0.00    -0.744 OA
ENDBRANCH  72  73
ENDBRANCH  44  67
BRANCH  56  77
ATOM     77  C   UNL A   1      45.104  34.484  29.901  1.00  0.00    -0.014 A 
ATOM     78  C   UNL A   1      45.111  35.615  29.066  1.00  0.00     0.010 A 
ATOM     79  C   UNL A   1      45.637  34.583  31.199  1.00  0.00     0.010 A 
ATOM     80  C   UNL A   1      45.662  36.818  29.514  1.00  0.00     0.020 A 
ATOM     81  C   UNL A   1      46.162  35.792  31.661  1.00  0.00     0.020 A 
ATOM     82  C   UNL A   1      46.179  36.900  30.811  1.00  0.00     0.054 A 
BRANCH  82  83
ATOM     83  S   UNL A   1      46.835  38.490  31.383  1.00  0.00     0.124 S 
ATOM     84  O   UNL A   1      47.594  38.944  30.221  1.00  0.00    -0.237 OA
ATOM     85  O   UNL A   1      45.621  39.248  31.677  1.00  0.00    -0.237 OA
ATOM     86  O   UNL A   1      47.639  38.135  32.551  1.00  0.00    -0.744 OA
ENDBRANCH  82  83
ENDBRANCH  56  77
ENDBRANCH  30  31
ENDBRANCH  23  25
ENDBRANCH  22  23
ENDBRANCH   1  22
TORSDOF 15
ENDMDL
MODEL 2
REMARK VINA RESULT:     -10.0      4.693     10.513
REMARK SMILES Cc1cc(Cl)cc2c1O[C@H](C(F)(F)F)C(C(=O)OCCOC(=O)c1ccc(-c3c4nc(c(-c5ccc(S(=O)(=O)[O-])cc5)c5ccc([nH]5)c(-c5ccc(S(=O)(=O)[O-])cc5)c5nc(c(-c6ccc(S(=O)(=O)[O-])cc6)c6ccc3[nH]6)C=C5)C=C4)cc1)=C2
REMARK SMILES IDX 20 1 19 2 18 3 16 4 17 5 15 6 1 7 2 8 3 9 8 10 4 11 7 12
REMARK SMILES IDX 9 13 5 14 6 15 84 16 10 17 11 18 12 19 13 20 14 21 21 22
REMARK SMILES IDX 22 23 23 24 24 25 25 26 83 27 26 28 82 29 27 30 28 31 29 32
REMARK SMILES IDX 76 33 30 34 81 35 75 36 77 37 31 38 80 39 74 40 73 41 32 43
REMARK SMILES IDX 62 44 43 45 61 46 44 47 47 48 60 49 78 50 45 51 46 52 59 54
REMARK SMILES IDX 79 55 48 56 33 57 34 58 42 59 35 60 41 61 36 62 37 63 38 64
REMARK SMILES IDX 39 65 40 66 63 67 64 68 72 69 65 70 71 71 66 72 67 73 68 74
REMARK SMILES IDX 69 75 70 76 49 77 50 78 58 79 51 80 57 81 52 82 53 83 54 84
REMARK SMILES IDX 55 85 56 86
REMARK H PARENT 77 42 47 53
REMARK Flexibility Score: inf
ROOT
ATOM      1  C   UNL A   1      32.565  27.981  27.259  1.00  0.00     0.275 C 
ENDROOT
BRANCH   1   2
ATOM      2  C   UNL A   1      31.839  28.088  25.917  1.00  0.00     0.275 C 
BRANCH   2   3
ATOM      3  O   UNL A   1      31.704  26.796  25.283  1.00  0.00    -0.459 OA
BRANCH   3   4
ATOM      4  C   UNL A   1      32.691  26.471  24.417  1.00  0.00     0.338 C 
ATOM      5  O   UNL A   1      33.073  27.139  23.469  1.00  0.00    -0.246 OA
BRANCH   4   6
ATOM      6  C   UNL A   1      33.283  25.165  24.759  1.00  0.00     0.087 C 
ATOM      7  C   UNL A   1      34.526  20.156  24.860  1.00  0.00     0.048 C 
ATOM      8  C   UNL A   1      35.192  21.461  25.183  1.00  0.00    -0.007 A 
ATOM      9  C   UNL A   1      36.554  21.445  25.532  1.00  0.00     0.027 A 
ATOM     10  C   UNL A   1      34.520  22.690  25.098  1.00  0.00     0.131 A 
ATOM     11  C   UNL A   1      37.229  22.631  25.812  1.00  0.00     0.042 A 
ATOM     12  C   UNL A   1      35.212  23.875  25.365  1.00  0.00     0.019 A 
ATOM     13  O   UNL A   1      33.193  22.671  24.765  1.00  0.00    -0.475 OA
ATOM     14  Cl  UNL A   1      38.896  22.592  26.230  1.00  0.00    -0.084 Cl
ATOM     15  C   UNL A   1      36.563  23.847  25.734  1.00  0.00     0.032 A 
ATOM     16  C   UNL A   1      34.543  25.148  25.203  1.00  0.00     0.027 C 
ATOM     17  C   UNL A   1      32.513  23.918  24.446  1.00  0.00     0.316 C 
BRANCH  17  18
ATOM     18  C   UNL A   1      32.078  23.876  22.972  1.00  0.00     0.430 C 
ATOM     19  F   UNL A   1      31.776  22.613  22.586  1.00  0.00    -0.167 F 
ATOM     20  F   UNL A   1      30.964  24.617  22.759  1.00  0.00    -0.167 F 
ATOM     21  F   UNL A   1      33.038  24.335  22.138  1.00  0.00    -0.167 F 
ENDBRANCH  17  18
ENDBRANCH   4   6
ENDBRANCH   3   4
ENDBRANCH   2   3
ENDBRANCH   1   2
BRANCH   1  22
ATOM     22  O   UNL A   1      33.925  28.436  27.140  1.00  0.00    -0.458 OA
BRANCH  22  23
ATOM     23  C   UNL A   1      34.158  29.665  27.652  1.00  0.00     0.338 C 
ATOM     24  O   UNL A   1      33.349  30.563  27.812  1.00  0.00    -0.246 OA
BRANCH  23  25
ATOM     25  C   UNL A   1      35.552  29.776  28.107  1.00  0.00     0.060 A 
ATOM     26  C   UNL A   1      36.524  30.091  27.168  1.00  0.00     0.016 A 
ATOM     27  C   UNL A   1      35.922  29.343  29.377  1.00  0.00     0.016 A 
ATOM     28  C   UNL A   1      37.856  29.786  27.420  1.00  0.00     0.010 A 
ATOM     29  C   UNL A   1      37.283  29.207  29.685  1.00  0.00     0.010 A 
ATOM     30  C   UNL A   1      38.267  29.365  28.691  1.00  0.00    -0.014 A 
BRANCH  30  31
ATOM     31  C   UNL A   1      39.708  29.072  28.961  1.00  0.00     0.031 A 
ATOM     32  C   UNL A   1      40.595  30.114  29.603  1.00  0.00     0.074 A 
ATOM     33  C   UNL A   1      40.225  27.861  28.659  1.00  0.00     0.049 A 
ATOM     34  N   UNL A   1      41.897  30.114  29.749  1.00  0.00    -0.248 NA
ATOM     35  C   UNL A   1      39.940  31.321  30.138  1.00  0.00     0.031 C 
ATOM     36  C   UNL A   1      39.478  26.731  28.094  1.00  0.00     0.029 A 
ATOM     37  N   UNL A   1      41.498  27.364  28.803  1.00  0.00    -0.354 N 
ATOM     38  C   UNL A   1      42.218  31.335  30.335  1.00  0.00     0.074 A 
ATOM     39  C   UNL A   1      40.978  32.059  30.506  1.00  0.00     0.031 C 
ATOM     40  C   UNL A   1      40.283  25.663  28.011  1.00  0.00     0.029 A 
ATOM     41  C   UNL A   1      41.632  26.058  28.387  1.00  0.00     0.049 A 
ATOM     42  H   UNL A   1      42.244  27.892  29.168  1.00  0.00     0.167 HD
ATOM     43  C   UNL A   1      43.435  31.807  30.702  1.00  0.00     0.031 A 
ATOM     44  C   UNL A   1      42.719  25.272  28.266  1.00  0.00     0.031 A 
ATOM     45  C   UNL A   1      44.660  31.060  30.570  1.00  0.00     0.049 A 
ATOM     46  C   UNL A   1      44.064  25.845  28.604  1.00  0.00     0.074 A 
ATOM     47  C   UNL A   1      45.944  31.449  30.910  1.00  0.00     0.029 A 
ATOM     48  N   UNL A   1      44.751  29.766  30.078  1.00  0.00    -0.354 N 
ATOM     49  N   UNL A   1      44.357  27.028  29.087  1.00  0.00    -0.248 NA
ATOM     50  C   UNL A   1      45.230  24.986  28.355  1.00  0.00     0.031 C 
ATOM     51  C   UNL A   1      46.819  30.412  30.571  1.00  0.00     0.029 A 
ATOM     52  C   UNL A   1      46.072  29.352  30.082  1.00  0.00     0.049 A 
ATOM     53  H   UNL A   1      43.989  29.223  29.770  1.00  0.00     0.167 HD
ATOM     54  C   UNL A   1      45.739  27.052  29.212  1.00  0.00     0.074 A 
ATOM     55  C   UNL A   1      46.223  25.757  28.778  1.00  0.00     0.031 C 
ATOM     56  C   UNL A   1      46.538  28.061  29.642  1.00  0.00     0.031 A 
BRANCH  43  57
ATOM     57  C   UNL A   1      43.517  33.209  31.253  1.00  0.00    -0.014 A 
ATOM     58  C   UNL A   1      43.423  33.466  32.631  1.00  0.00     0.010 A 
ATOM     59  C   UNL A   1      43.758  34.284  30.375  1.00  0.00     0.010 A 
ATOM     60  C   UNL A   1      43.540  34.771  33.119  1.00  0.00     0.020 A 
ATOM     61  C   UNL A   1      43.905  35.588  30.861  1.00  0.00     0.020 A 
ATOM     62  C   UNL A   1      43.782  35.824  32.231  1.00  0.00     0.054 A 
BRANCH  62  63
ATOM     63  S   UNL A   1      43.961  37.502  32.898  1.00  0.00     0.124 S 
ATOM     64  O   UNL A   1      42.880  37.553  33.880  1.00  0.00    -0.237 OA
ATOM     65  O   UNL A   1      45.312  37.481  33.453  1.00  0.00    -0.237 OA
ATOM     66  O   UNL A   1      43.781  38.363  31.732  1.00  0.00    -0.744 OA
ENDBRANCH  62  63
ENDBRANCH  43  57
BRANCH  44  67
ATOM     67  C   UNL A   1      42.577  23.882  27.751  1.00  0.00    -0.014 A 
ATOM     68  C   UNL A   1      42.301  22.819  28.628  1.00  0.00     0.010 A 
ATOM     69  C   UNL A   1      42.684  23.617  26.371  1.00  0.00     0.010 A 
ATOM     70  C   UNL A   1      42.135  21.521  28.137  1.00  0.00     0.020 A 
ATOM     71  C   UNL A   1      42.484  22.327  25.872  1.00  0.00     0.020 A 
ATOM     72  C   UNL A   1      42.219  21.284  26.761  1.00  0.00     0.054 A 
BRANCH  72  73
ATOM     73  S   UNL A   1      41.939  19.601  26.144  1.00  0.00     0.124 S 
ATOM     74  O   UNL A   1      40.510  19.620  25.849  1.00  0.00    -0.237 OA
ATOM     75  O   UNL A   1      42.826  19.540  24.985  1.00  0.00    -0.237 OA
ATOM     76  O   UNL A   1      42.335  18.753  27.267  1.00  0.00    -0.744 OA
ENDBRANCH  72  73
ENDBRANCH  44  67
BRANCH  56  77
ATOM     77  C   UNL A   1      48.018  27.800  29.683  1.00  0.00    -0.014 A 
ATOM     78  C   UNL A   1      48.626  27.254  30.826  1.00  0.00     0.010 A 
ATOM     79  C   UNL A   1      48.798  28.039  28.537  1.00  0.00     0.010 A 
ATOM     80  C   UNL A   1      49.994  26.971  30.830  1.00  0.00     0.020 A 
ATOM     81  C   UNL A   1      50.161  27.731  28.527  1.00  0.00     0.020 A 
ATOM     82  C   UNL A   1      50.751  27.207  29.679  1.00  0.00     0.054 A 
BRANCH  82  83
ATOM     83  S   UNL A   1      52.512  26.776  29.696  1.00  0.00     0.124 S 
ATOM     84  O   UNL A   1      53.144  28.082  29.871  1.00  0.00    -0.237 OA
ATOM     85  O   UNL A   1      52.608  25.873  30.840  1.00  0.00    -0.237 OA
ATOM     86  O   UNL A   1      52.730  26.149  28.394  1.00  0.00    -0.744 OA
ENDBRANCH  82  83
ENDBRANCH  56  77
ENDBRANCH  30  31
ENDBRANCH  23  25
ENDBRANCH  22  23
ENDBRANCH   1  22
TORSDOF 15
ENDMDL
MODEL 3
REMARK VINA RESULT:      -9.8      0.657      8.330
REMARK SMILES Cc1cc(Cl)cc2c1O[C@H](C(F)(F)F)C(C(=O)OCCOC(=O)c1ccc(-c3c4nc(c(-c5ccc(S(=O)(=O)[O-])cc5)c5ccc([nH]5)c(-c5ccc(S(=O)(=O)[O-])cc5)c5nc(c(-c6ccc(S(=O)(=O)[O-])cc6)c6ccc3[nH]6)C=C5)C=C4)cc1)=C2
REMARK SMILES IDX 20 1 19 2 18 3 16 4 17 5 15 6 1 7 2 8 3 9 8 10 4 11 7 12
REMARK SMILES IDX 9 13 5 14 6 15 84 16 10 17 11 18 12 19 13 20 14 21 21 22
REMARK SMILES IDX 22 23 23 24 24 25 25 26 83 27 26 28 82 29 27 30 28 31 29 32
REMARK SMILES IDX 76 33 30 34 81 35 75 36 77 37 31 38 80 39 74 40 73 41 32 43
REMARK SMILES IDX 62 44 43 45 61 46 44 47 47 48 60 49 78 50 45 51 46 52 59 54
REMARK SMILES IDX 79 55 48 56 33 57 34 58 42 59 35 60 41 61 36 62 37 63 38 64
REMARK SMILES IDX 39 65 40 66 63 67 64 68 72 69 65 70 71 71 66 72 67 73 68 74
REMARK SMILES IDX 69 75 70 76 49 77 50 78 58 79 51 80 57 81 52 82 53 83 54 84
REMARK SMILES IDX 55 85 56 86
REMARK H PARENT 77 42 47 53
REMARK Flexibility Score: inf
ROOT
ATOM      1  C   UNL A   1      40.409  20.103  26.184  1.00  0.00     0.275 C 
ENDROOT
BRANCH   1   2
ATOM      2  C   UNL A   1      41.918  19.870  26.102  1.00  0.00     0.275 C 
BRANCH   2   3
ATOM      3  O   UNL A   1      42.653  20.903  26.795  1.00  0.00    -0.459 OA
BRANCH   3   4
ATOM      4  C   UNL A   1      43.115  21.906  26.014  1.00  0.00     0.338 C 
ATOM      5  O   UNL A   1      42.636  22.282  24.956  1.00  0.00    -0.246 OA
BRANCH   4   6
ATOM      6  C   UNL A   1      44.315  22.524  26.607  1.00  0.00     0.087 C 
ATOM      7  C   UNL A   1      48.819  24.951  27.298  1.00  0.00     0.048 C 
ATOM      8  C   UNL A   1      47.531  24.788  28.050  1.00  0.00    -0.007 A 
ATOM      9  C   UNL A   1      47.354  25.521  29.237  1.00  0.00     0.027 A 
ATOM     10  C   UNL A   1      46.486  23.974  27.586  1.00  0.00     0.131 A 
ATOM     11  C   UNL A   1      46.167  25.430  29.958  1.00  0.00     0.042 A 
ATOM     12  C   UNL A   1      45.292  23.903  28.310  1.00  0.00     0.019 A 
ATOM     13  O   UNL A   1      46.692  23.266  26.433  1.00  0.00    -0.475 OA
ATOM     14  Cl  UNL A   1      45.968  26.340  31.403  1.00  0.00    -0.084 Cl
ATOM     15  C   UNL A   1      45.135  24.620  29.502  1.00  0.00     0.032 A 
ATOM     16  C   UNL A   1      44.185  23.127  27.793  1.00  0.00     0.027 C 
ATOM     17  C   UNL A   1      45.572  22.591  25.794  1.00  0.00     0.316 C 
BRANCH  17  18
ATOM     18  C   UNL A   1      45.325  23.241  24.423  1.00  0.00     0.430 C 
ATOM     19  F   UNL A   1      46.471  23.748  23.907  1.00  0.00    -0.167 F 
ATOM     20  F   UNL A   1      44.866  22.342  23.518  1.00  0.00    -0.167 F 
ATOM     21  F   UNL A   1      44.428  24.250  24.485  1.00  0.00    -0.167 F 
ENDBRANCH  17  18
ENDBRANCH   4   6
ENDBRANCH   3   4
ENDBRANCH   2   3
ENDBRANCH   1   2
BRANCH   1  22
ATOM     22  O   UNL A   1      40.111  21.203  27.064  1.00  0.00    -0.458 OA
BRANCH  22  23
ATOM     23  C   UNL A   1      39.365  22.185  26.511  1.00  0.00     0.338 C 
ATOM     24  O   UNL A   1      38.451  22.057  25.715  1.00  0.00    -0.246 OA
BRANCH  23  25
ATOM     25  C   UNL A   1      39.734  23.491  27.077  1.00  0.00     0.060 A 
ATOM     26  C   UNL A   1      39.430  24.630  26.345  1.00  0.00     0.016 A 
ATOM     27  C   UNL A   1      40.575  23.576  28.182  1.00  0.00     0.016 A 
ATOM     28  C   UNL A   1      40.115  25.814  26.589  1.00  0.00     0.010 A 
ATOM     29  C   UNL A   1      41.126  24.816  28.532  1.00  0.00     0.010 A 
ATOM     30  C   UNL A   1      40.955  25.941  27.703  1.00  0.00    -0.014 A 
BRANCH  30  31
ATOM     31  C   UNL A   1      41.662  27.230  27.975  1.00  0.00     0.031 A 
ATOM     32  C   UNL A   1      40.979  28.328  28.759  1.00  0.00     0.074 A 
ATOM     33  C   UNL A   1      42.929  27.415  27.546  1.00  0.00     0.049 A 
ATOM     34  N   UNL A   1      41.354  29.569  28.939  1.00  0.00    -0.248 NA
ATOM     35  C   UNL A   1      39.703  27.994  29.415  1.00  0.00     0.031 C 
ATOM     36  C   UNL A   1      43.742  26.425  26.832  1.00  0.00     0.029 A 
ATOM     37  N   UNL A   1      43.770  28.495  27.664  1.00  0.00    -0.354 N 
ATOM     38  C   UNL A   1      40.339  30.175  29.673  1.00  0.00     0.074 A 
ATOM     39  C   UNL A   1      39.322  29.170  29.895  1.00  0.00     0.031 C 
ATOM     40  C   UNL A   1      44.976  26.913  26.644  1.00  0.00     0.029 A 
ATOM     41  C   UNL A   1      45.011  28.295  27.101  1.00  0.00     0.049 A 
ATOM     42  H   UNL A   1      43.510  29.335  28.109  1.00  0.00     0.167 HD
ATOM     43  C   UNL A   1      40.263  31.451  30.126  1.00  0.00     0.031 A 
ATOM     44  C   UNL A   1      46.049  29.133  26.917  1.00  0.00     0.031 A 
ATOM     45  C   UNL A   1      41.300  32.433  29.940  1.00  0.00     0.049 A 
ATOM     46  C   UNL A   1      45.909  30.561  27.356  1.00  0.00     0.074 A 
ATOM     47  C   UNL A   1      41.320  33.752  30.358  1.00  0.00     0.029 A 
ATOM     48  N   UNL A   1      42.509  32.199  29.300  1.00  0.00    -0.354 N 
ATOM     49  N   UNL A   1      44.911  31.135  27.983  1.00  0.00    -0.248 NA
ATOM     50  C   UNL A   1      47.025  31.463  27.039  1.00  0.00     0.031 C 
ATOM     51  C   UNL A   1      42.516  34.331  29.922  1.00  0.00     0.029 A 
ATOM     52  C   UNL A   1      43.270  33.355  29.291  1.00  0.00     0.049 A 
ATOM     53  H   UNL A   1      42.785  31.337  28.911  1.00  0.00     0.167 HD
ATOM     54  C   UNL A   1      45.283  32.462  28.148  1.00  0.00     0.074 A 
ATOM     55  C   UNL A   1      46.607  32.601  27.577  1.00  0.00     0.031 C 
ATOM     56  C   UNL A   1      44.585  33.478  28.715  1.00  0.00     0.031 A 
BRANCH  43  57
ATOM     57  C   UNL A   1      39.005  31.877  30.840  1.00  0.00    -0.014 A 
ATOM     58  C   UNL A   1      38.874  31.764  32.235  1.00  0.00     0.010 A 
ATOM     59  C   UNL A   1      37.957  32.466  30.105  1.00  0.00     0.010 A 
ATOM     60  C   UNL A   1      37.712  32.202  32.877  1.00  0.00     0.020 A 
ATOM     61  C   UNL A   1      36.804  32.932  30.746  1.00  0.00     0.020 A 
ATOM     62  C   UNL A   1      36.684  32.785  32.128  1.00  0.00     0.054 A 
BRANCH  62  63
ATOM     63  S   UNL A   1      35.202  33.373  32.994  1.00  0.00     0.124 S 
ATOM     64  O   UNL A   1      35.188  34.791  32.640  1.00  0.00    -0.237 OA
ATOM     65  O   UNL A   1      34.142  32.567  32.395  1.00  0.00    -0.237 OA
ATOM     66  O   UNL A   1      35.481  33.088  34.399  1.00  0.00    -0.744 OA
ENDBRANCH  62  63
ENDBRANCH  43  57
BRANCH  44  67
ATOM     67  C   UNL A   1      47.283  28.649  26.237  1.00  0.00    -0.014 A 
ATOM     68  C   UNL A   1      47.231  28.170  24.918  1.00  0.00     0.010 A 
ATOM     69  C   UNL A   1      48.527  28.698  26.897  1.00  0.00     0.010 A 
ATOM     70  C   UNL A   1      48.397  27.748  24.272  1.00  0.00     0.020 A 
ATOM     71  C   UNL A   1      49.700  28.310  26.243  1.00  0.00     0.020 A 
ATOM     72  C   UNL A   1      49.625  27.829  24.935  1.00  0.00     0.054 A 
BRANCH  72  73
ATOM     73  S   UNL A   1      51.131  27.334  24.053  1.00  0.00     0.124 S 
ATOM     74  O   UNL A   1      50.614  27.011  22.727  1.00  0.00    -0.237 OA
ATOM     75  O   UNL A   1      51.954  28.538  24.137  1.00  0.00    -0.237 OA
ATOM     76  O   UNL A   1      51.624  26.195  24.825  1.00  0.00    -0.744 OA
ENDBRANCH  72  73
ENDBRANCH  44  67
BRANCH  56  77
ATOM     77  C   UNL A   1      45.248  34.827  28.764  1.00  0.00    -0.014 A 
ATOM     78  C   UNL A   1      45.052  35.767  27.738  1.00  0.00     0.010 A 
ATOM     79  C   UNL A   1      46.018  35.183  29.885  1.00  0.00     0.010 A 
ATOM     80  C   UNL A   1      45.634  37.034  27.822  1.00  0.00     0.020 A 
ATOM     81  C   UNL A   1      46.578  36.459  29.988  1.00  0.00     0.020 A 
ATOM     82  C   UNL A   1      46.389  37.373  28.949  1.00  0.00     0.054 A 
BRANCH  82  83
ATOM     83  S   UNL A   1      47.084  39.044  29.057  1.00  0.00     0.124 S 
ATOM     84  O   UNL A   1      48.197  38.973  28.113  1.00  0.00    -0.237 OA
ATOM     85  O   UNL A   1      45.961  39.883  28.644  1.00  0.00    -0.237 OA
ATOM     86  O   UNL A   1      47.467  39.172  30.461  1.00  0.00    -0.744 OA
ENDBRANCH  82  83
ENDBRANCH  56  77
ENDBRANCH  30  31
ENDBRANCH  23  25
ENDBRANCH  22  23
ENDBRANCH   1  22
TORSDOF 15
ENDMDL
