MODEL 1
REMARK VINA RESULT:     -10.9      0.000      0.000
REMARK SMILES CC[C@](O)(C(=O)OCCOC(=O)c1ccc(-c2c3nc(c(-c4ccc(S(=O)(=O)[O-])cc4)c4ccc([nH]4)c(-c4ccc(S(=O)(=O)[O-])cc4)c4nc(c(-c5ccc(S(=O)(=O)[O-])cc5)c5ccc2[nH]5)C=C4)C=C3)cc1)[C@@H](C)c1ccc2c(c1)OCCO2
REMARK SMILES IDX 9 1 8 2 7 3 5 4 6 5 3 6 2 7 1 8 73 9 74 10 75 11 76 12 80 13
REMARK SMILES IDX 77 14 79 15 78 16 81 17 84 18 82 19 83 20 4 21 10 23 11 24
REMARK SMILES IDX 12 25 13 26 14 27 72 28 15 29 71 30 16 31 17 32 18 33 65 34
REMARK SMILES IDX 19 35 70 36 64 37 66 38 20 39 69 40 63 41 62 42 21 44 51 45
REMARK SMILES IDX 32 46 50 47 33 48 36 49 49 50 67 51 34 52 35 53 48 55 68 56
REMARK SMILES IDX 37 57 22 58 23 59 31 60 24 61 30 62 25 63 26 64 27 65 28 66
REMARK SMILES IDX 29 67 52 68 53 69 61 70 54 71 60 72 55 73 56 74 57 75 58 76
REMARK SMILES IDX 59 77 38 78 39 79 47 80 40 81 46 82 41 83 42 84 43 85 44 86
REMARK SMILES IDX 45 87
REMARK H PARENT 4 22 66 43 36 54
REMARK Flexibility Score: inf
ROOT
ATOM      1  C   UNL A   1      33.198  30.379  26.467  1.00  0.00     0.275 C 
ENDROOT
BRANCH   1   2
ATOM      2  C   UNL A   1      31.980  29.547  26.074  1.00  0.00     0.274 C 
BRANCH   2   3
ATOM      3  O   UNL A   1      32.370  28.258  25.548  1.00  0.00    -0.460 OA
BRANCH   3   4
ATOM      4  C   UNL A   1      31.747  27.199  26.144  1.00  0.00     0.338 C 
ATOM      5  O   UNL A   1      31.074  27.281  27.166  1.00  0.00    -0.249 OA
BRANCH   4   6
ATOM      6  C   UNL A   1      32.009  25.854  25.392  1.00  0.00     0.168 C 
BRANCH   6   7
ATOM      7  C   UNL A   1      31.048  24.887  26.146  1.00  0.00     0.044 C 
ATOM      8  C   UNL A   1      31.629  23.691  26.887  1.00  0.00     0.007 C 
ENDBRANCH   6   7
BRANCH   6   9
ATOM      9  C   UNL A   1      31.700  26.154  23.879  1.00  0.00     0.059 C 
ATOM     10  C   UNL A   1      31.919  24.935  22.968  1.00  0.00     0.016 C 
BRANCH   9  11
ATOM     11  C   UNL A   1      30.399  26.832  23.486  1.00  0.00    -0.038 A 
ATOM     12  C   UNL A   1      29.137  26.450  23.945  1.00  0.00     0.008 A 
ATOM     13  C   UNL A   1      30.480  27.940  22.621  1.00  0.00     0.054 A 
ATOM     14  C   UNL A   1      28.030  27.284  23.735  1.00  0.00     0.051 A 
ATOM     15  C   UNL A   1      29.387  28.764  22.402  1.00  0.00     0.161 A 
ATOM     16  C   UNL A   1      28.177  28.475  23.027  1.00  0.00     0.161 A 
ATOM     17  O   UNL A   1      29.612  29.876  21.636  1.00  0.00    -0.486 OA
ATOM     18  O   UNL A   1      27.123  29.355  23.017  1.00  0.00    -0.486 OA
ATOM     19  C   UNL A   1      28.448  30.697  21.500  1.00  0.00     0.271 C 
ATOM     20  C   UNL A   1      27.622  30.683  22.777  1.00  0.00     0.271 C 
ENDBRANCH   9  11
ENDBRANCH   6   9
BRANCH   6  21
ATOM     21  O   UNL A   1      33.350  25.389  25.560  1.00  0.00    -0.378 OA
ATOM     22  H   UNL A   1      33.815  25.961  26.191  1.00  0.00     0.212 HD
ENDBRANCH   6  21
ENDBRANCH   4   6
ENDBRANCH   3   4
ENDBRANCH   2   3
ENDBRANCH   1   2
BRANCH   1  23
ATOM     23  O   UNL A   1      33.792  29.837  27.657  1.00  0.00    -0.458 OA
BRANCH  23  24
ATOM     24  C   UNL A   1      34.583  30.683  28.362  1.00  0.00     0.338 C 
ATOM     25  O   UNL A   1      34.240  31.745  28.853  1.00  0.00    -0.246 OA
BRANCH  24  26
ATOM     26  C   UNL A   1      35.951  30.124  28.501  1.00  0.00     0.060 A 
ATOM     27  C   UNL A   1      36.426  29.641  29.720  1.00  0.00     0.016 A 
ATOM     28  C   UNL A   1      36.813  30.161  27.403  1.00  0.00     0.016 A 
ATOM     29  C   UNL A   1      37.773  29.301  29.869  1.00  0.00     0.010 A 
ATOM     30  C   UNL A   1      38.136  29.720  27.531  1.00  0.00     0.010 A 
ATOM     31  C   UNL A   1      38.650  29.319  28.776  1.00  0.00    -0.014 A 
BRANCH  31  32
ATOM     32  C   UNL A   1      40.092  28.942  28.918  1.00  0.00     0.031 A 
ATOM     33  C   UNL A   1      41.102  29.963  29.390  1.00  0.00     0.074 A 
ATOM     34  C   UNL A   1      40.524  27.703  28.603  1.00  0.00     0.049 A 
ATOM     35  N   UNL A   1      42.409  29.933  29.309  1.00  0.00    -0.248 NA
ATOM     36  C   UNL A   1      40.571  31.186  30.013  1.00  0.00     0.031 C 
ATOM     37  C   UNL A   1      39.681  26.581  28.185  1.00  0.00     0.029 A 
ATOM     38  N   UNL A   1      41.796  27.179  28.585  1.00  0.00    -0.354 N 
ATOM     39  C   UNL A   1      42.849  31.164  29.787  1.00  0.00     0.074 A 
ATOM     40  C   UNL A   1      41.670  31.911  30.171  1.00  0.00     0.031 C 
ATOM     41  C   UNL A   1      40.447  25.495  28.000  1.00  0.00     0.029 A 
ATOM     42  C   UNL A   1      41.846  25.867  28.173  1.00  0.00     0.049 A 
ATOM     43  H   UNL A   1      42.595  27.694  28.841  1.00  0.00     0.167 HD
ATOM     44  C   UNL A   1      44.118  31.633  29.883  1.00  0.00     0.031 A 
ATOM     45  C   UNL A   1      42.891  25.061  27.903  1.00  0.00     0.031 A 
ATOM     46  C   UNL A   1      45.294  30.863  29.570  1.00  0.00     0.049 A 
ATOM     47  C   UNL A   1      44.287  25.602  28.001  1.00  0.00     0.074 A 
ATOM     48  C   UNL A   1      46.623  31.246  29.660  1.00  0.00     0.029 A 
ATOM     49  N   UNL A   1      45.287  29.548  29.134  1.00  0.00    -0.354 N 
ATOM     50  N   UNL A   1      44.682  26.798  28.363  1.00  0.00    -0.248 NA
ATOM     51  C   UNL A   1      45.377  24.690  27.626  1.00  0.00     0.031 C 
ATOM     52  C   UNL A   1      47.418  30.172  29.244  1.00  0.00     0.029 A 
ATOM     53  C   UNL A   1      46.586  29.107  28.940  1.00  0.00     0.049 A 
ATOM     54  H   UNL A   1      44.479  29.007  28.984  1.00  0.00     0.167 HD
ATOM     55  C   UNL A   1      46.068  26.782  28.264  1.00  0.00     0.074 A 
ATOM     56  C   UNL A   1      46.444  25.453  27.829  1.00  0.00     0.031 C 
ATOM     57  C   UNL A   1      46.948  27.784  28.502  1.00  0.00     0.031 A 
BRANCH  44  58
ATOM     58  C   UNL A   1      44.305  33.069  30.299  1.00  0.00    -0.014 A 
ATOM     59  C   UNL A   1      44.301  34.120  29.366  1.00  0.00     0.010 A 
ATOM     60  C   UNL A   1      44.435  33.372  31.668  1.00  0.00     0.010 A 
ATOM     61  C   UNL A   1      44.462  35.443  29.791  1.00  0.00     0.020 A 
ATOM     62  C   UNL A   1      44.571  34.694  32.099  1.00  0.00     0.020 A 
ATOM     63  C   UNL A   1      44.600  35.722  31.155  1.00  0.00     0.054 A 
BRANCH  63  64
ATOM     64  S   UNL A   1      44.783  37.448  31.686  1.00  0.00     0.124 S 
ATOM     65  O   UNL A   1      44.533  37.348  33.122  1.00  0.00    -0.237 OA
ATOM     66  O   UNL A   1      46.160  37.758  31.309  1.00  0.00    -0.237 OA
ATOM     67  O   UNL A   1      43.759  38.156  30.922  1.00  0.00    -0.744 OA
ENDBRANCH  63  64
ENDBRANCH  44  58
BRANCH  45  68
ATOM     68  C   UNL A   1      42.643  23.665  27.447  1.00  0.00    -0.014 A 
ATOM     69  C   UNL A   1      42.626  23.357  26.077  1.00  0.00     0.010 A 
ATOM     70  C   UNL A   1      42.461  22.632  28.385  1.00  0.00     0.010 A 
ATOM     71  C   UNL A   1      42.439  22.039  25.652  1.00  0.00     0.020 A 
ATOM     72  C   UNL A   1      42.303  21.310  27.965  1.00  0.00     0.020 A 
ATOM     73  C   UNL A   1      42.286  21.022  26.599  1.00  0.00     0.054 A 
BRANCH  73  74
ATOM     74  S   UNL A   1      42.136  19.305  26.032  1.00  0.00     0.124 S 
ATOM     75  O   UNL A   1      42.977  19.306  24.840  1.00  0.00    -0.237 OA
ATOM     76  O   UNL A   1      42.649  18.547  27.170  1.00  0.00    -0.237 OA
ATOM     77  O   UNL A   1      40.703  19.153  25.789  1.00  0.00    -0.744 OA
ENDBRANCH  73  74
ENDBRANCH  45  68
BRANCH  57  78
ATOM     78  C   UNL A   1      48.408  27.471  28.326  1.00  0.00    -0.014 A 
ATOM     79  C   UNL A   1      49.058  27.707  27.102  1.00  0.00     0.010 A 
ATOM     80  C   UNL A   1      49.145  26.962  29.410  1.00  0.00     0.010 A 
ATOM     81  C   UNL A   1      50.415  27.409  26.956  1.00  0.00     0.020 A 
ATOM     82  C   UNL A   1      50.507  26.683  29.273  1.00  0.00     0.020 A 
ATOM     83  C   UNL A   1      51.130  26.894  28.042  1.00  0.00     0.054 A 
BRANCH  83  84
ATOM     84  S   UNL A   1      52.898  26.539  27.839  1.00  0.00     0.124 S 
ATOM     85  O   UNL A   1      53.389  27.778  27.243  1.00  0.00    -0.237 OA
ATOM     86  O   UNL A   1      53.336  26.285  29.210  1.00  0.00    -0.237 OA
ATOM     87  O   UNL A   1      52.917  25.373  26.960  1.00  0.00    -0.744 OA
ENDBRANCH  83  84
ENDBRANCH  57  78
ENDBRANCH  31  32
ENDBRANCH  24  26
ENDBRANCH  23  24
ENDBRANCH   1  23
TORSDOF 18
ENDMDL
MODEL 2
REMARK VINA RESULT:     -10.7      1.701      3.265
REMARK SMILES CC[C@](O)(C(=O)OCCOC(=O)c1ccc(-c2c3nc(c(-c4ccc(S(=O)(=O)[O-])cc4)c4ccc([nH]4)c(-c4ccc(S(=O)(=O)[O-])cc4)c4nc(c(-c5ccc(S(=O)(=O)[O-])cc5)c5ccc2[nH]5)C=C4)C=C3)cc1)[C@@H](C)c1ccc2c(c1)OCCO2
REMARK SMILES IDX 9 1 8 2 7 3 5 4 6 5 3 6 2 7 1 8 73 9 74 10 75 11 76 12 80 13
REMARK SMILES IDX 77 14 79 15 78 16 81 17 84 18 82 19 83 20 4 21 10 23 11 24
REMARK SMILES IDX 12 25 13 26 14 27 72 28 15 29 71 30 16 31 17 32 18 33 65 34
REMARK SMILES IDX 19 35 70 36 64 37 66 38 20 39 69 40 63 41 62 42 21 44 51 45
REMARK SMILES IDX 32 46 50 47 33 48 36 49 49 50 67 51 34 52 35 53 48 55 68 56
REMARK SMILES IDX 37 57 22 58 23 59 31 60 24 61 30 62 25 63 26 64 27 65 28 66
REMARK SMILES IDX 29 67 52 68 53 69 61 70 54 71 60 72 55 73 56 74 57 75 58 76
REMARK SMILES IDX 59 77 38 78 39 79 47 80 40 81 46 82 41 83 42 84 43 85 44 86
REMARK SMILES IDX 45 87
REMARK H PARENT 4 22 66 43 36 54
REMARK Flexibility Score: inf
ROOT
ATOM      1  C   UNL A   1      34.307  29.773  26.877  1.00  0.00     0.275 C 
ENDROOT
BRANCH   1   2
ATOM      2  C   UNL A   1      32.840  29.577  27.251  1.00  0.00     0.274 C 
BRANCH   2   3
ATOM      3  O   UNL A   1      32.132  28.832  26.234  1.00  0.00    -0.460 OA
BRANCH   3   4
ATOM      4  C   UNL A   1      31.599  29.605  25.244  1.00  0.00     0.338 C 
ATOM      5  O   UNL A   1      31.284  30.783  25.382  1.00  0.00    -0.249 OA
BRANCH   4   6
ATOM      6  C   UNL A   1      31.405  28.814  23.910  1.00  0.00     0.168 C 
BRANCH   6   7
ATOM      7  C   UNL A   1      32.784  28.104  23.767  1.00  0.00     0.044 C 
ATOM      8  C   UNL A   1      33.939  28.850  23.115  1.00  0.00     0.007 C 
ENDBRANCH   6   7
BRANCH   6   9
ATOM      9  C   UNL A   1      30.140  27.908  24.143  1.00  0.00     0.059 C 
ATOM     10  C   UNL A   1      29.017  28.171  23.127  1.00  0.00     0.016 C 
BRANCH   9  11
ATOM     11  C   UNL A   1      30.299  26.407  24.319  1.00  0.00    -0.038 A 
ATOM     12  C   UNL A   1      30.244  25.478  23.278  1.00  0.00     0.008 A 
ATOM     13  C   UNL A   1      30.547  25.930  25.620  1.00  0.00     0.054 A 
ATOM     14  C   UNL A   1      30.653  24.155  23.495  1.00  0.00     0.051 A 
ATOM     15  C   UNL A   1      30.943  24.620  25.842  1.00  0.00     0.161 A 
ATOM     16  C   UNL A   1      31.071  23.752  24.761  1.00  0.00     0.161 A 
ATOM     17  O   UNL A   1      31.269  24.297  27.131  1.00  0.00    -0.486 OA
ATOM     18  O   UNL A   1      31.651  22.513  24.886  1.00  0.00    -0.486 OA
ATOM     19  C   UNL A   1      31.714  22.944  27.267  1.00  0.00     0.271 C 
ATOM     20  C   UNL A   1      32.506  22.509  26.043  1.00  0.00     0.271 C 
ENDBRANCH   9  11
ENDBRANCH   6   9
BRANCH   6  21
ATOM     21  O   UNL A   1      31.217  29.678  22.787  1.00  0.00    -0.378 OA
ATOM     22  H   UNL A   1      30.610  30.396  23.028  1.00  0.00     0.212 HD
ENDBRANCH   6  21
ENDBRANCH   4   6
ENDBRANCH   3   4
ENDBRANCH   2   3
ENDBRANCH   1   2
BRANCH   1  23
ATOM     23  O   UNL A   1      35.146  29.277  27.933  1.00  0.00    -0.458 OA
BRANCH  23  24
ATOM     24  C   UNL A   1      35.852  30.212  28.615  1.00  0.00     0.338 C 
ATOM     25  O   UNL A   1      35.385  31.143  29.249  1.00  0.00    -0.246 OA
BRANCH  24  26
ATOM     26  C   UNL A   1      37.307  29.933  28.528  1.00  0.00     0.060 A 
ATOM     27  C   UNL A   1      37.971  29.871  27.303  1.00  0.00     0.016 A 
ATOM     28  C   UNL A   1      38.012  29.640  29.698  1.00  0.00     0.016 A 
ATOM     29  C   UNL A   1      39.291  29.419  27.237  1.00  0.00     0.010 A 
ATOM     30  C   UNL A   1      39.366  29.288  29.635  1.00  0.00     0.010 A 
ATOM     31  C   UNL A   1      40.019  29.133  28.401  1.00  0.00    -0.014 A 
BRANCH  31  32
ATOM     32  C   UNL A   1      41.438  28.663  28.345  1.00  0.00     0.031 A 
ATOM     33  C   UNL A   1      42.572  29.640  28.563  1.00  0.00     0.074 A 
ATOM     34  C   UNL A   1      41.738  27.375  28.075  1.00  0.00     0.049 A 
ATOM     35  N   UNL A   1      43.844  29.509  28.279  1.00  0.00    -0.248 NA
ATOM     36  C   UNL A   1      42.224  30.942  29.154  1.00  0.00     0.031 C 
ATOM     37  C   UNL A   1      40.773  26.289  27.893  1.00  0.00     0.029 A 
ATOM     38  N   UNL A   1      42.956  26.759  27.901  1.00  0.00    -0.354 N 
ATOM     39  C   UNL A   1      44.429  30.736  28.574  1.00  0.00     0.074 A 
ATOM     40  C   UNL A   1      43.376  31.594  29.073  1.00  0.00     0.031 C 
ATOM     41  C   UNL A   1      41.432  25.140  27.684  1.00  0.00     0.029 A 
ATOM     42  C   UNL A   1      42.859  25.420  27.601  1.00  0.00     0.049 A 
ATOM     43  H   UNL A   1      43.816  27.232  27.983  1.00  0.00     0.167 HD
ATOM     44  C   UNL A   1      45.723  31.117  28.428  1.00  0.00     0.031 A 
ATOM     45  C   UNL A   1      43.796  24.521  27.240  1.00  0.00     0.031 A 
ATOM     46  C   UNL A   1      46.783  30.241  28.001  1.00  0.00     0.049 A 
ATOM     47  C   UNL A   1      45.220  24.964  27.070  1.00  0.00     0.074 A 
ATOM     48  C   UNL A   1      48.130  30.531  27.847  1.00  0.00     0.029 A 
ATOM     49  N   UNL A   1      46.627  28.901  27.686  1.00  0.00    -0.354 N 
ATOM     50  N   UNL A   1      45.740  26.152  27.261  1.00  0.00    -0.248 NA
ATOM     51  C   UNL A   1      46.177  23.950  26.608  1.00  0.00     0.031 C 
ATOM     52  C   UNL A   1      48.780  29.374  27.405  1.00  0.00     0.029 A 
ATOM     53  C   UNL A   1      47.847  28.353  27.329  1.00  0.00     0.049 A 
ATOM     54  H   UNL A   1      45.773  28.411  27.713  1.00  0.00     0.167 HD
ATOM     55  C   UNL A   1      47.087  26.028  26.946  1.00  0.00     0.074 A 
ATOM     56  C   UNL A   1      47.306  24.645  26.573  1.00  0.00     0.031 C 
ATOM     57  C   UNL A   1      48.053  26.978  26.956  1.00  0.00     0.031 A 
BRANCH  44  58
ATOM     58  C   UNL A   1      46.062  32.563  28.684  1.00  0.00    -0.014 A 
ATOM     59  C   UNL A   1      45.915  33.547  27.691  1.00  0.00     0.010 A 
ATOM     60  C   UNL A   1      46.486  32.947  29.970  1.00  0.00     0.010 A 
ATOM     61  C   UNL A   1      46.224  34.883  27.971  1.00  0.00     0.020 A 
ATOM     62  C   UNL A   1      46.772  34.284  30.260  1.00  0.00     0.020 A 
ATOM     63  C   UNL A   1      46.655  35.242  29.252  1.00  0.00     0.054 A 
BRANCH  63  64
ATOM     64  S   UNL A   1      47.027  36.984  29.598  1.00  0.00     0.124 S 
ATOM     65  O   UNL A   1      45.934  37.353  30.495  1.00  0.00    -0.237 OA
ATOM     66  O   UNL A   1      48.349  36.916  30.217  1.00  0.00    -0.237 OA
ATOM     67  O   UNL A   1      46.993  37.615  28.282  1.00  0.00    -0.744 OA
ENDBRANCH  63  64
ENDBRANCH  44  58
BRANCH  45  68
ATOM     68  C   UNL A   1      43.393  23.117  26.952  1.00  0.00    -0.014 A 
ATOM     69  C   UNL A   1      43.596  22.568  25.675  1.00  0.00     0.010 A 
ATOM     70  C   UNL A   1      42.841  22.313  27.966  1.00  0.00     0.010 A 
ATOM     71  C   UNL A   1      43.261  21.236  25.418  1.00  0.00     0.020 A 
ATOM     72  C   UNL A   1      42.531  20.973  27.720  1.00  0.00     0.020 A 
ATOM     73  C   UNL A   1      42.737  20.445  26.445  1.00  0.00     0.054 A 
BRANCH  73  74
ATOM     74  S   UNL A   1      42.392  18.693  26.119  1.00  0.00     0.124 S 
ATOM     75  O   UNL A   1      42.706  18.078  27.403  1.00  0.00    -0.237 OA
ATOM     76  O   UNL A   1      40.979  18.709  25.751  1.00  0.00    -0.237 OA
ATOM     77  O   UNL A   1      43.306  18.367  25.026  1.00  0.00    -0.744 OA
ENDBRANCH  73  74
ENDBRANCH  45  68
BRANCH  57  78
ATOM     78  C   UNL A   1      49.443  26.546  26.579  1.00  0.00    -0.014 A 
ATOM     79  C   UNL A   1      49.907  26.666  25.258  1.00  0.00     0.010 A 
ATOM     80  C   UNL A   1      50.306  26.042  27.569  1.00  0.00     0.010 A 
ATOM     81  C   UNL A   1      51.201  26.259  24.926  1.00  0.00     0.020 A 
ATOM     82  C   UNL A   1      51.608  25.653  27.244  1.00  0.00     0.020 A 
ATOM     83  C   UNL A   1      52.042  25.750  25.920  1.00  0.00     0.054 A 
BRANCH  83  84
ATOM     84  S   UNL A   1      53.729  25.253  25.473  1.00  0.00     0.124 S 
ATOM     85  O   UNL A   1      54.224  26.442  24.787  1.00  0.00    -0.237 OA
ATOM     86  O   UNL A   1      54.340  24.976  26.772  1.00  0.00    -0.237 OA
ATOM     87  O   UNL A   1      53.529  24.080  24.625  1.00  0.00    -0.744 OA
ENDBRANCH  83  84
ENDBRANCH  57  78
ENDBRANCH  31  32
ENDBRANCH  24  26
ENDBRANCH  23  24
ENDBRANCH   1  23
TORSDOF 18
ENDMDL
MODEL 3
REMARK VINA RESULT:     -10.4      4.167     10.214
REMARK SMILES CC[C@](O)(C(=O)OCCOC(=O)c1ccc(-c2c3nc(c(-c4ccc(S(=O)(=O)[O-])cc4)c4ccc([nH]4)c(-c4ccc(S(=O)(=O)[O-])cc4)c4nc(c(-c5ccc(S(=O)(=O)[O-])cc5)c5ccc2[nH]5)C=C4)C=C3)cc1)[C@@H](C)c1ccc2c(c1)OCCO2
REMARK SMILES IDX 9 1 8 2 7 3 5 4 6 5 3 6 2 7 1 8 73 9 74 10 75 11 76 12 80 13
REMARK SMILES IDX 77 14 79 15 78 16 81 17 84 18 82 19 83 20 4 21 10 23 11 24
REMARK SMILES IDX 12 25 13 26 14 27 72 28 15 29 71 30 16 31 17 32 18 33 65 34
REMARK SMILES IDX 19 35 70 36 64 37 66 38 20 39 69 40 63 41 62 42 21 44 51 45
REMARK SMILES IDX 32 46 50 47 33 48 36 49 49 50 67 51 34 52 35 53 48 55 68 56
REMARK SMILES IDX 37 57 22 58 23 59 31 60 24 61 30 62 25 63 26 64 27 65 28 66
REMARK SMILES IDX 29 67 52 68 53 69 61 70 54 71 60 72 55 73 56 74 57 75 58 76
REMARK SMILES IDX 59 77 38 78 39 79 47 80 40 81 46 82 41 83 42 84 43 85 44 86
REMARK SMILES IDX 45 87
REMARK H PARENT 4 22 66 43 36 54
REMARK Flexibility Score: inf
ROOT
ATOM      1  C   UNL A   1      37.403  21.842  24.556  1.00  0.00     0.275 C 
ENDROOT
BRANCH   1   2
ATOM      2  C   UNL A   1      36.333  22.564  23.741  1.00  0.00     0.274 C 
BRANCH   2   3
ATOM      3  O   UNL A   1      35.391  23.248  24.598  1.00  0.00    -0.460 OA
BRANCH   3   4
ATOM      4  C   UNL A   1      34.484  24.019  23.929  1.00  0.00     0.338 C 
ATOM      5  O   UNL A   1      34.543  24.270  22.730  1.00  0.00    -0.249 OA
BRANCH   4   6
ATOM      6  C   UNL A   1      33.367  24.577  24.869  1.00  0.00     0.168 C 
BRANCH   6   7
ATOM      7  C   UNL A   1      33.533  26.113  24.670  1.00  0.00     0.044 C 
ATOM      8  C   UNL A   1      33.775  26.998  25.883  1.00  0.00     0.007 C 
ENDBRANCH   6   7
BRANCH   6   9
ATOM      9  C   UNL A   1      32.030  23.918  24.366  1.00  0.00     0.059 C 
ATOM     10  C   UNL A   1      31.346  24.725  23.250  1.00  0.00     0.016 C 
BRANCH   9  11
ATOM     11  C   UNL A   1      31.996  22.445  23.997  1.00  0.00    -0.038 A 
ATOM     12  C   UNL A   1      31.912  21.959  22.691  1.00  0.00     0.008 A 
ATOM     13  C   UNL A   1      32.085  21.511  25.046  1.00  0.00     0.054 A 
ATOM     14  C   UNL A   1      32.144  20.601  22.430  1.00  0.00     0.051 A 
ATOM     15  C   UNL A   1      32.306  20.166  24.795  1.00  0.00     0.161 A 
ATOM     16  C   UNL A   1      32.413  19.725  23.479  1.00  0.00     0.161 A 
ATOM     17  O   UNL A   1      32.492  19.369  25.892  1.00  0.00    -0.486 OA
ATOM     18  O   UNL A   1      32.831  18.454  23.168  1.00  0.00    -0.486 OA
ATOM     19  C   UNL A   1      32.763  18.006  25.546  1.00  0.00     0.271 C 
ATOM     20  C   UNL A   1      33.588  17.926  24.271  1.00  0.00     0.271 C 
ENDBRANCH   9  11
ENDBRANCH   6   9
BRANCH   6  21
ATOM     21  O   UNL A   1      33.607  24.266  26.244  1.00  0.00    -0.378 OA
ATOM     22  H   UNL A   1      34.420  23.743  26.320  1.00  0.00     0.212 HD
ENDBRANCH   6  21
ENDBRANCH   4   6
ENDBRANCH   3   4
ENDBRANCH   2   3
ENDBRANCH   1   2
BRANCH   1  23
ATOM     23  O   UNL A   1      37.709  22.603  25.735  1.00  0.00    -0.458 OA
BRANCH  23  24
ATOM     24  C   UNL A   1      39.026  22.726  26.033  1.00  0.00     0.338 C 
ATOM     25  O   UNL A   1      39.903  21.925  25.758  1.00  0.00    -0.246 OA
BRANCH  24  26
ATOM     26  C   UNL A   1      39.285  24.015  26.723  1.00  0.00     0.060 A 
ATOM     27  C   UNL A   1      40.064  25.015  26.142  1.00  0.00     0.016 A 
ATOM     28  C   UNL A   1      38.808  24.195  28.023  1.00  0.00     0.016 A 
ATOM     29  C   UNL A   1      40.451  26.132  26.886  1.00  0.00     0.010 A 
ATOM     30  C   UNL A   1      39.113  25.366  28.729  1.00  0.00     0.010 A 
ATOM     31  C   UNL A   1      39.972  26.337  28.187  1.00  0.00    -0.014 A 
BRANCH  31  32
ATOM     32  C   UNL A   1      40.365  27.537  28.990  1.00  0.00     0.031 A 
ATOM     33  C   UNL A   1      41.678  27.554  29.741  1.00  0.00     0.074 A 
ATOM     34  C   UNL A   1      39.553  28.611  29.085  1.00  0.00     0.049 A 
ATOM     35  N   UNL A   1      42.071  28.350  30.704  1.00  0.00    -0.248 NA
ATOM     36  C   UNL A   1      42.665  26.525  29.378  1.00  0.00     0.031 C 
ATOM     37  C   UNL A   1      38.279  28.789  28.385  1.00  0.00     0.029 A 
ATOM     38  N   UNL A   1      39.683  29.767  29.821  1.00  0.00    -0.354 N 
ATOM     39  C   UNL A   1      43.308  27.865  31.118  1.00  0.00     0.074 A 
ATOM     40  C   UNL A   1      43.607  26.715  30.291  1.00  0.00     0.031 C 
ATOM     41  C   UNL A   1      37.772  29.994  28.685  1.00  0.00     0.029 A 
ATOM     42  C   UNL A   1      38.621  30.630  29.684  1.00  0.00     0.049 A 
ATOM     43  H   UNL A   1      40.462  29.957  30.393  1.00  0.00     0.167 HD
ATOM     44  C   UNL A   1      44.114  28.328  32.106  1.00  0.00     0.031 A 
ATOM     45  C   UNL A   1      38.320  31.776  30.326  1.00  0.00     0.031 A 
ATOM     46  C   UNL A   1      43.851  29.515  32.879  1.00  0.00     0.049 A 
ATOM     47  C   UNL A   1      39.215  32.265  31.426  1.00  0.00     0.074 A 
ATOM     48  C   UNL A   1      44.621  30.075  33.885  1.00  0.00     0.029 A 
ATOM     49  N   UNL A   1      42.749  30.338  32.716  1.00  0.00    -0.354 N 
ATOM     50  N   UNL A   1      40.333  31.743  31.870  1.00  0.00    -0.248 NA
ATOM     51  C   UNL A   1      38.793  33.483  32.131  1.00  0.00     0.031 C 
ATOM     52  C   UNL A   1      43.967  31.219  34.354  1.00  0.00     0.029 A 
ATOM     53  C   UNL A   1      42.813  31.396  33.608  1.00  0.00     0.049 A 
ATOM     54  H   UNL A   1      42.027  30.193  32.063  1.00  0.00     0.167 HD
ATOM     55  C   UNL A   1      40.750  32.571  32.904  1.00  0.00     0.074 A 
ATOM     56  C   UNL A   1      39.777  33.640  33.005  1.00  0.00     0.031 C 
ATOM     57  C   UNL A   1      41.837  32.450  33.704  1.00  0.00     0.031 A 
BRANCH  44  58
ATOM     58  C   UNL A   1      45.339  27.520  32.449  1.00  0.00    -0.014 A 
ATOM     59  C   UNL A   1      46.591  27.787  31.868  1.00  0.00     0.010 A 
ATOM     60  C   UNL A   1      45.237  26.504  33.418  1.00  0.00     0.010 A 
ATOM     61  C   UNL A   1      47.710  27.026  32.223  1.00  0.00     0.020 A 
ATOM     62  C   UNL A   1      46.357  25.758  33.793  1.00  0.00     0.020 A 
ATOM     63  C   UNL A   1      47.586  26.013  33.180  1.00  0.00     0.054 A 
BRANCH  63  64
ATOM     64  S   UNL A   1      49.056  25.055  33.643  1.00  0.00     0.124 S 
ATOM     65  O   UNL A   1      49.711  24.867  32.351  1.00  0.00    -0.237 OA
ATOM     66  O   UNL A   1      49.745  25.948  34.572  1.00  0.00    -0.237 OA
ATOM     67  O   UNL A   1      48.505  23.843  34.244  1.00  0.00    -0.744 OA
ENDBRANCH  63  64
ENDBRANCH  44  58
BRANCH  45  68
ATOM     68  C   UNL A   1      37.069  32.505  29.978  1.00  0.00    -0.014 A 
ATOM     69  C   UNL A   1      35.889  32.277  30.705  1.00  0.00     0.010 A 
ATOM     70  C   UNL A   1      37.065  33.459  28.944  1.00  0.00     0.010 A 
ATOM     71  C   UNL A   1      34.728  32.996  30.408  1.00  0.00     0.020 A 
ATOM     72  C   UNL A   1      35.915  34.200  28.664  1.00  0.00     0.020 A 
ATOM     73  C   UNL A   1      34.750  33.958  29.394  1.00  0.00     0.054 A 
BRANCH  73  74
ATOM     74  S   UNL A   1      33.259  34.945  29.083  1.00  0.00     0.124 S 
ATOM     75  O   UNL A   1      33.823  36.204  28.608  1.00  0.00    -0.237 OA
ATOM     76  O   UNL A   1      32.552  34.149  28.084  1.00  0.00    -0.237 OA
ATOM     77  O   UNL A   1      32.612  35.001  30.393  1.00  0.00    -0.744 OA
ENDBRANCH  73  74
ENDBRANCH  45  68
BRANCH  57  78
ATOM     78  C   UNL A   1      42.047  33.519  34.740  1.00  0.00    -0.014 A 
ATOM     79  C   UNL A   1      41.647  33.325  36.074  1.00  0.00     0.010 A 
ATOM     80  C   UNL A   1      42.683  34.721  34.381  1.00  0.00     0.010 A 
ATOM     81  C   UNL A   1      41.850  34.328  37.024  1.00  0.00     0.020 A 
ATOM     82  C   UNL A   1      42.906  35.718  35.334  1.00  0.00     0.020 A 
ATOM     83  C   UNL A   1      42.474  35.521  36.646  1.00  0.00     0.054 A 
BRANCH  83  84
ATOM     84  S   UNL A   1      42.752  36.801  37.902  1.00  0.00     0.124 S 
ATOM     85  O   UNL A   1      41.387  37.178  38.258  1.00  0.00    -0.237 OA
ATOM     86  O   UNL A   1      43.496  36.084  38.935  1.00  0.00    -0.237 OA
ATOM     87  O   UNL A   1      43.517  37.823  37.190  1.00  0.00    -0.744 OA
ENDBRANCH  83  84
ENDBRANCH  57  78
ENDBRANCH  31  32
ENDBRANCH  24  26
ENDBRANCH  23  24
ENDBRANCH   1  23
TORSDOF 18
ENDMDL
