MODEL 1
REMARK VINA RESULT:     -10.3      0.000      0.000
REMARK SMILES CC[N@@H+]1CCO[C@@H](Cn2cc(C(=O)OCCOC(=O)c3ccc(-c4c5nc(c(-c6ccc(S(=O)(=O)[O-])cc6)c6ccc([nH]6)c(-c6ccc(S(=O)(=O)[O-])cc6)c6nc(c(-c7ccc(S(=O)(=O)[O-])cc7)c7ccc4[nH]7)C=C6)C=C5)cc3)nn2)C1
REMARK SMILES IDX 15 1 14 2 12 3 13 4 11 5 9 6 10 7 81 8 80 9 8 10 7 11 3 12
REMARK SMILES IDX 4 13 82 14 5 16 6 17 2 18 1 19 16 20 17 21 18 22 19 23 20 24
REMARK SMILES IDX 21 25 79 26 22 27 78 28 23 29 24 30 25 31 72 32 26 33 77 34
REMARK SMILES IDX 71 35 73 36 27 37 76 38 70 39 69 40 28 42 58 43 39 44 57 45
REMARK SMILES IDX 40 46 43 47 56 48 74 49 41 50 42 51 55 53 75 54 44 55 29 56
REMARK SMILES IDX 30 57 38 58 31 59 37 60 32 61 33 62 34 63 35 64 36 65 59 66
REMARK SMILES IDX 60 67 68 68 61 69 67 70 62 71 63 72 64 73 65 74 66 75 45 76
REMARK SMILES IDX 46 77 54 78 47 79 53 80 48 81 49 82 50 83 51 84 52 85
REMARK H PARENT 3 15 73 41 43 52
REMARK Flexibility Score: inf
ROOT
ATOM      1  C   UNL A   1      42.297  19.072  26.509  1.00  0.00     0.275 C 
ENDROOT
BRANCH   1   2
ATOM      2  O   UNL A   1      42.789  19.311  25.179  1.00  0.00    -0.457 OA
BRANCH   2   3
ATOM      3  C   UNL A   1      44.158  19.275  25.038  1.00  0.00     0.360 C 
ATOM      4  O   UNL A   1      44.797  18.257  24.847  1.00  0.00    -0.244 OA
BRANCH   3   5
ATOM      5  C   UNL A   1      44.749  20.606  25.095  1.00  0.00     0.190 A 
ATOM      6  N   UNL A   1      45.116  22.735  25.133  1.00  0.00    -0.249 N 
ATOM      7  C   UNL A   1      44.141  21.823  24.861  1.00  0.00     0.147 A 
ATOM      8  N   UNL A   1      46.285  22.136  25.410  1.00  0.00    -0.066 NA
ATOM      9  N   UNL A   1      46.072  20.826  25.398  1.00  0.00    -0.123 NA
BRANCH   6  10
ATOM     10  C   UNL A   1      44.917  24.121  25.499  1.00  0.00     0.184 C 
BRANCH  10  11
ATOM     11  C   UNL A   1      46.165  24.683  26.190  1.00  0.00     0.194 C 
ATOM     12  N   UNL A   1      47.775  26.641  26.297  1.00  0.00    -0.331 N 
ATOM     13  C   UNL A   1      47.536  26.616  27.752  1.00  0.00     0.291 C 
ATOM     14  C   UNL A   1      46.569  26.079  25.637  1.00  0.00     0.296 C 
ATOM     15  H   UNL A   1      47.940  27.609  26.022  1.00  0.00     0.348 HD
ATOM     16  C   UNL A   1      47.091  25.245  28.292  1.00  0.00     0.222 C 
ATOM     17  O   UNL A   1      45.926  24.758  27.609  1.00  0.00    -0.365 OA
BRANCH  12  18
ATOM     18  C   UNL A   1      48.985  25.924  25.864  1.00  0.00     0.258 C 
ATOM     19  C   UNL A   1      50.275  26.673  26.169  1.00  0.00     0.071 C 
ENDBRANCH  12  18
ENDBRANCH  10  11
ENDBRANCH   6  10
ENDBRANCH   3   5
ENDBRANCH   2   3
ENDBRANCH   1   2
BRANCH   1  20
ATOM     20  C   UNL A   1      40.982  19.803  26.740  1.00  0.00     0.275 C 
BRANCH  20  21
ATOM     21  O   UNL A   1      41.224  21.108  27.259  1.00  0.00    -0.458 OA
BRANCH  21  22
ATOM     22  C   UNL A   1      40.322  22.053  26.907  1.00  0.00     0.338 C 
ATOM     23  O   UNL A   1      39.198  21.859  26.473  1.00  0.00    -0.246 OA
BRANCH  22  24
ATOM     24  C   UNL A   1      40.984  23.360  26.909  1.00  0.00     0.060 A 
ATOM     25  C   UNL A   1      42.066  23.512  27.782  1.00  0.00     0.016 A 
ATOM     26  C   UNL A   1      40.307  24.460  26.363  1.00  0.00     0.016 A 
ATOM     27  C   UNL A   1      42.298  24.760  28.312  1.00  0.00     0.010 A 
ATOM     28  C   UNL A   1      40.521  25.697  26.911  1.00  0.00     0.010 A 
ATOM     29  C   UNL A   1      41.444  25.805  27.947  1.00  0.00    -0.014 A 
BRANCH  29  30
ATOM     30  C   UNL A   1      41.560  27.062  28.647  1.00  0.00     0.031 A 
ATOM     31  C   UNL A   1      42.714  27.865  28.199  1.00  0.00     0.074 A 
ATOM     32  C   UNL A   1      40.616  27.489  29.506  1.00  0.00     0.049 A 
ATOM     33  N   UNL A   1      43.786  28.147  28.859  1.00  0.00    -0.248 NA
ATOM     34  C   UNL A   1      42.760  28.241  26.775  1.00  0.00     0.031 C 
ATOM     35  C   UNL A   1      39.296  26.909  29.776  1.00  0.00     0.029 A 
ATOM     36  N   UNL A   1      40.597  28.634  30.231  1.00  0.00    -0.354 N 
ATOM     37  C   UNL A   1      44.554  28.920  27.997  1.00  0.00     0.074 A 
ATOM     38  C   UNL A   1      43.983  28.760  26.684  1.00  0.00     0.031 C 
ATOM     39  C   UNL A   1      38.526  27.836  30.394  1.00  0.00     0.029 A 
ATOM     40  C   UNL A   1      39.338  29.010  30.676  1.00  0.00     0.049 A 
ATOM     41  H   UNL A   1      41.409  29.155  30.425  1.00  0.00     0.167 HD
ATOM     42  C   UNL A   1      45.428  29.853  28.462  1.00  0.00     0.031 A 
ATOM     43  C   UNL A   1      38.990  30.238  31.142  1.00  0.00     0.031 A 
ATOM     44  C   UNL A   1      45.718  29.670  29.859  1.00  0.00     0.049 A 
ATOM     45  C   UNL A   1      40.251  30.927  31.530  1.00  0.00     0.074 A 
ATOM     46  C   UNL A   1      46.269  28.648  30.605  1.00  0.00     0.029 A 
ATOM     47  N   UNL A   1      45.041  30.469  30.752  1.00  0.00    -0.354 N 
ATOM     48  N   UNL A   1      41.018  30.521  32.505  1.00  0.00    -0.248 NA
ATOM     49  C   UNL A   1      40.909  31.760  30.532  1.00  0.00     0.031 C 
ATOM     50  C   UNL A   1      45.503  28.615  31.808  1.00  0.00     0.029 A 
ATOM     51  C   UNL A   1      44.576  29.660  31.759  1.00  0.00     0.049 A 
ATOM     52  H   UNL A   1      44.913  31.443  30.681  1.00  0.00     0.167 HD
ATOM     53  C   UNL A   1      42.315  30.676  32.034  1.00  0.00     0.074 A 
ATOM     54  C   UNL A   1      42.187  31.523  30.847  1.00  0.00     0.031 C 
ATOM     55  C   UNL A   1      43.333  29.876  32.472  1.00  0.00     0.031 A 
BRANCH  42  56
ATOM     56  C   UNL A   1      45.675  31.154  27.745  1.00  0.00    -0.014 A 
ATOM     57  C   UNL A   1      46.997  31.529  27.448  1.00  0.00     0.010 A 
ATOM     58  C   UNL A   1      44.678  32.144  27.598  1.00  0.00     0.010 A 
ATOM     59  C   UNL A   1      47.310  32.845  27.083  1.00  0.00     0.020 A 
ATOM     60  C   UNL A   1      44.971  33.443  27.189  1.00  0.00     0.020 A 
ATOM     61  C   UNL A   1      46.293  33.796  26.970  1.00  0.00     0.054 A 
BRANCH  61  62
ATOM     62  S   UNL A   1      46.716  35.516  26.614  1.00  0.00     0.124 S 
ATOM     63  O   UNL A   1      47.200  35.427  25.241  1.00  0.00    -0.237 OA
ATOM     64  O   UNL A   1      45.434  36.192  26.793  1.00  0.00    -0.237 OA
ATOM     65  O   UNL A   1      47.728  35.835  27.617  1.00  0.00    -0.744 OA
ENDBRANCH  61  62
ENDBRANCH  42  56
BRANCH  43  66
ATOM     66  C   UNL A   1      37.718  30.964  30.881  1.00  0.00    -0.014 A 
ATOM     67  C   UNL A   1      37.406  32.165  31.546  1.00  0.00     0.010 A 
ATOM     68  C   UNL A   1      36.925  30.614  29.768  1.00  0.00     0.010 A 
ATOM     69  C   UNL A   1      36.375  33.006  31.083  1.00  0.00     0.020 A 
ATOM     70  C   UNL A   1      35.894  31.441  29.305  1.00  0.00     0.020 A 
ATOM     71  C   UNL A   1      35.637  32.646  29.952  1.00  0.00     0.054 A 
BRANCH  71  72
ATOM     72  S   UNL A   1      34.422  33.807  29.258  1.00  0.00     0.124 S 
ATOM     73  O   UNL A   1      35.275  34.846  28.688  1.00  0.00    -0.237 OA
ATOM     74  O   UNL A   1      33.704  32.979  28.294  1.00  0.00    -0.237 OA
ATOM     75  O   UNL A   1      33.637  34.221  30.421  1.00  0.00    -0.744 OA
ENDBRANCH  71  72
ENDBRANCH  43  66
BRANCH  55  76
ATOM     76  C   UNL A   1      43.076  28.965  33.654  1.00  0.00    -0.014 A 
ATOM     77  C   UNL A   1      43.161  29.385  34.998  1.00  0.00     0.010 A 
ATOM     78  C   UNL A   1      42.563  27.684  33.388  1.00  0.00     0.010 A 
ATOM     79  C   UNL A   1      42.766  28.535  36.044  1.00  0.00     0.020 A 
ATOM     80  C   UNL A   1      42.151  26.840  34.423  1.00  0.00     0.020 A 
ATOM     81  C   UNL A   1      42.262  27.265  35.748  1.00  0.00     0.054 A 
BRANCH  81  82
ATOM     82  S   UNL A   1      41.707  26.184  37.096  1.00  0.00     0.124 S 
ATOM     83  O   UNL A   1      41.541  24.897  36.425  1.00  0.00    -0.237 OA
ATOM     84  O   UNL A   1      42.810  26.258  38.050  1.00  0.00    -0.237 OA
ATOM     85  O   UNL A   1      40.464  26.806  37.552  1.00  0.00    -0.744 OA
ENDBRANCH  81  82
ENDBRANCH  55  76
ENDBRANCH  29  30
ENDBRANCH  22  24
ENDBRANCH  21  22
ENDBRANCH  20  21
ENDBRANCH   1  20
TORSDOF 17
ENDMDL
MODEL 2
REMARK VINA RESULT:     -10.1      3.246     12.038
REMARK SMILES CC[N@@H+]1CCO[C@@H](Cn2cc(C(=O)OCCOC(=O)c3ccc(-c4c5nc(c(-c6ccc(S(=O)(=O)[O-])cc6)c6ccc([nH]6)c(-c6ccc(S(=O)(=O)[O-])cc6)c6nc(c(-c7ccc(S(=O)(=O)[O-])cc7)c7ccc4[nH]7)C=C6)C=C5)cc3)nn2)C1
REMARK SMILES IDX 15 1 14 2 12 3 13 4 11 5 9 6 10 7 81 8 80 9 8 10 7 11 3 12
REMARK SMILES IDX 4 13 82 14 5 16 6 17 2 18 1 19 16 20 17 21 18 22 19 23 20 24
REMARK SMILES IDX 21 25 79 26 22 27 78 28 23 29 24 30 25 31 72 32 26 33 77 34
REMARK SMILES IDX 71 35 73 36 27 37 76 38 70 39 69 40 28 42 58 43 39 44 57 45
REMARK SMILES IDX 40 46 43 47 56 48 74 49 41 50 42 51 55 53 75 54 44 55 29 56
REMARK SMILES IDX 30 57 38 58 31 59 37 60 32 61 33 62 34 63 35 64 36 65 59 66
REMARK SMILES IDX 60 67 68 68 61 69 67 70 62 71 63 72 64 73 65 74 66 75 45 76
REMARK SMILES IDX 46 77 54 78 47 79 53 80 48 81 49 82 50 83 51 84 52 85
REMARK H PARENT 3 15 73 41 43 52
REMARK Flexibility Score: inf
ROOT
ATOM      1  C   UNL A   1      33.705  35.118  28.854  1.00  0.00     0.275 C 
ENDROOT
BRANCH   1   2
ATOM      2  O   UNL A   1      32.972  34.787  30.047  1.00  0.00    -0.457 OA
BRANCH   2   3
ATOM      3  C   UNL A   1      33.085  35.688  31.082  1.00  0.00     0.360 C 
ATOM      4  O   UNL A   1      32.454  36.726  31.153  1.00  0.00    -0.244 OA
BRANCH   3   5
ATOM      5  C   UNL A   1      34.015  35.230  32.106  1.00  0.00     0.190 A 
ATOM      6  N   UNL A   1      35.305  34.074  33.398  1.00  0.00    -0.249 N 
ATOM      7  C   UNL A   1      34.331  33.933  32.457  1.00  0.00     0.147 A 
ATOM      8  N   UNL A   1      35.510  35.366  33.702  1.00  0.00    -0.066 NA
ATOM      9  N   UNL A   1      34.729  36.088  32.908  1.00  0.00    -0.123 NA
BRANCH   6  10
ATOM     10  C   UNL A   1      36.298  33.086  33.761  1.00  0.00     0.184 C 
BRANCH  10  11
ATOM     11  C   UNL A   1      37.315  33.678  34.745  1.00  0.00     0.194 C 
ATOM     12  N   UNL A   1      38.893  33.159  36.662  1.00  0.00    -0.331 N 
ATOM     13  C   UNL A   1      39.909  33.887  35.878  1.00  0.00     0.291 C 
ATOM     14  C   UNL A   1      37.903  32.605  35.703  1.00  0.00     0.296 C 
ATOM     15  H   UNL A   1      39.368  32.422  37.184  1.00  0.00     0.348 HD
ATOM     16  C   UNL A   1      39.324  34.916  34.896  1.00  0.00     0.222 C 
ATOM     17  O   UNL A   1      38.372  34.318  34.003  1.00  0.00    -0.365 OA
BRANCH  12  18
ATOM     18  C   UNL A   1      38.222  33.966  37.693  1.00  0.00     0.258 C 
ATOM     19  C   UNL A   1      39.188  34.647  38.653  1.00  0.00     0.071 C 
ENDBRANCH  12  18
ENDBRANCH  10  11
ENDBRANCH   6  10
ENDBRANCH   3   5
ENDBRANCH   2   3
ENDBRANCH   1   2
BRANCH   1  20
ATOM     20  C   UNL A   1      34.045  33.864  28.061  1.00  0.00     0.275 C 
BRANCH  20  21
ATOM     21  O   UNL A   1      34.635  32.884  28.911  1.00  0.00    -0.458 OA
BRANCH  21  22
ATOM     22  C   UNL A   1      35.032  31.743  28.301  1.00  0.00     0.338 C 
ATOM     23  O   UNL A   1      34.542  31.247  27.299  1.00  0.00    -0.246 OA
BRANCH  22  24
ATOM     24  C   UNL A   1      36.003  31.061  29.161  1.00  0.00     0.060 A 
ATOM     25  C   UNL A   1      36.929  31.872  29.823  1.00  0.00     0.016 A 
ATOM     26  C   UNL A   1      36.204  29.684  28.990  1.00  0.00     0.016 A 
ATOM     27  C   UNL A   1      38.177  31.351  30.079  1.00  0.00     0.010 A 
ATOM     28  C   UNL A   1      37.455  29.174  29.220  1.00  0.00     0.010 A 
ATOM     29  C   UNL A   1      38.446  30.042  29.666  1.00  0.00    -0.014 A 
BRANCH  29  30
ATOM     30  C   UNL A   1      39.805  29.562  29.754  1.00  0.00     0.031 A 
ATOM     31  C   UNL A   1      40.245  29.334  31.144  1.00  0.00     0.074 A 
ATOM     32  C   UNL A   1      40.513  29.227  28.660  1.00  0.00     0.049 A 
ATOM     33  N   UNL A   1      41.130  29.995  31.811  1.00  0.00    -0.248 NA
ATOM     34  C   UNL A   1      39.471  28.372  31.947  1.00  0.00     0.031 C 
ATOM     35  C   UNL A   1      40.056  29.125  27.271  1.00  0.00     0.029 A 
ATOM     36  N   UNL A   1      41.789  28.772  28.593  1.00  0.00    -0.354 N 
ATOM     37  C   UNL A   1      41.172  29.390  33.061  1.00  0.00     0.074 A 
ATOM     38  C   UNL A   1      39.998  28.560  33.155  1.00  0.00     0.031 C 
ATOM     39  C   UNL A   1      40.956  28.400  26.563  1.00  0.00     0.029 A 
ATOM     40  C   UNL A   1      42.099  28.111  27.414  1.00  0.00     0.049 A 
ATOM     41  H   UNL A   1      42.439  28.901  29.321  1.00  0.00     0.167 HD
ATOM     42  C   UNL A   1      42.302  29.394  33.819  1.00  0.00     0.031 A 
ATOM     43  C   UNL A   1      43.174  27.304  27.212  1.00  0.00     0.031 A 
ATOM     44  C   UNL A   1      43.253  30.372  33.361  1.00  0.00     0.049 A 
ATOM     45  C   UNL A   1      44.168  27.631  28.270  1.00  0.00     0.074 A 
ATOM     46  C   UNL A   1      43.234  31.745  33.218  1.00  0.00     0.029 A 
ATOM     47  N   UNL A   1      44.287  29.923  32.571  1.00  0.00    -0.354 N 
ATOM     48  N   UNL A   1      44.764  28.790  28.358  1.00  0.00    -0.248 NA
ATOM     49  C   UNL A   1      44.129  26.862  29.506  1.00  0.00     0.031 C 
ATOM     50  C   UNL A   1      43.926  31.998  31.997  1.00  0.00     0.029 A 
ATOM     51  C   UNL A   1      44.388  30.776  31.500  1.00  0.00     0.049 A 
ATOM     52  H   UNL A   1      44.850  29.133  32.742  1.00  0.00     0.167 HD
ATOM     53  C   UNL A   1      44.791  29.081  29.715  1.00  0.00     0.074 A 
ATOM     54  C   UNL A   1      44.463  27.818  30.379  1.00  0.00     0.031 C 
ATOM     55  C   UNL A   1      44.791  30.370  30.169  1.00  0.00     0.031 A 
BRANCH  42  56
ATOM     56  C   UNL A   1      42.691  28.232  34.694  1.00  0.00    -0.014 A 
ATOM     57  C   UNL A   1      43.185  28.485  35.985  1.00  0.00     0.010 A 
ATOM     58  C   UNL A   1      42.841  26.919  34.193  1.00  0.00     0.010 A 
ATOM     59  C   UNL A   1      43.852  27.489  36.710  1.00  0.00     0.020 A 
ATOM     60  C   UNL A   1      43.460  25.908  34.925  1.00  0.00     0.020 A 
ATOM     61  C   UNL A   1      43.996  26.211  36.167  1.00  0.00     0.054 A 
BRANCH  61  62
ATOM     62  S   UNL A   1      44.959  24.967  37.055  1.00  0.00     0.124 S 
ATOM     63  O   UNL A   1      44.381  25.042  38.393  1.00  0.00    -0.237 OA
ATOM     64  O   UNL A   1      44.663  23.751  36.303  1.00  0.00    -0.237 OA
ATOM     65  O   UNL A   1      46.334  25.448  36.938  1.00  0.00    -0.744 OA
ENDBRANCH  61  62
ENDBRANCH  42  56
BRANCH  43  66
ATOM     66  C   UNL A   1      43.202  26.031  26.442  1.00  0.00    -0.014 A 
ATOM     67  C   UNL A   1      44.116  25.826  25.391  1.00  0.00     0.010 A 
ATOM     68  C   UNL A   1      42.504  24.903  26.924  1.00  0.00     0.010 A 
ATOM     69  C   UNL A   1      44.358  24.537  24.879  1.00  0.00     0.020 A 
ATOM     70  C   UNL A   1      42.733  23.619  26.416  1.00  0.00     0.020 A 
ATOM     71  C   UNL A   1      43.677  23.437  25.409  1.00  0.00     0.054 A 
BRANCH  71  72
ATOM     72  S   UNL A   1      44.110  21.757  24.864  1.00  0.00     0.124 S 
ATOM     73  O   UNL A   1      45.345  21.500  25.599  1.00  0.00    -0.237 OA
ATOM     74  O   UNL A   1      42.950  20.976  25.284  1.00  0.00    -0.237 OA
ATOM     75  O   UNL A   1      44.269  21.894  23.416  1.00  0.00    -0.744 OA
ENDBRANCH  71  72
ENDBRANCH  43  66
BRANCH  55  76
ATOM     76  C   UNL A   1      44.995  31.487  29.165  1.00  0.00    -0.014 A 
ATOM     77  C   UNL A   1      46.224  32.150  28.973  1.00  0.00     0.010 A 
ATOM     78  C   UNL A   1      43.947  31.753  28.268  1.00  0.00     0.010 A 
ATOM     79  C   UNL A   1      46.388  33.071  27.926  1.00  0.00     0.020 A 
ATOM     80  C   UNL A   1      44.108  32.656  27.213  1.00  0.00     0.020 A 
ATOM     81  C   UNL A   1      45.326  33.318  27.051  1.00  0.00     0.054 A 
BRANCH  81  82
ATOM     82  S   UNL A   1      45.552  34.473  25.668  1.00  0.00     0.124 S 
ATOM     83  O   UNL A   1      45.136  35.747  26.247  1.00  0.00    -0.237 OA
ATOM     84  O   UNL A   1      46.977  34.353  25.372  1.00  0.00    -0.237 OA
ATOM     85  O   UNL A   1      44.667  33.950  24.628  1.00  0.00    -0.744 OA
ENDBRANCH  81  82
ENDBRANCH  55  76
ENDBRANCH  29  30
ENDBRANCH  22  24
ENDBRANCH  21  22
ENDBRANCH  20  21
ENDBRANCH   1  20
TORSDOF 17
ENDMDL
MODEL 3
REMARK VINA RESULT:      -9.8      4.458     10.000
REMARK SMILES CC[N@@H+]1CCO[C@@H](Cn2cc(C(=O)OCCOC(=O)c3ccc(-c4c5nc(c(-c6ccc(S(=O)(=O)[O-])cc6)c6ccc([nH]6)c(-c6ccc(S(=O)(=O)[O-])cc6)c6nc(c(-c7ccc(S(=O)(=O)[O-])cc7)c7ccc4[nH]7)C=C6)C=C5)cc3)nn2)C1
REMARK SMILES IDX 15 1 14 2 12 3 13 4 11 5 9 6 10 7 81 8 80 9 8 10 7 11 3 12
REMARK SMILES IDX 4 13 82 14 5 16 6 17 2 18 1 19 16 20 17 21 18 22 19 23 20 24
REMARK SMILES IDX 21 25 79 26 22 27 78 28 23 29 24 30 25 31 72 32 26 33 77 34
REMARK SMILES IDX 71 35 73 36 27 37 76 38 70 39 69 40 28 42 58 43 39 44 57 45
REMARK SMILES IDX 40 46 43 47 56 48 74 49 41 50 42 51 55 53 75 54 44 55 29 56
REMARK SMILES IDX 30 57 38 58 31 59 37 60 32 61 33 62 34 63 35 64 36 65 59 66
REMARK SMILES IDX 60 67 68 68 61 69 67 70 62 71 63 72 64 73 65 74 66 75 45 76
REMARK SMILES IDX 46 77 54 78 47 79 53 80 48 81 49 82 50 83 51 84 52 85
REMARK H PARENT 3 15 73 41 43 52
REMARK Flexibility Score: inf
ROOT
ATOM      1  C   UNL A   1      36.393  21.379  25.739  1.00  0.00     0.275 C 
ENDROOT
BRANCH   1   2
ATOM      2  O   UNL A   1      35.699  22.234  24.814  1.00  0.00    -0.457 OA
BRANCH   2   3
ATOM      3  C   UNL A   1      34.337  22.048  24.741  1.00  0.00     0.360 C 
ATOM      4  O   UNL A   1      33.809  21.029  24.335  1.00  0.00    -0.244 OA
BRANCH   3   5
ATOM      5  C   UNL A   1      33.601  23.196  25.253  1.00  0.00     0.190 A 
ATOM      6  N   UNL A   1      32.994  25.123  26.021  1.00  0.00    -0.249 N 
ATOM      7  C   UNL A   1      34.103  24.367  25.785  1.00  0.00     0.147 A 
ATOM      8  N   UNL A   1      31.869  24.438  25.763  1.00  0.00    -0.066 NA
ATOM      9  N   UNL A   1      32.227  23.254  25.282  1.00  0.00    -0.123 NA
BRANCH   6  10
ATOM     10  C   UNL A   1      32.946  26.565  26.131  1.00  0.00     0.184 C 
BRANCH  10  11
ATOM     11  C   UNL A   1      32.592  27.198  24.780  1.00  0.00     0.194 C 
ATOM     12  N   UNL A   1      31.954  29.352  23.600  1.00  0.00    -0.331 N 
ATOM     13  C   UNL A   1      33.032  29.021  22.649  1.00  0.00     0.291 C 
ATOM     14  C   UNL A   1      32.296  28.720  24.899  1.00  0.00     0.296 C 
ATOM     15  H   UNL A   1      31.902  30.368  23.675  1.00  0.00     0.348 HD
ATOM     16  C   UNL A   1      33.356  27.519  22.565  1.00  0.00     0.222 C 
ATOM     17  O   UNL A   1      33.672  26.971  23.854  1.00  0.00    -0.365 OA
BRANCH  12  18
ATOM     18  C   UNL A   1      30.609  28.945  23.164  1.00  0.00     0.258 C 
ATOM     19  C   UNL A   1      30.067  29.781  22.012  1.00  0.00     0.071 C 
ENDBRANCH  12  18
ENDBRANCH  10  11
ENDBRANCH   6  10
ENDBRANCH   3   5
ENDBRANCH   2   3
ENDBRANCH   1   2
BRANCH   1  20
ATOM     20  C   UNL A   1      37.507  20.613  25.038  1.00  0.00     0.275 C 
BRANCH  20  21
ATOM     21  O   UNL A   1      38.780  21.130  25.418  1.00  0.00    -0.458 OA
BRANCH  21  22
ATOM     22  C   UNL A   1      39.729  20.204  25.689  1.00  0.00     0.338 C 
ATOM     23  O   UNL A   1      39.634  18.998  25.530  1.00  0.00    -0.246 OA
BRANCH  22  24
ATOM     24  C   UNL A   1      40.821  20.849  26.424  1.00  0.00     0.060 A 
ATOM     25  C   UNL A   1      40.674  20.938  27.811  1.00  0.00     0.016 A 
ATOM     26  C   UNL A   1      41.726  21.653  25.717  1.00  0.00     0.016 A 
ATOM     27  C   UNL A   1      41.242  22.014  28.454  1.00  0.00     0.010 A 
ATOM     28  C   UNL A   1      42.269  22.739  26.352  1.00  0.00     0.010 A 
ATOM     29  C   UNL A   1      41.935  22.954  27.686  1.00  0.00    -0.014 A 
BRANCH  29  30
ATOM     30  C   UNL A   1      42.361  24.178  28.321  1.00  0.00     0.031 A 
ATOM     31  C   UNL A   1      41.475  25.320  28.021  1.00  0.00     0.074 A 
ATOM     32  C   UNL A   1      43.376  24.205  29.205  1.00  0.00     0.049 A 
ATOM     33  N   UNL A   1      41.744  26.364  27.313  1.00  0.00    -0.248 NA
ATOM     34  C   UNL A   1      40.058  25.191  28.403  1.00  0.00     0.031 C 
ATOM     35  C   UNL A   1      44.105  23.079  29.795  1.00  0.00     0.029 A 
ATOM     36  N   UNL A   1      43.883  25.274  29.867  1.00  0.00    -0.354 N 
ATOM     37  C   UNL A   1      40.585  27.130  27.336  1.00  0.00     0.074 A 
ATOM     38  C   UNL A   1      39.536  26.271  27.825  1.00  0.00     0.031 C 
ATOM     39  C   UNL A   1      44.763  23.509  30.898  1.00  0.00     0.029 A 
ATOM     40  C   UNL A   1      44.607  24.951  31.006  1.00  0.00     0.049 A 
ATOM     41  H   UNL A   1      43.748  26.202  29.565  1.00  0.00     0.167 HD
ATOM     42  C   UNL A   1      40.621  28.484  27.219  1.00  0.00     0.031 A 
ATOM     43  C   UNL A   1      44.951  25.809  32.002  1.00  0.00     0.031 A 
ATOM     44  C   UNL A   1      41.885  28.947  26.711  1.00  0.00     0.049 A 
ATOM     45  C   UNL A   1      44.842  27.185  31.446  1.00  0.00     0.074 A 
ATOM     46  C   UNL A   1      42.594  28.735  25.545  1.00  0.00     0.029 A 
ATOM     47  N   UNL A   1      42.797  29.421  27.628  1.00  0.00    -0.354 N 
ATOM     48  N   UNL A   1      45.606  27.632  30.486  1.00  0.00    -0.248 NA
ATOM     49  C   UNL A   1      43.578  27.889  31.607  1.00  0.00     0.031 C 
ATOM     50  C   UNL A   1      43.955  28.629  25.956  1.00  0.00     0.029 A 
ATOM     51  C   UNL A   1      44.010  28.851  27.335  1.00  0.00     0.049 A 
ATOM     52  H   UNL A   1      42.610  30.052  28.361  1.00  0.00     0.167 HD
ATOM     53  C   UNL A   1      44.761  28.365  29.663  1.00  0.00     0.074 A 
ATOM     54  C   UNL A   1      43.543  28.560  30.451  1.00  0.00     0.031 C 
ATOM     55  C   UNL A   1      45.008  28.501  28.326  1.00  0.00     0.031 A 
BRANCH  42  56
ATOM     56  C   UNL A   1      39.665  29.384  27.958  1.00  0.00    -0.014 A 
ATOM     57  C   UNL A   1      39.974  29.776  29.272  1.00  0.00     0.010 A 
ATOM     58  C   UNL A   1      38.351  29.634  27.504  1.00  0.00     0.010 A 
ATOM     59  C   UNL A   1      38.997  30.331  30.108  1.00  0.00     0.020 A 
ATOM     60  C   UNL A   1      37.385  30.230  28.311  1.00  0.00     0.020 A 
ATOM     61  C   UNL A   1      37.704  30.541  29.623  1.00  0.00     0.054 A 
BRANCH  61  62
ATOM     62  S   UNL A   1      36.420  31.148  30.740  1.00  0.00     0.124 S 
ATOM     63  O   UNL A   1      35.390  31.583  29.802  1.00  0.00    -0.237 OA
ATOM     64  O   UNL A   1      36.104  29.957  31.523  1.00  0.00    -0.237 OA
ATOM     65  O   UNL A   1      37.086  32.216  31.481  1.00  0.00    -0.744 OA
ENDBRANCH  61  62
ENDBRANCH  42  56
BRANCH  43  66
ATOM     66  C   UNL A   1      44.957  25.524  33.462  1.00  0.00    -0.014 A 
ATOM     67  C   UNL A   1      46.029  25.919  34.285  1.00  0.00     0.010 A 
ATOM     68  C   UNL A   1      43.772  25.099  34.100  1.00  0.00     0.010 A 
ATOM     69  C   UNL A   1      45.901  25.936  35.687  1.00  0.00     0.020 A 
ATOM     70  C   UNL A   1      43.638  25.107  35.493  1.00  0.00     0.020 A 
ATOM     71  C   UNL A   1      44.697  25.546  36.282  1.00  0.00     0.054 A 
BRANCH  71  72
ATOM     72  S   UNL A   1      44.477  25.728  38.078  1.00  0.00     0.124 S 
ATOM     73  O   UNL A   1      43.130  26.282  38.173  1.00  0.00    -0.237 OA
ATOM     74  O   UNL A   1      44.633  24.358  38.558  1.00  0.00    -0.237 OA
ATOM     75  O   UNL A   1      45.550  26.642  38.467  1.00  0.00    -0.744 OA
ENDBRANCH  71  72
ENDBRANCH  43  66
BRANCH  55  76
ATOM     76  C   UNL A   1      46.345  28.030  27.789  1.00  0.00    -0.014 A 
ATOM     77  C   UNL A   1      47.470  28.869  27.648  1.00  0.00     0.010 A 
ATOM     78  C   UNL A   1      46.512  26.651  27.581  1.00  0.00     0.010 A 
ATOM     79  C   UNL A   1      48.719  28.341  27.287  1.00  0.00     0.020 A 
ATOM     80  C   UNL A   1      47.757  26.116  27.238  1.00  0.00     0.020 A 
ATOM     81  C   UNL A   1      48.855  26.964  27.084  1.00  0.00     0.054 A 
BRANCH  81  82
ATOM     82  S   UNL A   1      50.480  26.276  26.663  1.00  0.00     0.124 S 
ATOM     83  O   UNL A   1      51.398  27.188  27.341  1.00  0.00    -0.237 OA
ATOM     84  O   UNL A   1      50.416  24.925  27.214  1.00  0.00    -0.237 OA
ATOM     85  O   UNL A   1      50.518  26.337  25.202  1.00  0.00    -0.744 OA
ENDBRANCH  81  82
ENDBRANCH  55  76
ENDBRANCH  29  30
ENDBRANCH  22  24
ENDBRANCH  21  22
ENDBRANCH  20  21
ENDBRANCH   1  20
TORSDOF 17
ENDMDL
