MODEL 1
REMARK VINA RESULT:     -12.0      0.000      0.000
REMARK SMILES CC1(C)[C@](C)(C(=O)OCCOC(=O)c2ccc(-c3c4nc(c(-c5ccc(S(=O)(=O)[O-])cc5)c5ccc([nH]5)c(-c5ccc(S(=O)(=O)[O-])cc5)c5nc(c(-c6ccc(S(=O)(=O)[O-])cc6)c6ccc3[nH]6)C=C5)C=C4)cc2)CC[C@@]1(C)C(=O)N1CCc2ccccc2C1
REMARK SMILES IDX 10 1 9 2 8 3 6 4 7 5 4 6 1 7 2 8 3 9 76 10 74 11 5 12 75 13
REMARK SMILES IDX 77 14 78 15 79 16 80 17 81 18 89 19 82 20 88 21 83 22 87 23
REMARK SMILES IDX 84 24 86 25 85 26 11 27 12 28 13 29 14 30 15 31 73 32 16 33
REMARK SMILES IDX 72 34 17 35 18 36 19 37 66 38 20 39 71 40 65 41 67 42 21 43
REMARK SMILES IDX 70 44 64 45 63 46 22 48 52 49 33 50 51 51 34 52 37 53 50 54
REMARK SMILES IDX 68 55 35 56 36 57 49 59 69 60 38 61 23 62 24 63 32 64 25 65
REMARK SMILES IDX 31 66 26 67 27 68 28 69 29 70 30 71 53 72 54 73 62 74 55 75
REMARK SMILES IDX 61 76 56 77 57 78 58 79 59 80 60 81 39 82 40 83 48 84 41 85
REMARK SMILES IDX 47 86 42 87 43 88 44 89 45 90 46 91
REMARK H PARENT 67 47 37 58
REMARK Flexibility Score: inf
ROOT
ATOM      1  C   UNL A   1      32.255  30.112  27.157  1.00  0.00     0.275 C 
ENDROOT
BRANCH   1   2
ATOM      2  C   UNL A   1      31.869  30.024  25.681  1.00  0.00     0.274 C 
BRANCH   2   3
ATOM      3  O   UNL A   1      31.358  28.713  25.403  1.00  0.00    -0.462 OA
BRANCH   3   4
ATOM      4  C   UNL A   1      31.968  28.060  24.377  1.00  0.00     0.312 C 
ATOM      5  O   UNL A   1      32.690  28.597  23.543  1.00  0.00    -0.252 OA
BRANCH   4   6
ATOM      6  C   UNL A   1      31.579  26.583  24.360  1.00  0.00     0.071 C 
ATOM      7  C   UNL A   1      33.882  25.419  23.898  1.00  0.00     0.013 C 
ATOM      8  C   UNL A   1      32.766  25.721  24.925  1.00  0.00    -0.005 C 
ATOM      9  C   UNL A   1      33.514  26.491  26.064  1.00  0.00     0.013 C 
ATOM     10  C   UNL A   1      32.048  24.413  25.485  1.00  0.00     0.053 C 
ATOM     11  C   UNL A   1      30.448  26.285  25.367  1.00  0.00     0.020 C 
ATOM     12  C   UNL A   1      31.021  26.258  22.956  1.00  0.00     0.024 C 
ATOM     13  C   UNL A   1      30.580  24.820  25.748  1.00  0.00     0.018 C 
ATOM     14  C   UNL A   1      32.641  23.970  26.847  1.00  0.00     0.022 C 
BRANCH  10  15
ATOM     15  C   UNL A   1      32.078  23.315  24.357  1.00  0.00     0.229 C 
ATOM     16  O   UNL A   1      31.444  23.413  23.306  1.00  0.00    -0.274 OA
BRANCH  15  17
ATOM     17  N   UNL A   1      32.839  22.193  24.561  1.00  0.00    -0.338 N 
ATOM     18  C   UNL A   1      34.287  22.227  24.345  1.00  0.00     0.124 C 
ATOM     19  C   UNL A   1      32.170  20.948  24.345  1.00  0.00     0.155 C 
ATOM     20  C   UNL A   1      34.990  20.951  24.856  1.00  0.00     0.057 C 
ATOM     21  C   UNL A   1      33.019  19.854  23.783  1.00  0.00    -0.025 A 
ATOM     22  C   UNL A   1      34.258  19.702  24.418  1.00  0.00    -0.041 A 
ATOM     23  C   UNL A   1      32.326  18.793  23.204  1.00  0.00     0.006 A 
ATOM     24  C   UNL A   1      34.601  18.415  24.806  1.00  0.00     0.004 A 
ATOM     25  C   UNL A   1      32.678  17.519  23.595  1.00  0.00     0.000 A 
ATOM     26  C   UNL A   1      33.768  17.341  24.452  1.00  0.00     0.000 A 
ENDBRANCH  15  17
ENDBRANCH  10  15
ENDBRANCH   4   6
ENDBRANCH   3   4
ENDBRANCH   2   3
ENDBRANCH   1   2
BRANCH   1  27
ATOM     27  O   UNL A   1      33.640  29.746  27.322  1.00  0.00    -0.458 OA
BRANCH  27  28
ATOM     28  C   UNL A   1      34.405  30.608  28.033  1.00  0.00     0.338 C 
ATOM     29  O   UNL A   1      34.062  31.692  28.475  1.00  0.00    -0.246 OA
BRANCH  28  30
ATOM     30  C   UNL A   1      35.765  30.055  28.229  1.00  0.00     0.060 A 
ATOM     31  C   UNL A   1      36.164  29.561  29.467  1.00  0.00     0.016 A 
ATOM     32  C   UNL A   1      36.699  30.134  27.200  1.00  0.00     0.016 A 
ATOM     33  C   UNL A   1      37.501  29.250  29.720  1.00  0.00     0.010 A 
ATOM     34  C   UNL A   1      38.014  29.698  27.417  1.00  0.00     0.010 A 
ATOM     35  C   UNL A   1      38.447  29.282  28.691  1.00  0.00    -0.014 A 
BRANCH  35  36
ATOM     36  C   UNL A   1      39.876  28.916  28.930  1.00  0.00     0.031 A 
ATOM     37  C   UNL A   1      40.838  29.953  29.460  1.00  0.00     0.074 A 
ATOM     38  C   UNL A   1      40.340  27.676  28.661  1.00  0.00     0.049 A 
ATOM     39  N   UNL A   1      42.147  29.947  29.461  1.00  0.00    -0.248 NA
ATOM     40  C   UNL A   1      40.245  31.167  30.045  1.00  0.00     0.031 C 
ATOM     41  C   UNL A   1      39.536  26.535  28.218  1.00  0.00     0.029 A 
ATOM     42  N   UNL A   1      41.619  27.170  28.714  1.00  0.00    -0.354 N 
ATOM     43  C   UNL A   1      42.532  31.184  29.968  1.00  0.00     0.074 A 
ATOM     44  C   UNL A   1      41.319  31.911  30.272  1.00  0.00     0.031 C 
ATOM     45  C   UNL A   1      40.328  25.462  28.071  1.00  0.00     0.029 A 
ATOM     46  C   UNL A   1      41.711  25.861  28.298  1.00  0.00     0.049 A 
ATOM     47  H   UNL A   1      42.394  27.693  29.021  1.00  0.00     0.167 HD
ATOM     48  C   UNL A   1      43.783  31.673  30.153  1.00  0.00     0.031 A 
ATOM     49  C   UNL A   1      42.782  25.080  28.056  1.00  0.00     0.031 A 
ATOM     50  C   UNL A   1      44.988  30.925  29.901  1.00  0.00     0.049 A 
ATOM     51  C   UNL A   1      44.161  25.653  28.221  1.00  0.00     0.074 A 
ATOM     52  C   UNL A   1      46.302  31.329  30.061  1.00  0.00     0.029 A 
ATOM     53  N   UNL A   1      45.025  29.612  29.455  1.00  0.00    -0.354 N 
ATOM     54  N   UNL A   1      44.512  26.853  28.617  1.00  0.00    -0.248 NA
ATOM     55  C   UNL A   1      45.290  24.773  27.887  1.00  0.00     0.031 C 
ATOM     56  C   UNL A   1      47.135  30.273  29.674  1.00  0.00     0.029 A 
ATOM     57  C   UNL A   1      46.339  29.194  29.325  1.00  0.00     0.049 A 
ATOM     58  H   UNL A   1      44.235  29.059  29.259  1.00  0.00     0.167 HD
ATOM     59  C   UNL A   1      45.902  26.866  28.596  1.00  0.00     0.074 A 
ATOM     60  C   UNL A   1      46.327  25.550  28.166  1.00  0.00     0.031 C 
ATOM     61  C   UNL A   1      46.749  27.880  28.901  1.00  0.00     0.031 A 
BRANCH  48  62
ATOM     62  C   UNL A   1      43.916  33.106  30.604  1.00  0.00    -0.014 A 
ATOM     63  C   UNL A   1      44.052  34.162  29.687  1.00  0.00     0.010 A 
ATOM     64  C   UNL A   1      43.870  33.398  31.981  1.00  0.00     0.010 A 
ATOM     65  C   UNL A   1      44.182  35.479  30.140  1.00  0.00     0.020 A 
ATOM     66  C   UNL A   1      43.971  34.715  32.437  1.00  0.00     0.020 A 
ATOM     67  C   UNL A   1      44.145  35.746  31.513  1.00  0.00     0.054 A 
BRANCH  67  68
ATOM     68  S   UNL A   1      44.301  37.465  32.074  1.00  0.00     0.124 S 
ATOM     69  O   UNL A   1      43.802  38.205  30.918  1.00  0.00    -0.237 OA
ATOM     70  O   UNL A   1      43.442  37.496  33.257  1.00  0.00    -0.237 OA
ATOM     71  O   UNL A   1      45.728  37.615  32.342  1.00  0.00    -0.744 OA
ENDBRANCH  67  68
ENDBRANCH  48  62
BRANCH  49  72
ATOM     72  C   UNL A   1      42.590  23.686  27.562  1.00  0.00    -0.014 A 
ATOM     73  C   UNL A   1      42.586  23.408  26.184  1.00  0.00     0.010 A 
ATOM     74  C   UNL A   1      42.425  22.625  28.473  1.00  0.00     0.010 A 
ATOM     75  C   UNL A   1      42.415  22.098  25.726  1.00  0.00     0.020 A 
ATOM     76  C   UNL A   1      42.288  21.310  28.020  1.00  0.00     0.020 A 
ATOM     77  C   UNL A   1      42.273  21.057  26.647  1.00  0.00     0.054 A 
BRANCH  77  78
ATOM     78  S   UNL A   1      42.119  19.357  26.033  1.00  0.00     0.124 S 
ATOM     79  O   UNL A   1      40.683  19.250  25.792  1.00  0.00    -0.237 OA
ATOM     80  O   UNL A   1      42.962  19.373  24.840  1.00  0.00    -0.237 OA
ATOM     81  O   UNL A   1      42.632  18.547  27.136  1.00  0.00    -0.744 OA
ENDBRANCH  77  78
ENDBRANCH  49  72
BRANCH  61  82
ATOM     82  C   UNL A   1      48.223  27.592  28.828  1.00  0.00    -0.014 A 
ATOM     83  C   UNL A   1      48.958  27.835  27.654  1.00  0.00     0.010 A 
ATOM     84  C   UNL A   1      48.891  27.113  29.970  1.00  0.00     0.010 A 
ATOM     85  C   UNL A   1      50.331  27.574  27.615  1.00  0.00     0.020 A 
ATOM     86  C   UNL A   1      50.267  26.875  29.942  1.00  0.00     0.020 A 
ATOM     87  C   UNL A   1      50.976  27.093  28.758  1.00  0.00     0.054 A 
BRANCH  87  88
ATOM     88  S   UNL A   1      52.765  26.801  28.696  1.00  0.00     0.124 S 
ATOM     89  O   UNL A   1      53.026  26.236  30.017  1.00  0.00    -0.237 OA
ATOM     90  O   UNL A   1      52.900  25.872  27.576  1.00  0.00    -0.237 OA
ATOM     91  O   UNL A   1      53.325  28.131  28.466  1.00  0.00    -0.744 OA
ENDBRANCH  87  88
ENDBRANCH  61  82
ENDBRANCH  35  36
ENDBRANCH  28  30
ENDBRANCH  27  28
ENDBRANCH   1  27
TORSDOF 16
ENDMDL
MODEL 2
REMARK VINA RESULT:     -11.9      3.425      9.901
REMARK SMILES CC1(C)[C@](C)(C(=O)OCCOC(=O)c2ccc(-c3c4nc(c(-c5ccc(S(=O)(=O)[O-])cc5)c5ccc([nH]5)c(-c5ccc(S(=O)(=O)[O-])cc5)c5nc(c(-c6ccc(S(=O)(=O)[O-])cc6)c6ccc3[nH]6)C=C5)C=C4)cc2)CC[C@@]1(C)C(=O)N1CCc2ccccc2C1
REMARK SMILES IDX 10 1 9 2 8 3 6 4 7 5 4 6 1 7 2 8 3 9 76 10 74 11 5 12 75 13
REMARK SMILES IDX 77 14 78 15 79 16 80 17 81 18 89 19 82 20 88 21 83 22 87 23
REMARK SMILES IDX 84 24 86 25 85 26 11 27 12 28 13 29 14 30 15 31 73 32 16 33
REMARK SMILES IDX 72 34 17 35 18 36 19 37 66 38 20 39 71 40 65 41 67 42 21 43
REMARK SMILES IDX 70 44 64 45 63 46 22 48 52 49 33 50 51 51 34 52 37 53 50 54
REMARK SMILES IDX 68 55 35 56 36 57 49 59 69 60 38 61 23 62 24 63 32 64 25 65
REMARK SMILES IDX 31 66 26 67 27 68 28 69 29 70 30 71 53 72 54 73 62 74 55 75
REMARK SMILES IDX 61 76 56 77 57 78 58 79 59 80 60 81 39 82 40 83 48 84 41 85
REMARK SMILES IDX 47 86 42 87 43 88 44 89 45 90 46 91
REMARK H PARENT 67 47 37 58
REMARK Flexibility Score: inf
ROOT
ATOM      1  C   UNL A   1      37.473  21.602  24.622  1.00  0.00     0.275 C 
ENDROOT
BRANCH   1   2
ATOM      2  C   UNL A   1      36.158  20.943  25.035  1.00  0.00     0.274 C 
BRANCH   2   3
ATOM      3  O   UNL A   1      35.561  21.701  26.097  1.00  0.00    -0.462 OA
BRANCH   3   4
ATOM      4  C   UNL A   1      34.200  21.732  26.092  1.00  0.00     0.312 C 
ATOM      5  O   UNL A   1      33.483  20.755  26.283  1.00  0.00    -0.252 OA
BRANCH   4   6
ATOM      6  C   UNL A   1      33.686  23.128  25.746  1.00  0.00     0.071 C 
ATOM      7  C   UNL A   1      34.378  23.353  23.228  1.00  0.00     0.013 C 
ATOM      8  C   UNL A   1      33.227  23.161  24.243  1.00  0.00    -0.005 C 
ATOM      9  C   UNL A   1      32.598  21.790  23.828  1.00  0.00     0.013 C 
ATOM     10  C   UNL A   1      32.146  24.331  24.206  1.00  0.00     0.053 C 
ATOM     11  C   UNL A   1      32.378  23.451  26.497  1.00  0.00     0.020 C 
ATOM     12  C   UNL A   1      34.739  24.151  26.229  1.00  0.00     0.024 C 
ATOM     13  C   UNL A   1      31.638  24.479  25.658  1.00  0.00     0.018 C 
ATOM     14  C   UNL A   1      30.919  23.951  23.338  1.00  0.00     0.022 C 
BRANCH  10  15
ATOM     15  C   UNL A   1      32.875  25.661  23.783  1.00  0.00     0.229 C 
ATOM     16  O   UNL A   1      33.772  25.698  22.941  1.00  0.00    -0.274 OA
BRANCH  15  17
ATOM     17  N   UNL A   1      32.497  26.831  24.390  1.00  0.00    -0.338 N 
ATOM     18  C   UNL A   1      31.763  27.854  23.641  1.00  0.00     0.124 C 
ATOM     19  C   UNL A   1      33.343  27.273  25.454  1.00  0.00     0.155 C 
ATOM     20  C   UNL A   1      31.222  28.978  24.552  1.00  0.00     0.057 C 
ATOM     21  C   UNL A   1      33.486  28.755  25.585  1.00  0.00    -0.025 A 
ATOM     22  C   UNL A   1      32.276  29.458  25.525  1.00  0.00    -0.041 A 
ATOM     23  C   UNL A   1      34.581  29.190  26.327  1.00  0.00     0.006 A 
ATOM     24  C   UNL A   1      32.052  30.391  26.527  1.00  0.00     0.004 A 
ATOM     25  C   UNL A   1      34.347  30.119  27.317  1.00  0.00     0.000 A 
ATOM     26  C   UNL A   1      33.066  30.661  27.460  1.00  0.00     0.000 A 
ENDBRANCH  15  17
ENDBRANCH  10  15
ENDBRANCH   4   6
ENDBRANCH   3   4
ENDBRANCH   2   3
ENDBRANCH   1   2
BRANCH   1  27
ATOM     27  O   UNL A   1      37.770  22.697  25.512  1.00  0.00    -0.458 OA
BRANCH  27  28
ATOM     28  C   UNL A   1      39.038  22.755  25.985  1.00  0.00     0.338 C 
ATOM     29  O   UNL A   1      39.900  21.900  25.864  1.00  0.00    -0.246 OA
BRANCH  28  30
ATOM     30  C   UNL A   1      39.271  24.036  26.690  1.00  0.00     0.060 A 
ATOM     31  C   UNL A   1      40.036  25.043  26.108  1.00  0.00     0.016 A 
ATOM     32  C   UNL A   1      38.822  24.200  27.996  1.00  0.00     0.016 A 
ATOM     33  C   UNL A   1      40.447  26.153  26.848  1.00  0.00     0.010 A 
ATOM     34  C   UNL A   1      39.125  25.376  28.696  1.00  0.00     0.010 A 
ATOM     35  C   UNL A   1      39.974  26.357  28.147  1.00  0.00    -0.014 A 
BRANCH  35  36
ATOM     36  C   UNL A   1      40.369  27.557  28.945  1.00  0.00     0.031 A 
ATOM     37  C   UNL A   1      41.673  27.555  29.708  1.00  0.00     0.074 A 
ATOM     38  C   UNL A   1      39.574  28.647  29.020  1.00  0.00     0.049 A 
ATOM     39  N   UNL A   1      42.069  28.342  30.676  1.00  0.00    -0.248 NA
ATOM     40  C   UNL A   1      42.649  26.515  29.346  1.00  0.00     0.031 C 
ATOM     41  C   UNL A   1      38.321  28.848  28.288  1.00  0.00     0.029 A 
ATOM     42  N   UNL A   1      39.702  29.797  29.764  1.00  0.00    -0.354 N 
ATOM     43  C   UNL A   1      43.298  27.842  31.093  1.00  0.00     0.074 A 
ATOM     44  C   UNL A   1      43.587  26.690  30.267  1.00  0.00     0.031 C 
ATOM     45  C   UNL A   1      37.816  30.053  28.593  1.00  0.00     0.029 A 
ATOM     46  C   UNL A   1      38.642  30.665  29.625  1.00  0.00     0.049 A 
ATOM     47  H   UNL A   1      40.477  29.983  30.342  1.00  0.00     0.167 HD
ATOM     48  C   UNL A   1      44.107  28.296  32.082  1.00  0.00     0.031 A 
ATOM     49  C   UNL A   1      38.324  31.792  30.292  1.00  0.00     0.031 A 
ATOM     50  C   UNL A   1      43.842  29.475  32.865  1.00  0.00     0.049 A 
ATOM     51  C   UNL A   1      39.208  32.254  31.416  1.00  0.00     0.074 A 
ATOM     52  C   UNL A   1      44.601  30.021  33.887  1.00  0.00     0.029 A 
ATOM     53  N   UNL A   1      42.741  30.303  32.701  1.00  0.00    -0.354 N 
ATOM     54  N   UNL A   1      40.322  31.724  31.858  1.00  0.00    -0.248 NA
ATOM     55  C   UNL A   1      38.780  33.456  32.145  1.00  0.00     0.031 C 
ATOM     56  C   UNL A   1      43.939  31.157  34.366  1.00  0.00     0.029 A 
ATOM     57  C   UNL A   1      42.797  31.349  33.607  1.00  0.00     0.049 A 
ATOM     58  H   UNL A   1      42.026  30.168  32.038  1.00  0.00     0.167 HD
ATOM     59  C   UNL A   1      40.738  32.537  32.907  1.00  0.00     0.074 A 
ATOM     60  C   UNL A   1      39.765  33.604  33.020  1.00  0.00     0.031 C 
ATOM     61  C   UNL A   1      41.825  32.407  33.706  1.00  0.00     0.031 A 
BRANCH  48  62
ATOM     62  C   UNL A   1      45.334  27.485  32.412  1.00  0.00    -0.014 A 
ATOM     63  C   UNL A   1      45.296  26.421  33.329  1.00  0.00     0.010 A 
ATOM     64  C   UNL A   1      46.547  27.779  31.758  1.00  0.00     0.010 A 
ATOM     65  C   UNL A   1      46.455  25.694  33.617  1.00  0.00     0.020 A 
ATOM     66  C   UNL A   1      47.701  27.037  32.021  1.00  0.00     0.020 A 
ATOM     67  C   UNL A   1      47.652  26.010  32.965  1.00  0.00     0.054 A 
BRANCH  67  68
ATOM     68  S   UNL A   1      49.139  25.042  33.346  1.00  0.00     0.124 S 
ATOM     69  O   UNL A   1      48.571  23.852  33.974  1.00  0.00    -0.237 OA
ATOM     70  O   UNL A   1      49.733  24.832  32.027  1.00  0.00    -0.237 OA
ATOM     71  O   UNL A   1      49.901  25.912  34.237  1.00  0.00    -0.744 OA
ENDBRANCH  67  68
ENDBRANCH  48  62
BRANCH  49  72
ATOM     72  C   UNL A   1      37.070  32.526  29.957  1.00  0.00    -0.014 A 
ATOM     73  C   UNL A   1      35.887  32.287  30.676  1.00  0.00     0.010 A 
ATOM     74  C   UNL A   1      37.059  33.481  28.922  1.00  0.00     0.010 A 
ATOM     75  C   UNL A   1      34.715  32.984  30.365  1.00  0.00     0.020 A 
ATOM     76  C   UNL A   1      35.900  34.204  28.630  1.00  0.00     0.020 A 
ATOM     77  C   UNL A   1      34.731  33.942  29.347  1.00  0.00     0.054 A 
BRANCH  77  78
ATOM     78  S   UNL A   1      33.218  34.883  29.004  1.00  0.00     0.124 S 
ATOM     79  O   UNL A   1      32.587  34.074  27.966  1.00  0.00    -0.237 OA
ATOM     80  O   UNL A   1      32.546  34.886  30.301  1.00  0.00    -0.237 OA
ATOM     81  O   UNL A   1      33.717  36.186  28.568  1.00  0.00    -0.744 OA
ENDBRANCH  77  78
ENDBRANCH  49  72
BRANCH  61  82
ATOM     82  C   UNL A   1      42.048  33.473  34.744  1.00  0.00    -0.014 A 
ATOM     83  C   UNL A   1      41.595  33.313  36.064  1.00  0.00     0.010 A 
ATOM     84  C   UNL A   1      42.764  34.634  34.399  1.00  0.00     0.010 A 
ATOM     85  C   UNL A   1      41.828  34.311  37.016  1.00  0.00     0.020 A 
ATOM     86  C   UNL A   1      43.021  35.621  35.352  1.00  0.00     0.020 A 
ATOM     87  C   UNL A   1      42.537  35.460  36.653  1.00  0.00     0.054 A 
BRANCH  87  88
ATOM     88  S   UNL A   1      42.863  36.723  37.914  1.00  0.00     0.124 S 
ATOM     89  O   UNL A   1      43.636  37.708  37.163  1.00  0.00    -0.237 OA
ATOM     90  O   UNL A   1      41.519  37.141  38.304  1.00  0.00    -0.237 OA
ATOM     91  O   UNL A   1      43.607  35.999  38.943  1.00  0.00    -0.744 OA
ENDBRANCH  87  88
ENDBRANCH  61  82
ENDBRANCH  35  36
ENDBRANCH  28  30
ENDBRANCH  27  28
ENDBRANCH   1  27
TORSDOF 16
ENDMDL
MODEL 3
REMARK VINA RESULT:     -11.8      3.689      9.995
REMARK SMILES CC1(C)[C@](C)(C(=O)OCCOC(=O)c2ccc(-c3c4nc(c(-c5ccc(S(=O)(=O)[O-])cc5)c5ccc([nH]5)c(-c5ccc(S(=O)(=O)[O-])cc5)c5nc(c(-c6ccc(S(=O)(=O)[O-])cc6)c6ccc3[nH]6)C=C5)C=C4)cc2)CC[C@@]1(C)C(=O)N1CCc2ccccc2C1
REMARK SMILES IDX 10 1 9 2 8 3 6 4 7 5 4 6 1 7 2 8 3 9 76 10 74 11 5 12 75 13
REMARK SMILES IDX 77 14 78 15 79 16 80 17 81 18 89 19 82 20 88 21 83 22 87 23
REMARK SMILES IDX 84 24 86 25 85 26 11 27 12 28 13 29 14 30 15 31 73 32 16 33
REMARK SMILES IDX 72 34 17 35 18 36 19 37 66 38 20 39 71 40 65 41 67 42 21 43
REMARK SMILES IDX 70 44 64 45 63 46 22 48 52 49 33 50 51 51 34 52 37 53 50 54
REMARK SMILES IDX 68 55 35 56 36 57 49 59 69 60 38 61 23 62 24 63 32 64 25 65
REMARK SMILES IDX 31 66 26 67 27 68 28 69 29 70 30 71 53 72 54 73 62 74 55 75
REMARK SMILES IDX 61 76 56 77 57 78 58 79 59 80 60 81 39 82 40 83 48 84 41 85
REMARK SMILES IDX 47 86 42 87 43 88 44 89 45 90 46 91
REMARK H PARENT 67 47 37 58
REMARK Flexibility Score: inf
ROOT
ATOM      1  C   UNL A   1      37.696  21.812  24.889  1.00  0.00     0.275 C 
ENDROOT
BRANCH   1   2
ATOM      2  C   UNL A   1      36.378  21.147  25.280  1.00  0.00     0.274 C 
BRANCH   2   3
ATOM      3  O   UNL A   1      35.498  22.133  25.838  1.00  0.00    -0.462 OA
BRANCH   3   4
ATOM      4  C   UNL A   1      34.248  22.164  25.300  1.00  0.00     0.312 C 
ATOM      5  O   UNL A   1      33.505  21.192  25.214  1.00  0.00    -0.252 OA
BRANCH   4   6
ATOM      6  C   UNL A   1      33.922  23.552  24.753  1.00  0.00     0.071 C 
ATOM      7  C   UNL A   1      31.326  23.407  24.415  1.00  0.00     0.013 C 
ATOM      8  C   UNL A   1      32.494  23.988  25.246  1.00  0.00    -0.005 C 
ATOM      9  C   UNL A   1      32.220  23.450  26.689  1.00  0.00     0.013 C 
ATOM     10  C   UNL A   1      32.558  25.580  25.223  1.00  0.00     0.053 C 
ATOM     11  C   UNL A   1      34.829  24.633  25.377  1.00  0.00     0.020 C 
ATOM     12  C   UNL A   1      34.219  23.544  23.237  1.00  0.00     0.024 C 
ATOM     13  C   UNL A   1      34.059  25.941  25.307  1.00  0.00     0.018 C 
ATOM     14  C   UNL A   1      31.878  26.200  26.471  1.00  0.00     0.022 C 
BRANCH  10  15
ATOM     15  C   UNL A   1      31.991  26.076  23.840  1.00  0.00     0.229 C 
ATOM     16  O   UNL A   1      32.596  25.938  22.777  1.00  0.00    -0.274 OA
BRANCH  15  17
ATOM     17  N   UNL A   1      30.770  26.698  23.824  1.00  0.00    -0.338 N 
ATOM     18  C   UNL A   1      29.552  25.939  23.534  1.00  0.00     0.124 C 
ATOM     19  C   UNL A   1      30.789  28.079  23.456  1.00  0.00     0.155 C 
ATOM     20  C   UNL A   1      28.269  26.757  23.798  1.00  0.00     0.057 C 
ATOM     21  C   UNL A   1      29.600  28.553  22.683  1.00  0.00    -0.025 A 
ATOM     22  C   UNL A   1      28.369  28.149  23.214  1.00  0.00    -0.041 A 
ATOM     23  C   UNL A   1      29.772  29.746  21.986  1.00  0.00     0.006 A 
ATOM     24  C   UNL A   1      27.410  29.138  23.377  1.00  0.00     0.004 A 
ATOM     25  C   UNL A   1      28.812  30.720  22.153  1.00  0.00     0.000 A 
ATOM     26  C   UNL A   1      27.670  30.436  22.909  1.00  0.00     0.000 A 
ENDBRANCH  15  17
ENDBRANCH  10  15
ENDBRANCH   4   6
ENDBRANCH   3   4
ENDBRANCH   2   3
ENDBRANCH   1   2
BRANCH   1  27
ATOM     27  O   UNL A   1      37.987  22.893  25.798  1.00  0.00    -0.458 OA
BRANCH  27  28
ATOM     28  C   UNL A   1      39.274  23.004  26.202  1.00  0.00     0.338 C 
ATOM     29  O   UNL A   1      40.167  22.192  26.019  1.00  0.00    -0.246 OA
BRANCH  28  30
ATOM     30  C   UNL A   1      39.486  24.283  26.917  1.00  0.00     0.060 A 
ATOM     31  C   UNL A   1      40.328  25.262  26.396  1.00  0.00     0.016 A 
ATOM     32  C   UNL A   1      38.934  24.470  28.180  1.00  0.00     0.016 A 
ATOM     33  C   UNL A   1      40.709  26.365  27.162  1.00  0.00     0.010 A 
ATOM     34  C   UNL A   1      39.213  25.642  28.897  1.00  0.00     0.010 A 
ATOM     35  C   UNL A   1      40.134  26.593  28.416  1.00  0.00    -0.014 A 
BRANCH  35  36
ATOM     36  C   UNL A   1      40.497  27.787  29.237  1.00  0.00     0.031 A 
ATOM     37  C   UNL A   1      41.776  27.785  30.041  1.00  0.00     0.074 A 
ATOM     38  C   UNL A   1      39.693  28.872  29.298  1.00  0.00     0.049 A 
ATOM     39  N   UNL A   1      42.137  28.564  31.029  1.00  0.00    -0.248 NA
ATOM     40  C   UNL A   1      42.770  26.754  29.699  1.00  0.00     0.031 C 
ATOM     41  C   UNL A   1      38.462  29.073  28.530  1.00  0.00     0.029 A 
ATOM     42  N   UNL A   1      39.791  30.015  30.058  1.00  0.00    -0.354 N 
ATOM     43  C   UNL A   1      43.356  28.067  31.479  1.00  0.00     0.074 A 
ATOM     44  C   UNL A   1      43.677  26.925  30.650  1.00  0.00     0.031 C 
ATOM     45  C   UNL A   1      37.941  30.272  28.831  1.00  0.00     0.029 A 
ATOM     46  C   UNL A   1      38.731  30.878  29.894  1.00  0.00     0.049 A 
ATOM     47  H   UNL A   1      40.547  30.199  30.661  1.00  0.00     0.167 HD
ATOM     48  C   UNL A   1      44.131  28.516  32.497  1.00  0.00     0.031 A 
ATOM     49  C   UNL A   1      38.386  31.996  30.562  1.00  0.00     0.031 A 
ATOM     50  C   UNL A   1      43.834  29.685  33.283  1.00  0.00     0.049 A 
ATOM     51  C   UNL A   1      39.231  32.452  31.718  1.00  0.00     0.074 A 
ATOM     52  C   UNL A   1      44.558  30.224  34.333  1.00  0.00     0.029 A 
ATOM     53  N   UNL A   1      42.734  30.509  33.093  1.00  0.00    -0.354 N 
ATOM     54  N   UNL A   1      40.335  31.923  32.190  1.00  0.00    -0.248 NA
ATOM     55  C   UNL A   1      38.773  33.644  32.445  1.00  0.00     0.031 C 
ATOM     56  C   UNL A   1      43.875  31.351  34.803  1.00  0.00     0.029 A 
ATOM     57  C   UNL A   1      42.756  31.545  34.011  1.00  0.00     0.049 A 
ATOM     58  H   UNL A   1      42.041  30.376  32.407  1.00  0.00     0.167 HD
ATOM     59  C   UNL A   1      40.712  32.728  33.258  1.00  0.00     0.074 A 
ATOM     60  C   UNL A   1      39.730  33.789  33.352  1.00  0.00     0.031 C 
ATOM     61  C   UNL A   1      41.775  32.597  34.090  1.00  0.00     0.031 A 
BRANCH  48  62
ATOM     62  C   UNL A   1      45.353  27.708  32.856  1.00  0.00    -0.014 A 
ATOM     63  C   UNL A   1      45.323  26.727  33.862  1.00  0.00     0.010 A 
ATOM     64  C   UNL A   1      46.548  27.919  32.142  1.00  0.00     0.010 A 
ATOM     65  C   UNL A   1      46.477  26.001  34.175  1.00  0.00     0.020 A 
ATOM     66  C   UNL A   1      47.696  27.176  32.432  1.00  0.00     0.020 A 
ATOM     67  C   UNL A   1      47.658  26.234  33.461  1.00  0.00     0.054 A 
BRANCH  67  68
ATOM     68  S   UNL A   1      49.137  25.269  33.877  1.00  0.00     0.124 S 
ATOM     69  O   UNL A   1      49.519  24.727  32.575  1.00  0.00    -0.237 OA
ATOM     70  O   UNL A   1      50.039  26.282  34.423  1.00  0.00    -0.237 OA
ATOM     71  O   UNL A   1      48.652  24.287  34.843  1.00  0.00    -0.744 OA
ENDBRANCH  67  68
ENDBRANCH  48  62
BRANCH  49  72
ATOM     72  C   UNL A   1      37.138  32.726  30.196  1.00  0.00    -0.014 A 
ATOM     73  C   UNL A   1      37.133  33.645  29.132  1.00  0.00     0.010 A 
ATOM     74  C   UNL A   1      35.943  32.492  30.902  1.00  0.00     0.010 A 
ATOM     75  C   UNL A   1      35.958  34.320  28.785  1.00  0.00     0.020 A 
ATOM     76  C   UNL A   1      34.760  33.140  30.537  1.00  0.00     0.020 A 
ATOM     77  C   UNL A   1      34.778  34.059  29.487  1.00  0.00     0.054 A 
BRANCH  77  78
ATOM     78  S   UNL A   1      33.251  34.896  28.978  1.00  0.00     0.124 S 
ATOM     79  O   UNL A   1      32.529  35.007  30.242  1.00  0.00    -0.237 OA
ATOM     80  O   UNL A   1      33.748  36.151  28.420  1.00  0.00    -0.237 OA
ATOM     81  O   UNL A   1      32.668  33.979  28.000  1.00  0.00    -0.744 OA
ENDBRANCH  77  78
ENDBRANCH  49  72
BRANCH  61  82
ATOM     82  C   UNL A   1      41.959  33.653  35.145  1.00  0.00    -0.014 A 
ATOM     83  C   UNL A   1      41.424  33.499  36.435  1.00  0.00     0.010 A 
ATOM     84  C   UNL A   1      42.721  34.799  34.849  1.00  0.00     0.010 A 
ATOM     85  C   UNL A   1      41.622  34.487  37.404  1.00  0.00     0.020 A 
ATOM     86  C   UNL A   1      42.942  35.776  35.822  1.00  0.00     0.020 A 
ATOM     87  C   UNL A   1      42.378  35.621  37.090  1.00  0.00     0.054 A 
BRANCH  87  88
ATOM     88  S   UNL A   1      42.655  36.871  38.375  1.00  0.00     0.124 S 
ATOM     89  O   UNL A   1      43.496  37.840  37.678  1.00  0.00    -0.237 OA
ATOM     90  O   UNL A   1      41.300  37.321  38.684  1.00  0.00    -0.237 OA
ATOM     91  O   UNL A   1      43.318  36.127  39.444  1.00  0.00    -0.744 OA
ENDBRANCH  87  88
ENDBRANCH  61  82
ENDBRANCH  35  36
ENDBRANCH  28  30
ENDBRANCH  27  28
ENDBRANCH   1  27
TORSDOF 16
ENDMDL
