MODEL 1
REMARK VINA RESULT:     -11.5      0.000      0.000
REMARK SMILES O=C(NCc1ccc(C(=O)OCCOC(=O)c2ccc(-c3c4nc(c(-c5ccc(S(=O)(=O)[O-])cc5)c5ccc([nH]5)c(-c5ccc(S(=O)(=O)[O-])cc5)c5nc(c(-c6ccc(S(=O)(=O)[O-])cc6)c6ccc3[nH]6)C=C5)C=C4)cc2)cc1)Nc1ccccc1Br
REMARK SMILES IDX 12 1 11 2 9 3 10 4 8 5 5 6 6 7 78 8 7 9 77 10 4 11 3 12 1 13
REMARK SMILES IDX 2 14 79 15 80 18 81 19 85 20 82 21 84 22 86 23 83 24 13 25
REMARK SMILES IDX 14 26 15 27 16 28 17 29 18 30 76 31 19 32 75 33 20 34 21 35
REMARK SMILES IDX 22 36 69 37 23 38 74 39 68 40 70 41 24 42 73 43 67 44 66 45
REMARK SMILES IDX 25 47 55 48 36 49 54 50 37 51 40 52 53 53 71 54 38 55 39 56
REMARK SMILES IDX 52 58 72 59 41 60 26 61 27 62 35 63 28 64 34 65 29 66 30 67
REMARK SMILES IDX 31 68 32 69 33 70 56 71 57 72 65 73 58 74 64 75 59 76 60 77
REMARK SMILES IDX 61 78 62 79 63 80 42 81 43 82 51 83 44 84 50 85 45 86 46 87
REMARK SMILES IDX 47 88 48 89 49 90
REMARK H PARENT 3 16 79 17 70 46 40 57
REMARK Flexibility Score: inf
ROOT
ATOM      1  C   UNL A   1      38.064  22.058  25.119  1.00  0.00     0.275 C 
ENDROOT
BRANCH   1   2
ATOM      2  O   UNL A   1      36.768  21.881  25.727  1.00  0.00    -0.458 OA
BRANCH   2   3
ATOM      3  C   UNL A   1      35.968  20.964  25.128  1.00  0.00     0.338 C 
ATOM      4  O   UNL A   1      36.210  19.774  24.993  1.00  0.00    -0.246 OA
BRANCH   3   5
ATOM      5  C   UNL A   1      34.686  21.565  24.691  1.00  0.00     0.060 A 
ATOM      6  C   UNL A   1      32.315  22.864  23.924  1.00  0.00    -0.029 A 
ATOM      7  C   UNL A   1      33.551  23.480  23.719  1.00  0.00     0.006 A 
ATOM      8  C   UNL A   1      32.275  21.576  24.484  1.00  0.00     0.006 A 
ATOM      9  C   UNL A   1      34.722  22.848  24.129  1.00  0.00     0.016 A 
ATOM     10  C   UNL A   1      33.457  20.925  24.861  1.00  0.00     0.016 A 
BRANCH   6  11
ATOM     11  C   UNL A   1      31.053  23.595  23.558  1.00  0.00     0.153 C 
BRANCH  11  12
ATOM     12  N   UNL A   1      30.417  24.177  24.715  1.00  0.00    -0.334 N 
ATOM     13  O   UNL A   1      29.975  25.659  26.315  1.00  0.00    -0.248 OA
ATOM     14  C   UNL A   1      30.621  25.381  25.311  1.00  0.00     0.319 C 
ATOM     15  N   UNL A   1      31.504  26.213  24.683  1.00  0.00    -0.307 N 
ATOM     16  H   UNL A   1      29.729  23.614  25.138  1.00  0.00     0.165 HD
ATOM     17  H   UNL A   1      31.773  25.968  23.768  1.00  0.00     0.171 HD
BRANCH  15  18
ATOM     18  C   UNL A   1      32.067  27.390  25.221  1.00  0.00     0.057 A 
ATOM     19  C   UNL A   1      32.951  27.192  26.295  1.00  0.00     0.027 A 
ATOM     20  C   UNL A   1      31.797  28.705  24.806  1.00  0.00     0.041 A 
ATOM     21  C   UNL A   1      33.617  28.267  26.888  1.00  0.00     0.002 A 
ATOM     22  C   UNL A   1      32.480  29.778  25.397  1.00  0.00     0.018 A 
ATOM     23  Br  UNL A   1      30.374  29.189  23.637  1.00  0.00    -0.049 Br
ATOM     24  C   UNL A   1      33.396  29.558  26.425  1.00  0.00     0.001 A 
ENDBRANCH  15  18
ENDBRANCH  11  12
ENDBRANCH   6  11
ENDBRANCH   3   5
ENDBRANCH   2   3
ENDBRANCH   1   2
BRANCH   1  25
ATOM     25  C   UNL A   1      39.182  22.057  26.163  1.00  0.00     0.275 C 
BRANCH  25  26
ATOM     26  O   UNL A   1      39.205  23.296  26.894  1.00  0.00    -0.458 OA
BRANCH  26  27
ATOM     27  C   UNL A   1      40.383  23.959  26.864  1.00  0.00     0.338 C 
ATOM     28  O   UNL A   1      41.402  23.635  26.279  1.00  0.00    -0.246 OA
BRANCH  27  29
ATOM     29  C   UNL A   1      40.278  25.200  27.645  1.00  0.00     0.060 A 
ATOM     30  C   UNL A   1      41.261  26.175  27.498  1.00  0.00     0.016 A 
ATOM     31  C   UNL A   1      39.300  25.332  28.628  1.00  0.00     0.016 A 
ATOM     32  C   UNL A   1      41.334  27.239  28.395  1.00  0.00     0.010 A 
ATOM     33  C   UNL A   1      39.316  26.454  29.464  1.00  0.00     0.010 A 
ATOM     34  C   UNL A   1      40.354  27.403  29.384  1.00  0.00    -0.014 A 
BRANCH  34  35
ATOM     35  C   UNL A   1      40.416  28.530  30.359  1.00  0.00     0.031 A 
ATOM     36  C   UNL A   1      41.433  28.502  31.473  1.00  0.00     0.074 A 
ATOM     37  C   UNL A   1      39.554  29.565  30.278  1.00  0.00     0.049 A 
ATOM     38  N   UNL A   1      41.482  29.217  32.568  1.00  0.00    -0.248 NA
ATOM     39  C   UNL A   1      42.528  27.527  31.344  1.00  0.00     0.031 C 
ATOM     40  C   UNL A   1      38.561  29.770  29.220  1.00  0.00     0.029 A 
ATOM     41  N   UNL A   1      39.368  30.641  31.114  1.00  0.00    -0.354 N 
ATOM     42  C   UNL A   1      42.567  28.730  33.290  1.00  0.00     0.074 A 
ATOM     43  C   UNL A   1      43.154  27.667  32.505  1.00  0.00     0.031 C 
ATOM     44  C   UNL A   1      37.889  30.906  29.459  1.00  0.00     0.029 A 
ATOM     45  C   UNL A   1      38.328  31.458  30.735  1.00  0.00     0.049 A 
ATOM     46  H   UNL A   1      39.925  30.809  31.908  1.00  0.00     0.167 HD
ATOM     47  C   UNL A   1      43.021  29.125  34.505  1.00  0.00     0.031 A 
ATOM     48  C   UNL A   1      37.746  32.497  31.365  1.00  0.00     0.031 A 
ATOM     49  C   UNL A   1      42.456  30.214  35.259  1.00  0.00     0.049 A 
ATOM     50  C   UNL A   1      38.239  32.899  32.727  1.00  0.00     0.074 A 
ATOM     51  C   UNL A   1      42.841  30.695  36.499  1.00  0.00     0.029 A 
ATOM     52  N   UNL A   1      41.399  31.005  34.835  1.00  0.00    -0.354 N 
ATOM     53  N   UNL A   1      39.212  32.378  33.434  1.00  0.00    -0.248 NA
ATOM     54  C   UNL A   1      37.544  34.015  33.383  1.00  0.00     0.031 C 
ATOM     55  C   UNL A   1      41.994  31.755  36.840  1.00  0.00     0.029 A 
ATOM     56  C   UNL A   1      41.116  31.967  35.789  1.00  0.00     0.049 A 
ATOM     57  H   UNL A   1      40.921  30.899  33.981  1.00  0.00     0.167 HD
ATOM     58  C   UNL A   1      39.263  33.118  34.609  1.00  0.00     0.074 A 
ATOM     59  C   UNL A   1      38.227  34.127  34.515  1.00  0.00     0.031 C 
ATOM     60  C   UNL A   1      40.092  32.974  35.670  1.00  0.00     0.031 A 
BRANCH  47  61
ATOM     61  C   UNL A   1      44.151  28.344  35.121  1.00  0.00    -0.014 A 
ATOM     62  C   UNL A   1      43.920  27.203  35.909  1.00  0.00     0.010 A 
ATOM     63  C   UNL A   1      45.479  28.740  34.868  1.00  0.00     0.010 A 
ATOM     64  C   UNL A   1      44.993  26.498  36.464  1.00  0.00     0.020 A 
ATOM     65  C   UNL A   1      46.554  28.025  35.399  1.00  0.00     0.020 A 
ATOM     66  C   UNL A   1      46.304  26.916  36.211  1.00  0.00     0.054 A 
BRANCH  66  67
ATOM     67  S   UNL A   1      47.680  25.976  36.928  1.00  0.00     0.124 S 
ATOM     68  O   UNL A   1      47.470  24.649  36.352  1.00  0.00    -0.237 OA
ATOM     69  O   UNL A   1      48.852  26.694  36.437  1.00  0.00    -0.237 OA
ATOM     70  O   UNL A   1      47.452  26.072  38.368  1.00  0.00    -0.744 OA
ENDBRANCH  66  67
ENDBRANCH  47  61
BRANCH  48  71
ATOM     71  C   UNL A   1      36.591  33.191  30.732  1.00  0.00    -0.014 A 
ATOM     72  C   UNL A   1      35.308  33.106  31.296  1.00  0.00     0.010 A 
ATOM     73  C   UNL A   1      36.778  33.970  29.574  1.00  0.00     0.010 A 
ATOM     74  C   UNL A   1      34.232  33.784  30.714  1.00  0.00     0.020 A 
ATOM     75  C   UNL A   1      35.713  34.674  29.007  1.00  0.00     0.020 A 
ATOM     76  C   UNL A   1      34.443  34.568  29.576  1.00  0.00     0.054 A 
BRANCH  76  77
ATOM     77  S   UNL A   1      33.051  35.500  28.880  1.00  0.00     0.124 S 
ATOM     78  O   UNL A   1      33.733  36.533  28.107  1.00  0.00    -0.237 OA
ATOM     79  O   UNL A   1      32.348  34.485  28.097  1.00  0.00    -0.237 OA
ATOM     80  O   UNL A   1      32.332  35.972  30.061  1.00  0.00    -0.744 OA
ENDBRANCH  76  77
ENDBRANCH  48  71
BRANCH  60  81
ATOM     81  C   UNL A   1      39.961  33.965  36.794  1.00  0.00    -0.014 A 
ATOM     82  C   UNL A   1      40.464  35.272  36.678  1.00  0.00     0.010 A 
ATOM     83  C   UNL A   1      39.252  33.598  37.952  1.00  0.00     0.010 A 
ATOM     84  C   UNL A   1      40.273  36.192  37.713  1.00  0.00     0.020 A 
ATOM     85  C   UNL A   1      39.041  34.522  38.978  1.00  0.00     0.020 A 
ATOM     86  C   UNL A   1      39.561  35.812  38.855  1.00  0.00     0.054 A 
BRANCH  86  87
ATOM     87  S   UNL A   1      39.268  37.043  40.155  1.00  0.00     0.124 S 
ATOM     88  O   UNL A   1      38.376  36.323  41.060  1.00  0.00    -0.237 OA
ATOM     89  O   UNL A   1      40.613  37.296  40.667  1.00  0.00    -0.237 OA
ATOM     90  O   UNL A   1      38.660  38.163  39.440  1.00  0.00    -0.744 OA
ENDBRANCH  86  87
ENDBRANCH  60  81
ENDBRANCH  34  35
ENDBRANCH  27  29
ENDBRANCH  26  27
ENDBRANCH  25  26
ENDBRANCH   1  25
TORSDOF 17
ENDMDL
MODEL 2
REMARK VINA RESULT:     -11.2      7.008      9.364
REMARK SMILES O=C(NCc1ccc(C(=O)OCCOC(=O)c2ccc(-c3c4nc(c(-c5ccc(S(=O)(=O)[O-])cc5)c5ccc([nH]5)c(-c5ccc(S(=O)(=O)[O-])cc5)c5nc(c(-c6ccc(S(=O)(=O)[O-])cc6)c6ccc3[nH]6)C=C5)C=C4)cc2)cc1)Nc1ccccc1Br
REMARK SMILES IDX 12 1 11 2 9 3 10 4 8 5 5 6 6 7 78 8 7 9 77 10 4 11 3 12 1 13
REMARK SMILES IDX 2 14 79 15 80 18 81 19 85 20 82 21 84 22 86 23 83 24 13 25
REMARK SMILES IDX 14 26 15 27 16 28 17 29 18 30 76 31 19 32 75 33 20 34 21 35
REMARK SMILES IDX 22 36 69 37 23 38 74 39 68 40 70 41 24 42 73 43 67 44 66 45
REMARK SMILES IDX 25 47 55 48 36 49 54 50 37 51 40 52 53 53 71 54 38 55 39 56
REMARK SMILES IDX 52 58 72 59 41 60 26 61 27 62 35 63 28 64 34 65 29 66 30 67
REMARK SMILES IDX 31 68 32 69 33 70 56 71 57 72 65 73 58 74 64 75 59 76 60 77
REMARK SMILES IDX 61 78 62 79 63 80 42 81 43 82 51 83 44 84 50 85 45 86 46 87
REMARK SMILES IDX 47 88 48 89 49 90
REMARK H PARENT 3 16 79 17 70 46 40 57
REMARK Flexibility Score: inf
ROOT
ATOM      1  C   UNL A   1      41.869  19.429  26.117  1.00  0.00     0.275 C 
ENDROOT
BRANCH   1   2
ATOM      2  O   UNL A   1      41.908  20.073  27.407  1.00  0.00    -0.458 OA
BRANCH   2   3
ATOM      3  C   UNL A   1      41.898  21.429  27.378  1.00  0.00     0.338 C 
ATOM      4  O   UNL A   1      42.836  22.163  27.648  1.00  0.00    -0.246 OA
BRANCH   3   5
ATOM      5  C   UNL A   1      40.595  21.952  26.904  1.00  0.00     0.060 A 
ATOM      6  C   UNL A   1      38.102  23.020  26.169  1.00  0.00    -0.029 A 
ATOM      7  C   UNL A   1      39.006  23.790  26.903  1.00  0.00     0.006 A 
ATOM      8  C   UNL A   1      38.468  21.723  25.773  1.00  0.00     0.006 A 
ATOM      9  C   UNL A   1      40.227  23.247  27.294  1.00  0.00     0.016 A 
ATOM     10  C   UNL A   1      39.713  21.191  26.134  1.00  0.00     0.016 A 
BRANCH   6  11
ATOM     11  C   UNL A   1      36.751  23.588  25.830  1.00  0.00     0.153 C 
BRANCH  11  12
ATOM     12  N   UNL A   1      35.710  23.018  26.650  1.00  0.00    -0.334 N 
ATOM     13  O   UNL A   1      34.042  21.673  27.250  1.00  0.00    -0.248 OA
ATOM     14  C   UNL A   1      34.881  21.969  26.408  1.00  0.00     0.319 C 
ATOM     15  N   UNL A   1      35.110  21.288  25.245  1.00  0.00    -0.307 N 
ATOM     16  H   UNL A   1      35.581  23.458  27.522  1.00  0.00     0.165 HD
ATOM     17  H   UNL A   1      35.955  21.479  24.777  1.00  0.00     0.171 HD
BRANCH  15  18
ATOM     18  C   UNL A   1      34.250  20.339  24.653  1.00  0.00     0.057 A 
ATOM     19  C   UNL A   1      34.710  19.011  24.690  1.00  0.00     0.027 A 
ATOM     20  C   UNL A   1      33.027  20.610  24.017  1.00  0.00     0.041 A 
ATOM     21  C   UNL A   1      33.935  17.965  24.184  1.00  0.00     0.002 A 
ATOM     22  C   UNL A   1      32.247  19.552  23.525  1.00  0.00     0.018 A 
ATOM     23  Br  UNL A   1      32.426  22.354  23.548  1.00  0.00    -0.049 Br
ATOM     24  C   UNL A   1      32.694  18.235  23.619  1.00  0.00     0.001 A 
ENDBRANCH  15  18
ENDBRANCH  11  12
ENDBRANCH   6  11
ENDBRANCH   3   5
ENDBRANCH   2   3
ENDBRANCH   1   2
BRANCH   1  25
ATOM     25  C   UNL A   1      43.203  18.761  25.780  1.00  0.00     0.275 C 
BRANCH  25  26
ATOM     26  O   UNL A   1      43.583  19.027  24.419  1.00  0.00    -0.458 OA
BRANCH  26  27
ATOM     27  C   UNL A   1      44.812  19.571  24.261  1.00  0.00     0.338 C 
ATOM     28  O   UNL A   1      45.801  19.043  23.782  1.00  0.00    -0.246 OA
BRANCH  27  29
ATOM     29  C   UNL A   1      44.809  20.961  24.741  1.00  0.00     0.060 A 
ATOM     30  C   UNL A   1      44.090  21.919  24.031  1.00  0.00     0.016 A 
ATOM     31  C   UNL A   1      45.634  21.342  25.796  1.00  0.00     0.016 A 
ATOM     32  C   UNL A   1      44.266  23.274  24.304  1.00  0.00     0.010 A 
ATOM     33  C   UNL A   1      45.732  22.696  26.134  1.00  0.00     0.010 A 
ATOM     34  C   UNL A   1      45.079  23.683  25.369  1.00  0.00    -0.014 A 
BRANCH  34  35
ATOM     35  C   UNL A   1      45.289  25.128  25.676  1.00  0.00     0.031 A 
ATOM     36  C   UNL A   1      46.655  25.741  25.497  1.00  0.00     0.074 A 
ATOM     37  C   UNL A   1      44.278  25.892  26.142  1.00  0.00     0.049 A 
ATOM     38  N   UNL A   1      47.120  26.876  25.953  1.00  0.00    -0.248 NA
ATOM     39  C   UNL A   1      47.631  24.965  24.713  1.00  0.00     0.031 C 
ATOM     40  C   UNL A   1      42.887  25.462  26.303  1.00  0.00     0.029 A 
ATOM     41  N   UNL A   1      44.271  27.196  26.578  1.00  0.00    -0.354 N 
ATOM     42  C   UNL A   1      48.459  26.917  25.577  1.00  0.00     0.074 A 
ATOM     43  C   UNL A   1      48.728  25.698  24.845  1.00  0.00     0.031 C 
ATOM     44  C   UNL A   1      42.162  26.485  26.780  1.00  0.00     0.029 A 
ATOM     45  C   UNL A   1      43.049  27.609  27.055  1.00  0.00     0.049 A 
ATOM     46  H   UNL A   1      45.065  27.778  26.551  1.00  0.00     0.167 HD
ATOM     47  C   UNL A   1      49.382  27.876  25.832  1.00  0.00     0.031 A 
ATOM     48  C   UNL A   1      42.686  28.736  27.698  1.00  0.00     0.031 A 
ATOM     49  C   UNL A   1      49.092  29.106  26.524  1.00  0.00     0.049 A 
ATOM     50  C   UNL A   1      43.729  29.773  28.005  1.00  0.00     0.074 A 
ATOM     51  C   UNL A   1      49.955  30.143  26.834  1.00  0.00     0.029 A 
ATOM     52  N   UNL A   1      47.840  29.473  26.994  1.00  0.00    -0.354 N 
ATOM     53  N   UNL A   1      45.008  29.762  27.716  1.00  0.00    -0.248 NA
ATOM     54  C   UNL A   1      43.285  30.965  28.741  1.00  0.00     0.031 C 
ATOM     55  C   UNL A   1      49.231  31.123  27.522  1.00  0.00     0.029 A 
ATOM     56  C   UNL A   1      47.908  30.718  27.595  1.00  0.00     0.049 A 
ATOM     57  H   UNL A   1      47.024  28.929  26.912  1.00  0.00     0.167 HD
ATOM     58  C   UNL A   1      45.518  30.956  28.213  1.00  0.00     0.074 A 
ATOM     59  C   UNL A   1      44.409  31.668  28.815  1.00  0.00     0.031 C 
ATOM     60  C   UNL A   1      46.790  31.419  28.173  1.00  0.00     0.031 A 
BRANCH  47  61
ATOM     61  C   UNL A   1      50.803  27.614  25.410  1.00  0.00    -0.014 A 
ATOM     62  C   UNL A   1      51.283  27.995  24.146  1.00  0.00     0.010 A 
ATOM     63  C   UNL A   1      51.689  27.007  26.322  1.00  0.00     0.010 A 
ATOM     64  C   UNL A   1      52.610  27.739  23.785  1.00  0.00     0.020 A 
ATOM     65  C   UNL A   1      53.022  26.772  25.976  1.00  0.00     0.020 A 
ATOM     66  C   UNL A   1      53.471  27.123  24.701  1.00  0.00     0.054 A 
BRANCH  66  67
ATOM     67  S   UNL A   1      55.193  26.816  24.218  1.00  0.00     0.124 S 
ATOM     68  O   UNL A   1      55.114  26.891  22.761  1.00  0.00    -0.237 OA
ATOM     69  O   UNL A   1      55.910  27.911  24.865  1.00  0.00    -0.237 OA
ATOM     70  O   UNL A   1      55.472  25.487  24.759  1.00  0.00    -0.744 OA
ENDBRANCH  66  67
ENDBRANCH  47  61
BRANCH  48  71
ATOM     71  C   UNL A   1      41.277  28.909  28.146  1.00  0.00    -0.014 A 
ATOM     72  C   UNL A   1      40.936  28.786  29.503  1.00  0.00     0.010 A 
ATOM     73  C   UNL A   1      40.271  29.233  27.215  1.00  0.00     0.010 A 
ATOM     74  C   UNL A   1      39.616  28.979  29.921  1.00  0.00     0.020 A 
ATOM     75  C   UNL A   1      38.957  29.458  27.633  1.00  0.00     0.020 A 
ATOM     76  C   UNL A   1      38.636  29.319  28.984  1.00  0.00     0.054 A 
BRANCH  76  77
ATOM     77  S   UNL A   1      36.944  29.640  29.557  1.00  0.00     0.124 S 
ATOM     78  O   UNL A   1      36.146  29.120  28.452  1.00  0.00    -0.237 OA
ATOM     79  O   UNL A   1      36.879  28.874  30.801  1.00  0.00    -0.237 OA
ATOM     80  O   UNL A   1      36.911  31.090  29.728  1.00  0.00    -0.744 OA
ENDBRANCH  76  77
ENDBRANCH  48  71
BRANCH  60  81
ATOM     81  C   UNL A   1      47.049  32.786  28.744  1.00  0.00    -0.014 A 
ATOM     82  C   UNL A   1      47.457  32.956  30.077  1.00  0.00     0.010 A 
ATOM     83  C   UNL A   1      46.956  33.909  27.902  1.00  0.00     0.010 A 
ATOM     84  C   UNL A   1      47.752  34.232  30.564  1.00  0.00     0.020 A 
ATOM     85  C   UNL A   1      47.271  35.183  28.379  1.00  0.00     0.020 A 
ATOM     86  C   UNL A   1      47.659  35.337  29.711  1.00  0.00     0.054 A 
BRANCH  86  87
ATOM     87  S   UNL A   1      48.112  36.975  30.347  1.00  0.00     0.124 S 
ATOM     88  O   UNL A   1      48.870  36.637  31.549  1.00  0.00    -0.237 OA
ATOM     89  O   UNL A   1      48.895  37.541  29.250  1.00  0.00    -0.237 OA
ATOM     90  O   UNL A   1      46.824  37.624  30.582  1.00  0.00    -0.744 OA
ENDBRANCH  86  87
ENDBRANCH  60  81
ENDBRANCH  34  35
ENDBRANCH  27  29
ENDBRANCH  26  27
ENDBRANCH  25  26
ENDBRANCH   1  25
TORSDOF 17
ENDMDL
MODEL 3
REMARK VINA RESULT:     -11.1      1.870      8.585
REMARK SMILES O=C(NCc1ccc(C(=O)OCCOC(=O)c2ccc(-c3c4nc(c(-c5ccc(S(=O)(=O)[O-])cc5)c5ccc([nH]5)c(-c5ccc(S(=O)(=O)[O-])cc5)c5nc(c(-c6ccc(S(=O)(=O)[O-])cc6)c6ccc3[nH]6)C=C5)C=C4)cc2)cc1)Nc1ccccc1Br
REMARK SMILES IDX 12 1 11 2 9 3 10 4 8 5 5 6 6 7 78 8 7 9 77 10 4 11 3 12 1 13
REMARK SMILES IDX 2 14 79 15 80 18 81 19 85 20 82 21 84 22 86 23 83 24 13 25
REMARK SMILES IDX 14 26 15 27 16 28 17 29 18 30 76 31 19 32 75 33 20 34 21 35
REMARK SMILES IDX 22 36 69 37 23 38 74 39 68 40 70 41 24 42 73 43 67 44 66 45
REMARK SMILES IDX 25 47 55 48 36 49 54 50 37 51 40 52 53 53 71 54 38 55 39 56
REMARK SMILES IDX 52 58 72 59 41 60 26 61 27 62 35 63 28 64 34 65 29 66 30 67
REMARK SMILES IDX 31 68 32 69 33 70 56 71 57 72 65 73 58 74 64 75 59 76 60 77
REMARK SMILES IDX 61 78 62 79 63 80 42 81 43 82 51 83 44 84 50 85 45 86 46 87
REMARK SMILES IDX 47 88 48 89 49 90
REMARK H PARENT 3 16 79 17 70 46 40 57
REMARK Flexibility Score: inf
ROOT
ATOM      1  C   UNL A   1      42.961  22.567  26.238  1.00  0.00     0.275 C 
ENDROOT
BRANCH   1   2
ATOM      2  O   UNL A   1      41.703  22.455  26.933  1.00  0.00    -0.458 OA
BRANCH   2   3
ATOM      3  C   UNL A   1      40.841  21.537  26.429  1.00  0.00     0.338 C 
ATOM      4  O   UNL A   1      41.073  20.351  26.253  1.00  0.00    -0.246 OA
BRANCH   3   5
ATOM      5  C   UNL A   1      39.510  22.131  26.159  1.00  0.00     0.060 A 
ATOM      6  C   UNL A   1      36.997  23.337  25.811  1.00  0.00    -0.029 A 
ATOM      7  C   UNL A   1      38.050  24.060  26.374  1.00  0.00     0.006 A 
ATOM      8  C   UNL A   1      37.220  22.016  25.389  1.00  0.00     0.006 A 
ATOM      9  C   UNL A   1      39.285  23.450  26.576  1.00  0.00     0.016 A 
ATOM     10  C   UNL A   1      38.474  21.415  25.556  1.00  0.00     0.016 A 
BRANCH   6  11
ATOM     11  C   UNL A   1      35.643  23.980  25.680  1.00  0.00     0.153 C 
BRANCH  11  12
ATOM     12  N   UNL A   1      35.176  23.970  24.315  1.00  0.00    -0.334 N 
ATOM     13  O   UNL A   1      34.061  24.607  22.497  1.00  0.00    -0.248 OA
ATOM     14  C   UNL A   1      34.345  24.830  23.669  1.00  0.00     0.319 C 
ATOM     15  N   UNL A   1      33.946  25.922  24.386  1.00  0.00    -0.307 N 
ATOM     16  H   UNL A   1      35.512  23.224  23.767  1.00  0.00     0.165 HD
ATOM     17  H   UNL A   1      34.428  26.104  25.225  1.00  0.00     0.171 HD
BRANCH  15  18
ATOM     18  C   UNL A   1      32.908  26.813  24.038  1.00  0.00     0.057 A 
ATOM     19  C   UNL A   1      33.313  27.951  23.322  1.00  0.00     0.027 A 
ATOM     20  C   UNL A   1      31.550  26.675  24.371  1.00  0.00     0.041 A 
ATOM     21  C   UNL A   1      32.381  28.889  22.871  1.00  0.00     0.002 A 
ATOM     22  C   UNL A   1      30.618  27.613  23.904  1.00  0.00     0.018 A 
ATOM     23  Br  UNL A   1      30.877  25.416  25.631  1.00  0.00    -0.049 Br
ATOM     24  C   UNL A   1      31.031  28.709  23.146  1.00  0.00     0.001 A 
ENDBRANCH  15  18
ENDBRANCH  11  12
ENDBRANCH   6  11
ENDBRANCH   3   5
ENDBRANCH   2   3
ENDBRANCH   1   2
BRANCH   1  25
ATOM     25  C   UNL A   1      42.982  23.775  25.301  1.00  0.00     0.275 C 
BRANCH  25  26
ATOM     26  O   UNL A   1      43.243  24.987  26.031  1.00  0.00    -0.458 OA
BRANCH  26  27
ATOM     27  C   UNL A   1      42.227  25.881  26.045  1.00  0.00     0.338 C 
ATOM     28  O   UNL A   1      41.479  26.168  25.126  1.00  0.00    -0.246 OA
BRANCH  27  29
ATOM     29  C   UNL A   1      42.109  26.483  27.380  1.00  0.00     0.060 A 
ATOM     30  C   UNL A   1      41.213  25.932  28.292  1.00  0.00     0.016 A 
ATOM     31  C   UNL A   1      42.767  27.674  27.675  1.00  0.00     0.016 A 
ATOM     32  C   UNL A   1      40.891  26.618  29.462  1.00  0.00     0.010 A 
ATOM     33  C   UNL A   1      42.517  28.311  28.896  1.00  0.00     0.010 A 
ATOM     34  C   UNL A   1      41.549  27.811  29.790  1.00  0.00    -0.014 A 
BRANCH  34  35
ATOM     35  C   UNL A   1      41.216  28.566  31.032  1.00  0.00     0.031 A 
ATOM     36  C   UNL A   1      40.062  29.537  31.032  1.00  0.00     0.074 A 
ATOM     37  C   UNL A   1      41.952  28.415  32.153  1.00  0.00     0.049 A 
ATOM     38  N   UNL A   1      39.774  30.480  31.892  1.00  0.00    -0.248 NA
ATOM     39  C   UNL A   1      39.119  29.444  29.905  1.00  0.00     0.031 C 
ATOM     40  C   UNL A   1      43.053  27.465  32.331  1.00  0.00     0.029 A 
ATOM     41  N   UNL A   1      41.888  29.072  33.359  1.00  0.00    -0.354 N 
ATOM     42  C   UNL A   1      38.663  31.139  31.374  1.00  0.00     0.074 A 
ATOM     43  C   UNL A   1      38.323  30.481  30.131  1.00  0.00     0.031 C 
ATOM     44  C   UNL A   1      43.545  27.587  33.573  1.00  0.00     0.029 A 
ATOM     45  C   UNL A   1      42.866  28.688  34.247  1.00  0.00     0.049 A 
ATOM     46  H   UNL A   1      41.208  29.753  33.567  1.00  0.00     0.167 HD
ATOM     47  C   UNL A   1      37.997  32.205  31.882  1.00  0.00     0.031 A 
ATOM     48  C   UNL A   1      43.226  29.198  35.441  1.00  0.00     0.031 A 
ATOM     49  C   UNL A   1      38.316  32.826  33.142  1.00  0.00     0.049 A 
ATOM     50  C   UNL A   1      42.500  30.401  35.973  1.00  0.00     0.074 A 
ATOM     51  C   UNL A   1      37.704  33.910  33.748  1.00  0.00     0.029 A 
ATOM     52  N   UNL A   1      39.321  32.403  33.999  1.00  0.00    -0.354 N 
ATOM     53  N   UNL A   1      41.505  31.064  35.435  1.00  0.00    -0.248 NA
ATOM     54  C   UNL A   1      42.958  30.937  37.263  1.00  0.00     0.031 C 
ATOM     55  C   UNL A   1      38.362  34.165  34.956  1.00  0.00     0.029 A 
ATOM     56  C   UNL A   1      39.349  33.207  35.126  1.00  0.00     0.049 A 
ATOM     57  H   UNL A   1      39.924  31.644  33.832  1.00  0.00     0.167 HD
ATOM     58  C   UNL A   1      41.201  32.082  36.332  1.00  0.00     0.074 A 
ATOM     59  C   UNL A   1      42.112  31.943  37.450  1.00  0.00     0.031 C 
ATOM     60  C   UNL A   1      40.252  33.043  36.236  1.00  0.00     0.031 A 
BRANCH  47  61
ATOM     61  C   UNL A   1      36.891  32.803  31.053  1.00  0.00    -0.014 A 
ATOM     62  C   UNL A   1      37.158  33.659  29.971  1.00  0.00     0.010 A 
ATOM     63  C   UNL A   1      35.555  32.465  31.343  1.00  0.00     0.010 A 
ATOM     64  C   UNL A   1      36.108  34.197  29.219  1.00  0.00     0.020 A 
ATOM     65  C   UNL A   1      34.504  32.979  30.579  1.00  0.00     0.020 A 
ATOM     66  C   UNL A   1      34.786  33.859  29.531  1.00  0.00     0.054 A 
BRANCH  66  67
ATOM     67  S   UNL A   1      33.442  34.554  28.532  1.00  0.00     0.124 S 
ATOM     68  O   UNL A   1      33.024  33.397  27.743  1.00  0.00    -0.237 OA
ATOM     69  O   UNL A   1      32.487  35.003  29.541  1.00  0.00    -0.237 OA
ATOM     70  O   UNL A   1      34.090  35.621  27.774  1.00  0.00    -0.744 OA
ENDBRANCH  66  67
ENDBRANCH  47  61
BRANCH  48  71
ATOM     71  C   UNL A   1      44.368  28.600  36.185  1.00  0.00    -0.014 A 
ATOM     72  C   UNL A   1      45.665  29.120  36.043  1.00  0.00     0.010 A 
ATOM     73  C   UNL A   1      44.156  27.524  37.068  1.00  0.00     0.010 A 
ATOM     74  C   UNL A   1      46.730  28.574  36.767  1.00  0.00     0.020 A 
ATOM     75  C   UNL A   1      45.211  26.996  37.816  1.00  0.00     0.020 A 
ATOM     76  C   UNL A   1      46.494  27.518  37.653  1.00  0.00     0.054 A 
BRANCH  76  77
ATOM     77  S   UNL A   1      47.875  26.873  38.639  1.00  0.00     0.124 S 
ATOM     78  O   UNL A   1      48.549  26.002  37.682  1.00  0.00    -0.237 OA
ATOM     79  O   UNL A   1      48.598  28.089  39.007  1.00  0.00    -0.237 OA
ATOM     80  O   UNL A   1      47.213  26.193  39.749  1.00  0.00    -0.744 OA
ENDBRANCH  76  77
ENDBRANCH  48  71
BRANCH  60  81
ATOM     81  C   UNL A   1      40.104  33.990  37.396  1.00  0.00    -0.014 A 
ATOM     82  C   UNL A   1      40.861  35.171  37.476  1.00  0.00     0.010 A 
ATOM     83  C   UNL A   1      39.132  33.725  38.377  1.00  0.00     0.010 A 
ATOM     84  C   UNL A   1      40.660  36.064  38.532  1.00  0.00     0.020 A 
ATOM     85  C   UNL A   1      38.912  34.627  39.421  1.00  0.00     0.020 A 
ATOM     86  C   UNL A   1      39.685  35.787  39.496  1.00  0.00     0.054 A 
BRANCH  86  87
ATOM     87  S   UNL A   1      39.393  36.994  40.819  1.00  0.00     0.124 S 
ATOM     88  O   UNL A   1      40.716  37.593  40.981  1.00  0.00    -0.237 OA
ATOM     89  O   UNL A   1      38.375  37.868  40.239  1.00  0.00    -0.237 OA
ATOM     90  O   UNL A   1      38.937  36.176  41.940  1.00  0.00    -0.744 OA
ENDBRANCH  86  87
ENDBRANCH  60  81
ENDBRANCH  34  35
ENDBRANCH  27  29
ENDBRANCH  26  27
ENDBRANCH  25  26
ENDBRANCH   1  25
TORSDOF 17
ENDMDL
