MODEL 1
REMARK VINA RESULT:     -10.1      0.000      0.000
REMARK SMILES COCCN1C(=O)C[C@H](C(=O)OCCOC(=O)c2ccc(-c3c4nc(c(-c5ccc(S(=O)(=O)[O-])cc5)c5ccc([nH]5)c(-c5ccc(S(=O)(=O)[O-])cc5)c5nc(c(-c6ccc(S(=O)(=O)[O-])cc6)c6ccc3[nH]6)C=C5)C=C4)cc2)[C@@H]1c1ccccc1N1CCOCC1
REMARK SMILES IDX 13 1 12 2 10 3 11 4 9 5 5 6 6 7 78 8 7 9 8 10 4 11 3 12 2 13
REMARK SMILES IDX 1 14 79 15 80 16 84 17 81 18 83 19 82 20 85 21 86 22 90 23
REMARK SMILES IDX 87 24 89 25 88 26 14 27 15 28 16 29 17 30 18 31 19 32 77 33
REMARK SMILES IDX 20 34 76 35 21 36 22 37 23 38 70 39 24 40 75 41 69 42 71 43
REMARK SMILES IDX 25 44 74 45 68 46 67 47 26 49 56 50 37 51 55 52 38 53 41 54
REMARK SMILES IDX 54 55 72 56 39 57 40 58 53 60 73 61 42 62 27 63 28 64 36 65
REMARK SMILES IDX 29 66 35 67 30 68 31 69 32 70 33 71 34 72 57 73 58 74 66 75
REMARK SMILES IDX 59 76 65 77 60 78 61 79 62 80 63 81 64 82 43 83 44 84 52 85
REMARK SMILES IDX 45 86 51 87 46 88 47 89 48 90 49 91 50 92
REMARK H PARENT 71 48 41 59
REMARK Flexibility Score: inf
ROOT
ATOM      1  C   UNL A   1      36.426  21.401  24.658  1.00  0.00     0.274 C 
ENDROOT
BRANCH   1   2
ATOM      2  O   UNL A   1      35.148  21.855  25.148  1.00  0.00    -0.462 OA
BRANCH   2   3
ATOM      3  C   UNL A   1      35.019  23.203  25.193  1.00  0.00     0.312 C 
ATOM      4  O   UNL A   1      35.184  23.872  26.196  1.00  0.00    -0.252 OA
BRANCH   3   5
ATOM      5  C   UNL A   1      34.671  23.850  23.892  1.00  0.00     0.136 C 
ATOM      6  N   UNL A   1      33.140  25.019  22.622  1.00  0.00    -0.332 N 
ATOM      7  C   UNL A   1      33.543  23.941  21.839  1.00  0.00     0.224 C 
ATOM      8  C   UNL A   1      33.531  24.859  24.028  1.00  0.00     0.132 C 
ATOM      9  O   UNL A   1      33.322  23.789  20.649  1.00  0.00    -0.275 OA
ATOM     10  C   UNL A   1      34.289  22.968  22.716  1.00  0.00     0.118 C 
BRANCH   6  11
ATOM     11  C   UNL A   1      32.581  26.251  22.058  1.00  0.00     0.148 C 
BRANCH  11  12
ATOM     12  C   UNL A   1      33.457  27.504  22.199  1.00  0.00     0.181 C 
BRANCH  12  13
ATOM     13  O   UNL A   1      32.736  28.631  22.711  1.00  0.00    -0.383 OA
ATOM     14  C   UNL A   1      31.353  28.375  22.897  1.00  0.00     0.194 C 
ENDBRANCH  12  13
ENDBRANCH  11  12
ENDBRANCH   6  11
BRANCH   8  15
ATOM     15  C   UNL A   1      32.383  24.444  24.954  1.00  0.00    -0.001 A 
ATOM     16  C   UNL A   1      31.979  23.083  24.954  1.00  0.00     0.008 A 
ATOM     17  C   UNL A   1      31.757  25.336  25.874  1.00  0.00     0.042 A 
ATOM     18  C   UNL A   1      30.953  22.610  25.766  1.00  0.00     0.001 A 
ATOM     19  C   UNL A   1      30.707  24.819  26.668  1.00  0.00     0.026 A 
ATOM     20  C   UNL A   1      30.304  23.485  26.616  1.00  0.00     0.002 A 
BRANCH  17  21
ATOM     21  N   UNL A   1      32.184  26.644  26.098  1.00  0.00    -0.367 N 
ATOM     22  C   UNL A   1      31.402  27.609  26.889  1.00  0.00     0.145 C 
ATOM     23  C   UNL A   1      33.644  26.919  26.181  1.00  0.00     0.145 C 
ATOM     24  C   UNL A   1      31.784  29.044  26.478  1.00  0.00     0.181 C 
ATOM     25  C   UNL A   1      33.968  28.398  25.894  1.00  0.00     0.181 C 
ATOM     26  O   UNL A   1      33.182  29.286  26.700  1.00  0.00    -0.378 OA
ENDBRANCH  17  21
ENDBRANCH   8  15
ENDBRANCH   3   5
ENDBRANCH   2   3
ENDBRANCH   1   2
BRANCH   1  27
ATOM     27  C   UNL A   1      37.575  21.529  25.671  1.00  0.00     0.275 C 
BRANCH  27  28
ATOM     28  O   UNL A   1      38.511  22.581  25.358  1.00  0.00    -0.458 OA
BRANCH  28  29
ATOM     29  C   UNL A   1      39.550  22.700  26.223  1.00  0.00     0.338 C 
ATOM     30  O   UNL A   1      40.457  21.892  26.374  1.00  0.00    -0.246 OA
BRANCH  29  31
ATOM     31  C   UNL A   1      39.570  24.039  26.854  1.00  0.00     0.060 A 
ATOM     32  C   UNL A   1      40.297  25.049  26.206  1.00  0.00     0.016 A 
ATOM     33  C   UNL A   1      38.959  24.299  28.081  1.00  0.00     0.016 A 
ATOM     34  C   UNL A   1      40.433  26.310  26.780  1.00  0.00     0.010 A 
ATOM     35  C   UNL A   1      39.128  25.556  28.679  1.00  0.00     0.010 A 
ATOM     36  C   UNL A   1      39.889  26.555  28.042  1.00  0.00    -0.014 A 
BRANCH  36  37
ATOM     37  C   UNL A   1      40.300  27.778  28.772  1.00  0.00     0.031 A 
ATOM     38  C   UNL A   1      41.683  27.818  29.367  1.00  0.00     0.074 A 
ATOM     39  C   UNL A   1      39.497  28.854  28.847  1.00  0.00     0.049 A 
ATOM     40  N   UNL A   1      42.248  28.750  30.088  1.00  0.00    -0.248 NA
ATOM     41  C   UNL A   1      42.548  26.656  29.097  1.00  0.00     0.031 C 
ATOM     42  C   UNL A   1      38.176  28.974  28.231  1.00  0.00     0.029 A 
ATOM     43  N   UNL A   1      39.684  30.058  29.480  1.00  0.00    -0.354 N 
ATOM     44  C   UNL A   1      43.533  28.292  30.354  1.00  0.00     0.074 A 
ATOM     45  C   UNL A   1      43.659  26.991  29.737  1.00  0.00     0.031 C 
ATOM     46  C   UNL A   1      37.663  30.181  28.533  1.00  0.00     0.029 A 
ATOM     47  C   UNL A   1      38.601  30.901  29.393  1.00  0.00     0.049 A 
ATOM     48  H   UNL A   1      40.514  30.295  29.952  1.00  0.00     0.167 HD
ATOM     49  C   UNL A   1      44.524  28.902  31.046  1.00  0.00     0.031 A 
ATOM     50  C   UNL A   1      38.383  32.100  29.972  1.00  0.00     0.031 A 
ATOM     51  C   UNL A   1      44.386  30.180  31.690  1.00  0.00     0.049 A 
ATOM     52  C   UNL A   1      39.454  32.696  30.855  1.00  0.00     0.074 A 
ATOM     53  C   UNL A   1      45.310  30.857  32.466  1.00  0.00     0.029 A 
ATOM     54  N   UNL A   1      43.251  30.973  31.633  1.00  0.00    -0.354 N 
ATOM     55  N   UNL A   1      40.654  32.239  31.125  1.00  0.00    -0.248 NA
ATOM     56  C   UNL A   1      39.138  33.972  31.516  1.00  0.00     0.031 C 
ATOM     57  C   UNL A   1      44.718  32.041  32.915  1.00  0.00     0.029 A 
ATOM     58  C   UNL A   1      43.446  32.128  32.371  1.00  0.00     0.049 A 
ATOM     59  H   UNL A   1      42.429  30.749  31.141  1.00  0.00     0.167 HD
ATOM     60  C   UNL A   1      41.246  33.189  31.954  1.00  0.00     0.074 A 
ATOM     61  C   UNL A   1      40.279  34.250  32.131  1.00  0.00     0.031 C 
ATOM     62  C   UNL A   1      42.478  33.184  32.519  1.00  0.00     0.031 A 
BRANCH  49  63
ATOM     63  C   UNL A   1      45.835  28.176  31.168  1.00  0.00    -0.014 A 
ATOM     64  C   UNL A   1      46.063  27.274  32.223  1.00  0.00     0.010 A 
ATOM     65  C   UNL A   1      46.832  28.361  30.194  1.00  0.00     0.010 A 
ATOM     66  C   UNL A   1      47.276  26.586  32.313  1.00  0.00     0.020 A 
ATOM     67  C   UNL A   1      48.037  27.657  30.269  1.00  0.00     0.020 A 
ATOM     68  C   UNL A   1      48.255  26.781  31.334  1.00  0.00     0.054 A 
BRANCH  68  69
ATOM     69  S   UNL A   1      49.804  25.846  31.457  1.00  0.00     0.124 S 
ATOM     70  O   UNL A   1      49.512  24.920  32.548  1.00  0.00    -0.237 OA
ATOM     71  O   UNL A   1      49.918  25.239  30.133  1.00  0.00    -0.237 OA
ATOM     72  O   UNL A   1      50.804  26.867  31.759  1.00  0.00    -0.744 OA
ENDBRANCH  68  69
ENDBRANCH  49  63
BRANCH  50  73
ATOM     73  C   UNL A   1      37.081  32.805  29.797  1.00  0.00    -0.014 A 
ATOM     74  C   UNL A   1      36.870  33.676  28.713  1.00  0.00     0.010 A 
ATOM     75  C   UNL A   1      36.066  32.659  30.761  1.00  0.00     0.010 A 
ATOM     76  C   UNL A   1      35.690  34.422  28.621  1.00  0.00     0.020 A 
ATOM     77  C   UNL A   1      34.871  33.378  30.655  1.00  0.00     0.020 A 
ATOM     78  C   UNL A   1      34.701  34.274  29.598  1.00  0.00     0.054 A 
BRANCH  78  79
ATOM     79  S   UNL A   1      33.180  35.254  29.467  1.00  0.00     0.124 S 
ATOM     80  O   UNL A   1      32.424  34.504  28.469  1.00  0.00    -0.237 OA
ATOM     81  O   UNL A   1      32.653  35.207  30.828  1.00  0.00    -0.237 OA
ATOM     82  O   UNL A   1      33.656  36.567  29.036  1.00  0.00    -0.744 OA
ENDBRANCH  78  79
ENDBRANCH  50  73
BRANCH  62  83
ATOM     83  C   UNL A   1      42.878  34.384  33.336  1.00  0.00    -0.014 A 
ATOM     84  C   UNL A   1      42.741  34.396  34.736  1.00  0.00     0.010 A 
ATOM     85  C   UNL A   1      43.460  35.494  32.695  1.00  0.00     0.010 A 
ATOM     86  C   UNL A   1      43.153  35.509  35.475  1.00  0.00     0.020 A 
ATOM     87  C   UNL A   1      43.898  36.595  33.433  1.00  0.00     0.020 A 
ATOM     88  C   UNL A   1      43.730  36.601  34.819  1.00  0.00     0.054 A 
BRANCH  88  89
ATOM     89  S   UNL A   1      44.300  38.013  35.806  1.00  0.00     0.124 S 
ATOM     90  O   UNL A   1      43.536  37.851  37.040  1.00  0.00    -0.237 OA
ATOM     91  O   UNL A   1      45.736  37.766  35.918  1.00  0.00    -0.237 OA
ATOM     92  O   UNL A   1      43.935  39.172  34.994  1.00  0.00    -0.744 OA
ENDBRANCH  88  89
ENDBRANCH  62  83
ENDBRANCH  36  37
ENDBRANCH  29  31
ENDBRANCH  28  29
ENDBRANCH  27  28
ENDBRANCH   1  27
TORSDOF 19
ENDMDL
MODEL 2
REMARK VINA RESULT:      -9.7      3.493      4.888
REMARK SMILES COCCN1C(=O)C[C@H](C(=O)OCCOC(=O)c2ccc(-c3c4nc(c(-c5ccc(S(=O)(=O)[O-])cc5)c5ccc([nH]5)c(-c5ccc(S(=O)(=O)[O-])cc5)c5nc(c(-c6ccc(S(=O)(=O)[O-])cc6)c6ccc3[nH]6)C=C5)C=C4)cc2)[C@@H]1c1ccccc1N1CCOCC1
REMARK SMILES IDX 13 1 12 2 10 3 11 4 9 5 5 6 6 7 78 8 7 9 8 10 4 11 3 12 2 13
REMARK SMILES IDX 1 14 79 15 80 16 84 17 81 18 83 19 82 20 85 21 86 22 90 23
REMARK SMILES IDX 87 24 89 25 88 26 14 27 15 28 16 29 17 30 18 31 19 32 77 33
REMARK SMILES IDX 20 34 76 35 21 36 22 37 23 38 70 39 24 40 75 41 69 42 71 43
REMARK SMILES IDX 25 44 74 45 68 46 67 47 26 49 56 50 37 51 55 52 38 53 41 54
REMARK SMILES IDX 54 55 72 56 39 57 40 58 53 60 73 61 42 62 27 63 28 64 36 65
REMARK SMILES IDX 29 66 35 67 30 68 31 69 32 70 33 71 34 72 57 73 58 74 66 75
REMARK SMILES IDX 59 76 65 77 60 78 61 79 62 80 63 81 64 82 43 83 44 84 52 85
REMARK SMILES IDX 45 86 51 87 46 88 47 89 48 90 49 91 50 92
REMARK H PARENT 71 48 41 59
REMARK Flexibility Score: inf
ROOT
ATOM      1  C   UNL A   1      38.510  22.387  25.740  1.00  0.00     0.274 C 
ENDROOT
BRANCH   1   2
ATOM      2  O   UNL A   1      37.234  23.057  25.705  1.00  0.00    -0.462 OA
BRANCH   2   3
ATOM      3  C   UNL A   1      36.544  22.874  24.554  1.00  0.00     0.312 C 
ATOM      4  O   UNL A   1      36.271  23.765  23.771  1.00  0.00    -0.252 OA
BRANCH   3   5
ATOM      5  C   UNL A   1      36.139  21.463  24.275  1.00  0.00     0.136 C 
ATOM      6  N   UNL A   1      34.558  19.793  24.471  1.00  0.00    -0.332 N 
ATOM      7  C   UNL A   1      35.760  19.235  24.900  1.00  0.00     0.224 C 
ATOM      8  C   UNL A   1      34.627  21.257  24.383  1.00  0.00     0.132 C 
ATOM      9  O   UNL A   1      35.978  18.052  25.099  1.00  0.00    -0.275 OA
ATOM     10  C   UNL A   1      36.756  20.349  25.102  1.00  0.00     0.118 C 
BRANCH   6  11
ATOM     11  C   UNL A   1      33.439  18.990  23.973  1.00  0.00     0.148 C 
BRANCH  11  12
ATOM     12  C   UNL A   1      32.448  18.497  25.037  1.00  0.00     0.181 C 
BRANCH  12  13
ATOM     13  O   UNL A   1      32.826  17.239  25.607  1.00  0.00    -0.383 OA
ATOM     14  C   UNL A   1      33.057  16.230  24.637  1.00  0.00     0.194 C 
ENDBRANCH  12  13
ENDBRANCH  11  12
ENDBRANCH   6  11
BRANCH   8  15
ATOM     15  C   UNL A   1      33.938  21.988  25.540  1.00  0.00    -0.001 A 
ATOM     16  C   UNL A   1      34.099  21.470  26.852  1.00  0.00     0.008 A 
ATOM     17  C   UNL A   1      33.214  23.206  25.376  1.00  0.00     0.042 A 
ATOM     18  C   UNL A   1      33.519  22.069  27.966  1.00  0.00     0.001 A 
ATOM     19  C   UNL A   1      32.626  23.772  26.532  1.00  0.00     0.026 A 
ATOM     20  C   UNL A   1      32.768  23.217  27.803  1.00  0.00     0.002 A 
BRANCH  17  21
ATOM     21  N   UNL A   1      33.140  23.908  24.175  1.00  0.00    -0.367 N 
ATOM     22  C   UNL A   1      32.422  23.390  22.997  1.00  0.00     0.145 C 
ATOM     23  C   UNL A   1      33.139  25.395  24.210  1.00  0.00     0.145 C 
ATOM     24  C   UNL A   1      32.990  24.038  21.720  1.00  0.00     0.181 C 
ATOM     25  C   UNL A   1      33.587  26.002  22.866  1.00  0.00     0.181 C 
ATOM     26  O   UNL A   1      32.846  25.466  21.761  1.00  0.00    -0.378 OA
ENDBRANCH  17  21
ENDBRANCH   8  15
ENDBRANCH   3   5
ENDBRANCH   2   3
ENDBRANCH   1   2
BRANCH   1  27
ATOM     27  C   UNL A   1      39.599  23.136  26.526  1.00  0.00     0.275 C 
BRANCH  27  28
ATOM     28  O   UNL A   1      39.204  24.458  26.948  1.00  0.00    -0.458 OA
BRANCH  28  29
ATOM     29  C   UNL A   1      40.218  25.356  27.039  1.00  0.00     0.338 C 
ATOM     30  O   UNL A   1      41.176  25.439  26.281  1.00  0.00    -0.246 OA
BRANCH  29  31
ATOM     31  C   UNL A   1      39.938  26.375  28.076  1.00  0.00     0.060 A 
ATOM     32  C   UNL A   1      40.690  27.559  28.040  1.00  0.00     0.016 A 
ATOM     33  C   UNL A   1      39.019  26.165  29.105  1.00  0.00     0.016 A 
ATOM     34  C   UNL A   1      40.544  28.526  29.030  1.00  0.00     0.010 A 
ATOM     35  C   UNL A   1      38.900  27.120  30.124  1.00  0.00     0.010 A 
ATOM     36  C   UNL A   1      39.682  28.290  30.103  1.00  0.00    -0.014 A 
BRANCH  36  37
ATOM     37  C   UNL A   1      39.768  29.169  31.294  1.00  0.00     0.031 A 
ATOM     38  C   UNL A   1      40.906  28.953  32.255  1.00  0.00     0.074 A 
ATOM     39  C   UNL A   1      38.900  30.179  31.484  1.00  0.00     0.049 A 
ATOM     40  N   UNL A   1      41.162  29.557  33.386  1.00  0.00    -0.248 NA
ATOM     41  C   UNL A   1      41.897  27.929  31.881  1.00  0.00     0.031 C 
ATOM     42  C   UNL A   1      37.815  30.550  30.577  1.00  0.00     0.029 A 
ATOM     43  N   UNL A   1      38.801  31.082  32.515  1.00  0.00    -0.354 N 
ATOM     44  C   UNL A   1      42.342  28.991  33.855  1.00  0.00     0.074 A 
ATOM     45  C   UNL A   1      42.741  27.982  32.901  1.00  0.00     0.031 C 
ATOM     46  C   UNL A   1      37.147  31.595  31.102  1.00  0.00     0.029 A 
ATOM     47  C   UNL A   1      37.733  31.939  32.397  1.00  0.00     0.049 A 
ATOM     48  H   UNL A   1      39.435  31.112  33.267  1.00  0.00     0.167 HD
ATOM     49  C   UNL A   1      43.036  29.290  34.979  1.00  0.00     0.031 A 
ATOM     50  C   UNL A   1      37.265  32.868  33.255  1.00  0.00     0.031 A 
ATOM     51  C   UNL A   1      42.620  30.268  35.946  1.00  0.00     0.049 A 
ATOM     52  C   UNL A   1      37.979  33.084  34.568  1.00  0.00     0.074 A 
ATOM     53  C   UNL A   1      43.220  30.602  37.147  1.00  0.00     0.029 A 
ATOM     54  N   UNL A   1      41.496  31.070  35.822  1.00  0.00    -0.354 N 
ATOM     55  N   UNL A   1      39.078  32.521  35.015  1.00  0.00    -0.248 NA
ATOM     56  C   UNL A   1      37.389  34.061  35.495  1.00  0.00     0.031 C 
ATOM     57  C   UNL A   1      42.435  31.576  37.771  1.00  0.00     0.029 A 
ATOM     58  C   UNL A   1      41.377  31.889  36.931  1.00  0.00     0.049 A 
ATOM     59  H   UNL A   1      40.875  31.059  35.059  1.00  0.00     0.167 HD
ATOM     60  C   UNL A   1      39.326  33.103  36.256  1.00  0.00     0.074 A 
ATOM     61  C   UNL A   1      38.273  34.070  36.483  1.00  0.00     0.031 C 
ATOM     62  C   UNL A   1      40.333  32.861  37.130  1.00  0.00     0.031 A 
BRANCH  49  63
ATOM     63  C   UNL A   1      44.303  28.521  35.236  1.00  0.00    -0.014 A 
ATOM     64  C   UNL A   1      44.295  27.367  36.039  1.00  0.00     0.010 A 
ATOM     65  C   UNL A   1      45.505  28.931  34.633  1.00  0.00     0.010 A 
ATOM     66  C   UNL A   1      45.473  26.647  36.252  1.00  0.00     0.020 A 
ATOM     67  C   UNL A   1      46.681  28.200  34.826  1.00  0.00     0.020 A 
ATOM     68  C   UNL A   1      46.659  27.068  35.642  1.00  0.00     0.054 A 
BRANCH  68  69
ATOM     69  S   UNL A   1      48.165  26.092  35.907  1.00  0.00     0.124 S 
ATOM     70  O   UNL A   1      47.702  24.738  35.612  1.00  0.00    -0.237 OA
ATOM     71  O   UNL A   1      49.093  26.665  34.934  1.00  0.00    -0.237 OA
ATOM     72  O   UNL A   1      48.500  26.343  37.307  1.00  0.00    -0.744 OA
ENDBRANCH  68  69
ENDBRANCH  49  63
BRANCH  50  73
ATOM     73  C   UNL A   1      36.023  33.634  32.945  1.00  0.00    -0.014 A 
ATOM     74  C   UNL A   1      36.076  35.008  32.650  1.00  0.00     0.010 A 
ATOM     75  C   UNL A   1      34.769  33.000  33.015  1.00  0.00     0.010 A 
ATOM     76  C   UNL A   1      34.898  35.743  32.477  1.00  0.00     0.020 A 
ATOM     77  C   UNL A   1      33.590  33.724  32.810  1.00  0.00     0.020 A 
ATOM     78  C   UNL A   1      33.662  35.096  32.566  1.00  0.00     0.054 A 
BRANCH  78  79
ATOM     79  S   UNL A   1      32.144  36.065  32.345  1.00  0.00     0.124 S 
ATOM     80  O   UNL A   1      32.164  36.334  30.911  1.00  0.00    -0.237 OA
ATOM     81  O   UNL A   1      31.108  35.143  32.803  1.00  0.00    -0.237 OA
ATOM     82  O   UNL A   1      32.354  37.229  33.204  1.00  0.00    -0.744 OA
ENDBRANCH  78  79
ENDBRANCH  50  73
BRANCH  62  83
ATOM     83  C   UNL A   1      40.383  33.688  38.387  1.00  0.00    -0.014 A 
ATOM     84  C   UNL A   1      41.124  34.881  38.450  1.00  0.00     0.010 A 
ATOM     85  C   UNL A   1      39.622  33.294  39.504  1.00  0.00     0.010 A 
ATOM     86  C   UNL A   1      41.126  35.650  39.618  1.00  0.00     0.020 A 
ATOM     87  C   UNL A   1      39.599  34.073  40.663  1.00  0.00     0.020 A 
ATOM     88  C   UNL A   1      40.363  35.241  40.717  1.00  0.00     0.054 A 
BRANCH  88  89
ATOM     89  S   UNL A   1      40.343  36.281  42.204  1.00  0.00     0.124 S 
ATOM     90  O   UNL A   1      39.827  35.360  43.213  1.00  0.00    -0.237 OA
ATOM     91  O   UNL A   1      41.748  36.654  42.352  1.00  0.00    -0.237 OA
ATOM     92  O   UNL A   1      39.448  37.379  41.846  1.00  0.00    -0.744 OA
ENDBRANCH  88  89
ENDBRANCH  62  83
ENDBRANCH  36  37
ENDBRANCH  29  31
ENDBRANCH  28  29
ENDBRANCH  27  28
ENDBRANCH   1  27
TORSDOF 19
ENDMDL
MODEL 3
REMARK VINA RESULT:      -9.3      3.080      8.394
REMARK SMILES COCCN1C(=O)C[C@H](C(=O)OCCOC(=O)c2ccc(-c3c4nc(c(-c5ccc(S(=O)(=O)[O-])cc5)c5ccc([nH]5)c(-c5ccc(S(=O)(=O)[O-])cc5)c5nc(c(-c6ccc(S(=O)(=O)[O-])cc6)c6ccc3[nH]6)C=C5)C=C4)cc2)[C@@H]1c1ccccc1N1CCOCC1
REMARK SMILES IDX 13 1 12 2 10 3 11 4 9 5 5 6 6 7 78 8 7 9 8 10 4 11 3 12 2 13
REMARK SMILES IDX 1 14 79 15 80 16 84 17 81 18 83 19 82 20 85 21 86 22 90 23
REMARK SMILES IDX 87 24 89 25 88 26 14 27 15 28 16 29 17 30 18 31 19 32 77 33
REMARK SMILES IDX 20 34 76 35 21 36 22 37 23 38 70 39 24 40 75 41 69 42 71 43
REMARK SMILES IDX 25 44 74 45 68 46 67 47 26 49 56 50 37 51 55 52 38 53 41 54
REMARK SMILES IDX 54 55 72 56 39 57 40 58 53 60 73 61 42 62 27 63 28 64 36 65
REMARK SMILES IDX 29 66 35 67 30 68 31 69 32 70 33 71 34 72 57 73 58 74 66 75
REMARK SMILES IDX 59 76 65 77 60 78 61 79 62 80 63 81 64 82 43 83 44 84 52 85
REMARK SMILES IDX 45 86 51 87 46 88 47 89 48 90 49 91 50 92
REMARK H PARENT 71 48 41 59
REMARK Flexibility Score: inf
ROOT
ATOM      1  C   UNL A   1      36.597  22.121  25.841  1.00  0.00     0.274 C 
ENDROOT
BRANCH   1   2
ATOM      2  O   UNL A   1      35.575  22.426  24.871  1.00  0.00    -0.462 OA
BRANCH   2   3
ATOM      3  C   UNL A   1      35.114  23.698  24.933  1.00  0.00     0.312 C 
ATOM      4  O   UNL A   1      35.076  24.363  25.952  1.00  0.00    -0.252 OA
BRANCH   3   5
ATOM      5  C   UNL A   1      34.657  24.271  23.631  1.00  0.00     0.136 C 
ATOM      6  N   UNL A   1      32.974  25.252  22.393  1.00  0.00    -0.332 N 
ATOM      7  C   UNL A   1      33.450  24.194  21.623  1.00  0.00     0.224 C 
ATOM      8  C   UNL A   1      33.431  25.171  23.787  1.00  0.00     0.132 C 
ATOM      9  O   UNL A   1      33.200  23.986  20.447  1.00  0.00    -0.275 OA
ATOM     10  C   UNL A   1      34.318  23.322  22.495  1.00  0.00     0.118 C 
BRANCH   6  11
ATOM     11  C   UNL A   1      32.279  26.407  21.821  1.00  0.00     0.148 C 
BRANCH  11  12
ATOM     12  C   UNL A   1      32.560  27.755  22.499  1.00  0.00     0.181 C 
BRANCH  12  13
ATOM     13  O   UNL A   1      31.380  28.548  22.671  1.00  0.00    -0.383 OA
ATOM     14  C   UNL A   1      30.235  27.782  23.013  1.00  0.00     0.194 C 
ENDBRANCH  12  13
ENDBRANCH  11  12
ENDBRANCH   6  11
BRANCH   8  15
ATOM     15  C   UNL A   1      32.363  24.676  24.768  1.00  0.00    -0.001 A 
ATOM     16  C   UNL A   1      31.995  23.306  24.724  1.00  0.00     0.008 A 
ATOM     17  C   UNL A   1      31.784  25.502  25.776  1.00  0.00     0.042 A 
ATOM     18  C   UNL A   1      31.042  22.763  25.581  1.00  0.00     0.001 A 
ATOM     19  C   UNL A   1      30.807  24.915  26.615  1.00  0.00     0.026 A 
ATOM     20  C   UNL A   1      30.435  23.574  26.520  1.00  0.00     0.002 A 
BRANCH  17  21
ATOM     21  N   UNL A   1      32.194  26.808  26.039  1.00  0.00    -0.367 N 
ATOM     22  C   UNL A   1      31.401  27.738  26.861  1.00  0.00     0.145 C 
ATOM     23  C   UNL A   1      33.650  27.101  26.127  1.00  0.00     0.145 C 
ATOM     24  C   UNL A   1      31.762  29.190  26.493  1.00  0.00     0.181 C 
ATOM     25  C   UNL A   1      33.953  28.592  25.883  1.00  0.00     0.181 C 
ATOM     26  O   UNL A   1      33.157  29.444  26.718  1.00  0.00    -0.378 OA
ENDBRANCH  17  21
ENDBRANCH   8  15
ENDBRANCH   3   5
ENDBRANCH   2   3
ENDBRANCH   1   2
BRANCH   1  27
ATOM     27  C   UNL A   1      37.692  21.171  25.332  1.00  0.00     0.275 C 
BRANCH  27  28
ATOM     28  O   UNL A   1      39.017  21.740  25.365  1.00  0.00    -0.458 OA
BRANCH  28  29
ATOM     29  C   UNL A   1      39.708  21.516  26.513  1.00  0.00     0.338 C 
ATOM     30  O   UNL A   1      40.016  20.420  26.965  1.00  0.00    -0.246 OA
BRANCH  29  31
ATOM     31  C   UNL A   1      40.225  22.781  27.081  1.00  0.00     0.060 A 
ATOM     32  C   UNL A   1      39.871  23.974  26.434  1.00  0.00     0.016 A 
ATOM     33  C   UNL A   1      41.090  22.813  28.175  1.00  0.00     0.016 A 
ATOM     34  C   UNL A   1      40.386  25.195  26.859  1.00  0.00     0.010 A 
ATOM     35  C   UNL A   1      41.641  24.037  28.579  1.00  0.00     0.010 A 
ATOM     36  C   UNL A   1      41.311  25.227  27.904  1.00  0.00    -0.014 A 
BRANCH  36  37
ATOM     37  C   UNL A   1      42.081  26.472  28.138  1.00  0.00     0.031 A 
ATOM     38  C   UNL A   1      41.353  27.661  28.706  1.00  0.00     0.074 A 
ATOM     39  C   UNL A   1      43.407  26.528  27.920  1.00  0.00     0.049 A 
ATOM     40  N   UNL A   1      41.796  28.867  28.949  1.00  0.00    -0.248 NA
ATOM     41  C   UNL A   1      39.937  27.456  29.061  1.00  0.00     0.031 C 
ATOM     42  C   UNL A   1      44.243  25.418  27.465  1.00  0.00     0.029 A 
ATOM     43  N   UNL A   1      44.286  27.576  28.059  1.00  0.00    -0.354 N 
ATOM     44  C   UNL A   1      40.720  29.561  29.488  1.00  0.00     0.074 A 
ATOM     45  C   UNL A   1      39.596  28.653  29.518  1.00  0.00     0.031 C 
ATOM     46  C   UNL A   1      45.512  25.849  27.344  1.00  0.00     0.029 A 
ATOM     47  C   UNL A   1      45.571  27.272  27.675  1.00  0.00     0.049 A 
ATOM     48  H   UNL A   1      44.020  28.459  28.400  1.00  0.00     0.167 HD
ATOM     49  C   UNL A   1      40.671  30.841  29.926  1.00  0.00     0.031 A 
ATOM     50  C   UNL A   1      46.657  28.064  27.572  1.00  0.00     0.031 A 
ATOM     51  C   UNL A   1      41.778  31.756  29.863  1.00  0.00     0.049 A 
ATOM     52  C   UNL A   1      46.540  29.526  27.936  1.00  0.00     0.074 A 
ATOM     53  C   UNL A   1      41.815  33.091  30.224  1.00  0.00     0.029 A 
ATOM     54  N   UNL A   1      43.046  31.428  29.407  1.00  0.00    -0.354 N 
ATOM     55  N   UNL A   1      45.508  30.179  28.416  1.00  0.00    -0.248 NA
ATOM     56  C   UNL A   1      47.737  30.358  27.740  1.00  0.00     0.031 C 
ATOM     57  C   UNL A   1      43.094  33.583  29.946  1.00  0.00     0.029 A 
ATOM     58  C   UNL A   1      43.869  32.539  29.465  1.00  0.00     0.049 A 
ATOM     59  H   UNL A   1      43.320  30.538  29.089  1.00  0.00     0.167 HD
ATOM     60  C   UNL A   1      45.944  31.487  28.613  1.00  0.00     0.074 A 
ATOM     61  C   UNL A   1      47.334  31.529  28.214  1.00  0.00     0.031 C 
ATOM     62  C   UNL A   1      45.257  32.558  29.082  1.00  0.00     0.031 A 
BRANCH  49  63
ATOM     63  C   UNL A   1      39.365  31.336  30.483  1.00  0.00    -0.014 A 
ATOM     64  C   UNL A   1      39.036  31.137  31.836  1.00  0.00     0.010 A 
ATOM     65  C   UNL A   1      38.475  32.046  29.657  1.00  0.00     0.010 A 
ATOM     66  C   UNL A   1      37.831  31.622  32.348  1.00  0.00     0.020 A 
ATOM     67  C   UNL A   1      37.279  32.552  30.172  1.00  0.00     0.020 A 
ATOM     68  C   UNL A   1      36.959  32.327  31.512  1.00  0.00     0.054 A 
BRANCH  68  69
ATOM     69  S   UNL A   1      35.419  32.977  32.214  1.00  0.00     0.124 S 
ATOM     70  O   UNL A   1      34.412  32.162  31.539  1.00  0.00    -0.237 OA
ATOM     71  O   UNL A   1      35.583  32.717  33.642  1.00  0.00    -0.237 OA
ATOM     72  O   UNL A   1      35.432  34.389  31.835  1.00  0.00    -0.744 OA
ENDBRANCH  68  69
ENDBRANCH  49  63
BRANCH  50  73
ATOM     73  C   UNL A   1      47.945  27.526  27.048  1.00  0.00    -0.014 A 
ATOM     74  C   UNL A   1      48.963  27.106  27.923  1.00  0.00     0.010 A 
ATOM     75  C   UNL A   1      48.185  27.497  25.662  1.00  0.00     0.010 A 
ATOM     76  C   UNL A   1      50.210  26.713  27.425  1.00  0.00     0.020 A 
ATOM     77  C   UNL A   1      49.419  27.074  25.158  1.00  0.00     0.020 A 
ATOM     78  C   UNL A   1      50.432  26.708  26.045  1.00  0.00     0.054 A 
BRANCH  78  79
ATOM     79  S   UNL A   1      52.057  26.201  25.417  1.00  0.00     0.124 S 
ATOM     80  O   UNL A   1      52.123  24.806  25.842  1.00  0.00    -0.237 OA
ATOM     81  O   UNL A   1      51.925  26.420  23.979  1.00  0.00    -0.237 OA
ATOM     82  O   UNL A   1      52.982  27.107  26.095  1.00  0.00    -0.744 OA
ENDBRANCH  78  79
ENDBRANCH  50  73
BRANCH  62  83
ATOM     83  C   UNL A   1      46.006  33.854  29.244  1.00  0.00    -0.014 A 
ATOM     84  C   UNL A   1      46.748  34.131  30.406  1.00  0.00     0.010 A 
ATOM     85  C   UNL A   1      46.018  34.782  28.186  1.00  0.00     0.010 A 
ATOM     86  C   UNL A   1      47.464  35.327  30.517  1.00  0.00     0.020 A 
ATOM     87  C   UNL A   1      46.754  35.965  28.282  1.00  0.00     0.020 A 
ATOM     88  C   UNL A   1      47.463  36.235  29.454  1.00  0.00     0.054 A 
BRANCH  88  89
ATOM     89  S   UNL A   1      48.440  37.758  29.604  1.00  0.00     0.124 S 
ATOM     90  O   UNL A   1      48.215  38.393  28.308  1.00  0.00    -0.237 OA
ATOM     91  O   UNL A   1      47.820  38.424  30.747  1.00  0.00    -0.237 OA
ATOM     92  O   UNL A   1      49.800  37.275  29.834  1.00  0.00    -0.744 OA
ENDBRANCH  88  89
ENDBRANCH  62  83
ENDBRANCH  36  37
ENDBRANCH  29  31
ENDBRANCH  28  29
ENDBRANCH  27  28
ENDBRANCH   1  27
TORSDOF 19
ENDMDL
