MODEL 1
REMARK VINA RESULT:     -13.0      0.000      0.000
REMARK SMILES Cc1ccccc1C(=O)Nc1ccc(OCC(=O)OCCOC(=O)c2ccc(-c3c4nc(c(-c5ccc(S(=O)(=O)[O-])cc5)c5ccc([nH]5)c(-c5ccc(S(=O)(=O)[O-])cc5)c5nc(c(-c6ccc(S(=O)(=O)[O-])cc6)c6ccc3[nH]6)C=C5)C=C4)cc2)c(-c2nc3ccccc3s2)c1
REMARK SMILES IDX 20 1 19 2 17 3 18 4 16 5 15 6 14 7 11 8 12 9 95 10 13 11
REMARK SMILES IDX 85 12 10 13 8 14 9 15 7 17 1 18 2 19 3 20 4 21 6 22 5 23
REMARK SMILES IDX 86 24 87 25 94 26 88 27 93 28 89 29 92 30 90 31 91 32 21 33
REMARK SMILES IDX 22 34 23 35 24 36 25 37 26 38 84 39 27 40 83 41 28 42 29 43
REMARK SMILES IDX 30 44 77 45 31 46 82 47 76 48 78 49 32 50 81 51 75 52 74 53
REMARK SMILES IDX 33 55 63 56 44 57 62 58 45 59 48 60 61 61 79 62 46 63 47 64
REMARK SMILES IDX 60 66 80 67 49 68 34 69 35 70 43 71 36 72 42 73 37 74 38 75
REMARK SMILES IDX 39 76 40 77 41 78 64 79 65 80 73 81 66 82 72 83 67 84 68 85
REMARK SMILES IDX 69 86 70 87 71 88 50 89 51 90 59 91 52 92 58 93 53 94 54 95
REMARK SMILES IDX 55 96 56 97 57 98
REMARK H PARENT 10 16 78 54 48 65
REMARK Flexibility Score: inf
ROOT
ATOM      1  C   UNL A   1      38.941  24.468  27.553  1.00  0.00     0.274 C 
ENDROOT
BRANCH   1   2
ATOM      2  O   UNL A   1      37.924  24.455  26.535  1.00  0.00    -0.460 OA
BRANCH   2   3
ATOM      3  C   UNL A   1      37.828  23.233  25.741  1.00  0.00     0.344 C 
ATOM      4  O   UNL A   1      38.721  22.477  26.221  1.00  0.00    -0.248 OA
BRANCH   3   5
ATOM      5  C   UNL A   1      36.325  22.882  24.199  1.00  0.00     0.352 C 
BRANCH   5   6
ATOM      6  O   UNL A   1      34.885  22.124  24.080  1.00  0.00    -0.481 OA
BRANCH   6   7
ATOM      7  C   UNL A   1      33.722  22.750  23.638  1.00  0.00     0.130 A 
ATOM      8  C   UNL A   1      31.309  24.234  23.432  1.00  0.00     0.042 A 
ATOM      9  C   UNL A   1      32.534  24.804  23.070  1.00  0.00     0.030 A 
ATOM     10  C   UNL A   1      31.281  22.853  23.623  1.00  0.00     0.041 A 
ATOM     11  C   UNL A   1      33.742  24.095  23.250  1.00  0.00     0.049 A 
ATOM     12  C   UNL A   1      32.476  22.062  23.609  1.00  0.00     0.055 A 
BRANCH   8  13
ATOM     13  N   UNL A   1      30.157  25.055  23.453  1.00  0.00    -0.322 N 
ATOM     14  C   UNL A   1      29.734  26.106  24.262  1.00  0.00     0.255 C 
ATOM     15  O   UNL A   1      28.521  26.353  24.284  1.00  0.00    -0.269 OA
ATOM     16  H   UNL A   1      29.514  24.835  22.739  1.00  0.00     0.170 HD
BRANCH  14  17
ATOM     17  C   UNL A   1      30.623  27.099  24.949  1.00  0.00     0.043 A 
ATOM     18  C   UNL A   1      30.578  28.804  23.038  1.00  0.00     0.045 C 
ATOM     19  C   UNL A   1      30.983  28.348  24.407  1.00  0.00    -0.038 A 
ATOM     20  C   UNL A   1      31.855  29.185  25.143  1.00  0.00     0.004 A 
ATOM     21  C   UNL A   1      32.317  28.832  26.406  1.00  0.00     0.000 A 
ATOM     22  C   UNL A   1      30.953  26.848  26.299  1.00  0.00     0.014 A 
ATOM     23  C   UNL A   1      31.806  27.699  27.017  1.00  0.00     0.001 A 
ENDBRANCH  14  17
ENDBRANCH   8  13
BRANCH  12  24
ATOM     24  C   UNL A   1      32.290  20.587  23.724  1.00  0.00     0.128 A 
ATOM     25  N   UNL A   1      32.065  19.970  24.870  1.00  0.00    -0.236 NA
ATOM     26  S   UNL A   1      32.297  19.477  22.391  1.00  0.00    -0.114 S 
ATOM     27  C   UNL A   1      32.550  18.680  24.782  1.00  0.00     0.082 A 
ATOM     28  C   UNL A   1      32.752  18.212  23.483  1.00  0.00     0.055 A 
ATOM     29  C   UNL A   1      32.924  17.862  25.868  1.00  0.00     0.030 A 
ATOM     30  C   UNL A   1      33.310  16.946  23.228  1.00  0.00     0.021 A 
ATOM     31  C   UNL A   1      33.567  16.644  25.629  1.00  0.00     0.002 A 
ATOM     32  C   UNL A   1      33.752  16.190  24.326  1.00  0.00     0.002 A 
ENDBRANCH  12  24
ENDBRANCH   6   7
ENDBRANCH   5   6
ENDBRANCH   3   5
ENDBRANCH   2   3
ENDBRANCH   1   2
BRANCH   1  33
ATOM     33  C   UNL A   1      39.730  25.773  27.451  1.00  0.00     0.275 C 
BRANCH  33  34
ATOM     34  O   UNL A   1      39.653  26.642  28.599  1.00  0.00    -0.458 OA
BRANCH  34  35
ATOM     35  C   UNL A   1      39.068  27.853  28.684  1.00  0.00     0.338 C 
ATOM     36  O   UNL A   1      37.866  28.043  28.715  1.00  0.00    -0.246 OA
BRANCH  35  37
ATOM     37  C   UNL A   1      39.862  29.020  28.351  1.00  0.00     0.060 A 
ATOM     38  C   UNL A   1      40.454  28.785  26.655  1.00  0.00     0.016 A 
ATOM     39  C   UNL A   1      40.863  29.900  29.542  1.00  0.00     0.016 A 
ATOM     40  C   UNL A   1      42.113  29.272  26.190  1.00  0.00     0.010 A 
ATOM     41  C   UNL A   1      42.544  30.389  29.051  1.00  0.00     0.010 A 
ATOM     42  C   UNL A   1      43.191  29.935  27.424  1.00  0.00    -0.014 A 
BRANCH  42  43
ATOM     43  C   UNL A   1      44.570  29.404  27.468  1.00  0.00     0.031 A 
ATOM     44  C   UNL A   1      45.610  30.374  27.132  1.00  0.00     0.074 A 
ATOM     45  C   UNL A   1      44.881  28.176  27.990  1.00  0.00     0.049 A 
ATOM     46  N   UNL A   1      46.812  30.043  26.853  1.00  0.00    -0.248 NA
ATOM     47  C   UNL A   1      45.374  31.812  26.976  1.00  0.00     0.031 C 
ATOM     48  C   UNL A   1      46.134  27.735  28.609  1.00  0.00     0.029 A 
ATOM     49  N   UNL A   1      44.122  27.011  28.049  1.00  0.00    -0.354 N 
ATOM     50  C   UNL A   1      47.558  31.186  26.974  1.00  0.00     0.074 A 
ATOM     51  C   UNL A   1      46.622  32.268  26.847  1.00  0.00     0.031 C 
ATOM     52  C   UNL A   1      46.125  26.398  28.789  1.00  0.00     0.029 A 
ATOM     53  C   UNL A   1      44.909  25.862  28.205  1.00  0.00     0.049 A 
ATOM     54  H   UNL A   1      43.140  26.995  27.988  1.00  0.00     0.167 HD
ATOM     55  C   UNL A   1      48.842  31.043  27.386  1.00  0.00     0.031 A 
ATOM     56  C   UNL A   1      44.874  24.852  27.277  1.00  0.00     0.031 A 
ATOM     57  C   UNL A   1      49.229  29.627  27.380  1.00  0.00     0.049 A 
ATOM     58  C   UNL A   1      46.051  24.926  26.332  1.00  0.00     0.074 A 
ATOM     59  C   UNL A   1      49.484  28.690  28.364  1.00  0.00     0.029 A 
ATOM     60  N   UNL A   1      49.030  28.909  26.208  1.00  0.00    -0.354 N 
ATOM     61  N   UNL A   1      46.926  25.891  26.378  1.00  0.00    -0.248 NA
ATOM     62  C   UNL A   1      46.372  23.957  25.290  1.00  0.00     0.031 C 
ATOM     63  C   UNL A   1      49.377  27.395  27.769  1.00  0.00     0.029 A 
ATOM     64  C   UNL A   1      49.093  27.550  26.421  1.00  0.00     0.049 A 
ATOM     65  H   UNL A   1      48.862  29.322  25.330  1.00  0.00     0.167 HD
ATOM     66  C   UNL A   1      47.888  25.722  25.430  1.00  0.00     0.074 A 
ATOM     67  C   UNL A   1      47.499  24.486  24.773  1.00  0.00     0.031 C 
ATOM     68  C   UNL A   1      48.900  26.635  25.291  1.00  0.00     0.031 A 
BRANCH  55  69
ATOM     69  C   UNL A   1      49.668  32.139  27.999  1.00  0.00    -0.014 A 
ATOM     70  C   UNL A   1      50.014  33.238  27.191  1.00  0.00     0.010 A 
ATOM     71  C   UNL A   1      50.186  32.138  29.312  1.00  0.00     0.010 A 
ATOM     72  C   UNL A   1      50.810  34.283  27.665  1.00  0.00     0.020 A 
ATOM     73  C   UNL A   1      50.971  33.188  29.806  1.00  0.00     0.020 A 
ATOM     74  C   UNL A   1      51.272  34.261  28.977  1.00  0.00     0.054 A 
BRANCH  74  75
ATOM     75  S   UNL A   1      52.240  35.662  29.580  1.00  0.00     0.124 S 
ATOM     76  O   UNL A   1      52.558  36.375  28.345  1.00  0.00    -0.237 OA
ATOM     77  O   UNL A   1      51.297  36.328  30.472  1.00  0.00    -0.237 OA
ATOM     78  O   UNL A   1      53.383  35.034  30.242  1.00  0.00    -0.744 OA
ENDBRANCH  74  75
ENDBRANCH  55  69
BRANCH  56  79
ATOM     79  C   UNL A   1      43.495  24.344  26.981  1.00  0.00    -0.014 A 
ATOM     80  C   UNL A   1      43.269  23.838  25.683  1.00  0.00     0.010 A 
ATOM     81  C   UNL A   1      42.795  23.762  28.040  1.00  0.00     0.010 A 
ATOM     82  C   UNL A   1      42.643  22.597  25.501  1.00  0.00     0.020 A 
ATOM     83  C   UNL A   1      42.263  22.477  27.864  1.00  0.00     0.020 A 
ATOM     84  C   UNL A   1      42.246  21.869  26.613  1.00  0.00     0.054 A 
BRANCH  84  85
ATOM     85  S   UNL A   1      41.864  20.105  26.389  1.00  0.00     0.124 S 
ATOM     86  O   UNL A   1      42.764  19.733  25.298  1.00  0.00    -0.237 OA
ATOM     87  O   UNL A   1      42.205  19.555  27.699  1.00  0.00    -0.237 OA
ATOM     88  O   UNL A   1      40.455  20.089  26.040  1.00  0.00    -0.744 OA
ENDBRANCH  84  85
ENDBRANCH  56  79
BRANCH  68  89
ATOM     89  C   UNL A   1      49.848  26.748  24.115  1.00  0.00    -0.014 A 
ATOM     90  C   UNL A   1      49.455  26.945  22.788  1.00  0.00     0.010 A 
ATOM     91  C   UNL A   1      51.249  26.717  24.351  1.00  0.00     0.010 A 
ATOM     92  C   UNL A   1      50.392  27.007  21.749  1.00  0.00     0.020 A 
ATOM     93  C   UNL A   1      52.196  26.856  23.339  1.00  0.00     0.020 A 
ATOM     94  C   UNL A   1      51.755  26.955  22.033  1.00  0.00     0.054 A 
BRANCH  94  95
ATOM     95  S   UNL A   1      52.936  26.999  20.673  1.00  0.00     0.124 S 
ATOM     96  O   UNL A   1      54.164  26.561  21.332  1.00  0.00    -0.237 OA
ATOM     97  O   UNL A   1      52.358  26.050  19.725  1.00  0.00    -0.237 OA
ATOM     98  O   UNL A   1      52.920  28.394  20.241  1.00  0.00    -0.744 OA
ENDBRANCH  94  95
ENDBRANCH  68  89
ENDBRANCH  42  43
ENDBRANCH  35  37
ENDBRANCH  34  35
ENDBRANCH  33  34
ENDBRANCH   1  33
TORSDOF 19
ENDMDL
MODEL 2
REMARK VINA RESULT:     -12.7      6.334     11.027
REMARK SMILES Cc1ccccc1C(=O)Nc1ccc(OCC(=O)OCCOC(=O)c2ccc(-c3c4nc(c(-c5ccc(S(=O)(=O)[O-])cc5)c5ccc([nH]5)c(-c5ccc(S(=O)(=O)[O-])cc5)c5nc(c(-c6ccc(S(=O)(=O)[O-])cc6)c6ccc3[nH]6)C=C5)C=C4)cc2)c(-c2nc3ccccc3s2)c1
REMARK SMILES IDX 20 1 19 2 17 3 18 4 16 5 15 6 14 7 11 8 12 9 95 10 13 11
REMARK SMILES IDX 85 12 10 13 8 14 9 15 7 17 1 18 2 19 3 20 4 21 6 22 5 23
REMARK SMILES IDX 86 24 87 25 94 26 88 27 93 28 89 29 92 30 90 31 91 32 21 33
REMARK SMILES IDX 22 34 23 35 24 36 25 37 26 38 84 39 27 40 83 41 28 42 29 43
REMARK SMILES IDX 30 44 77 45 31 46 82 47 76 48 78 49 32 50 81 51 75 52 74 53
REMARK SMILES IDX 33 55 63 56 44 57 62 58 45 59 48 60 61 61 79 62 46 63 47 64
REMARK SMILES IDX 60 66 80 67 49 68 34 69 35 70 43 71 36 72 42 73 37 74 38 75
REMARK SMILES IDX 39 76 40 77 41 78 64 79 65 80 73 81 66 82 72 83 67 84 68 85
REMARK SMILES IDX 69 86 70 87 71 88 50 89 51 90 59 91 52 92 58 93 53 94 54 95
REMARK SMILES IDX 55 96 56 97 57 98
REMARK H PARENT 10 16 78 54 48 65
REMARK Flexibility Score: inf
ROOT
ATOM      1  C   UNL A   1      40.135  23.391  26.973  1.00  0.00     0.274 C 
ENDROOT
BRANCH   1   2
ATOM      2  O   UNL A   1      40.362  22.148  26.284  1.00  0.00    -0.460 OA
BRANCH   2   3
ATOM      3  C   UNL A   1      39.172  21.465  25.785  1.00  0.00     0.344 C 
ATOM      4  O   UNL A   1      39.451  20.236  25.880  1.00  0.00    -0.248 OA
BRANCH   3   5
ATOM      5  C   UNL A   1      37.335  22.478  25.184  1.00  0.00     0.352 C 
BRANCH   5   6
ATOM      6  O   UNL A   1      35.758  22.098  25.011  1.00  0.00    -0.481 OA
BRANCH   6   7
ATOM      7  C   UNL A   1      34.725  23.020  25.158  1.00  0.00     0.130 A 
ATOM      8  C   UNL A   1      32.758  24.805  26.165  1.00  0.00     0.042 A 
ATOM      9  C   UNL A   1      33.997  25.280  25.723  1.00  0.00     0.030 A 
ATOM     10  C   UNL A   1      32.426  23.491  25.838  1.00  0.00     0.041 A 
ATOM     11  C   UNL A   1      35.004  24.385  25.299  1.00  0.00     0.049 A 
ATOM     12  C   UNL A   1      33.364  22.604  25.216  1.00  0.00     0.055 A 
BRANCH   8  13
ATOM     13  N   UNL A   1      31.869  25.709  26.794  1.00  0.00    -0.322 N 
ATOM     14  C   UNL A   1      31.390  26.976  26.469  1.00  0.00     0.255 C 
ATOM     15  O   UNL A   1      30.949  27.670  27.395  1.00  0.00    -0.269 OA
ATOM     16  H   UNL A   1      31.509  25.367  27.645  1.00  0.00     0.170 HD
BRANCH  14  17
ATOM     17  C   UNL A   1      31.168  27.504  25.084  1.00  0.00     0.043 A 
ATOM     18  C   UNL A   1      33.355  28.835  24.996  1.00  0.00     0.045 C 
ATOM     19  C   UNL A   1      32.080  28.326  24.393  1.00  0.00    -0.038 A 
ATOM     20  C   UNL A   1      31.740  28.784  23.099  1.00  0.00     0.004 A 
ATOM     21  C   UNL A   1      30.562  28.399  22.470  1.00  0.00     0.000 A 
ATOM     22  C   UNL A   1      30.075  26.981  24.359  1.00  0.00     0.014 A 
ATOM     23  C   UNL A   1      29.764  27.437  23.069  1.00  0.00     0.001 A 
ENDBRANCH  14  17
ENDBRANCH   8  13
BRANCH  12  24
ATOM     24  C   UNL A   1      32.843  21.262  24.828  1.00  0.00     0.128 A 
ATOM     25  N   UNL A   1      32.675  20.273  25.687  1.00  0.00    -0.236 NA
ATOM     26  S   UNL A   1      32.347  20.812  23.228  1.00  0.00    -0.114 S 
ATOM     27  C   UNL A   1      32.806  19.074  25.013  1.00  0.00     0.082 A 
ATOM     28  C   UNL A   1      32.658  19.156  23.628  1.00  0.00     0.055 A 
ATOM     29  C   UNL A   1      33.149  17.835  25.591  1.00  0.00     0.030 A 
ATOM     30  C   UNL A   1      32.836  18.036  22.795  1.00  0.00     0.021 A 
ATOM     31  C   UNL A   1      33.420  16.738  24.768  1.00  0.00     0.002 A 
ATOM     32  C   UNL A   1      33.261  16.836  23.389  1.00  0.00     0.002 A 
ENDBRANCH  12  24
ENDBRANCH   6   7
ENDBRANCH   5   6
ENDBRANCH   3   5
ENDBRANCH   2   3
ENDBRANCH   1   2
BRANCH   1  33
ATOM     33  C   UNL A   1      41.382  23.746  27.782  1.00  0.00     0.275 C 
BRANCH  33  34
ATOM     34  O   UNL A   1      41.620  25.154  27.979  1.00  0.00    -0.458 OA
BRANCH  34  35
ATOM     35  C   UNL A   1      42.407  25.972  27.251  1.00  0.00     0.338 C 
ATOM     36  O   UNL A   1      43.539  25.708  26.892  1.00  0.00    -0.246 OA
BRANCH  35  37
ATOM     37  C   UNL A   1      42.060  27.378  27.194  1.00  0.00     0.060 A 
ATOM     38  C   UNL A   1      43.301  28.265  28.173  1.00  0.00     0.016 A 
ATOM     39  C   UNL A   1      40.376  27.975  27.120  1.00  0.00     0.016 A 
ATOM     40  C   UNL A   1      42.830  29.642  29.216  1.00  0.00     0.010 A 
ATOM     41  C   UNL A   1      39.917  29.376  28.184  1.00  0.00     0.010 A 
ATOM     42  C   UNL A   1      41.124  30.092  29.325  1.00  0.00    -0.014 A 
BRANCH  42  43
ATOM     43  C   UNL A   1      40.579  30.341  30.676  1.00  0.00     0.031 A 
ATOM     44  C   UNL A   1      39.913  31.631  30.839  1.00  0.00     0.074 A 
ATOM     45  C   UNL A   1      40.501  29.370  31.640  1.00  0.00     0.049 A 
ATOM     46  N   UNL A   1      39.627  32.132  31.980  1.00  0.00    -0.248 NA
ATOM     47  C   UNL A   1      39.593  32.537  29.733  1.00  0.00     0.031 C 
ATOM     48  C   UNL A   1      39.550  29.256  32.750  1.00  0.00     0.029 A 
ATOM     49  N   UNL A   1      41.307  28.256  31.855  1.00  0.00    -0.354 N 
ATOM     50  C   UNL A   1      38.700  33.112  31.742  1.00  0.00     0.074 A 
ATOM     51  C   UNL A   1      38.862  33.463  30.358  1.00  0.00     0.031 C 
ATOM     52  C   UNL A   1      39.940  28.290  33.606  1.00  0.00     0.029 A 
ATOM     53  C   UNL A   1      41.227  27.778  33.170  1.00  0.00     0.049 A 
ATOM     54  H   UNL A   1      41.872  27.848  31.160  1.00  0.00     0.167 HD
ATOM     55  C   UNL A   1      37.774  33.333  32.707  1.00  0.00     0.031 A 
ATOM     56  C   UNL A   1      42.343  27.708  33.964  1.00  0.00     0.031 A 
ATOM     57  C   UNL A   1      38.130  32.610  33.935  1.00  0.00     0.049 A 
ATOM     58  C   UNL A   1      42.418  28.876  34.920  1.00  0.00     0.074 A 
ATOM     59  C   UNL A   1      37.616  31.507  34.591  1.00  0.00     0.029 A 
ATOM     60  N   UNL A   1      39.403  32.807  34.453  1.00  0.00    -0.354 N 
ATOM     61  N   UNL A   1      41.550  29.849  34.907  1.00  0.00    -0.248 NA
ATOM     62  C   UNL A   1      43.420  29.063  35.964  1.00  0.00     0.031 C 
ATOM     63  C   UNL A   1      38.630  31.014  35.470  1.00  0.00     0.029 A 
ATOM     64  C   UNL A   1      39.740  31.838  35.372  1.00  0.00     0.049 A 
ATOM     65  H   UNL A   1      39.996  33.549  34.193  1.00  0.00     0.167 HD
ATOM     66  C   UNL A   1      41.833  30.769  35.869  1.00  0.00     0.074 A 
ATOM     67  C   UNL A   1      43.017  30.227  36.513  1.00  0.00     0.031 C 
ATOM     68  C   UNL A   1      41.055  31.885  36.019  1.00  0.00     0.031 A 
BRANCH  55  69
ATOM     69  C   UNL A   1      36.450  34.008  32.482  1.00  0.00    -0.014 A 
ATOM     70  C   UNL A   1      35.938  34.820  33.511  1.00  0.00     0.010 A 
ATOM     71  C   UNL A   1      35.635  33.851  31.341  1.00  0.00     0.010 A 
ATOM     72  C   UNL A   1      34.699  35.455  33.405  1.00  0.00     0.020 A 
ATOM     73  C   UNL A   1      34.397  34.496  31.214  1.00  0.00     0.020 A 
ATOM     74  C   UNL A   1      33.940  35.303  32.249  1.00  0.00     0.054 A 
BRANCH  74  75
ATOM     75  S   UNL A   1      32.374  36.194  32.114  1.00  0.00     0.124 S 
ATOM     76  O   UNL A   1      31.404  35.181  32.522  1.00  0.00    -0.237 OA
ATOM     77  O   UNL A   1      32.567  37.300  33.048  1.00  0.00    -0.237 OA
ATOM     78  O   UNL A   1      32.313  36.576  30.704  1.00  0.00    -0.744 OA
ENDBRANCH  74  75
ENDBRANCH  55  69
BRANCH  56  79
ATOM     79  C   UNL A   1      43.485  26.960  33.345  1.00  0.00    -0.014 A 
ATOM     80  C   UNL A   1      44.544  27.734  32.822  1.00  0.00     0.010 A 
ATOM     81  C   UNL A   1      43.796  25.715  33.895  1.00  0.00     0.010 A 
ATOM     82  C   UNL A   1      45.874  27.431  33.143  1.00  0.00     0.020 A 
ATOM     83  C   UNL A   1      45.117  25.473  34.298  1.00  0.00     0.020 A 
ATOM     84  C   UNL A   1      46.141  26.359  33.982  1.00  0.00     0.054 A 
BRANCH  84  85
ATOM     85  S   UNL A   1      47.791  26.258  34.742  1.00  0.00     0.124 S 
ATOM     86  O   UNL A   1      48.670  26.521  33.604  1.00  0.00    -0.237 OA
ATOM     87  O   UNL A   1      47.725  27.321  35.744  1.00  0.00    -0.237 OA
ATOM     88  O   UNL A   1      47.860  24.903  35.259  1.00  0.00    -0.744 OA
ENDBRANCH  84  85
ENDBRANCH  56  79
BRANCH  68  89
ATOM     89  C   UNL A   1      41.408  33.123  36.819  1.00  0.00    -0.014 A 
ATOM     90  C   UNL A   1      40.772  33.520  37.999  1.00  0.00     0.010 A 
ATOM     91  C   UNL A   1      42.502  33.928  36.399  1.00  0.00     0.010 A 
ATOM     92  C   UNL A   1      41.135  34.696  38.665  1.00  0.00     0.020 A 
ATOM     93  C   UNL A   1      42.926  35.058  37.094  1.00  0.00     0.020 A 
ATOM     94  C   UNL A   1      42.205  35.460  38.203  1.00  0.00     0.054 A 
BRANCH  94  95
ATOM     95  S   UNL A   1      42.624  36.989  39.058  1.00  0.00     0.124 S 
ATOM     96  O   UNL A   1      41.324  37.650  39.140  1.00  0.00    -0.237 OA
ATOM     97  O   UNL A   1      43.162  36.501  40.326  1.00  0.00    -0.237 OA
ATOM     98  O   UNL A   1      43.597  37.628  38.177  1.00  0.00    -0.744 OA
ENDBRANCH  94  95
ENDBRANCH  68  89
ENDBRANCH  42  43
ENDBRANCH  35  37
ENDBRANCH  34  35
ENDBRANCH  33  34
ENDBRANCH   1  33
TORSDOF 19
ENDMDL
MODEL 3
REMARK VINA RESULT:     -12.7     10.659     16.371
REMARK SMILES Cc1ccccc1C(=O)Nc1ccc(OCC(=O)OCCOC(=O)c2ccc(-c3c4nc(c(-c5ccc(S(=O)(=O)[O-])cc5)c5ccc([nH]5)c(-c5ccc(S(=O)(=O)[O-])cc5)c5nc(c(-c6ccc(S(=O)(=O)[O-])cc6)c6ccc3[nH]6)C=C5)C=C4)cc2)c(-c2nc3ccccc3s2)c1
REMARK SMILES IDX 20 1 19 2 17 3 18 4 16 5 15 6 14 7 11 8 12 9 95 10 13 11
REMARK SMILES IDX 85 12 10 13 8 14 9 15 7 17 1 18 2 19 3 20 4 21 6 22 5 23
REMARK SMILES IDX 86 24 87 25 94 26 88 27 93 28 89 29 92 30 90 31 91 32 21 33
REMARK SMILES IDX 22 34 23 35 24 36 25 37 26 38 84 39 27 40 83 41 28 42 29 43
REMARK SMILES IDX 30 44 77 45 31 46 82 47 76 48 78 49 32 50 81 51 75 52 74 53
REMARK SMILES IDX 33 55 63 56 44 57 62 58 45 59 48 60 61 61 79 62 46 63 47 64
REMARK SMILES IDX 60 66 80 67 49 68 34 69 35 70 43 71 36 72 42 73 37 74 38 75
REMARK SMILES IDX 39 76 40 77 41 78 64 79 65 80 73 81 66 82 72 83 67 84 68 85
REMARK SMILES IDX 69 86 70 87 71 88 50 89 51 90 59 91 52 92 58 93 53 94 54 95
REMARK SMILES IDX 55 96 56 97 57 98
REMARK H PARENT 10 16 78 54 48 65
REMARK Flexibility Score: inf
ROOT
ATOM      1  C   UNL A   1      46.431  20.288  37.703  1.00  0.00     0.274 C 
ENDROOT
BRANCH   1   2
ATOM      2  O   UNL A   1      46.462  19.416  36.559  1.00  0.00    -0.460 OA
BRANCH   2   3
ATOM      3  C   UNL A   1      45.295  18.558  36.376  1.00  0.00     0.344 C 
ATOM      4  O   UNL A   1      44.964  18.732  35.168  1.00  0.00    -0.248 OA
BRANCH   3   5
ATOM      5  C   UNL A   1      44.504  17.216  37.904  1.00  0.00     0.352 C 
BRANCH   5   6
ATOM      6  O   UNL A   1      43.678  17.349  39.305  1.00  0.00    -0.481 OA
BRANCH   6   7
ATOM      7  C   UNL A   1      43.334  16.258  40.099  1.00  0.00     0.130 A 
ATOM      8  C   UNL A   1      41.979  14.350  41.708  1.00  0.00     0.042 A 
ATOM      9  C   UNL A   1      42.175  14.124  40.342  1.00  0.00     0.030 A 
ATOM     10  C   UNL A   1      42.703  15.388  42.293  1.00  0.00     0.041 A 
ATOM     11  C   UNL A   1      42.776  15.109  39.527  1.00  0.00     0.049 A 
ATOM     12  C   UNL A   1      43.495  16.293  41.514  1.00  0.00     0.055 A 
BRANCH   8  13
ATOM     13  N   UNL A   1      41.173  13.444  42.438  1.00  0.00    -0.322 N 
ATOM     14  C   UNL A   1      41.430  12.264  43.131  1.00  0.00     0.255 C 
ATOM     15  O   UNL A   1      40.476  11.497  43.320  1.00  0.00    -0.269 OA
ATOM     16  H   UNL A   1      40.223  13.706  42.462  1.00  0.00     0.170 HD
BRANCH  14  17
ATOM     17  C   UNL A   1      42.702  11.925  43.847  1.00  0.00     0.043 A 
ATOM     18  C   UNL A   1      42.573  13.894  45.481  1.00  0.00     0.045 C 
ATOM     19  C   UNL A   1      43.210  12.648  44.945  1.00  0.00    -0.038 A 
ATOM     20  C   UNL A   1      44.440  12.245  45.517  1.00  0.00     0.004 A 
ATOM     21  C   UNL A   1      45.128  11.125  45.063  1.00  0.00     0.000 A 
ATOM     22  C   UNL A   1      43.319  10.695  43.529  1.00  0.00     0.014 A 
ATOM     23  C   UNL A   1      44.530  10.306  44.120  1.00  0.00     0.001 A 
ENDBRANCH  14  17
ENDBRANCH   8  13
BRANCH  12  24
ATOM     24  C   UNL A   1      44.298  17.290  42.278  1.00  0.00     0.128 A 
ATOM     25  N   UNL A   1      45.317  16.961  43.052  1.00  0.00    -0.236 NA
ATOM     26  S   UNL A   1      44.053  19.006  42.238  1.00  0.00    -0.114 S 
ATOM     27  C   UNL A   1      45.436  17.906  44.053  1.00  0.00     0.082 A 
ATOM     28  C   UNL A   1      44.800  19.120  43.797  1.00  0.00     0.055 A 
ATOM     29  C   UNL A   1      46.057  17.711  45.303  1.00  0.00     0.030 A 
ATOM     30  C   UNL A   1      44.767  20.157  44.748  1.00  0.00     0.021 A 
ATOM     31  C   UNL A   1      45.951  18.695  46.291  1.00  0.00     0.002 A 
ATOM     32  C   UNL A   1      45.319  19.903  46.014  1.00  0.00     0.002 A 
ENDBRANCH  12  24
ENDBRANCH   6   7
ENDBRANCH   5   6
ENDBRANCH   3   5
ENDBRANCH   2   3
ENDBRANCH   1   2
BRANCH   1  33
ATOM     33  C   UNL A   1      46.698  21.722  37.244  1.00  0.00     0.275 C 
BRANCH  33  34
ATOM     34  O   UNL A   1      45.565  22.612  37.282  1.00  0.00    -0.458 OA
BRANCH  34  35
ATOM     35  C   UNL A   1      45.016  23.300  36.261  1.00  0.00     0.338 C 
ATOM     36  O   UNL A   1      45.310  23.155  35.089  1.00  0.00    -0.246 OA
BRANCH  35  37
ATOM     37  C   UNL A   1      44.315  24.531  36.567  1.00  0.00     0.060 A 
ATOM     38  C   UNL A   1      42.571  24.258  36.155  1.00  0.00     0.016 A 
ATOM     39  C   UNL A   1      45.043  26.153  36.375  1.00  0.00     0.016 A 
ATOM     40  C   UNL A   1      41.599  25.551  35.389  1.00  0.00     0.010 A 
ATOM     41  C   UNL A   1      44.040  27.454  35.597  1.00  0.00     0.010 A 
ATOM     42  C   UNL A   1      42.378  27.086  34.984  1.00  0.00    -0.014 A 
BRANCH  42  43
ATOM     43  C   UNL A   1      42.111  27.642  33.641  1.00  0.00     0.031 A 
ATOM     44  C   UNL A   1      42.997  27.150  32.588  1.00  0.00     0.074 A 
ATOM     45  C   UNL A   1      40.998  28.386  33.349  1.00  0.00     0.049 A 
ATOM     46  N   UNL A   1      43.099  27.707  31.443  1.00  0.00    -0.248 NA
ATOM     47  C   UNL A   1      43.935  26.037  32.756  1.00  0.00     0.031 C 
ATOM     48  C   UNL A   1      40.305  28.530  32.065  1.00  0.00     0.029 A 
ATOM     49  N   UNL A   1      40.243  29.224  34.163  1.00  0.00    -0.354 N 
ATOM     50  C   UNL A   1      43.693  26.783  30.624  1.00  0.00     0.074 A 
ATOM     51  C   UNL A   1      44.367  25.870  31.504  1.00  0.00     0.031 C 
ATOM     52  C   UNL A   1      39.392  29.520  32.133  1.00  0.00     0.029 A 
ATOM     53  C   UNL A   1      39.499  30.159  33.432  1.00  0.00     0.049 A 
ATOM     54  H   UNL A   1      40.232  29.167  35.146  1.00  0.00     0.167 HD
ATOM     55  C   UNL A   1      43.343  26.804  29.314  1.00  0.00     0.031 A 
ATOM     56  C   UNL A   1      39.678  31.506  33.621  1.00  0.00     0.031 A 
ATOM     57  C   UNL A   1      42.558  28.007  29.012  1.00  0.00     0.049 A 
ATOM     58  C   UNL A   1      40.555  32.106  32.547  1.00  0.00     0.074 A 
ATOM     59  C   UNL A   1      41.229  28.245  28.710  1.00  0.00     0.029 A 
ATOM     60  N   UNL A   1      43.095  29.236  29.373  1.00  0.00    -0.354 N 
ATOM     61  N   UNL A   1      41.117  31.384  31.618  1.00  0.00    -0.248 NA
ATOM     62  C   UNL A   1      40.871  33.521  32.393  1.00  0.00     0.031 C 
ATOM     63  C   UNL A   1      40.969  29.629  28.953  1.00  0.00     0.029 A 
ATOM     64  C   UNL A   1      42.146  30.234  29.366  1.00  0.00     0.049 A 
ATOM     65  H   UNL A   1      44.040  29.377  29.608  1.00  0.00     0.167 HD
ATOM     66  C   UNL A   1      41.847  32.160  30.771  1.00  0.00     0.074 A 
ATOM     67  C   UNL A   1      41.656  33.501  31.297  1.00  0.00     0.031 C 
ATOM     68  C   UNL A   1      42.536  31.600  29.729  1.00  0.00     0.031 A 
BRANCH  55  69
ATOM     69  C   UNL A   1      43.512  25.649  28.367  1.00  0.00    -0.014 A 
ATOM     70  C   UNL A   1      42.429  24.766  28.203  1.00  0.00     0.010 A 
ATOM     71  C   UNL A   1      44.692  25.333  27.662  1.00  0.00     0.010 A 
ATOM     72  C   UNL A   1      42.508  23.645  27.373  1.00  0.00     0.020 A 
ATOM     73  C   UNL A   1      44.781  24.222  26.813  1.00  0.00     0.020 A 
ATOM     74  C   UNL A   1      43.680  23.387  26.669  1.00  0.00     0.054 A 
BRANCH  74  75
ATOM     75  S   UNL A   1      43.726  21.969  25.551  1.00  0.00     0.124 S 
ATOM     76  O   UNL A   1      43.397  22.576  24.264  1.00  0.00    -0.237 OA
ATOM     77  O   UNL A   1      45.102  21.503  25.699  1.00  0.00    -0.237 OA
ATOM     78  O   UNL A   1      42.706  21.070  26.089  1.00  0.00    -0.744 OA
ENDBRANCH  74  75
ENDBRANCH  55  69
BRANCH  56  79
ATOM     79  C   UNL A   1      39.557  31.942  35.050  1.00  0.00    -0.014 A 
ATOM     80  C   UNL A   1      40.759  32.224  35.734  1.00  0.00     0.010 A 
ATOM     81  C   UNL A   1      38.423  32.682  35.391  1.00  0.00     0.010 A 
ATOM     82  C   UNL A   1      40.901  33.411  36.466  1.00  0.00     0.020 A 
ATOM     83  C   UNL A   1      38.597  33.914  36.037  1.00  0.00     0.020 A 
ATOM     84  C   UNL A   1      39.843  34.307  36.515  1.00  0.00     0.054 A 
BRANCH  84  85
ATOM     85  S   UNL A   1      40.187  36.006  37.067  1.00  0.00     0.124 S 
ATOM     86  O   UNL A   1      39.303  36.137  38.224  1.00  0.00    -0.237 OA
ATOM     87  O   UNL A   1      41.615  35.940  37.372  1.00  0.00    -0.237 OA
ATOM     88  O   UNL A   1      39.818  36.829  35.929  1.00  0.00    -0.744 OA
ENDBRANCH  84  85
ENDBRANCH  56  79
BRANCH  68  89
ATOM     89  C   UNL A   1      43.613  32.274  28.903  1.00  0.00    -0.014 A 
ATOM     90  C   UNL A   1      44.329  33.409  29.296  1.00  0.00     0.010 A 
ATOM     91  C   UNL A   1      43.990  31.700  27.658  1.00  0.00     0.010 A 
ATOM     92  C   UNL A   1      45.289  33.993  28.462  1.00  0.00     0.020 A 
ATOM     93  C   UNL A   1      44.998  32.224  26.852  1.00  0.00     0.020 A 
ATOM     94  C   UNL A   1      45.611  33.400  27.243  1.00  0.00     0.054 A 
BRANCH  94  95
ATOM     95  S   UNL A   1      46.823  34.195  26.173  1.00  0.00     0.124 S 
ATOM     96  O   UNL A   1      47.232  35.338  26.986  1.00  0.00    -0.237 OA
ATOM     97  O   UNL A   1      47.829  33.149  26.008  1.00  0.00    -0.237 OA
ATOM     98  O   UNL A   1      46.065  34.523  24.969  1.00  0.00    -0.744 OA
ENDBRANCH  94  95
ENDBRANCH  68  89
ENDBRANCH  42  43
ENDBRANCH  35  37
ENDBRANCH  34  35
ENDBRANCH  33  34
ENDBRANCH   1  33
TORSDOF 19
ENDMDL
