MODEL 1
REMARK VINA RESULT:     -10.9      0.000      0.000
REMARK SMILES COc1ccc(-c2ncn(CC(=O)OCCOC(=O)c3ccc(-c4c5nc(c(-c6ccc(S(=O)(=O)[O-])cc6)c6ccc([nH]6)c(-c6ccc(S(=O)(=O)[O-])cc6)c6nc(c(-c7ccc(S(=O)(=O)[O-])cc7)c7ccc4[nH]7)C=C6)C=C5)cc3)c2-c2ccc(OC)cc2)cc1
REMARK SMILES IDX 15 1 14 2 12 3 13 4 11 5 10 6 7 7 8 8 80 9 9 10 6 11 3 12
REMARK SMILES IDX 4 13 90 14 5 15 89 16 2 17 1 18 81 19 82 20 88 21 83 22
REMARK SMILES IDX 87 23 84 24 85 25 86 26 16 27 17 28 18 29 19 30 20 31 21 32
REMARK SMILES IDX 79 33 22 34 78 35 23 36 24 37 25 38 72 39 26 40 77 41 71 42
REMARK SMILES IDX 73 43 27 44 76 45 70 46 69 47 28 49 58 50 39 51 57 52 40 53
REMARK SMILES IDX 43 54 56 55 74 56 41 57 42 58 55 60 75 61 44 62 29 63 30 64
REMARK SMILES IDX 38 65 31 66 37 67 32 68 33 69 34 70 35 71 36 72 59 73 60 74
REMARK SMILES IDX 68 75 61 76 67 77 62 78 63 79 64 80 65 81 66 82 45 83 46 84
REMARK SMILES IDX 54 85 47 86 53 87 48 88 49 89 50 90 51 91 52 92
REMARK H PARENT 73 48 43 59
REMARK Flexibility Score: inf
ROOT
ATOM      1  C   UNL A   1      32.200  29.389  26.651  1.00  0.00     0.274 C 
ENDROOT
BRANCH   1   2
ATOM      2  O   UNL A   1      32.239  29.084  25.242  1.00  0.00    -0.461 OA
BRANCH   2   3
ATOM      3  C   UNL A   1      33.116  28.121  24.851  1.00  0.00     0.326 C 
ATOM      4  O   UNL A   1      33.829  28.202  23.852  1.00  0.00    -0.250 OA
BRANCH   3   5
ATOM      5  C   UNL A   1      33.211  26.966  25.825  1.00  0.00     0.246 C 
BRANCH   5   6
ATOM      6  N   UNL A   1      32.605  25.721  25.382  1.00  0.00    -0.319 N 
ATOM      7  C   UNL A   1      32.119  23.730  24.632  1.00  0.00     0.096 A 
ATOM      8  N   UNL A   1      30.929  24.397  24.727  1.00  0.00    -0.236 NA
ATOM      9  C   UNL A   1      33.195  24.551  24.963  1.00  0.00     0.076 A 
ATOM     10  C   UNL A   1      31.252  25.588  25.175  1.00  0.00     0.201 A 
BRANCH   7  11
ATOM     11  C   UNL A   1      32.277  22.345  24.218  1.00  0.00     0.003 A 
ATOM     12  C   UNL A   1      32.249  19.658  23.402  1.00  0.00     0.118 A 
ATOM     13  C   UNL A   1      32.143  20.679  22.459  1.00  0.00     0.047 A 
ATOM     14  C   UNL A   1      32.369  19.980  24.754  1.00  0.00     0.047 A 
ATOM     15  C   UNL A   1      32.172  22.013  22.861  1.00  0.00     0.014 A 
ATOM     16  C   UNL A   1      32.383  21.323  25.163  1.00  0.00     0.014 A 
BRANCH  12  17
ATOM     17  O   UNL A   1      32.281  18.404  22.867  1.00  0.00    -0.497 OA
ATOM     18  C   UNL A   1      33.333  17.550  23.304  1.00  0.00     0.278 C 
ENDBRANCH  12  17
ENDBRANCH   7  11
BRANCH   9  19
ATOM     19  C   UNL A   1      34.601  24.159  24.877  1.00  0.00     0.001 A 
ATOM     20  C   UNL A   1      35.186  23.537  25.984  1.00  0.00     0.014 A 
ATOM     21  C   UNL A   1      35.161  23.944  23.607  1.00  0.00     0.014 A 
ATOM     22  C   UNL A   1      36.230  22.629  25.807  1.00  0.00     0.047 A 
ATOM     23  C   UNL A   1      36.222  23.045  23.437  1.00  0.00     0.047 A 
ATOM     24  C   UNL A   1      36.741  22.366  24.534  1.00  0.00     0.118 A 
BRANCH  24  25
ATOM     25  O   UNL A   1      37.731  21.429  24.502  1.00  0.00    -0.497 OA
ATOM     26  C   UNL A   1      37.402  20.111  24.926  1.00  0.00     0.278 C 
ENDBRANCH  24  25
ENDBRANCH   9  19
ENDBRANCH   5   6
ENDBRANCH   3   5
ENDBRANCH   2   3
ENDBRANCH   1   2
BRANCH   1  27
ATOM     27  C   UNL A   1      31.816  30.855  26.824  1.00  0.00     0.275 C 
BRANCH  27  28
ATOM     28  O   UNL A   1      32.923  31.777  26.838  1.00  0.00    -0.458 OA
BRANCH  28  29
ATOM     29  C   UNL A   1      32.804  32.909  27.578  1.00  0.00     0.338 C 
ATOM     30  O   UNL A   1      31.942  33.746  27.509  1.00  0.00    -0.246 OA
BRANCH  29  31
ATOM     31  C   UNL A   1      34.048  33.131  28.334  1.00  0.00     0.060 A 
ATOM     32  C   UNL A   1      35.119  33.668  27.618  1.00  0.00     0.016 A 
ATOM     33  C   UNL A   1      34.225  32.577  29.605  1.00  0.00     0.016 A 
ATOM     34  C   UNL A   1      36.394  33.414  28.073  1.00  0.00     0.010 A 
ATOM     35  C   UNL A   1      35.506  32.326  30.054  1.00  0.00     0.010 A 
ATOM     36  C   UNL A   1      36.575  32.622  29.215  1.00  0.00    -0.014 A 
BRANCH  36  37
ATOM     37  C   UNL A   1      37.938  32.219  29.550  1.00  0.00     0.031 A 
ATOM     38  C   UNL A   1      38.138  30.762  29.341  1.00  0.00     0.074 A 
ATOM     39  C   UNL A   1      38.878  33.091  29.977  1.00  0.00     0.049 A 
ATOM     40  N   UNL A   1      38.520  29.874  30.198  1.00  0.00    -0.248 NA
ATOM     41  C   UNL A   1      37.641  30.201  28.067  1.00  0.00     0.031 C 
ATOM     42  C   UNL A   1      38.762  34.551  30.081  1.00  0.00     0.029 A 
ATOM     43  N   UNL A   1      40.178  32.880  30.348  1.00  0.00    -0.354 N 
ATOM     44  C   UNL A   1      38.513  28.674  29.500  1.00  0.00     0.074 A 
ATOM     45  C   UNL A   1      37.779  28.897  28.282  1.00  0.00     0.031 C 
ATOM     46  C   UNL A   1      39.989  35.093  30.240  1.00  0.00     0.029 A 
ATOM     47  C   UNL A   1      40.971  34.028  30.320  1.00  0.00     0.049 A 
ATOM     48  H   UNL A   1      40.523  31.996  30.609  1.00  0.00     0.167 HD
ATOM     49  C   UNL A   1      39.391  27.680  29.792  1.00  0.00     0.031 A 
ATOM     50  C   UNL A   1      42.329  34.106  30.240  1.00  0.00     0.031 A 
ATOM     51  C   UNL A   1      39.864  27.743  31.145  1.00  0.00     0.049 A 
ATOM     52  C   UNL A   1      42.864  32.787  30.664  1.00  0.00     0.074 A 
ATOM     53  C   UNL A   1      39.283  27.600  32.387  1.00  0.00     0.029 A 
ATOM     54  N   UNL A   1      41.085  28.334  31.357  1.00  0.00    -0.354 N 
ATOM     55  N   UNL A   1      42.772  32.333  31.884  1.00  0.00    -0.248 NA
ATOM     56  C   UNL A   1      43.034  31.779  29.630  1.00  0.00     0.031 C 
ATOM     57  C   UNL A   1      40.001  28.483  33.244  1.00  0.00     0.029 A 
ATOM     58  C   UNL A   1      41.003  29.099  32.492  1.00  0.00     0.049 A 
ATOM     59  H   UNL A   1      41.883  28.226  30.791  1.00  0.00     0.167 HD
ATOM     60  C   UNL A   1      42.440  30.991  31.738  1.00  0.00     0.074 A 
ATOM     61  C   UNL A   1      42.658  30.701  30.321  1.00  0.00     0.031 C 
ATOM     62  C   UNL A   1      41.768  30.313  32.713  1.00  0.00     0.031 A 
BRANCH  49  63
ATOM     63  C   UNL A   1      40.129  26.982  28.682  1.00  0.00    -0.014 A 
ATOM     64  C   UNL A   1      40.117  25.581  28.606  1.00  0.00     0.010 A 
ATOM     65  C   UNL A   1      41.055  27.667  27.858  1.00  0.00     0.010 A 
ATOM     66  C   UNL A   1      41.004  24.904  27.756  1.00  0.00     0.020 A 
ATOM     67  C   UNL A   1      41.905  27.008  26.978  1.00  0.00     0.020 A 
ATOM     68  C   UNL A   1      41.892  25.625  26.951  1.00  0.00     0.054 A 
BRANCH  68  69
ATOM     69  S   UNL A   1      43.075  24.742  25.910  1.00  0.00     0.124 S 
ATOM     70  O   UNL A   1      42.290  23.593  25.470  1.00  0.00    -0.237 OA
ATOM     71  O   UNL A   1      43.382  25.735  24.885  1.00  0.00    -0.237 OA
ATOM     72  O   UNL A   1      44.175  24.437  26.823  1.00  0.00    -0.744 OA
ENDBRANCH  68  69
ENDBRANCH  49  63
BRANCH  50  73
ATOM     73  C   UNL A   1      43.103  35.057  29.376  1.00  0.00    -0.014 A 
ATOM     74  C   UNL A   1      42.736  35.339  28.042  1.00  0.00     0.010 A 
ATOM     75  C   UNL A   1      44.072  35.901  29.958  1.00  0.00     0.010 A 
ATOM     76  C   UNL A   1      43.280  36.446  27.352  1.00  0.00     0.020 A 
ATOM     77  C   UNL A   1      44.623  36.993  29.279  1.00  0.00     0.020 A 
ATOM     78  C   UNL A   1      44.209  37.277  27.985  1.00  0.00     0.054 A 
BRANCH  78  79
ATOM     79  S   UNL A   1      44.786  38.802  27.176  1.00  0.00     0.124 S 
ATOM     80  O   UNL A   1      45.901  38.324  26.364  1.00  0.00    -0.237 OA
ATOM     81  O   UNL A   1      43.605  39.237  26.435  1.00  0.00    -0.237 OA
ATOM     82  O   UNL A   1      45.162  39.665  28.295  1.00  0.00    -0.744 OA
ENDBRANCH  78  79
ENDBRANCH  50  73
BRANCH  62  83
ATOM     83  C   UNL A   1      41.663  30.934  34.090  1.00  0.00    -0.014 A 
ATOM     84  C   UNL A   1      42.480  30.607  35.193  1.00  0.00     0.010 A 
ATOM     85  C   UNL A   1      40.774  32.015  34.218  1.00  0.00     0.010 A 
ATOM     86  C   UNL A   1      42.401  31.345  36.389  1.00  0.00     0.020 A 
ATOM     87  C   UNL A   1      40.701  32.759  35.396  1.00  0.00     0.020 A 
ATOM     88  C   UNL A   1      41.516  32.426  36.476  1.00  0.00     0.054 A 
BRANCH  88  89
ATOM     89  S   UNL A   1      41.379  33.396  38.005  1.00  0.00     0.124 S 
ATOM     90  O   UNL A   1      40.740  32.471  38.936  1.00  0.00    -0.237 OA
ATOM     91  O   UNL A   1      42.773  33.721  38.296  1.00  0.00    -0.237 OA
ATOM     92  O   UNL A   1      40.556  34.541  37.617  1.00  0.00    -0.744 OA
ENDBRANCH  88  89
ENDBRANCH  62  83
ENDBRANCH  36  37
ENDBRANCH  29  31
ENDBRANCH  28  29
ENDBRANCH  27  28
ENDBRANCH   1  27
TORSDOF 19
ENDMDL
MODEL 2
REMARK VINA RESULT:     -10.7      2.838      7.482
REMARK SMILES COc1ccc(-c2ncn(CC(=O)OCCOC(=O)c3ccc(-c4c5nc(c(-c6ccc(S(=O)(=O)[O-])cc6)c6ccc([nH]6)c(-c6ccc(S(=O)(=O)[O-])cc6)c6nc(c(-c7ccc(S(=O)(=O)[O-])cc7)c7ccc4[nH]7)C=C6)C=C5)cc3)c2-c2ccc(OC)cc2)cc1
REMARK SMILES IDX 15 1 14 2 12 3 13 4 11 5 10 6 7 7 8 8 80 9 9 10 6 11 3 12
REMARK SMILES IDX 4 13 90 14 5 15 89 16 2 17 1 18 81 19 82 20 88 21 83 22
REMARK SMILES IDX 87 23 84 24 85 25 86 26 16 27 17 28 18 29 19 30 20 31 21 32
REMARK SMILES IDX 79 33 22 34 78 35 23 36 24 37 25 38 72 39 26 40 77 41 71 42
REMARK SMILES IDX 73 43 27 44 76 45 70 46 69 47 28 49 58 50 39 51 57 52 40 53
REMARK SMILES IDX 43 54 56 55 74 56 41 57 42 58 55 60 75 61 44 62 29 63 30 64
REMARK SMILES IDX 38 65 31 66 37 67 32 68 33 69 34 70 35 71 36 72 59 73 60 74
REMARK SMILES IDX 68 75 61 76 67 77 62 78 63 79 64 80 65 81 66 82 45 83 46 84
REMARK SMILES IDX 54 85 47 86 53 87 48 88 49 89 50 90 51 91 52 92
REMARK H PARENT 73 48 43 59
REMARK Flexibility Score: inf
ROOT
ATOM      1  C   UNL A   1      31.961  30.202  26.131  1.00  0.00     0.274 C 
ENDROOT
BRANCH   1   2
ATOM      2  O   UNL A   1      31.425  29.144  25.311  1.00  0.00    -0.461 OA
BRANCH   2   3
ATOM      3  C   UNL A   1      31.896  27.890  25.547  1.00  0.00     0.326 C 
ATOM      4  O   UNL A   1      31.873  27.341  26.647  1.00  0.00    -0.250 OA
BRANCH   3   5
ATOM      5  C   UNL A   1      32.367  27.182  24.295  1.00  0.00     0.246 C 
BRANCH   5   6
ATOM      6  N   UNL A   1      31.870  25.828  24.116  1.00  0.00    -0.319 N 
ATOM      7  C   UNL A   1      31.554  23.680  23.903  1.00  0.00     0.096 A 
ATOM      8  N   UNL A   1      30.385  24.271  23.514  1.00  0.00    -0.236 NA
ATOM      9  C   UNL A   1      32.529  24.625  24.216  1.00  0.00     0.076 A 
ATOM     10  C   UNL A   1      30.606  25.559  23.647  1.00  0.00     0.201 A 
BRANCH   7  11
ATOM     11  C   UNL A   1      31.790  22.246  23.972  1.00  0.00     0.003 A 
ATOM     12  C   UNL A   1      32.564  19.554  24.169  1.00  0.00     0.118 A 
ATOM     13  C   UNL A   1      32.276  20.286  25.318  1.00  0.00     0.047 A 
ATOM     14  C   UNL A   1      32.465  20.166  22.918  1.00  0.00     0.047 A 
ATOM     15  C   UNL A   1      31.877  21.618  25.221  1.00  0.00     0.014 A 
ATOM     16  C   UNL A   1      32.079  21.512  22.819  1.00  0.00     0.014 A 
BRANCH  12  17
ATOM     17  O   UNL A   1      32.869  18.245  24.402  1.00  0.00    -0.497 OA
ATOM     18  C   UNL A   1      33.929  17.689  23.630  1.00  0.00     0.278 C 
ENDBRANCH  12  17
ENDBRANCH   7  11
BRANCH   9  19
ATOM     19  C   UNL A   1      33.909  24.310  24.583  1.00  0.00     0.001 A 
ATOM     20  C   UNL A   1      34.195  24.044  25.925  1.00  0.00     0.014 A 
ATOM     21  C   UNL A   1      34.765  23.797  23.595  1.00  0.00     0.014 A 
ATOM     22  C   UNL A   1      35.243  23.188  26.262  1.00  0.00     0.047 A 
ATOM     23  C   UNL A   1      35.828  22.952  23.940  1.00  0.00     0.047 A 
ATOM     24  C   UNL A   1      36.052  22.625  25.273  1.00  0.00     0.118 A 
BRANCH  24  25
ATOM     25  O   UNL A   1      37.012  21.776  25.739  1.00  0.00    -0.497 OA
ATOM     26  C   UNL A   1      37.327  20.639  24.942  1.00  0.00     0.278 C 
ENDBRANCH  24  25
ENDBRANCH   9  19
ENDBRANCH   5   6
ENDBRANCH   3   5
ENDBRANCH   2   3
ENDBRANCH   1   2
BRANCH   1  27
ATOM     27  C   UNL A   1      33.478  30.057  26.186  1.00  0.00     0.275 C 
BRANCH  27  28
ATOM     28  O   UNL A   1      34.044  30.085  27.511  1.00  0.00    -0.458 OA
BRANCH  28  29
ATOM     29  C   UNL A   1      34.772  31.173  27.874  1.00  0.00     0.338 C 
ATOM     30  O   UNL A   1      34.688  32.293  27.438  1.00  0.00    -0.246 OA
BRANCH  29  31
ATOM     31  C   UNL A   1      35.899  30.747  28.720  1.00  0.00     0.060 A 
ATOM     32  C   UNL A   1      36.815  31.738  29.073  1.00  0.00     0.016 A 
ATOM     33  C   UNL A   1      36.180  29.392  28.913  1.00  0.00     0.016 A 
ATOM     34  C   UNL A   1      38.102  31.351  29.379  1.00  0.00     0.010 A 
ATOM     35  C   UNL A   1      37.471  29.012  29.219  1.00  0.00     0.010 A 
ATOM     36  C   UNL A   1      38.449  29.996  29.310  1.00  0.00    -0.014 A 
BRANCH  36  37
ATOM     37  C   UNL A   1      39.861  29.651  29.453  1.00  0.00     0.031 A 
ATOM     38  C   UNL A   1      40.287  29.687  30.875  1.00  0.00     0.074 A 
ATOM     39  C   UNL A   1      40.649  29.329  28.401  1.00  0.00     0.049 A 
ATOM     40  N   UNL A   1      41.229  30.389  31.413  1.00  0.00    -0.248 NA
ATOM     41  C   UNL A   1      39.403  29.012  31.848  1.00  0.00     0.031 C 
ATOM     42  C   UNL A   1      40.245  29.162  27.000  1.00  0.00     0.029 A 
ATOM     43  N   UNL A   1      41.977  29.006  28.358  1.00  0.00    -0.354 N 
ATOM     44  C   UNL A   1      41.186  30.072  32.764  1.00  0.00     0.074 A 
ATOM     45  C   UNL A   1      39.937  29.399  33.002  1.00  0.00     0.031 C 
ATOM     46  C   UNL A   1      41.230  28.540  26.316  1.00  0.00     0.029 A 
ATOM     47  C   UNL A   1      42.359  28.325  27.201  1.00  0.00     0.049 A 
ATOM     48  H   UNL A   1      42.608  29.233  29.079  1.00  0.00     0.167 HD
ATOM     49  C   UNL A   1      42.310  30.072  33.527  1.00  0.00     0.031 A 
ATOM     50  C   UNL A   1      43.456  27.537  27.016  1.00  0.00     0.031 A 
ATOM     51  C   UNL A   1      43.332  30.931  33.003  1.00  0.00     0.049 A 
ATOM     52  C   UNL A   1      44.428  27.893  28.079  1.00  0.00     0.074 A 
ATOM     53  C   UNL A   1      43.457  32.291  32.814  1.00  0.00     0.029 A 
ATOM     54  N   UNL A   1      44.325  30.346  32.257  1.00  0.00    -0.354 N 
ATOM     55  N   UNL A   1      45.033  29.047  28.143  1.00  0.00    -0.248 NA
ATOM     56  C   UNL A   1      44.331  27.166  29.335  1.00  0.00     0.031 C 
ATOM     57  C   UNL A   1      44.255  32.438  31.642  1.00  0.00     0.029 A 
ATOM     58  C   UNL A   1      44.602  31.163  31.191  1.00  0.00     0.049 A 
ATOM     59  H   UNL A   1      44.762  29.486  32.454  1.00  0.00     0.167 HD
ATOM     60  C   UNL A   1      45.008  29.387  29.490  1.00  0.00     0.074 A 
ATOM     61  C   UNL A   1      44.598  28.163  30.180  1.00  0.00     0.031 C 
ATOM     62  C   UNL A   1      45.061  30.688  29.899  1.00  0.00     0.031 A 
BRANCH  49  63
ATOM     63  C   UNL A   1      42.584  28.919  34.456  1.00  0.00    -0.014 A 
ATOM     64  C   UNL A   1      42.847  29.162  35.812  1.00  0.00     0.010 A 
ATOM     65  C   UNL A   1      42.847  27.617  33.968  1.00  0.00     0.010 A 
ATOM     66  C   UNL A   1      43.365  28.148  36.632  1.00  0.00     0.020 A 
ATOM     67  C   UNL A   1      43.315  26.592  34.782  1.00  0.00     0.020 A 
ATOM     68  C   UNL A   1      43.596  26.872  36.108  1.00  0.00     0.054 A 
BRANCH  68  69
ATOM     69  S   UNL A   1      44.326  25.593  37.154  1.00  0.00     0.124 S 
ATOM     70  O   UNL A   1      45.722  25.620  36.732  1.00  0.00    -0.237 OA
ATOM     71  O   UNL A   1      44.054  26.102  38.495  1.00  0.00    -0.237 OA
ATOM     72  O   UNL A   1      43.583  24.388  36.790  1.00  0.00    -0.744 OA
ENDBRANCH  68  69
ENDBRANCH  49  63
BRANCH  50  73
ATOM     73  C   UNL A   1      43.475  26.216  26.306  1.00  0.00    -0.014 A 
ATOM     74  C   UNL A   1      44.444  25.892  25.332  1.00  0.00     0.010 A 
ATOM     75  C   UNL A   1      42.679  25.153  26.784  1.00  0.00     0.010 A 
ATOM     76  C   UNL A   1      44.634  24.560  24.901  1.00  0.00     0.020 A 
ATOM     77  C   UNL A   1      42.852  23.833  26.356  1.00  0.00     0.020 A 
ATOM     78  C   UNL A   1      43.845  23.535  25.433  1.00  0.00     0.054 A 
BRANCH  78  79
ATOM     79  S   UNL A   1      44.191  21.796  25.022  1.00  0.00     0.124 S 
ATOM     80  O   UNL A   1      42.972  21.121  25.457  1.00  0.00    -0.237 OA
ATOM     81  O   UNL A   1      44.407  21.845  23.578  1.00  0.00    -0.237 OA
ATOM     82  O   UNL A   1      45.384  21.487  25.811  1.00  0.00    -0.744 OA
ENDBRANCH  78  79
ENDBRANCH  50  73
BRANCH  62  83
ATOM     83  C   UNL A   1      45.469  31.748  28.897  1.00  0.00    -0.014 A 
ATOM     84  C   UNL A   1      44.579  32.480  28.082  1.00  0.00     0.010 A 
ATOM     85  C   UNL A   1      46.826  32.112  28.894  1.00  0.00     0.010 A 
ATOM     86  C   UNL A   1      45.043  33.545  27.288  1.00  0.00     0.020 A 
ATOM     87  C   UNL A   1      47.290  33.176  28.120  1.00  0.00     0.020 A 
ATOM     88  C   UNL A   1      46.399  33.892  27.323  1.00  0.00     0.054 A 
BRANCH  88  89
ATOM     89  S   UNL A   1      47.037  35.254  26.306  1.00  0.00     0.124 S 
ATOM     90  O   UNL A   1      48.328  35.556  26.918  1.00  0.00    -0.237 OA
ATOM     91  O   UNL A   1      47.094  34.652  24.976  1.00  0.00    -0.237 OA
ATOM     92  O   UNL A   1      46.028  36.303  26.457  1.00  0.00    -0.744 OA
ENDBRANCH  88  89
ENDBRANCH  62  83
ENDBRANCH  36  37
ENDBRANCH  29  31
ENDBRANCH  28  29
ENDBRANCH  27  28
ENDBRANCH   1  27
TORSDOF 19
ENDMDL
MODEL 3
REMARK VINA RESULT:     -10.5      3.261      7.817
REMARK SMILES COc1ccc(-c2ncn(CC(=O)OCCOC(=O)c3ccc(-c4c5nc(c(-c6ccc(S(=O)(=O)[O-])cc6)c6ccc([nH]6)c(-c6ccc(S(=O)(=O)[O-])cc6)c6nc(c(-c7ccc(S(=O)(=O)[O-])cc7)c7ccc4[nH]7)C=C6)C=C5)cc3)c2-c2ccc(OC)cc2)cc1
REMARK SMILES IDX 15 1 14 2 12 3 13 4 11 5 10 6 7 7 8 8 80 9 9 10 6 11 3 12
REMARK SMILES IDX 4 13 90 14 5 15 89 16 2 17 1 18 81 19 82 20 88 21 83 22
REMARK SMILES IDX 87 23 84 24 85 25 86 26 16 27 17 28 18 29 19 30 20 31 21 32
REMARK SMILES IDX 79 33 22 34 78 35 23 36 24 37 25 38 72 39 26 40 77 41 71 42
REMARK SMILES IDX 73 43 27 44 76 45 70 46 69 47 28 49 58 50 39 51 57 52 40 53
REMARK SMILES IDX 43 54 56 55 74 56 41 57 42 58 55 60 75 61 44 62 29 63 30 64
REMARK SMILES IDX 38 65 31 66 37 67 32 68 33 69 34 70 35 71 36 72 59 73 60 74
REMARK SMILES IDX 68 75 61 76 67 77 62 78 63 79 64 80 65 81 66 82 45 83 46 84
REMARK SMILES IDX 54 85 47 86 53 87 48 88 49 89 50 90 51 91 52 92
REMARK H PARENT 73 48 43 59
REMARK Flexibility Score: inf
ROOT
ATOM      1  C   UNL A   1      36.656  20.929  24.413  1.00  0.00     0.274 C 
ENDROOT
BRANCH   1   2
ATOM      2  O   UNL A   1      35.572  20.726  25.343  1.00  0.00    -0.461 OA
BRANCH   2   3
ATOM      3  C   UNL A   1      34.661  19.770  25.018  1.00  0.00     0.326 C 
ATOM      4  O   UNL A   1      34.945  18.698  24.489  1.00  0.00    -0.250 OA
BRANCH   3   5
ATOM      5  C   UNL A   1      33.254  20.108  25.465  1.00  0.00     0.246 C 
BRANCH   5   6
ATOM      6  N   UNL A   1      33.091  21.411  26.088  1.00  0.00    -0.319 N 
ATOM      7  C   UNL A   1      32.853  23.519  26.601  1.00  0.00     0.096 A 
ATOM      8  N   UNL A   1      33.106  22.872  27.779  1.00  0.00    -0.236 NA
ATOM      9  C   UNL A   1      32.909  22.648  25.514  1.00  0.00     0.076 A 
ATOM     10  C   UNL A   1      33.248  21.611  27.439  1.00  0.00     0.201 A 
BRANCH   7  11
ATOM     11  C   UNL A   1      32.580  24.940  26.463  1.00  0.00     0.003 A 
ATOM     12  C   UNL A   1      31.972  27.619  25.880  1.00  0.00     0.118 A 
ATOM     13  C   UNL A   1      30.954  26.724  26.202  1.00  0.00     0.047 A 
ATOM     14  C   UNL A   1      33.295  27.177  25.849  1.00  0.00     0.047 A 
ATOM     15  C   UNL A   1      31.256  25.397  26.506  1.00  0.00     0.014 A 
ATOM     16  C   UNL A   1      33.600  25.838  26.140  1.00  0.00     0.014 A 
BRANCH  12  17
ATOM     17  O   UNL A   1      31.546  28.899  25.677  1.00  0.00    -0.497 OA
ATOM     18  C   UNL A   1      32.539  29.852  25.312  1.00  0.00     0.278 C 
ENDBRANCH  12  17
ENDBRANCH   7  11
BRANCH   9  19
ATOM     19  C   UNL A   1      32.769  23.050  24.115  1.00  0.00     0.001 A 
ATOM     20  C   UNL A   1      31.503  23.424  23.656  1.00  0.00     0.014 A 
ATOM     21  C   UNL A   1      33.902  23.527  23.438  1.00  0.00     0.014 A 
ATOM     22  C   UNL A   1      31.379  24.349  22.619  1.00  0.00     0.047 A 
ATOM     23  C   UNL A   1      33.773  24.442  22.384  1.00  0.00     0.047 A 
ATOM     24  C   UNL A   1      32.510  24.874  21.991  1.00  0.00     0.118 A 
BRANCH  24  25
ATOM     25  O   UNL A   1      32.246  25.796  21.022  1.00  0.00    -0.497 OA
ATOM     26  C   UNL A   1      32.539  25.438  19.676  1.00  0.00     0.278 C 
ENDBRANCH  24  25
ENDBRANCH   9  19
ENDBRANCH   5   6
ENDBRANCH   3   5
ENDBRANCH   2   3
ENDBRANCH   1   2
BRANCH   1  27
ATOM     27  C   UNL A   1      37.976  20.701  25.143  1.00  0.00     0.275 C 
BRANCH  27  28
ATOM     28  O   UNL A   1      38.557  21.880  25.733  1.00  0.00    -0.458 OA
BRANCH  28  29
ATOM     29  C   UNL A   1      39.724  21.746  26.414  1.00  0.00     0.338 C 
ATOM     30  O   UNL A   1      40.112  20.785  27.028  1.00  0.00    -0.246 OA
BRANCH  29  31
ATOM     31  C   UNL A   1      40.374  23.062  26.533  1.00  0.00     0.060 A 
ATOM     32  C   UNL A   1      41.504  23.122  27.350  1.00  0.00     0.016 A 
ATOM     33  C   UNL A   1      39.735  24.221  26.086  1.00  0.00     0.016 A 
ATOM     34  C   UNL A   1      41.828  24.335  27.918  1.00  0.00     0.010 A 
ATOM     35  C   UNL A   1      40.065  25.432  26.660  1.00  0.00     0.010 A 
ATOM     36  C   UNL A   1      41.016  25.450  27.675  1.00  0.00    -0.014 A 
BRANCH  36  37
ATOM     37  C   UNL A   1      41.282  26.662  28.445  1.00  0.00     0.031 A 
ATOM     38  C   UNL A   1      42.554  27.303  28.023  1.00  0.00     0.074 A 
ATOM     39  C   UNL A   1      40.446  27.122  29.403  1.00  0.00     0.049 A 
ATOM     40  N   UNL A   1      43.591  27.579  28.743  1.00  0.00    -0.248 NA
ATOM     41  C   UNL A   1      42.767  27.457  26.568  1.00  0.00     0.031 C 
ATOM     42  C   UNL A   1      39.127  26.593  29.768  1.00  0.00     0.029 A 
ATOM     43  N   UNL A   1      40.554  28.213  30.221  1.00  0.00    -0.354 N 
ATOM     44  C   UNL A   1      44.503  28.139  27.860  1.00  0.00     0.074 A 
ATOM     45  C   UNL A   1      44.036  27.851  26.529  1.00  0.00     0.031 C 
ATOM     46  C   UNL A   1      38.473  27.492  30.535  1.00  0.00     0.029 A 
ATOM     47  C   UNL A   1      39.343  28.629  30.777  1.00  0.00     0.049 A 
ATOM     48  H   UNL A   1      41.410  28.666  30.401  1.00  0.00     0.167 HD
ATOM     49  C   UNL A   1      45.388  29.088  28.262  1.00  0.00     0.031 A 
ATOM     50  C   UNL A   1      39.031  29.854  31.285  1.00  0.00     0.031 A 
ATOM     51  C   UNL A   1      45.669  29.018  29.667  1.00  0.00     0.049 A 
ATOM     52  C   UNL A   1      40.315  30.535  31.591  1.00  0.00     0.074 A 
ATOM     53  C   UNL A   1      46.277  28.096  30.493  1.00  0.00     0.029 A 
ATOM     54  N   UNL A   1      44.987  29.881  30.489  1.00  0.00    -0.354 N 
ATOM     55  N   UNL A   1      41.130  30.143  32.530  1.00  0.00    -0.248 NA
ATOM     56  C   UNL A   1      40.916  31.321  30.526  1.00  0.00     0.031 C 
ATOM     57  C   UNL A   1      45.598  28.202  31.741  1.00  0.00     0.029 A 
ATOM     58  C   UNL A   1      44.631  29.203  31.626  1.00  0.00     0.049 A 
ATOM     59  H   UNL A   1      44.789  30.825  30.294  1.00  0.00     0.167 HD
ATOM     60  C   UNL A   1      42.397  30.254  31.969  1.00  0.00     0.074 A 
ATOM     61  C   UNL A   1      42.200  31.027  30.743  1.00  0.00     0.031 C 
ATOM     62  C   UNL A   1      43.439  29.487  32.404  1.00  0.00     0.031 A 
BRANCH  49  63
ATOM     63  C   UNL A   1      45.585  30.328  27.432  1.00  0.00    -0.014 A 
ATOM     64  C   UNL A   1      46.881  30.798  27.175  1.00  0.00     0.010 A 
ATOM     65  C   UNL A   1      44.508  31.192  27.118  1.00  0.00     0.010 A 
ATOM     66  C   UNL A   1      47.084  32.080  26.643  1.00  0.00     0.020 A 
ATOM     67  C   UNL A   1      44.696  32.445  26.546  1.00  0.00     0.020 A 
ATOM     68  C   UNL A   1      45.988  32.893  26.336  1.00  0.00     0.054 A 
BRANCH  68  69
ATOM     69  S   UNL A   1      46.261  34.567  25.714  1.00  0.00     0.124 S 
ATOM     70  O   UNL A   1      45.258  34.662  24.658  1.00  0.00    -0.237 OA
ATOM     71  O   UNL A   1      46.016  35.379  26.901  1.00  0.00    -0.237 OA
ATOM     72  O   UNL A   1      47.650  34.542  25.259  1.00  0.00    -0.744 OA
ENDBRANCH  68  69
ENDBRANCH  49  63
BRANCH  50  73
ATOM     73  C   UNL A   1      37.751  30.600  31.049  1.00  0.00    -0.014 A 
ATOM     74  C   UNL A   1      37.077  31.294  32.077  1.00  0.00     0.010 A 
ATOM     75  C   UNL A   1      37.321  30.851  29.729  1.00  0.00     0.010 A 
ATOM     76  C   UNL A   1      36.059  32.229  31.785  1.00  0.00     0.020 A 
ATOM     77  C   UNL A   1      36.307  31.766  29.430  1.00  0.00     0.020 A 
ATOM     78  C   UNL A   1      35.693  32.471  30.456  1.00  0.00     0.054 A 
BRANCH  78  79
ATOM     79  S   UNL A   1      34.511  33.794  30.051  1.00  0.00     0.124 S 
ATOM     80  O   UNL A   1      33.960  34.135  31.360  1.00  0.00    -0.237 OA
ATOM     81  O   UNL A   1      35.363  34.810  29.440  1.00  0.00    -0.237 OA
ATOM     82  O   UNL A   1      33.571  33.148  29.135  1.00  0.00    -0.744 OA
ENDBRANCH  78  79
ENDBRANCH  50  73
BRANCH  62  83
ATOM     83  C   UNL A   1      43.295  28.742  33.714  1.00  0.00    -0.014 A 
ATOM     84  C   UNL A   1      43.097  29.345  34.974  1.00  0.00     0.010 A 
ATOM     85  C   UNL A   1      43.215  27.341  33.628  1.00  0.00     0.010 A 
ATOM     86  C   UNL A   1      42.828  28.561  36.112  1.00  0.00     0.020 A 
ATOM     87  C   UNL A   1      42.936  26.559  34.748  1.00  0.00     0.020 A 
ATOM     88  C   UNL A   1      42.738  27.170  35.986  1.00  0.00     0.054 A 
BRANCH  88  89
ATOM     89  S   UNL A   1      42.403  26.124  37.431  1.00  0.00     0.124 S 
ATOM     90  O   UNL A   1      42.703  24.778  36.952  1.00  0.00    -0.237 OA
ATOM     91  O   UNL A   1      43.327  26.659  38.427  1.00  0.00    -0.237 OA
ATOM     92  O   UNL A   1      40.989  26.371  37.718  1.00  0.00    -0.744 OA
ENDBRANCH  88  89
ENDBRANCH  62  83
ENDBRANCH  36  37
ENDBRANCH  29  31
ENDBRANCH  28  29
ENDBRANCH  27  28
ENDBRANCH   1  27
TORSDOF 19
ENDMDL
