MODEL 1
REMARK VINA RESULT:     -11.3      0.000      0.000
REMARK SMILES COc1ccc(S(=O)(=O)N2CCC[C@H](C(=O)N3CCC[C@H](C(=O)OCCOC(=O)c4ccc(-c5c6nc(c(-c7ccc(S(=O)(=O)[O-])cc7)c7ccc([nH]7)c(-c7ccc(S(=O)(=O)[O-])cc7)c7nc(c(-c8ccc(S(=O)(=O)[O-])cc8)c8ccc5[nH]8)C=C7)C=C6)cc4)C3)C2)cc1
REMARK SMILES IDX 25 1 24 2 22 3 23 4 21 5 17 6 18 7 90 8 19 9 20 10 15 11
REMARK SMILES IDX 16 12 14 13 10 14 11 15 91 16 12 17 13 18 7 19 8 20 9 21
REMARK SMILES IDX 6 22 3 23 4 24 93 25 5 26 92 27 2 28 1 29 26 30 27 31 28 32
REMARK SMILES IDX 29 33 30 34 31 35 89 36 32 37 88 38 33 39 34 40 35 41 82 42
REMARK SMILES IDX 36 43 87 44 81 45 83 46 37 47 86 48 80 49 79 50 38 52 68 53
REMARK SMILES IDX 49 54 67 55 50 56 53 57 66 58 84 59 51 60 52 61 65 63 85 64
REMARK SMILES IDX 54 65 39 66 40 67 48 68 41 69 47 70 42 71 43 72 44 73 45 74
REMARK SMILES IDX 46 75 69 76 70 77 78 78 71 79 77 80 72 81 73 82 74 83 75 84
REMARK SMILES IDX 76 85 55 86 56 87 64 88 57 89 63 90 58 91 59 92 60 93 61 94
REMARK SMILES IDX 62 95
REMARK H PARENT 83 51 53 62
REMARK Flexibility Score: inf
ROOT
ATOM      1  C   UNL A   1      31.751  28.556  27.016  1.00  0.00     0.274 C 
ENDROOT
BRANCH   1   2
ATOM      2  O   UNL A   1      31.227  28.362  25.690  1.00  0.00    -0.462 OA
BRANCH   2   3
ATOM      3  C   UNL A   1      30.988  27.088  25.305  1.00  0.00     0.310 C 
ATOM      4  O   UNL A   1      30.809  26.148  26.074  1.00  0.00    -0.252 OA
BRANCH   3   5
ATOM      5  C   UNL A   1      30.981  26.902  23.795  1.00  0.00     0.119 C 
ATOM      6  N   UNL A   1      33.218  25.935  23.612  1.00  0.00    -0.342 N 
ATOM      7  C   UNL A   1      33.716  27.013  22.765  1.00  0.00     0.119 C 
ATOM      8  C   UNL A   1      31.800  25.659  23.467  1.00  0.00     0.134 C 
ATOM      9  C   UNL A   1      32.947  28.313  22.977  1.00  0.00     0.022 C 
ATOM     10  C   UNL A   1      31.433  28.099  22.952  1.00  0.00     0.019 C 
BRANCH   6  11
ATOM     11  C   UNL A   1      33.984  25.503  24.676  1.00  0.00     0.227 C 
ATOM     12  O   UNL A   1      34.001  26.132  25.740  1.00  0.00    -0.275 OA
BRANCH  11  13
ATOM     13  C   UNL A   1      35.012  24.384  24.469  1.00  0.00     0.094 C 
ATOM     14  N   UNL A   1      33.616  22.387  24.902  1.00  0.00    -0.197 NA
ATOM     15  C   UNL A   1      34.302  22.058  26.163  1.00  0.00     0.102 C 
ATOM     16  C   UNL A   1      34.311  23.174  23.872  1.00  0.00     0.116 C 
ATOM     17  C   UNL A   1      35.644  22.747  26.384  1.00  0.00     0.018 C 
ATOM     18  C   UNL A   1      35.988  23.993  25.565  1.00  0.00     0.016 C 
BRANCH  14  19
ATOM     19  S   UNL A   1      32.363  21.355  24.410  1.00  0.00     0.243 S 
ATOM     20  O   UNL A   1      32.047  21.636  23.030  1.00  0.00    -0.207 OA
ATOM     21  O   UNL A   1      31.341  21.394  25.442  1.00  0.00    -0.207 OA
BRANCH  19  22
ATOM     22  C   UNL A   1      33.041  19.708  24.450  1.00  0.00     0.082 A 
ATOM     23  C   UNL A   1      33.994  17.091  24.664  1.00  0.00     0.118 A 
ATOM     24  C   UNL A   1      32.623  17.331  24.549  1.00  0.00     0.048 A 
ATOM     25  C   UNL A   1      34.889  18.159  24.620  1.00  0.00     0.048 A 
ATOM     26  C   UNL A   1      32.141  18.639  24.452  1.00  0.00     0.025 A 
ATOM     27  C   UNL A   1      34.414  19.465  24.522  1.00  0.00     0.025 A 
BRANCH  23  28
ATOM     28  O   UNL A   1      34.369  15.782  24.795  1.00  0.00    -0.497 OA
ATOM     29  C   UNL A   1      33.332  14.923  25.262  1.00  0.00     0.278 C 
ENDBRANCH  23  28
ENDBRANCH  19  22
ENDBRANCH  14  19
ENDBRANCH  11  13
ENDBRANCH   6  11
ENDBRANCH   3   5
ENDBRANCH   2   3
ENDBRANCH   1   2
BRANCH   1  30
ATOM     30  C   UNL A   1      32.395  29.936  27.145  1.00  0.00     0.275 C 
BRANCH  30  31
ATOM     31  O   UNL A   1      33.829  29.860  27.027  1.00  0.00    -0.458 OA
BRANCH  31  32
ATOM     32  C   UNL A   1      34.513  30.647  27.889  1.00  0.00     0.338 C 
ATOM     33  O   UNL A   1      34.104  31.626  28.490  1.00  0.00    -0.246 OA
BRANCH  32  34
ATOM     34  C   UNL A   1      35.849  30.083  28.117  1.00  0.00     0.060 A 
ATOM     35  C   UNL A   1      36.164  29.630  29.399  1.00  0.00     0.016 A 
ATOM     36  C   UNL A   1      36.816  30.113  27.115  1.00  0.00     0.016 A 
ATOM     37  C   UNL A   1      37.460  29.235  29.704  1.00  0.00     0.010 A 
ATOM     38  C   UNL A   1      38.114  29.690  27.414  1.00  0.00     0.010 A 
ATOM     39  C   UNL A   1      38.447  29.270  28.715  1.00  0.00    -0.014 A 
BRANCH  39  40
ATOM     40  C   UNL A   1      39.843  28.919  29.063  1.00  0.00     0.031 A 
ATOM     41  C   UNL A   1      40.709  29.928  29.758  1.00  0.00     0.074 A 
ATOM     42  C   UNL A   1      40.315  27.692  28.774  1.00  0.00     0.049 A 
ATOM     43  N   UNL A   1      41.984  29.865  30.039  1.00  0.00    -0.248 NA
ATOM     44  C   UNL A   1      40.057  31.175  30.191  1.00  0.00     0.031 C 
ATOM     45  C   UNL A   1      39.544  26.610  28.159  1.00  0.00     0.029 A 
ATOM     46  N   UNL A   1      41.562  27.152  28.958  1.00  0.00    -0.354 N 
ATOM     47  C   UNL A   1      42.297  31.075  30.646  1.00  0.00     0.074 A 
ATOM     48  C   UNL A   1      41.079  31.855  30.690  1.00  0.00     0.031 C 
ATOM     49  C   UNL A   1      40.334  25.534  28.022  1.00  0.00     0.029 A 
ATOM     50  C   UNL A   1      41.678  25.869  28.480  1.00  0.00     0.049 A 
ATOM     51  H   UNL A   1      42.302  27.637  29.391  1.00  0.00     0.167 HD
ATOM     52  C   UNL A   1      43.494  31.497  31.117  1.00  0.00     0.031 A 
ATOM     53  C   UNL A   1      42.756  25.068  28.387  1.00  0.00     0.031 A 
ATOM     54  C   UNL A   1      44.697  30.708  31.076  1.00  0.00     0.049 A 
ATOM     55  C   UNL A   1      44.086  25.578  28.869  1.00  0.00     0.074 A 
ATOM     56  C   UNL A   1      45.963  31.040  31.525  1.00  0.00     0.029 A 
ATOM     57  N   UNL A   1      44.781  29.423  30.559  1.00  0.00    -0.354 N 
ATOM     58  N   UNL A   1      44.375  26.737  29.410  1.00  0.00    -0.248 NA
ATOM     59  C   UNL A   1      45.234  24.673  28.724  1.00  0.00     0.031 C 
ATOM     60  C   UNL A   1      46.821  29.972  31.242  1.00  0.00     0.029 A 
ATOM     61  C   UNL A   1      46.079  28.954  30.663  1.00  0.00     0.049 A 
ATOM     62  H   UNL A   1      44.027  28.918  30.176  1.00  0.00     0.167 HD
ATOM     63  C   UNL A   1      45.736  26.697  29.686  1.00  0.00     0.074 A 
ATOM     64  C   UNL A   1      46.208  25.392  29.267  1.00  0.00     0.031 C 
ATOM     65  C   UNL A   1      46.525  27.652  30.235  1.00  0.00     0.031 A 
BRANCH  52  66
ATOM     66  C   UNL A   1      43.569  32.894  31.668  1.00  0.00    -0.014 A 
ATOM     67  C   UNL A   1      43.882  33.993  30.848  1.00  0.00     0.010 A 
ATOM     68  C   UNL A   1      43.299  33.113  33.033  1.00  0.00     0.010 A 
ATOM     69  C   UNL A   1      43.961  35.279  31.391  1.00  0.00     0.020 A 
ATOM     70  C   UNL A   1      43.354  34.401  33.573  1.00  0.00     0.020 A 
ATOM     71  C   UNL A   1      43.702  35.474  32.751  1.00  0.00     0.054 A 
BRANCH  71  72
ATOM     72  S   UNL A   1      43.798  37.155  33.428  1.00  0.00     0.124 S 
ATOM     73  O   UNL A   1      42.592  37.215  34.250  1.00  0.00    -0.237 OA
ATOM     74  O   UNL A   1      45.060  37.134  34.164  1.00  0.00    -0.237 OA
ATOM     75  O   UNL A   1      43.787  38.006  32.242  1.00  0.00    -0.744 OA
ENDBRANCH  71  72
ENDBRANCH  52  66
BRANCH  53  76
ATOM     76  C   UNL A   1      42.623  23.718  27.778  1.00  0.00    -0.014 A 
ATOM     77  C   UNL A   1      42.775  23.540  26.392  1.00  0.00     0.010 A 
ATOM     78  C   UNL A   1      42.369  22.597  28.589  1.00  0.00     0.010 A 
ATOM     79  C   UNL A   1      42.671  22.265  25.828  1.00  0.00     0.020 A 
ATOM     80  C   UNL A   1      42.290  21.317  28.033  1.00  0.00     0.020 A 
ATOM     81  C   UNL A   1      42.433  21.161  26.653  1.00  0.00     0.054 A 
BRANCH  81  82
ATOM     82  S   UNL A   1      42.372  19.506  25.910  1.00  0.00     0.124 S 
ATOM     83  O   UNL A   1      40.993  19.435  25.440  1.00  0.00    -0.237 OA
ATOM     84  O   UNL A   1      43.393  19.589  24.868  1.00  0.00    -0.237 OA
ATOM     85  O   UNL A   1      42.703  18.621  27.024  1.00  0.00    -0.744 OA
ENDBRANCH  81  82
ENDBRANCH  53  76
BRANCH  65  86
ATOM     86  C   UNL A   1      47.974  27.308  30.442  1.00  0.00    -0.014 A 
ATOM     87  C   UNL A   1      48.934  27.579  29.450  1.00  0.00     0.010 A 
ATOM     88  C   UNL A   1      48.385  26.744  31.663  1.00  0.00     0.010 A 
ATOM     89  C   UNL A   1      50.277  27.261  29.666  1.00  0.00     0.020 A 
ATOM     90  C   UNL A   1      49.730  26.446  31.890  1.00  0.00     0.020 A 
ATOM     91  C   UNL A   1      50.666  26.693  30.883  1.00  0.00     0.054 A 
BRANCH  91  92
ATOM     92  S   UNL A   1      52.419  26.319  31.156  1.00  0.00     0.124 S 
ATOM     93  O   UNL A   1      52.939  26.292  29.792  1.00  0.00    -0.237 OA
ATOM     94  O   UNL A   1      52.866  27.443  31.976  1.00  0.00    -0.237 OA
ATOM     95  O   UNL A   1      52.396  25.028  31.841  1.00  0.00    -0.744 OA
ENDBRANCH  91  92
ENDBRANCH  65  86
ENDBRANCH  39  40
ENDBRANCH  32  34
ENDBRANCH  31  32
ENDBRANCH  30  31
ENDBRANCH   1  30
TORSDOF 19
ENDMDL
MODEL 2
REMARK VINA RESULT:     -11.1      2.826      8.189
REMARK SMILES COc1ccc(S(=O)(=O)N2CCC[C@H](C(=O)N3CCC[C@H](C(=O)OCCOC(=O)c4ccc(-c5c6nc(c(-c7ccc(S(=O)(=O)[O-])cc7)c7ccc([nH]7)c(-c7ccc(S(=O)(=O)[O-])cc7)c7nc(c(-c8ccc(S(=O)(=O)[O-])cc8)c8ccc5[nH]8)C=C7)C=C6)cc4)C3)C2)cc1
REMARK SMILES IDX 25 1 24 2 22 3 23 4 21 5 17 6 18 7 90 8 19 9 20 10 15 11
REMARK SMILES IDX 16 12 14 13 10 14 11 15 91 16 12 17 13 18 7 19 8 20 9 21
REMARK SMILES IDX 6 22 3 23 4 24 93 25 5 26 92 27 2 28 1 29 26 30 27 31 28 32
REMARK SMILES IDX 29 33 30 34 31 35 89 36 32 37 88 38 33 39 34 40 35 41 82 42
REMARK SMILES IDX 36 43 87 44 81 45 83 46 37 47 86 48 80 49 79 50 38 52 68 53
REMARK SMILES IDX 49 54 67 55 50 56 53 57 66 58 84 59 51 60 52 61 65 63 85 64
REMARK SMILES IDX 54 65 39 66 40 67 48 68 41 69 47 70 42 71 43 72 44 73 45 74
REMARK SMILES IDX 46 75 69 76 70 77 78 78 71 79 77 80 72 81 73 82 74 83 75 84
REMARK SMILES IDX 76 85 55 86 56 87 64 88 57 89 63 90 58 91 59 92 60 93 61 94
REMARK SMILES IDX 62 95
REMARK H PARENT 83 51 53 62
REMARK Flexibility Score: inf
ROOT
ATOM      1  C   UNL A   1      31.902  28.795  26.929  1.00  0.00     0.274 C 
ENDROOT
BRANCH   1   2
ATOM      2  O   UNL A   1      31.519  28.271  25.644  1.00  0.00    -0.462 OA
BRANCH   2   3
ATOM      3  C   UNL A   1      31.025  27.013  25.617  1.00  0.00     0.310 C 
ATOM      4  O   UNL A   1      30.818  26.322  26.611  1.00  0.00    -0.252 OA
BRANCH   3   5
ATOM      5  C   UNL A   1      30.757  26.496  24.212  1.00  0.00     0.119 C 
ATOM      6  N   UNL A   1      32.976  25.545  23.827  1.00  0.00    -0.342 N 
ATOM      7  C   UNL A   1      33.253  26.415  22.689  1.00  0.00     0.119 C 
ATOM      8  C   UNL A   1      31.572  25.223  24.012  1.00  0.00     0.134 C 
ATOM      9  C   UNL A   1      32.464  27.718  22.756  1.00  0.00     0.022 C 
ATOM     10  C   UNL A   1      30.984  27.482  23.062  1.00  0.00     0.019 C 
BRANCH   6  11
ATOM     11  C   UNL A   1      33.943  25.372  24.797  1.00  0.00     0.227 C 
ATOM     12  O   UNL A   1      34.115  26.221  25.677  1.00  0.00    -0.275 OA
BRANCH  11  13
ATOM     13  C   UNL A   1      34.977  24.249  24.647  1.00  0.00     0.094 C 
ATOM     14  N   UNL A   1      33.569  22.261  25.087  1.00  0.00    -0.197 NA
ATOM     15  C   UNL A   1      34.218  21.964  26.375  1.00  0.00     0.102 C 
ATOM     16  C   UNL A   1      34.295  23.024  24.059  1.00  0.00     0.116 C 
ATOM     17  C   UNL A   1      35.553  22.660  26.620  1.00  0.00     0.018 C 
ATOM     18  C   UNL A   1      35.920  23.886  25.781  1.00  0.00     0.016 C 
BRANCH  14  19
ATOM     19  S   UNL A   1      32.332  21.216  24.583  1.00  0.00     0.243 S 
ATOM     20  O   UNL A   1      32.103  21.417  23.172  1.00  0.00    -0.207 OA
ATOM     21  O   UNL A   1      31.253  21.329  25.548  1.00  0.00    -0.207 OA
BRANCH  19  22
ATOM     22  C   UNL A   1      32.983  19.567  24.761  1.00  0.00     0.082 A 
ATOM     23  C   UNL A   1      34.045  16.985  24.853  1.00  0.00     0.118 A 
ATOM     24  C   UNL A   1      34.815  18.042  24.365  1.00  0.00     0.048 A 
ATOM     25  C   UNL A   1      32.763  17.231  25.343  1.00  0.00     0.048 A 
ATOM     26  C   UNL A   1      34.284  19.334  24.307  1.00  0.00     0.025 A 
ATOM     27  C   UNL A   1      32.229  18.517  25.289  1.00  0.00     0.025 A 
BRANCH  23  28
ATOM     28  O   UNL A   1      34.633  15.750  24.834  1.00  0.00    -0.497 OA
ATOM     29  C   UNL A   1      35.881  15.689  25.521  1.00  0.00     0.278 C 
ENDBRANCH  23  28
ENDBRANCH  19  22
ENDBRANCH  14  19
ENDBRANCH  11  13
ENDBRANCH   6  11
ENDBRANCH   3   5
ENDBRANCH   2   3
ENDBRANCH   1   2
BRANCH   1  30
ATOM     30  C   UNL A   1      32.383  30.240  26.800  1.00  0.00     0.275 C 
BRANCH  30  31
ATOM     31  O   UNL A   1      33.820  30.323  26.855  1.00  0.00    -0.458 OA
BRANCH  31  32
ATOM     32  C   UNL A   1      34.304  31.309  27.645  1.00  0.00     0.338 C 
ATOM     33  O   UNL A   1      33.740  32.334  27.987  1.00  0.00    -0.246 OA
BRANCH  32  34
ATOM     34  C   UNL A   1      35.620  30.922  28.165  1.00  0.00     0.060 A 
ATOM     35  C   UNL A   1      35.736  29.696  28.822  1.00  0.00     0.016 A 
ATOM     36  C   UNL A   1      36.695  31.806  28.114  1.00  0.00     0.016 A 
ATOM     37  C   UNL A   1      36.918  29.355  29.468  1.00  0.00     0.010 A 
ATOM     38  C   UNL A   1      37.894  31.452  28.741  1.00  0.00     0.010 A 
ATOM     39  C   UNL A   1      38.003  30.235  29.439  1.00  0.00    -0.014 A 
BRANCH  39  40
ATOM     40  C   UNL A   1      39.234  29.902  30.189  1.00  0.00     0.031 A 
ATOM     41  C   UNL A   1      40.128  28.802  29.696  1.00  0.00     0.074 A 
ATOM     42  C   UNL A   1      39.555  30.602  31.293  1.00  0.00     0.049 A 
ATOM     43  N   UNL A   1      41.180  28.276  30.267  1.00  0.00    -0.248 NA
ATOM     44  C   UNL A   1      39.792  28.212  28.390  1.00  0.00     0.031 C 
ATOM     45  C   UNL A   1      38.796  31.735  31.829  1.00  0.00     0.029 A 
ATOM     46  N   UNL A   1      40.604  30.460  32.165  1.00  0.00    -0.354 N 
ATOM     47  C   UNL A   1      41.610  27.269  29.412  1.00  0.00     0.074 A 
ATOM     48  C   UNL A   1      40.704  27.255  28.283  1.00  0.00     0.031 C 
ATOM     49  C   UNL A   1      39.407  32.187  32.934  1.00  0.00     0.029 A 
ATOM     50  C   UNL A   1      40.562  31.341  33.219  1.00  0.00     0.049 A 
ATOM     51  H   UNL A   1      41.317  29.792  32.047  1.00  0.00     0.167 HD
ATOM     52  C   UNL A   1      42.662  26.429  29.560  1.00  0.00     0.031 A 
ATOM     53  C   UNL A   1      41.344  31.432  34.311  1.00  0.00     0.031 A 
ATOM     54  C   UNL A   1      43.562  26.459  30.683  1.00  0.00     0.049 A 
ATOM     55  C   UNL A   1      42.475  30.455  34.479  1.00  0.00     0.074 A 
ATOM     56  C   UNL A   1      44.658  25.653  30.931  1.00  0.00     0.029 A 
ATOM     57  N   UNL A   1      43.471  27.349  31.743  1.00  0.00    -0.354 N 
ATOM     58  N   UNL A   1      42.850  29.486  33.679  1.00  0.00    -0.248 NA
ATOM     59  C   UNL A   1      43.283  30.582  35.698  1.00  0.00     0.031 C 
ATOM     60  C   UNL A   1      45.206  26.029  32.162  1.00  0.00     0.029 A 
ATOM     61  C   UNL A   1      44.481  27.102  32.656  1.00  0.00     0.049 A 
ATOM     62  H   UNL A   1      42.788  28.053  31.833  1.00  0.00     0.167 HD
ATOM     63  C   UNL A   1      43.950  28.896  34.289  1.00  0.00     0.074 A 
ATOM     64  C   UNL A   1      44.188  29.629  35.517  1.00  0.00     0.031 C 
ATOM     65  C   UNL A   1      44.695  27.843  33.874  1.00  0.00     0.031 A 
BRANCH  52  66
ATOM     66  C   UNL A   1      42.861  25.376  28.505  1.00  0.00    -0.014 A 
ATOM     67  C   UNL A   1      42.130  24.175  28.519  1.00  0.00     0.010 A 
ATOM     68  C   UNL A   1      43.785  25.603  27.468  1.00  0.00     0.010 A 
ATOM     69  C   UNL A   1      42.347  23.205  27.535  1.00  0.00     0.020 A 
ATOM     70  C   UNL A   1      43.988  24.645  26.471  1.00  0.00     0.020 A 
ATOM     71  C   UNL A   1      43.280  23.444  26.521  1.00  0.00     0.054 A 
BRANCH  71  72
ATOM     72  S   UNL A   1      43.535  22.175  25.249  1.00  0.00     0.124 S 
ATOM     73  O   UNL A   1      44.870  21.684  25.580  1.00  0.00    -0.237 OA
ATOM     74  O   UNL A   1      42.441  21.241  25.502  1.00  0.00    -0.237 OA
ATOM     75  O   UNL A   1      43.437  22.918  23.996  1.00  0.00    -0.744 OA
ENDBRANCH  71  72
ENDBRANCH  52  66
BRANCH  53  76
ATOM     76  C   UNL A   1      41.055  32.462  35.343  1.00  0.00    -0.014 A 
ATOM     77  C   UNL A   1      41.586  33.757  35.231  1.00  0.00     0.010 A 
ATOM     78  C   UNL A   1      40.219  32.157  36.433  1.00  0.00     0.010 A 
ATOM     79  C   UNL A   1      41.292  34.728  36.193  1.00  0.00     0.020 A 
ATOM     80  C   UNL A   1      39.901  33.131  37.383  1.00  0.00     0.020 A 
ATOM     81  C   UNL A   1      40.447  34.410  37.261  1.00  0.00     0.054 A 
BRANCH  81  82
ATOM     82  S   UNL A   1      40.020  35.704  38.459  1.00  0.00     0.124 S 
ATOM     83  O   UNL A   1      41.249  35.815  39.237  1.00  0.00    -0.237 OA
ATOM     84  O   UNL A   1      39.711  36.843  37.599  1.00  0.00    -0.237 OA
ATOM     85  O   UNL A   1      38.875  35.144  39.171  1.00  0.00    -0.744 OA
ENDBRANCH  81  82
ENDBRANCH  53  76
BRANCH  65  86
ATOM     86  C   UNL A   1      45.857  27.442  34.740  1.00  0.00    -0.014 A 
ATOM     87  C   UNL A   1      45.752  26.373  35.648  1.00  0.00     0.010 A 
ATOM     88  C   UNL A   1      47.083  28.120  34.611  1.00  0.00     0.010 A 
ATOM     89  C   UNL A   1      46.847  26.010  36.436  1.00  0.00     0.020 A 
ATOM     90  C   UNL A   1      48.186  27.744  35.382  1.00  0.00     0.020 A 
ATOM     91  C   UNL A   1      48.055  26.700  36.301  1.00  0.00     0.054 A 
BRANCH  91  92
ATOM     92  S   UNL A   1      49.473  26.190  37.310  1.00  0.00     0.124 S 
ATOM     93  O   UNL A   1      49.760  24.860  36.781  1.00  0.00    -0.237 OA
ATOM     94  O   UNL A   1      50.471  27.215  37.006  1.00  0.00    -0.237 OA
ATOM     95  O   UNL A   1      48.956  26.221  38.675  1.00  0.00    -0.744 OA
ENDBRANCH  91  92
ENDBRANCH  65  86
ENDBRANCH  39  40
ENDBRANCH  32  34
ENDBRANCH  31  32
ENDBRANCH  30  31
ENDBRANCH   1  30
TORSDOF 19
ENDMDL
MODEL 3
REMARK VINA RESULT:     -10.8      3.156      4.487
REMARK SMILES COc1ccc(S(=O)(=O)N2CCC[C@H](C(=O)N3CCC[C@H](C(=O)OCCOC(=O)c4ccc(-c5c6nc(c(-c7ccc(S(=O)(=O)[O-])cc7)c7ccc([nH]7)c(-c7ccc(S(=O)(=O)[O-])cc7)c7nc(c(-c8ccc(S(=O)(=O)[O-])cc8)c8ccc5[nH]8)C=C7)C=C6)cc4)C3)C2)cc1
REMARK SMILES IDX 25 1 24 2 22 3 23 4 21 5 17 6 18 7 90 8 19 9 20 10 15 11
REMARK SMILES IDX 16 12 14 13 10 14 11 15 91 16 12 17 13 18 7 19 8 20 9 21
REMARK SMILES IDX 6 22 3 23 4 24 93 25 5 26 92 27 2 28 1 29 26 30 27 31 28 32
REMARK SMILES IDX 29 33 30 34 31 35 89 36 32 37 88 38 33 39 34 40 35 41 82 42
REMARK SMILES IDX 36 43 87 44 81 45 83 46 37 47 86 48 80 49 79 50 38 52 68 53
REMARK SMILES IDX 49 54 67 55 50 56 53 57 66 58 84 59 51 60 52 61 65 63 85 64
REMARK SMILES IDX 54 65 39 66 40 67 48 68 41 69 47 70 42 71 43 72 44 73 45 74
REMARK SMILES IDX 46 75 69 76 70 77 78 78 71 79 77 80 72 81 73 82 74 83 75 84
REMARK SMILES IDX 76 85 55 86 56 87 64 88 57 89 63 90 58 91 59 92 60 93 61 94
REMARK SMILES IDX 62 95
REMARK H PARENT 83 51 53 62
REMARK Flexibility Score: inf
ROOT
ATOM      1  C   UNL A   1      34.157  30.438  27.271  1.00  0.00     0.274 C 
ENDROOT
BRANCH   1   2
ATOM      2  O   UNL A   1      33.967  29.048  26.954  1.00  0.00    -0.462 OA
BRANCH   2   3
ATOM      3  C   UNL A   1      32.702  28.645  26.695  1.00  0.00     0.310 C 
ATOM      4  O   UNL A   1      31.959  28.107  27.512  1.00  0.00    -0.252 OA
BRANCH   3   5
ATOM      5  C   UNL A   1      32.265  28.899  25.260  1.00  0.00     0.119 C 
ATOM      6  N   UNL A   1      32.039  26.554  24.608  1.00  0.00    -0.342 N 
ATOM      7  C   UNL A   1      33.055  26.650  23.567  1.00  0.00     0.119 C 
ATOM      8  C   UNL A   1      31.308  27.785  24.852  1.00  0.00     0.134 C 
ATOM      9  C   UNL A   1      34.062  27.761  23.844  1.00  0.00     0.022 C 
ATOM     10  C   UNL A   1      33.379  29.077  24.224  1.00  0.00     0.019 C 
BRANCH   6  11
ATOM     11  C   UNL A   1      32.062  25.484  25.479  1.00  0.00     0.227 C 
ATOM     12  O   UNL A   1      32.972  25.361  26.307  1.00  0.00    -0.275 OA
BRANCH  11  13
ATOM     13  C   UNL A   1      31.100  24.308  25.265  1.00  0.00     0.094 C 
ATOM     14  N   UNL A   1      32.705  22.454  24.926  1.00  0.00    -0.197 NA
ATOM     15  C   UNL A   1      32.372  22.295  23.500  1.00  0.00     0.102 C 
ATOM     16  C   UNL A   1      31.723  23.049  25.847  1.00  0.00     0.116 C 
ATOM     17  C   UNL A   1      31.077  22.959  23.045  1.00  0.00     0.018 C 
ATOM     18  C   UNL A   1      30.452  24.052  23.915  1.00  0.00     0.016 C 
BRANCH  14  19
ATOM     19  S   UNL A   1      33.873  21.407  25.570  1.00  0.00     0.243 S 
ATOM     20  O   UNL A   1      34.111  20.342  24.625  1.00  0.00    -0.207 OA
ATOM     21  O   UNL A   1      33.491  21.127  26.943  1.00  0.00    -0.207 OA
BRANCH  19  22
ATOM     22  C   UNL A   1      35.380  22.352  25.659  1.00  0.00     0.082 A 
ATOM     23  C   UNL A   1      37.792  23.730  25.952  1.00  0.00     0.118 A 
ATOM     24  C   UNL A   1      37.790  22.339  25.829  1.00  0.00     0.048 A 
ATOM     25  C   UNL A   1      36.591  24.433  25.877  1.00  0.00     0.048 A 
ATOM     26  C   UNL A   1      36.585  21.645  25.693  1.00  0.00     0.025 A 
ATOM     27  C   UNL A   1      35.387  23.746  25.740  1.00  0.00     0.025 A 
BRANCH  23  28
ATOM     28  O   UNL A   1      39.015  24.319  26.122  1.00  0.00    -0.497 OA
ATOM     29  C   UNL A   1      39.226  24.859  27.425  1.00  0.00     0.278 C 
ENDBRANCH  23  28
ENDBRANCH  19  22
ENDBRANCH  14  19
ENDBRANCH  11  13
ENDBRANCH   6  11
ENDBRANCH   3   5
ENDBRANCH   2   3
ENDBRANCH   1   2
BRANCH   1  30
ATOM     30  C   UNL A   1      35.366  30.622  28.188  1.00  0.00     0.275 C 
BRANCH  30  31
ATOM     31  O   UNL A   1      36.327  29.563  28.009  1.00  0.00    -0.458 OA
BRANCH  31  32
ATOM     32  C   UNL A   1      37.049  29.258  29.112  1.00  0.00     0.338 C 
ATOM     33  O   UNL A   1      36.651  29.159  30.260  1.00  0.00    -0.246 OA
BRANCH  32  34
ATOM     34  C   UNL A   1      38.425  28.927  28.723  1.00  0.00     0.060 A 
ATOM     35  C   UNL A   1      39.264  28.362  29.685  1.00  0.00     0.016 A 
ATOM     36  C   UNL A   1      38.917  29.280  27.469  1.00  0.00     0.016 A 
ATOM     37  C   UNL A   1      40.614  28.177  29.415  1.00  0.00     0.010 A 
ATOM     38  C   UNL A   1      40.270  29.070  27.187  1.00  0.00     0.010 A 
ATOM     39  C   UNL A   1      41.129  28.537  28.167  1.00  0.00    -0.014 A 
BRANCH  39  40
ATOM     40  C   UNL A   1      42.580  28.407  27.909  1.00  0.00     0.031 A 
ATOM     41  C   UNL A   1      43.491  29.563  28.203  1.00  0.00     0.074 A 
ATOM     42  C   UNL A   1      43.075  27.248  27.437  1.00  0.00     0.049 A 
ATOM     43  N   UNL A   1      44.764  29.697  27.938  1.00  0.00    -0.248 NA
ATOM     44  C   UNL A   1      42.890  30.724  28.881  1.00  0.00     0.031 C 
ATOM     45  C   UNL A   1      42.294  26.037  27.176  1.00  0.00     0.029 A 
ATOM     46  N   UNL A   1      44.355  26.902  27.088  1.00  0.00    -0.354 N 
ATOM     47  C   UNL A   1      45.110  30.969  28.380  1.00  0.00     0.074 A 
ATOM     48  C   UNL A   1      43.912  31.568  28.928  1.00  0.00     0.031 C 
ATOM     49  C   UNL A   1      43.112  25.080  26.714  1.00  0.00     0.029 A 
ATOM     50  C   UNL A   1      44.459  25.626  26.587  1.00  0.00     0.049 A 
ATOM     51  H   UNL A   1      45.124  27.508  27.188  1.00  0.00     0.167 HD
ATOM     52  C   UNL A   1      46.316  31.580  28.326  1.00  0.00     0.031 A 
ATOM     53  C   UNL A   1      45.514  24.984  26.052  1.00  0.00     0.031 A 
ATOM     54  C   UNL A   1      47.503  30.970  27.787  1.00  0.00     0.049 A 
ATOM     55  C   UNL A   1      46.831  25.702  25.955  1.00  0.00     0.074 A 
ATOM     56  C   UNL A   1      48.776  31.503  27.684  1.00  0.00     0.029 A 
ATOM     57  N   UNL A   1      47.563  29.687  27.265  1.00  0.00    -0.354 N 
ATOM     58  N   UNL A   1      47.136  26.916  26.346  1.00  0.00    -0.248 NA
ATOM     59  C   UNL A   1      47.944  24.965  25.342  1.00  0.00     0.031 C 
ATOM     60  C   UNL A   1      49.596  30.555  27.061  1.00  0.00     0.029 A 
ATOM     61  C   UNL A   1      48.846  29.415  26.823  1.00  0.00     0.049 A 
ATOM     62  H   UNL A   1      46.804  29.061  27.216  1.00  0.00     0.167 HD
ATOM     63  C   UNL A   1      48.481  27.086  26.041  1.00  0.00     0.074 A 
ATOM     64  C   UNL A   1      48.933  25.842  25.449  1.00  0.00     0.031 C 
ATOM     65  C   UNL A   1      49.271  28.170  26.232  1.00  0.00     0.031 A 
BRANCH  52  66
ATOM     66  C   UNL A   1      46.396  33.000  28.818  1.00  0.00    -0.014 A 
ATOM     67  C   UNL A   1      46.136  34.088  27.966  1.00  0.00     0.010 A 
ATOM     68  C   UNL A   1      46.719  33.246  30.166  1.00  0.00     0.010 A 
ATOM     69  C   UNL A   1      46.234  35.398  28.445  1.00  0.00     0.020 A 
ATOM     70  C   UNL A   1      46.795  34.554  30.653  1.00  0.00     0.020 A 
ATOM     71  C   UNL A   1      46.569  35.623  29.784  1.00  0.00     0.054 A 
BRANCH  71  72
ATOM     72  S   UNL A   1      46.677  37.332  30.385  1.00  0.00     0.124 S 
ATOM     73  O   UNL A   1      48.036  37.700  29.996  1.00  0.00    -0.237 OA
ATOM     74  O   UNL A   1      45.609  38.001  29.647  1.00  0.00    -0.237 OA
ATOM     75  O   UNL A   1      46.453  37.207  31.823  1.00  0.00    -0.744 OA
ENDBRANCH  71  72
ENDBRANCH  52  66
BRANCH  53  76
ATOM     76  C   UNL A   1      45.350  23.601  25.532  1.00  0.00    -0.014 A 
ATOM     77  C   UNL A   1      45.672  22.492  26.333  1.00  0.00     0.010 A 
ATOM     78  C   UNL A   1      44.842  23.386  24.237  1.00  0.00     0.010 A 
ATOM     79  C   UNL A   1      45.494  21.193  25.847  1.00  0.00     0.020 A 
ATOM     80  C   UNL A   1      44.638  22.089  23.757  1.00  0.00     0.020 A 
ATOM     81  C   UNL A   1      44.974  21.000  24.563  1.00  0.00     0.054 A 
BRANCH  81  82
ATOM     82  S   UNL A   1      44.683  19.307  23.978  1.00  0.00     0.124 S 
ATOM     83  O   UNL A   1      43.436  18.964  24.652  1.00  0.00    -0.237 OA
ATOM     84  O   UNL A   1      44.593  19.483  22.531  1.00  0.00    -0.237 OA
ATOM     85  O   UNL A   1      45.865  18.581  24.436  1.00  0.00    -0.744 OA
ENDBRANCH  81  82
ENDBRANCH  53  76
BRANCH  65  86
ATOM     86  C   UNL A   1      50.713  28.048  25.825  1.00  0.00    -0.014 A 
ATOM     87  C   UNL A   1      51.130  28.370  24.521  1.00  0.00     0.010 A 
ATOM     88  C   UNL A   1      51.670  27.645  26.774  1.00  0.00     0.010 A 
ATOM     89  C   UNL A   1      52.476  28.259  24.165  1.00  0.00     0.020 A 
ATOM     90  C   UNL A   1      53.020  27.555  26.427  1.00  0.00     0.020 A 
ATOM     91  C   UNL A   1      53.411  27.848  25.119  1.00  0.00     0.054 A 
BRANCH  91  92
ATOM     92  S   UNL A   1      55.159  27.743  24.645  1.00  0.00     0.124 S 
ATOM     93  O   UNL A   1      55.326  28.946  23.835  1.00  0.00    -0.237 OA
ATOM     94  O   UNL A   1      55.845  27.755  25.937  1.00  0.00    -0.237 OA
ATOM     95  O   UNL A   1      55.244  26.481  23.915  1.00  0.00    -0.744 OA
ENDBRANCH  91  92
ENDBRANCH  65  86
ENDBRANCH  39  40
ENDBRANCH  32  34
ENDBRANCH  31  32
ENDBRANCH  30  31
ENDBRANCH   1  30
TORSDOF 19
ENDMDL
