MODEL 1
REMARK VINA RESULT:     -10.1      0.000      0.000
REMARK SMILES CO[C@@H]1C[C@H](C(=O)OCCOC(=O)c2ccc(-c3c4nc(c(-c5ccc(S(=O)(=O)[O-])cc5)c5ccc([nH]5)c(-c5ccc(S(=O)(=O)[O-])cc5)c5nc(c(-c6ccc(S(=O)(=O)[O-])cc6)c6ccc3[nH]6)C=C5)C=C4)cc2)N(C(=O)c2ccc([N+](=O)[O-])s2)C1
REMARK SMILES IDX 9 1 8 2 6 3 7 4 5 5 3 6 4 7 85 8 74 9 2 10 1 11 75 12 76 13
REMARK SMILES IDX 77 14 78 15 84 16 79 17 80 18 81 19 82 20 83 21 10 22 11 23
REMARK SMILES IDX 12 24 13 25 14 26 15 27 73 28 16 29 72 30 17 31 18 32 19 33
REMARK SMILES IDX 66 34 20 35 71 36 65 37 67 38 21 39 70 40 64 41 63 42 22 44
REMARK SMILES IDX 52 45 33 46 51 47 34 48 37 49 50 50 68 51 35 52 36 53 49 55
REMARK SMILES IDX 69 56 38 57 23 58 24 59 32 60 25 61 31 62 26 63 27 64 28 65
REMARK SMILES IDX 29 66 30 67 53 68 54 69 62 70 55 71 61 72 56 73 57 74 58 75
REMARK SMILES IDX 59 76 60 77 39 78 40 79 48 80 41 81 47 82 42 83 43 84 44 85
REMARK SMILES IDX 45 86 46 87
REMARK H PARENT 67 43 37 54
REMARK Flexibility Score: inf
ROOT
ATOM      1  C   UNL A   1      36.643  23.810  25.962  1.00  0.00     0.274 C 
ENDROOT
BRANCH   1   2
ATOM      2  O   UNL A   1      36.127  22.470  26.047  1.00  0.00    -0.461 OA
BRANCH   2   3
ATOM      3  C   UNL A   1      34.811  22.331  26.335  1.00  0.00     0.329 C 
ATOM      4  O   UNL A   1      34.380  21.916  27.404  1.00  0.00    -0.250 OA
BRANCH   3   5
ATOM      5  C   UNL A   1      33.884  22.737  25.173  1.00  0.00     0.198 C 
ATOM      6  C   UNL A   1      32.436  20.903  24.594  1.00  0.00     0.140 C 
ATOM      7  C   UNL A   1      33.626  21.713  24.076  1.00  0.00     0.071 C 
ATOM      8  C   UNL A   1      31.664  21.905  25.479  1.00  0.00     0.152 C 
ATOM      9  N   UNL A   1      32.552  23.043  25.672  1.00  0.00    -0.321 N 
BRANCH   6  10
ATOM     10  O   UNL A   1      32.834  19.767  25.364  1.00  0.00    -0.380 OA
ATOM     11  C   UNL A   1      33.593  18.816  24.621  1.00  0.00     0.195 C 
ENDBRANCH   6  10
BRANCH   9  12
ATOM     12  C   UNL A   1      32.130  24.203  26.307  1.00  0.00     0.265 C 
ATOM     13  O   UNL A   1      31.413  24.134  27.307  1.00  0.00    -0.268 OA
BRANCH  12  14
ATOM     14  C   UNL A   1      32.534  25.475  25.726  1.00  0.00     0.099 A 
ATOM     15  C   UNL A   1      33.526  26.353  26.129  1.00  0.00     0.033 A 
ATOM     16  S   UNL A   1      31.754  26.030  24.302  1.00  0.00    -0.058 S 
ATOM     17  C   UNL A   1      33.565  27.535  25.329  1.00  0.00     0.099 A 
ATOM     18  C   UNL A   1      32.627  27.488  24.321  1.00  0.00     0.324 A 
BRANCH  18  19
ATOM     19  N   UNL A   1      32.366  28.517  23.345  1.00  0.00     0.074 N 
ATOM     20  O   UNL A   1      31.360  29.208  23.544  1.00  0.00    -0.258 OA
ATOM     21  O   UNL A   1      33.141  28.623  22.387  1.00  0.00    -0.258 OA
ENDBRANCH  18  19
ENDBRANCH  12  14
ENDBRANCH   9  12
ENDBRANCH   3   5
ENDBRANCH   2   3
ENDBRANCH   1   2
BRANCH   1  22
ATOM     22  C   UNL A   1      38.160  23.794  26.153  1.00  0.00     0.275 C 
BRANCH  22  23
ATOM     23  O   UNL A   1      38.535  24.539  27.326  1.00  0.00    -0.458 OA
BRANCH  23  24
ATOM     24  C   UNL A   1      39.501  25.462  27.136  1.00  0.00     0.338 C 
ATOM     25  O   UNL A   1      40.184  25.633  26.130  1.00  0.00    -0.246 OA
BRANCH  24  26
ATOM     26  C   UNL A   1      39.514  26.393  28.266  1.00  0.00     0.060 A 
ATOM     27  C   UNL A   1      40.270  27.559  28.139  1.00  0.00     0.016 A 
ATOM     28  C   UNL A   1      38.863  26.096  29.462  1.00  0.00     0.016 A 
ATOM     29  C   UNL A   1      40.392  28.440  29.205  1.00  0.00     0.010 A 
ATOM     30  C   UNL A   1      38.978  26.985  30.536  1.00  0.00     0.010 A 
ATOM     31  C   UNL A   1      39.750  28.154  30.414  1.00  0.00    -0.014 A 
BRANCH  31  32
ATOM     32  C   UNL A   1      39.931  29.068  31.564  1.00  0.00     0.031 A 
ATOM     33  C   UNL A   1      41.113  28.897  32.472  1.00  0.00     0.074 A 
ATOM     34  C   UNL A   1      39.053  30.069  31.762  1.00  0.00     0.049 A 
ATOM     35  N   UNL A   1      41.400  29.530  33.578  1.00  0.00    -0.248 NA
ATOM     36  C   UNL A   1      42.105  27.881  32.080  1.00  0.00     0.031 C 
ATOM     37  C   UNL A   1      37.908  30.373  30.900  1.00  0.00     0.029 A 
ATOM     38  N   UNL A   1      38.990  31.017  32.749  1.00  0.00    -0.354 N 
ATOM     39  C   UNL A   1      42.588  28.971  34.035  1.00  0.00     0.074 A 
ATOM     40  C   UNL A   1      42.967  27.947  33.085  1.00  0.00     0.031 C 
ATOM     41  C   UNL A   1      37.260  31.441  31.395  1.00  0.00     0.029 A 
ATOM     42  C   UNL A   1      37.907  31.857  32.634  1.00  0.00     0.049 A 
ATOM     43  H   UNL A   1      39.655  31.091  33.471  1.00  0.00     0.167 HD
ATOM     44  C   UNL A   1      43.291  29.281  35.150  1.00  0.00     0.031 A 
ATOM     45  C   UNL A   1      37.467  32.828  33.457  1.00  0.00     0.031 A 
ATOM     46  C   UNL A   1      42.900  30.299  36.089  1.00  0.00     0.049 A 
ATOM     47  C   UNL A   1      38.227  33.107  34.723  1.00  0.00     0.074 A 
ATOM     48  C   UNL A   1      43.531  30.681  37.259  1.00  0.00     0.029 A 
ATOM     49  N   UNL A   1      41.774  31.098  35.961  1.00  0.00    -0.354 N 
ATOM     50  N   UNL A   1      39.330  32.544  35.163  1.00  0.00    -0.248 NA
ATOM     51  C   UNL A   1      37.681  34.142  35.611  1.00  0.00     0.031 C 
ATOM     52  C   UNL A   1      42.764  31.686  37.860  1.00  0.00     0.029 A 
ATOM     53  C   UNL A   1      41.681  31.961  37.040  1.00  0.00     0.049 A 
ATOM     54  H   UNL A   1      41.134  31.059  35.214  1.00  0.00     0.167 HD
ATOM     55  C   UNL A   1      39.614  33.167  36.372  1.00  0.00     0.074 A 
ATOM     56  C   UNL A   1      38.579  34.160  36.586  1.00  0.00     0.031 C 
ATOM     57  C   UNL A   1      40.638  32.936  37.232  1.00  0.00     0.031 A 
BRANCH  44  58
ATOM     58  C   UNL A   1      44.523  28.468  35.437  1.00  0.00    -0.014 A 
ATOM     59  C   UNL A   1      45.760  28.782  34.848  1.00  0.00     0.010 A 
ATOM     60  C   UNL A   1      44.442  27.377  36.322  1.00  0.00     0.010 A 
ATOM     61  C   UNL A   1      46.886  27.994  35.106  1.00  0.00     0.020 A 
ATOM     62  C   UNL A   1      45.569  26.599  36.599  1.00  0.00     0.020 A 
ATOM     63  C   UNL A   1      46.780  26.901  35.974  1.00  0.00     0.054 A 
BRANCH  63  64
ATOM     64  S   UNL A   1      48.254  25.892  36.293  1.00  0.00     0.124 S 
ATOM     65  O   UNL A   1      49.162  26.352  35.245  1.00  0.00    -0.237 OA
ATOM     66  O   UNL A   1      48.620  26.276  37.653  1.00  0.00    -0.237 OA
ATOM     67  O   UNL A   1      47.773  24.521  36.143  1.00  0.00    -0.744 OA
ENDBRANCH  63  64
ENDBRANCH  44  58
BRANCH  45  68
ATOM     68  C   UNL A   1      36.219  33.568  33.129  1.00  0.00    -0.014 A 
ATOM     69  C   UNL A   1      36.276  34.864  32.588  1.00  0.00     0.010 A 
ATOM     70  C   UNL A   1      34.963  32.971  33.343  1.00  0.00     0.010 A 
ATOM     71  C   UNL A   1      35.098  35.554  32.281  1.00  0.00     0.020 A 
ATOM     72  C   UNL A   1      33.786  33.648  33.014  1.00  0.00     0.020 A 
ATOM     73  C   UNL A   1      33.861  34.941  32.497  1.00  0.00     0.054 A 
BRANCH  73  74
ATOM     74  S   UNL A   1      32.344  35.836  32.056  1.00  0.00     0.124 S 
ATOM     75  O   UNL A   1      32.301  35.661  30.608  1.00  0.00    -0.237 OA
ATOM     76  O   UNL A   1      31.317  35.120  32.809  1.00  0.00    -0.237 OA
ATOM     77  O   UNL A   1      32.607  37.198  32.514  1.00  0.00    -0.744 OA
ENDBRANCH  73  74
ENDBRANCH  45  68
BRANCH  57  78
ATOM     78  C   UNL A   1      40.699  33.789  38.468  1.00  0.00    -0.014 A 
ATOM     79  C   UNL A   1      41.345  35.037  38.454  1.00  0.00     0.010 A 
ATOM     80  C   UNL A   1      40.059  33.356  39.643  1.00  0.00     0.010 A 
ATOM     81  C   UNL A   1      41.372  35.829  39.606  1.00  0.00     0.020 A 
ATOM     82  C   UNL A   1      40.066  34.153  40.789  1.00  0.00     0.020 A 
ATOM     83  C   UNL A   1      40.734  35.380  40.767  1.00  0.00     0.054 A 
BRANCH  83  84
ATOM     84  S   UNL A   1      40.742  36.442  42.238  1.00  0.00     0.124 S 
ATOM     85  O   UNL A   1      41.246  35.535  43.264  1.00  0.00    -0.237 OA
ATOM     86  O   UNL A   1      41.648  37.521  41.852  1.00  0.00    -0.237 OA
ATOM     87  O   UNL A   1      39.342  36.836  42.385  1.00  0.00    -0.744 OA
ENDBRANCH  83  84
ENDBRANCH  57  78
ENDBRANCH  31  32
ENDBRANCH  24  26
ENDBRANCH  23  24
ENDBRANCH  22  23
ENDBRANCH   1  22
TORSDOF 18
ENDMDL
MODEL 2
REMARK VINA RESULT:     -10.1      3.401      9.424
REMARK SMILES CO[C@@H]1C[C@H](C(=O)OCCOC(=O)c2ccc(-c3c4nc(c(-c5ccc(S(=O)(=O)[O-])cc5)c5ccc([nH]5)c(-c5ccc(S(=O)(=O)[O-])cc5)c5nc(c(-c6ccc(S(=O)(=O)[O-])cc6)c6ccc3[nH]6)C=C5)C=C4)cc2)N(C(=O)c2ccc([N+](=O)[O-])s2)C1
REMARK SMILES IDX 9 1 8 2 6 3 7 4 5 5 3 6 4 7 85 8 74 9 2 10 1 11 75 12 76 13
REMARK SMILES IDX 77 14 78 15 84 16 79 17 80 18 81 19 82 20 83 21 10 22 11 23
REMARK SMILES IDX 12 24 13 25 14 26 15 27 73 28 16 29 72 30 17 31 18 32 19 33
REMARK SMILES IDX 66 34 20 35 71 36 65 37 67 38 21 39 70 40 64 41 63 42 22 44
REMARK SMILES IDX 52 45 33 46 51 47 34 48 37 49 50 50 68 51 35 52 36 53 49 55
REMARK SMILES IDX 69 56 38 57 23 58 24 59 32 60 25 61 31 62 26 63 27 64 28 65
REMARK SMILES IDX 29 66 30 67 53 68 54 69 62 70 55 71 61 72 56 73 57 74 58 75
REMARK SMILES IDX 59 76 60 77 39 78 40 79 48 80 41 81 47 82 42 83 43 84 44 85
REMARK SMILES IDX 45 86 46 87
REMARK H PARENT 67 43 37 54
REMARK Flexibility Score: inf
ROOT
ATOM      1  C   UNL A   1      32.059  29.038  26.083  1.00  0.00     0.274 C 
ENDROOT
BRANCH   1   2
ATOM      2  O   UNL A   1      31.798  27.855  26.859  1.00  0.00    -0.461 OA
BRANCH   2   3
ATOM      3  C   UNL A   1      31.193  26.821  26.227  1.00  0.00     0.329 C 
ATOM      4  O   UNL A   1      30.524  25.965  26.794  1.00  0.00    -0.250 OA
BRANCH   3   5
ATOM      5  C   UNL A   1      31.435  26.808  24.706  1.00  0.00     0.198 C 
ATOM      6  C   UNL A   1      31.919  24.569  23.967  1.00  0.00     0.140 C 
ATOM      7  C   UNL A   1      32.565  25.940  24.171  1.00  0.00     0.071 C 
ATOM      8  C   UNL A   1      30.440  24.898  23.668  1.00  0.00     0.152 C 
ATOM      9  N   UNL A   1      30.260  26.302  24.012  1.00  0.00    -0.321 N 
BRANCH   6  10
ATOM     10  O   UNL A   1      32.015  23.734  25.123  1.00  0.00    -0.380 OA
ATOM     11  C   UNL A   1      33.326  23.691  25.683  1.00  0.00     0.195 C 
ENDBRANCH   6  10
BRANCH   9  12
ATOM     12  C   UNL A   1      29.079  26.979  23.738  1.00  0.00     0.265 C 
ATOM     13  O   UNL A   1      27.999  26.504  24.091  1.00  0.00    -0.268 OA
BRANCH  12  14
ATOM     14  C   UNL A   1      29.176  28.227  22.995  1.00  0.00     0.099 A 
ATOM     15  C   UNL A   1      30.250  28.760  22.302  1.00  0.00     0.033 A 
ATOM     16  S   UNL A   1      27.792  29.232  22.863  1.00  0.00    -0.058 S 
ATOM     17  C   UNL A   1      29.964  30.049  21.760  1.00  0.00     0.099 A 
ATOM     18  C   UNL A   1      28.665  30.426  22.026  1.00  0.00     0.324 A 
BRANCH  18  19
ATOM     19  N   UNL A   1      28.042  31.672  21.657  1.00  0.00     0.074 N 
ATOM     20  O   UNL A   1      27.736  32.422  22.591  1.00  0.00    -0.258 OA
ATOM     21  O   UNL A   1      27.845  31.894  20.456  1.00  0.00    -0.258 OA
ENDBRANCH  18  19
ENDBRANCH  12  14
ENDBRANCH   9  12
ENDBRANCH   3   5
ENDBRANCH   2   3
ENDBRANCH   1   2
BRANCH   1  22
ATOM     22  C   UNL A   1      32.481  30.181  27.006  1.00  0.00     0.275 C 
BRANCH  22  23
ATOM     23  O   UNL A   1      33.882  30.472  26.853  1.00  0.00    -0.458 OA
BRANCH  23  24
ATOM     24  C   UNL A   1      34.369  31.410  27.693  1.00  0.00     0.338 C 
ATOM     25  O   UNL A   1      33.806  32.428  28.085  1.00  0.00    -0.246 OA
BRANCH  24  26
ATOM     26  C   UNL A   1      35.646  30.953  28.245  1.00  0.00     0.060 A 
ATOM     27  C   UNL A   1      35.651  29.760  28.970  1.00  0.00     0.016 A 
ATOM     28  C   UNL A   1      36.807  31.715  28.124  1.00  0.00     0.016 A 
ATOM     29  C   UNL A   1      36.812  29.317  29.589  1.00  0.00     0.010 A 
ATOM     30  C   UNL A   1      37.979  31.268  28.741  1.00  0.00     0.010 A 
ATOM     31  C   UNL A   1      37.984  30.073  29.483  1.00  0.00    -0.014 A 
BRANCH  31  32
ATOM     32  C   UNL A   1      39.202  29.625  30.194  1.00  0.00     0.031 A 
ATOM     33  C   UNL A   1      39.610  30.299  31.470  1.00  0.00     0.074 A 
ATOM     34  C   UNL A   1      39.912  28.590  29.707  1.00  0.00     0.049 A 
ATOM     35  N   UNL A   1      40.685  30.119  32.190  1.00  0.00    -0.248 NA
ATOM     36  C   UNL A   1      38.683  31.309  32.009  1.00  0.00     0.031 C 
ATOM     37  C   UNL A   1      39.567  27.814  28.514  1.00  0.00     0.029 A 
ATOM     38  N   UNL A   1      41.068  28.011  30.161  1.00  0.00    -0.354 N 
ATOM     39  C   UNL A   1      40.584  31.011  33.251  1.00  0.00     0.074 A 
ATOM     40  C   UNL A   1      39.341  31.733  33.079  1.00  0.00     0.031 C 
ATOM     41  C   UNL A   1      40.490  26.854  28.335  1.00  0.00     0.029 A 
ATOM     42  C   UNL A   1      41.518  26.987  29.361  1.00  0.00     0.049 A 
ATOM     43  H   UNL A   1      41.533  28.300  30.979  1.00  0.00     0.167 HD
ATOM     44  C   UNL A   1      41.454  31.213  34.269  1.00  0.00     0.031 A 
ATOM     45  C   UNL A   1      42.651  26.262  29.429  1.00  0.00     0.031 A 
ATOM     46  C   UNL A   1      42.688  30.491  34.425  1.00  0.00     0.049 A 
ATOM     47  C   UNL A   1      43.633  26.551  30.529  1.00  0.00     0.074 A 
ATOM     48  C   UNL A   1      43.650  30.629  35.410  1.00  0.00     0.029 A 
ATOM     49  N   UNL A   1      43.131  29.491  33.570  1.00  0.00    -0.354 N 
ATOM     50  N   UNL A   1      43.542  27.425  31.506  1.00  0.00    -0.248 NA
ATOM     51  C   UNL A   1      44.875  25.767  30.534  1.00  0.00     0.031 C 
ATOM     52  C   UNL A   1      44.693  29.739  35.129  1.00  0.00     0.029 A 
ATOM     53  C   UNL A   1      44.360  29.015  33.995  1.00  0.00     0.049 A 
ATOM     54  H   UNL A   1      42.643  29.168  32.779  1.00  0.00     0.167 HD
ATOM     55  C   UNL A   1      44.710  27.286  32.246  1.00  0.00     0.074 A 
ATOM     56  C   UNL A   1      45.482  26.233  31.616  1.00  0.00     0.031 C 
ATOM     57  C   UNL A   1      45.110  27.970  33.347  1.00  0.00     0.031 A 
BRANCH  44  58
ATOM     58  C   UNL A   1      41.120  32.296  35.257  1.00  0.00    -0.014 A 
ATOM     59  C   UNL A   1      40.423  32.013  36.445  1.00  0.00     0.010 A 
ATOM     60  C   UNL A   1      41.522  33.619  34.996  1.00  0.00     0.010 A 
ATOM     61  C   UNL A   1      40.098  33.041  37.335  1.00  0.00     0.020 A 
ATOM     62  C   UNL A   1      41.217  34.646  35.893  1.00  0.00     0.020 A 
ATOM     63  C   UNL A   1      40.489  34.353  37.048  1.00  0.00     0.054 A 
BRANCH  63  64
ATOM     64  S   UNL A   1      40.055  35.670  38.217  1.00  0.00     0.124 S 
ATOM     65  O   UNL A   1      39.745  36.778  37.317  1.00  0.00    -0.237 OA
ATOM     66  O   UNL A   1      38.913  35.105  38.931  1.00  0.00    -0.237 OA
ATOM     67  O   UNL A   1      41.266  35.836  39.017  1.00  0.00    -0.744 OA
ENDBRANCH  63  64
ENDBRANCH  44  58
BRANCH  45  68
ATOM     68  C   UNL A   1      42.934  25.230  28.396  1.00  0.00    -0.014 A 
ATOM     69  C   UNL A   1      42.518  23.900  28.578  1.00  0.00     0.010 A 
ATOM     70  C   UNL A   1      43.611  25.579  27.212  1.00  0.00     0.010 A 
ATOM     71  C   UNL A   1      42.787  22.935  27.601  1.00  0.00     0.020 A 
ATOM     72  C   UNL A   1      43.859  24.623  26.224  1.00  0.00     0.020 A 
ATOM     73  C   UNL A   1      43.457  23.303  26.431  1.00  0.00     0.054 A 
BRANCH  73  74
ATOM     74  S   UNL A   1      43.763  22.047  25.157  1.00  0.00     0.124 S 
ATOM     75  O   UNL A   1      45.135  21.646  25.452  1.00  0.00    -0.237 OA
ATOM     76  O   UNL A   1      42.739  21.045  25.440  1.00  0.00    -0.237 OA
ATOM     77  O   UNL A   1      43.580  22.779  23.905  1.00  0.00    -0.744 OA
ENDBRANCH  73  74
ENDBRANCH  45  68
BRANCH  57  78
ATOM     78  C   UNL A   1      46.431  27.583  33.951  1.00  0.00    -0.014 A 
ATOM     79  C   UNL A   1      47.615  28.246  33.586  1.00  0.00     0.010 A 
ATOM     80  C   UNL A   1      46.478  26.576  34.931  1.00  0.00     0.010 A 
ATOM     81  C   UNL A   1      48.832  27.890  34.174  1.00  0.00     0.020 A 
ATOM     82  C   UNL A   1      47.689  26.232  35.536  1.00  0.00     0.020 A 
ATOM     83  C   UNL A   1      48.861  26.883  35.144  1.00  0.00     0.054 A 
BRANCH  83  84
ATOM     84  S   UNL A   1      50.443  26.467  35.929  1.00  0.00     0.124 S 
ATOM     85  O   UNL A   1      51.288  27.583  35.517  1.00  0.00    -0.237 OA
ATOM     86  O   UNL A   1      50.098  26.429  37.349  1.00  0.00    -0.237 OA
ATOM     87  O   UNL A   1      50.787  25.172  35.344  1.00  0.00    -0.744 OA
ENDBRANCH  83  84
ENDBRANCH  57  78
ENDBRANCH  31  32
ENDBRANCH  24  26
ENDBRANCH  23  24
ENDBRANCH  22  23
ENDBRANCH   1  22
TORSDOF 18
ENDMDL
MODEL 3
REMARK VINA RESULT:      -9.9      4.938     10.719
REMARK SMILES CO[C@@H]1C[C@H](C(=O)OCCOC(=O)c2ccc(-c3c4nc(c(-c5ccc(S(=O)(=O)[O-])cc5)c5ccc([nH]5)c(-c5ccc(S(=O)(=O)[O-])cc5)c5nc(c(-c6ccc(S(=O)(=O)[O-])cc6)c6ccc3[nH]6)C=C5)C=C4)cc2)N(C(=O)c2ccc([N+](=O)[O-])s2)C1
REMARK SMILES IDX 9 1 8 2 6 3 7 4 5 5 3 6 4 7 85 8 74 9 2 10 1 11 75 12 76 13
REMARK SMILES IDX 77 14 78 15 84 16 79 17 80 18 81 19 82 20 83 21 10 22 11 23
REMARK SMILES IDX 12 24 13 25 14 26 15 27 73 28 16 29 72 30 17 31 18 32 19 33
REMARK SMILES IDX 66 34 20 35 71 36 65 37 67 38 21 39 70 40 64 41 63 42 22 44
REMARK SMILES IDX 52 45 33 46 51 47 34 48 37 49 50 50 68 51 35 52 36 53 49 55
REMARK SMILES IDX 69 56 38 57 23 58 24 59 32 60 25 61 31 62 26 63 27 64 28 65
REMARK SMILES IDX 29 66 30 67 53 68 54 69 62 70 55 71 61 72 56 73 57 74 58 75
REMARK SMILES IDX 59 76 60 77 39 78 40 79 48 80 41 81 47 82 42 83 43 84 44 85
REMARK SMILES IDX 45 86 46 87
REMARK H PARENT 67 43 37 54
REMARK Flexibility Score: inf
ROOT
ATOM      1  C   UNL A   1      31.637  28.340  26.899  1.00  0.00     0.274 C 
ENDROOT
BRANCH   1   2
ATOM      2  O   UNL A   1      32.524  27.208  26.846  1.00  0.00    -0.461 OA
BRANCH   2   3
ATOM      3  C   UNL A   1      32.726  26.638  25.634  1.00  0.00     0.329 C 
ATOM      4  O   UNL A   1      33.327  27.176  24.712  1.00  0.00    -0.250 OA
BRANCH   3   5
ATOM      5  C   UNL A   1      32.113  25.229  25.511  1.00  0.00     0.198 C 
ATOM      6  C   UNL A   1      30.733  25.101  23.543  1.00  0.00     0.140 C 
ATOM      7  C   UNL A   1      30.660  25.121  25.071  1.00  0.00     0.071 C 
ATOM      8  C   UNL A   1      32.107  24.462  23.247  1.00  0.00     0.152 C 
ATOM      9  N   UNL A   1      32.830  24.452  24.511  1.00  0.00    -0.321 N 
BRANCH   6  10
ATOM     10  O   UNL A   1      30.661  26.408  22.968  1.00  0.00    -0.380 OA
ATOM     11  C   UNL A   1      31.506  26.573  21.831  1.00  0.00     0.195 C 
ENDBRANCH   6  10
BRANCH   9  12
ATOM     12  C   UNL A   1      34.057  23.818  24.649  1.00  0.00     0.265 C 
ATOM     13  O   UNL A   1      35.098  24.477  24.637  1.00  0.00    -0.268 OA
BRANCH  12  14
ATOM     14  C   UNL A   1      34.056  22.367  24.766  1.00  0.00     0.099 A 
ATOM     15  C   UNL A   1      35.123  21.493  24.898  1.00  0.00     0.033 A 
ATOM     16  S   UNL A   1      32.559  21.531  24.801  1.00  0.00    -0.058 S 
ATOM     17  C   UNL A   1      34.708  20.126  24.915  1.00  0.00     0.099 A 
ATOM     18  C   UNL A   1      33.336  20.019  24.838  1.00  0.00     0.324 A 
BRANCH  18  19
ATOM     19  N   UNL A   1      32.574  18.797  24.800  1.00  0.00     0.074 N 
ATOM     20  O   UNL A   1      32.100  18.488  23.700  1.00  0.00    -0.258 OA
ATOM     21  O   UNL A   1      32.433  18.163  25.853  1.00  0.00    -0.258 OA
ENDBRANCH  18  19
ENDBRANCH  12  14
ENDBRANCH   9  12
ENDBRANCH   3   5
ENDBRANCH   2   3
ENDBRANCH   1   2
BRANCH   1  22
ATOM     22  C   UNL A   1      32.436  29.612  27.184  1.00  0.00     0.275 C 
BRANCH  22  23
ATOM     23  O   UNL A   1      33.758  29.289  27.653  1.00  0.00    -0.458 OA
BRANCH  23  24
ATOM     24  C   UNL A   1      34.533  30.352  27.960  1.00  0.00     0.338 C 
ATOM     25  O   UNL A   1      34.169  31.500  28.195  1.00  0.00    -0.246 OA
BRANCH  24  26
ATOM     26  C   UNL A   1      35.913  29.905  28.161  1.00  0.00     0.060 A 
ATOM     27  C   UNL A   1      36.252  29.382  29.410  1.00  0.00     0.016 A 
ATOM     28  C   UNL A   1      36.882  30.066  27.173  1.00  0.00     0.016 A 
ATOM     29  C   UNL A   1      37.562  29.020  29.691  1.00  0.00     0.010 A 
ATOM     30  C   UNL A   1      38.202  29.697  27.450  1.00  0.00     0.010 A 
ATOM     31  C   UNL A   1      38.548  29.181  28.712  1.00  0.00    -0.014 A 
BRANCH  31  32
ATOM     32  C   UNL A   1      39.953  28.848  29.038  1.00  0.00     0.031 A 
ATOM     33  C   UNL A   1      40.822  29.866  29.715  1.00  0.00     0.074 A 
ATOM     34  C   UNL A   1      40.427  27.620  28.757  1.00  0.00     0.049 A 
ATOM     35  N   UNL A   1      42.096  29.803  29.999  1.00  0.00    -0.248 NA
ATOM     36  C   UNL A   1      40.170  31.119  30.130  1.00  0.00     0.031 C 
ATOM     37  C   UNL A   1      39.649  26.528  28.164  1.00  0.00     0.029 A 
ATOM     38  N   UNL A   1      41.675  27.083  28.936  1.00  0.00    -0.354 N 
ATOM     39  C   UNL A   1      42.409  31.018  30.599  1.00  0.00     0.074 A 
ATOM     40  C   UNL A   1      41.191  31.798  30.636  1.00  0.00     0.031 C 
ATOM     41  C   UNL A   1      40.439  25.448  28.037  1.00  0.00     0.029 A 
ATOM     42  C   UNL A   1      41.786  25.791  28.480  1.00  0.00     0.049 A 
ATOM     43  H   UNL A   1      42.420  27.575  29.350  1.00  0.00     0.167 HD
ATOM     44  C   UNL A   1      43.606  31.443  31.066  1.00  0.00     0.031 A 
ATOM     45  C   UNL A   1      42.862  24.986  28.397  1.00  0.00     0.031 A 
ATOM     46  C   UNL A   1      44.811  30.658  31.019  1.00  0.00     0.049 A 
ATOM     47  C   UNL A   1      44.195  25.506  28.860  1.00  0.00     0.074 A 
ATOM     48  C   UNL A   1      46.081  30.999  31.449  1.00  0.00     0.029 A 
ATOM     49  N   UNL A   1      44.894  29.369  30.510  1.00  0.00    -0.354 N 
ATOM     50  N   UNL A   1      44.485  26.672  29.390  1.00  0.00    -0.248 NA
ATOM     51  C   UNL A   1      45.347  24.609  28.704  1.00  0.00     0.031 C 
ATOM     52  C   UNL A   1      46.940  29.931  31.164  1.00  0.00     0.029 A 
ATOM     53  C   UNL A   1      46.196  28.908  30.600  1.00  0.00     0.049 A 
ATOM     54  H   UNL A   1      44.138  28.858  30.140  1.00  0.00     0.167 HD
ATOM     55  C   UNL A   1      45.851  26.641  29.642  1.00  0.00     0.074 A 
ATOM     56  C   UNL A   1      46.326  25.337  29.223  1.00  0.00     0.031 C 
ATOM     57  C   UNL A   1      46.644  27.608  30.170  1.00  0.00     0.031 A 
BRANCH  44  58
ATOM     58  C   UNL A   1      43.675  32.840  31.617  1.00  0.00    -0.014 A 
ATOM     59  C   UNL A   1      43.337  33.117  32.953  1.00  0.00     0.010 A 
ATOM     60  C   UNL A   1      44.098  33.892  30.784  1.00  0.00     0.010 A 
ATOM     61  C   UNL A   1      43.381  34.429  33.435  1.00  0.00     0.020 A 
ATOM     62  C   UNL A   1      44.163  35.202  31.268  1.00  0.00     0.020 A 
ATOM     63  C   UNL A   1      43.785  35.464  32.585  1.00  0.00     0.054 A 
BRANCH  63  64
ATOM     64  S   UNL A   1      43.832  37.159  33.233  1.00  0.00     0.124 S 
ATOM     65  O   UNL A   1      42.679  37.167  34.130  1.00  0.00    -0.237 OA
ATOM     66  O   UNL A   1      45.136  37.219  33.887  1.00  0.00    -0.237 OA
ATOM     67  O   UNL A   1      43.697  37.989  32.039  1.00  0.00    -0.744 OA
ENDBRANCH  63  64
ENDBRANCH  44  58
BRANCH  45  68
ATOM     68  C   UNL A   1      42.728  23.627  27.807  1.00  0.00    -0.014 A 
ATOM     69  C   UNL A   1      42.376  22.528  28.610  1.00  0.00     0.010 A 
ATOM     70  C   UNL A   1      42.939  23.428  26.430  1.00  0.00     0.010 A 
ATOM     71  C   UNL A   1      42.251  21.253  28.048  1.00  0.00     0.020 A 
ATOM     72  C   UNL A   1      42.791  22.160  25.861  1.00  0.00     0.020 A 
ATOM     73  C   UNL A   1      42.461  21.078  26.677  1.00  0.00     0.054 A 
BRANCH  73  74
ATOM     74  S   UNL A   1      42.256  19.424  25.958  1.00  0.00     0.124 S 
ATOM     75  O   UNL A   1      43.082  19.512  24.758  1.00  0.00    -0.237 OA
ATOM     76  O   UNL A   1      42.764  18.549  27.011  1.00  0.00    -0.237 OA
ATOM     77  O   UNL A   1      40.817  19.331  25.721  1.00  0.00    -0.744 OA
ENDBRANCH  73  74
ENDBRANCH  45  68
BRANCH  57  78
ATOM     78  C   UNL A   1      48.100  27.279  30.344  1.00  0.00    -0.014 A 
ATOM     79  C   UNL A   1      49.029  27.549  29.324  1.00  0.00     0.010 A 
ATOM     80  C   UNL A   1      48.550  26.737  31.561  1.00  0.00     0.010 A 
ATOM     81  C   UNL A   1      50.384  27.259  29.511  1.00  0.00     0.020 A 
ATOM     82  C   UNL A   1      49.905  26.466  31.759  1.00  0.00     0.020 A 
ATOM     83  C   UNL A   1      50.812  26.717  30.727  1.00  0.00     0.054 A 
BRANCH  83  84
ATOM     84  S   UNL A   1      52.580  26.390  30.966  1.00  0.00     0.124 S 
ATOM     85  O   UNL A   1      53.056  26.273  29.591  1.00  0.00    -0.237 OA
ATOM     86  O   UNL A   1      53.033  27.577  31.689  1.00  0.00    -0.237 OA
ATOM     87  O   UNL A   1      52.600  25.151  31.741  1.00  0.00    -0.744 OA
ENDBRANCH  83  84
ENDBRANCH  57  78
ENDBRANCH  31  32
ENDBRANCH  24  26
ENDBRANCH  23  24
ENDBRANCH  22  23
ENDBRANCH   1  22
TORSDOF 18
ENDMDL
