MODEL 1
REMARK VINA RESULT:     -10.1      0.000      0.000
REMARK SMILES CC[C@@](C)(NC(=O)N(C)[C@@H](C)C(C)C)C(=O)OCCOC(=O)c1ccc(-c2c3nc(c(-c4ccc(S(=O)(=O)[O-])cc4)c4ccc([nH]4)c(-c4ccc(S(=O)(=O)[O-])cc4)c4nc(c(-c5ccc(S(=O)(=O)[O-])cc5)c5ccc2[nH]5)C=C4)C=C3)cc1
REMARK SMILES IDX 18 1 17 2 15 3 16 4 3 5 4 6 2 7 1 8 5 9 6 10 7 12 8 13 9 14
REMARK SMILES IDX 10 15 11 16 12 17 13 18 14 19 19 20 20 21 21 22 22 23 23 24
REMARK SMILES IDX 24 25 82 26 25 27 81 28 26 29 27 30 28 31 75 32 29 33 80 34
REMARK SMILES IDX 74 35 76 36 30 37 79 38 73 39 72 40 31 42 61 43 42 44 60 45
REMARK SMILES IDX 43 46 46 47 59 48 77 49 44 50 45 51 58 53 78 54 47 55 32 56
REMARK SMILES IDX 33 57 41 58 34 59 40 60 35 61 36 62 37 63 38 64 39 65 62 66
REMARK SMILES IDX 63 67 71 68 64 69 70 70 65 71 66 72 67 73 68 74 69 75 48 76
REMARK SMILES IDX 49 77 57 78 50 79 56 80 51 81 52 82 53 83 54 84 55 85
REMARK H PARENT 5 11 76 41 46 52
REMARK Flexibility Score: inf
ROOT
ATOM      1  C   UNL A   1      32.763  29.457  25.727  1.00  0.00     0.274 C 
ENDROOT
BRANCH   1   2
ATOM      2  O   UNL A   1      31.472  28.865  25.998  1.00  0.00    -0.460 OA
BRANCH   2   3
ATOM      3  C   UNL A   1      31.415  27.758  26.771  1.00  0.00     0.331 C 
ATOM      4  O   UNL A   1      31.475  27.827  27.996  1.00  0.00    -0.249 OA
BRANCH   3   5
ATOM      5  C   UNL A   1      31.490  26.406  25.976  1.00  0.00     0.136 C 
ATOM      6  C   UNL A   1      30.928  26.692  24.571  1.00  0.00     0.047 C 
BRANCH   5   7
ATOM      7  C   UNL A   1      33.019  26.016  25.799  1.00  0.00     0.037 C 
ATOM      8  C   UNL A   1      33.678  26.079  24.423  1.00  0.00     0.007 C 
ENDBRANCH   5   7
BRANCH   5   9
ATOM      9  N   UNL A   1      30.893  25.114  26.514  1.00  0.00    -0.322 N 
ATOM     10  C   UNL A   1      30.841  23.777  26.472  1.00  0.00     0.318 C 
ATOM     11  H   UNL A   1      30.254  25.386  27.212  1.00  0.00     0.166 HD
ATOM     12  O   UNL A   1      30.180  23.278  27.390  1.00  0.00    -0.249 OA
BRANCH  10  13
ATOM     13  N   UNL A   1      31.372  23.006  25.491  1.00  0.00    -0.325 N 
ATOM     14  C   UNL A   1      31.242  23.337  24.086  1.00  0.00     0.149 C 
BRANCH  13  15
ATOM     15  C   UNL A   1      32.409  21.972  25.801  1.00  0.00     0.086 C 
ATOM     16  C   UNL A   1      32.137  20.693  24.986  1.00  0.00     0.031 C 
BRANCH  15  17
ATOM     17  C   UNL A   1      33.939  22.338  25.672  1.00  0.00     0.005 C 
ATOM     18  C   UNL A   1      34.574  23.010  26.886  1.00  0.00     0.009 C 
ATOM     19  C   UNL A   1      34.785  21.081  25.382  1.00  0.00     0.009 C 
ENDBRANCH  15  17
ENDBRANCH  13  15
ENDBRANCH  10  13
ENDBRANCH   5   9
ENDBRANCH   3   5
ENDBRANCH   2   3
ENDBRANCH   1   2
BRANCH   1  20
ATOM     20  C   UNL A   1      33.146  30.425  26.851  1.00  0.00     0.275 C 
BRANCH  20  21
ATOM     21  O   UNL A   1      34.098  29.823  27.747  1.00  0.00    -0.458 OA
BRANCH  21  22
ATOM     22  C   UNL A   1      34.813  30.728  28.445  1.00  0.00     0.338 C 
ATOM     23  O   UNL A   1      34.393  31.737  28.984  1.00  0.00    -0.246 OA
BRANCH  22  24
ATOM     24  C   UNL A   1      36.170  30.274  28.676  1.00  0.00     0.060 A 
ATOM     25  C   UNL A   1      37.014  30.227  27.566  1.00  0.00     0.016 A 
ATOM     26  C   UNL A   1      36.569  29.795  29.918  1.00  0.00     0.016 A 
ATOM     27  C   UNL A   1      38.282  29.692  27.685  1.00  0.00     0.010 A 
ATOM     28  C   UNL A   1      37.869  29.319  30.056  1.00  0.00     0.010 A 
ATOM     29  C   UNL A   1      38.732  29.286  28.945  1.00  0.00    -0.014 A 
BRANCH  29  30
ATOM     30  C   UNL A   1      40.154  28.950  29.135  1.00  0.00     0.031 A 
ATOM     31  C   UNL A   1      41.135  30.008  29.509  1.00  0.00     0.074 A 
ATOM     32  C   UNL A   1      40.536  27.683  28.884  1.00  0.00     0.049 A 
ATOM     33  N   UNL A   1      42.438  29.963  29.476  1.00  0.00    -0.248 NA
ATOM     34  C   UNL A   1      40.578  31.290  29.969  1.00  0.00     0.031 C 
ATOM     35  C   UNL A   1      39.629  26.577  28.558  1.00  0.00     0.029 A 
ATOM     36  N   UNL A   1      41.781  27.118  28.834  1.00  0.00    -0.354 N 
ATOM     37  C   UNL A   1      42.865  31.226  29.863  1.00  0.00     0.074 A 
ATOM     38  C   UNL A   1      41.679  32.009  30.140  1.00  0.00     0.031 C 
ATOM     39  C   UNL A   1      40.348  25.471  28.329  1.00  0.00     0.029 A 
ATOM     40  C   UNL A   1      41.761  25.812  28.408  1.00  0.00     0.049 A 
ATOM     41  H   UNL A   1      42.605  27.598  29.079  1.00  0.00     0.167 HD
ATOM     42  C   UNL A   1      44.137  31.684  29.946  1.00  0.00     0.031 A 
ATOM     43  C   UNL A   1      42.769  24.998  28.049  1.00  0.00     0.031 A 
ATOM     44  C   UNL A   1      45.288  30.875  29.640  1.00  0.00     0.049 A 
ATOM     45  C   UNL A   1      44.165  25.535  28.109  1.00  0.00     0.074 A 
ATOM     46  C   UNL A   1      46.625  31.224  29.675  1.00  0.00     0.029 A 
ATOM     47  N   UNL A   1      45.230  29.547  29.233  1.00  0.00    -0.354 N 
ATOM     48  N   UNL A   1      44.563  26.739  28.449  1.00  0.00    -0.248 NA
ATOM     49  C   UNL A   1      45.247  24.618  27.734  1.00  0.00     0.031 C 
ATOM     50  C   UNL A   1      47.373  30.119  29.250  1.00  0.00     0.029 A 
ATOM     51  C   UNL A   1      46.505  29.066  28.996  1.00  0.00     0.049 A 
ATOM     52  H   UNL A   1      44.402  29.025  29.127  1.00  0.00     0.167 HD
ATOM     53  C   UNL A   1      45.946  26.725  28.339  1.00  0.00     0.074 A 
ATOM     54  C   UNL A   1      46.314  25.387  27.913  1.00  0.00     0.031 C 
ATOM     55  C   UNL A   1      46.831  27.726  28.569  1.00  0.00     0.031 A 
BRANCH  42  56
ATOM     56  C   UNL A   1      44.321  33.136  30.296  1.00  0.00    -0.014 A 
ATOM     57  C   UNL A   1      44.263  34.145  29.318  1.00  0.00     0.010 A 
ATOM     58  C   UNL A   1      44.591  33.492  31.630  1.00  0.00     0.010 A 
ATOM     59  C   UNL A   1      44.535  35.475  29.657  1.00  0.00     0.020 A 
ATOM     60  C   UNL A   1      44.839  34.823  31.978  1.00  0.00     0.020 A 
ATOM     61  C   UNL A   1      44.838  35.803  30.983  1.00  0.00     0.054 A 
BRANCH  61  62
ATOM     62  S   UNL A   1      45.227  37.526  31.397  1.00  0.00     0.124 S 
ATOM     63  O   UNL A   1      45.325  37.469  32.854  1.00  0.00    -0.237 OA
ATOM     64  O   UNL A   1      46.486  37.752  30.693  1.00  0.00    -0.237 OA
ATOM     65  O   UNL A   1      44.083  38.273  30.878  1.00  0.00    -0.744 OA
ENDBRANCH  61  62
ENDBRANCH  42  56
BRANCH  43  66
ATOM     66  C   UNL A   1      42.451  23.634  27.552  1.00  0.00    -0.014 A 
ATOM     67  C   UNL A   1      42.407  23.366  26.175  1.00  0.00     0.010 A 
ATOM     68  C   UNL A   1      42.314  22.567  28.462  1.00  0.00     0.010 A 
ATOM     69  C   UNL A   1      42.248  22.055  25.716  1.00  0.00     0.020 A 
ATOM     70  C   UNL A   1      42.181  21.253  28.007  1.00  0.00     0.020 A 
ATOM     71  C   UNL A   1      42.148  21.004  26.634  1.00  0.00     0.054 A 
BRANCH  71  72
ATOM     72  S   UNL A   1      42.064  19.300  26.016  1.00  0.00     0.124 S 
ATOM     73  O   UNL A   1      42.993  19.339  24.891  1.00  0.00    -0.237 OA
ATOM     74  O   UNL A   1      42.500  18.520  27.171  1.00  0.00    -0.237 OA
ATOM     75  O   UNL A   1      40.656  19.135  25.661  1.00  0.00    -0.744 OA
ENDBRANCH  71  72
ENDBRANCH  43  66
BRANCH  55  76
ATOM     76  C   UNL A   1      48.285  27.398  28.395  1.00  0.00    -0.014 A 
ATOM     77  C   UNL A   1      48.941  27.647  27.178  1.00  0.00     0.010 A 
ATOM     78  C   UNL A   1      49.015  26.904  29.490  1.00  0.00     0.010 A 
ATOM     79  C   UNL A   1      50.309  27.396  27.055  1.00  0.00     0.020 A 
ATOM     80  C   UNL A   1      50.387  26.671  29.376  1.00  0.00     0.020 A 
ATOM     81  C   UNL A   1      51.023  26.912  28.156  1.00  0.00     0.054 A 
BRANCH  81  82
ATOM     82  S   UNL A   1      52.813  26.664  27.997  1.00  0.00     0.124 S 
ATOM     83  O   UNL A   1      53.255  27.965  27.502  1.00  0.00    -0.237 OA
ATOM     84  O   UNL A   1      53.216  26.339  29.362  1.00  0.00    -0.237 OA
ATOM     85  O   UNL A   1      52.924  25.562  27.043  1.00  0.00    -0.744 OA
ENDBRANCH  81  82
ENDBRANCH  55  76
ENDBRANCH  29  30
ENDBRANCH  22  24
ENDBRANCH  21  22
ENDBRANCH  20  21
ENDBRANCH   1  20
TORSDOF 19
ENDMDL
MODEL 2
REMARK VINA RESULT:      -9.5      3.716      9.793
REMARK SMILES CC[C@@](C)(NC(=O)N(C)[C@@H](C)C(C)C)C(=O)OCCOC(=O)c1ccc(-c2c3nc(c(-c4ccc(S(=O)(=O)[O-])cc4)c4ccc([nH]4)c(-c4ccc(S(=O)(=O)[O-])cc4)c4nc(c(-c5ccc(S(=O)(=O)[O-])cc5)c5ccc2[nH]5)C=C4)C=C3)cc1
REMARK SMILES IDX 18 1 17 2 15 3 16 4 3 5 4 6 2 7 1 8 5 9 6 10 7 12 8 13 9 14
REMARK SMILES IDX 10 15 11 16 12 17 13 18 14 19 19 20 20 21 21 22 22 23 23 24
REMARK SMILES IDX 24 25 82 26 25 27 81 28 26 29 27 30 28 31 75 32 29 33 80 34
REMARK SMILES IDX 74 35 76 36 30 37 79 38 73 39 72 40 31 42 61 43 42 44 60 45
REMARK SMILES IDX 43 46 46 47 59 48 77 49 44 50 45 51 58 53 78 54 47 55 32 56
REMARK SMILES IDX 33 57 41 58 34 59 40 60 35 61 36 62 37 63 38 64 39 65 62 66
REMARK SMILES IDX 63 67 71 68 64 69 70 70 65 71 66 72 67 73 68 74 69 75 48 76
REMARK SMILES IDX 49 77 57 78 50 79 56 80 51 81 52 82 53 83 54 84 55 85
REMARK H PARENT 5 11 76 41 46 52
REMARK Flexibility Score: inf
ROOT
ATOM      1  C   UNL A   1      35.901  22.065  25.687  1.00  0.00     0.274 C 
ENDROOT
BRANCH   1   2
ATOM      2  O   UNL A   1      34.767  22.223  24.803  1.00  0.00    -0.460 OA
BRANCH   2   3
ATOM      3  C   UNL A   1      33.533  22.327  25.344  1.00  0.00     0.331 C 
ATOM      4  O   UNL A   1      33.099  21.481  26.120  1.00  0.00    -0.249 OA
BRANCH   3   5
ATOM      5  C   UNL A   1      32.651  23.474  24.733  1.00  0.00     0.136 C 
ATOM      6  C   UNL A   1      33.625  24.500  24.124  1.00  0.00     0.047 C 
BRANCH   5   7
ATOM      7  C   UNL A   1      31.802  22.866  23.537  1.00  0.00     0.037 C 
ATOM      8  C   UNL A   1      32.419  21.831  22.600  1.00  0.00     0.007 C 
ENDBRANCH   5   7
BRANCH   5   9
ATOM      9  N   UNL A   1      31.585  24.196  25.543  1.00  0.00    -0.322 N 
ATOM     10  C   UNL A   1      30.771  25.252  25.674  1.00  0.00     0.318 C 
ATOM     11  H   UNL A   1      31.419  23.630  26.331  1.00  0.00     0.166 HD
ATOM     12  O   UNL A   1      29.956  25.137  26.598  1.00  0.00    -0.249 OA
BRANCH  10  13
ATOM     13  N   UNL A   1      30.850  26.393  24.947  1.00  0.00    -0.325 N 
ATOM     14  C   UNL A   1      29.743  26.888  24.153  1.00  0.00     0.149 C 
BRANCH  13  15
ATOM     15  C   UNL A   1      31.945  27.386  25.189  1.00  0.00     0.086 C 
ATOM     16  C   UNL A   1      31.526  28.770  24.658  1.00  0.00     0.031 C 
BRANCH  15  17
ATOM     17  C   UNL A   1      32.534  27.558  26.643  1.00  0.00     0.005 C 
ATOM     18  C   UNL A   1      33.816  28.379  26.755  1.00  0.00     0.009 C 
ATOM     19  C   UNL A   1      31.508  28.229  27.578  1.00  0.00     0.009 C 
ENDBRANCH  15  17
ENDBRANCH  13  15
ENDBRANCH  10  13
ENDBRANCH   5   9
ENDBRANCH   3   5
ENDBRANCH   2   3
ENDBRANCH   1   2
BRANCH   1  20
ATOM     20  C   UNL A   1      36.697  23.373  25.761  1.00  0.00     0.275 C 
BRANCH  20  21
ATOM     21  O   UNL A   1      37.995  23.222  25.157  1.00  0.00    -0.458 OA
BRANCH  21  22
ATOM     22  C   UNL A   1      38.970  22.975  26.054  1.00  0.00     0.338 C 
ATOM     23  O   UNL A   1      39.582  21.932  26.204  1.00  0.00    -0.246 OA
BRANCH  22  24
ATOM     24  C   UNL A   1      39.387  24.185  26.735  1.00  0.00     0.060 A 
ATOM     25  C   UNL A   1      38.918  24.367  28.037  1.00  0.00     0.016 A 
ATOM     26  C   UNL A   1      40.117  25.168  26.077  1.00  0.00     0.016 A 
ATOM     27  C   UNL A   1      39.174  25.549  28.704  1.00  0.00     0.010 A 
ATOM     28  C   UNL A   1      40.434  26.331  26.773  1.00  0.00     0.010 A 
ATOM     29  C   UNL A   1      39.980  26.512  28.092  1.00  0.00    -0.014 A 
BRANCH  29  30
ATOM     30  C   UNL A   1      40.466  27.660  28.879  1.00  0.00     0.031 A 
ATOM     31  C   UNL A   1      41.740  27.561  29.648  1.00  0.00     0.074 A 
ATOM     32  C   UNL A   1      39.683  28.754  28.937  1.00  0.00     0.049 A 
ATOM     33  N   UNL A   1      42.195  28.352  30.580  1.00  0.00    -0.248 NA
ATOM     34  C   UNL A   1      42.610  26.416  29.337  1.00  0.00     0.031 C 
ATOM     35  C   UNL A   1      38.444  28.947  28.177  1.00  0.00     0.029 A 
ATOM     36  N   UNL A   1      39.795  29.894  29.686  1.00  0.00    -0.354 N 
ATOM     37  C   UNL A   1      43.384  27.778  31.008  1.00  0.00     0.074 A 
ATOM     38  C   UNL A   1      43.585  26.579  30.220  1.00  0.00     0.031 C 
ATOM     39  C   UNL A   1      37.904  30.127  28.506  1.00  0.00     0.029 A 
ATOM     40  C   UNL A   1      38.711  30.729  29.559  1.00  0.00     0.049 A 
ATOM     41  H   UNL A   1      40.572  30.096  30.255  1.00  0.00     0.167 HD
ATOM     42  C   UNL A   1      44.209  28.210  31.992  1.00  0.00     0.031 A 
ATOM     43  C   UNL A   1      38.364  31.820  30.263  1.00  0.00     0.031 A 
ATOM     44  C   UNL A   1      43.958  29.398  32.765  1.00  0.00     0.049 A 
ATOM     45  C   UNL A   1      39.268  32.259  31.374  1.00  0.00     0.074 A 
ATOM     46  C   UNL A   1      44.710  29.935  33.794  1.00  0.00     0.029 A 
ATOM     47  N   UNL A   1      42.859  30.232  32.593  1.00  0.00    -0.354 N 
ATOM     48  N   UNL A   1      40.378  31.697  31.793  1.00  0.00    -0.248 NA
ATOM     49  C   UNL A   1      38.878  33.466  32.110  1.00  0.00     0.031 C 
ATOM     50  C   UNL A   1      44.043  31.071  34.271  1.00  0.00     0.029 A 
ATOM     51  C   UNL A   1      42.901  31.270  33.507  1.00  0.00     0.049 A 
ATOM     52  H   UNL A   1      42.153  30.102  31.920  1.00  0.00     0.167 HD
ATOM     53  C   UNL A   1      40.829  32.488  32.840  1.00  0.00     0.074 A 
ATOM     54  C   UNL A   1      39.875  33.574  32.979  1.00  0.00     0.031 C 
ATOM     55  C   UNL A   1      41.930  32.331  33.616  1.00  0.00     0.031 A 
BRANCH  42  56
ATOM     56  C   UNL A   1      45.390  27.340  32.327  1.00  0.00    -0.014 A 
ATOM     57  C   UNL A   1      45.288  26.272  33.235  1.00  0.00     0.010 A 
ATOM     58  C   UNL A   1      46.638  27.623  31.742  1.00  0.00     0.010 A 
ATOM     59  C   UNL A   1      46.425  25.542  33.600  1.00  0.00     0.020 A 
ATOM     60  C   UNL A   1      47.772  26.882  32.087  1.00  0.00     0.020 A 
ATOM     61  C   UNL A   1      47.663  25.864  33.036  1.00  0.00     0.054 A 
BRANCH  61  62
ATOM     62  S   UNL A   1      49.133  24.934  33.552  1.00  0.00     0.124 S 
ATOM     63  O   UNL A   1      48.537  23.768  34.203  1.00  0.00    -0.237 OA
ATOM     64  O   UNL A   1      49.810  24.666  32.286  1.00  0.00    -0.237 OA
ATOM     65  O   UNL A   1      49.831  25.856  34.444  1.00  0.00    -0.744 OA
ENDBRANCH  61  62
ENDBRANCH  42  56
BRANCH  43  66
ATOM     66  C   UNL A   1      37.080  32.500  29.954  1.00  0.00    -0.014 A 
ATOM     67  C   UNL A   1      35.936  32.256  30.730  1.00  0.00     0.010 A 
ATOM     68  C   UNL A   1      37.031  33.491  28.953  1.00  0.00     0.010 A 
ATOM     69  C   UNL A   1      34.771  33.003  30.524  1.00  0.00     0.020 A 
ATOM     70  C   UNL A   1      35.878  34.256  28.761  1.00  0.00     0.020 A 
ATOM     71  C   UNL A   1      34.753  34.006  29.549  1.00  0.00     0.054 A 
BRANCH  71  72
ATOM     72  S   UNL A   1      33.272  35.041  29.380  1.00  0.00     0.124 S 
ATOM     73  O   UNL A   1      32.730  35.019  30.736  1.00  0.00    -0.237 OA
ATOM     74  O   UNL A   1      33.825  36.320  28.940  1.00  0.00    -0.237 OA
ATOM     75  O   UNL A   1      32.476  34.339  28.376  1.00  0.00    -0.744 OA
ENDBRANCH  71  72
ENDBRANCH  43  66
BRANCH  55  76
ATOM     76  C   UNL A   1      42.176  33.379  34.662  1.00  0.00    -0.014 A 
ATOM     77  C   UNL A   1      41.732  33.199  35.982  1.00  0.00     0.010 A 
ATOM     78  C   UNL A   1      42.926  34.521  34.329  1.00  0.00     0.010 A 
ATOM     79  C   UNL A   1      42.028  34.156  36.957  1.00  0.00     0.020 A 
ATOM     80  C   UNL A   1      43.239  35.468  35.305  1.00  0.00     0.020 A 
ATOM     81  C   UNL A   1      42.782  35.282  36.611  1.00  0.00     0.054 A 
BRANCH  81  82
ATOM     82  S   UNL A   1      43.217  36.473  37.908  1.00  0.00     0.124 S 
ATOM     83  O   UNL A   1      41.981  37.239  38.042  1.00  0.00    -0.237 OA
ATOM     84  O   UNL A   1      43.549  35.612  39.039  1.00  0.00    -0.237 OA
ATOM     85  O   UNL A   1      44.346  37.205  37.338  1.00  0.00    -0.744 OA
ENDBRANCH  81  82
ENDBRANCH  55  76
ENDBRANCH  29  30
ENDBRANCH  22  24
ENDBRANCH  21  22
ENDBRANCH  20  21
ENDBRANCH   1  20
TORSDOF 19
ENDMDL
MODEL 3
REMARK VINA RESULT:      -9.2      1.610      2.197
REMARK SMILES CC[C@@](C)(NC(=O)N(C)[C@@H](C)C(C)C)C(=O)OCCOC(=O)c1ccc(-c2c3nc(c(-c4ccc(S(=O)(=O)[O-])cc4)c4ccc([nH]4)c(-c4ccc(S(=O)(=O)[O-])cc4)c4nc(c(-c5ccc(S(=O)(=O)[O-])cc5)c5ccc2[nH]5)C=C4)C=C3)cc1
REMARK SMILES IDX 18 1 17 2 15 3 16 4 3 5 4 6 2 7 1 8 5 9 6 10 7 12 8 13 9 14
REMARK SMILES IDX 10 15 11 16 12 17 13 18 14 19 19 20 20 21 21 22 22 23 23 24
REMARK SMILES IDX 24 25 82 26 25 27 81 28 26 29 27 30 28 31 75 32 29 33 80 34
REMARK SMILES IDX 74 35 76 36 30 37 79 38 73 39 72 40 31 42 61 43 42 44 60 45
REMARK SMILES IDX 43 46 46 47 59 48 77 49 44 50 45 51 58 53 78 54 47 55 32 56
REMARK SMILES IDX 33 57 41 58 34 59 40 60 35 61 36 62 37 63 38 64 39 65 62 66
REMARK SMILES IDX 63 67 71 68 64 69 70 70 65 71 66 72 67 73 68 74 69 75 48 76
REMARK SMILES IDX 49 77 57 78 50 79 56 80 51 81 52 82 53 83 54 84 55 85
REMARK H PARENT 5 11 76 41 46 52
REMARK Flexibility Score: inf
ROOT
ATOM      1  C   UNL A   1      34.342  28.975  26.068  1.00  0.00     0.274 C 
ENDROOT
BRANCH   1   2
ATOM      2  O   UNL A   1      33.604  27.757  26.317  1.00  0.00    -0.460 OA
BRANCH   2   3
ATOM      3  C   UNL A   1      33.183  27.026  25.261  1.00  0.00     0.331 C 
ATOM      4  O   UNL A   1      33.840  26.954  24.227  1.00  0.00    -0.249 OA
BRANCH   3   5
ATOM      5  C   UNL A   1      31.716  26.478  25.394  1.00  0.00     0.136 C 
ATOM      6  C   UNL A   1      31.026  27.332  26.474  1.00  0.00     0.047 C 
BRANCH   5   7
ATOM      7  C   UNL A   1      30.958  26.750  24.026  1.00  0.00     0.037 C 
ATOM      8  C   UNL A   1      29.433  26.703  23.965  1.00  0.00     0.007 C 
ENDBRANCH   5   7
BRANCH   5   9
ATOM      9  N   UNL A   1      31.420  25.006  25.635  1.00  0.00    -0.322 N 
ATOM     10  C   UNL A   1      31.735  23.725  25.402  1.00  0.00     0.318 C 
ATOM     11  H   UNL A   1      30.641  24.985  26.237  1.00  0.00     0.166 HD
ATOM     12  O   UNL A   1      31.112  22.925  26.110  1.00  0.00    -0.249 OA
BRANCH  10  13
ATOM     13  N   UNL A   1      32.584  23.294  24.437  1.00  0.00    -0.325 N 
ATOM     14  C   UNL A   1      32.353  23.547  23.028  1.00  0.00     0.149 C 
BRANCH  13  15
ATOM     15  C   UNL A   1      33.971  22.844  24.776  1.00  0.00     0.086 C 
ATOM     16  C   UNL A   1      34.557  23.736  25.887  1.00  0.00     0.031 C 
BRANCH  15  17
ATOM     17  C   UNL A   1      34.231  21.333  25.150  1.00  0.00     0.005 C 
ATOM     18  C   UNL A   1      35.669  20.842  25.002  1.00  0.00     0.009 C 
ATOM     19  C   UNL A   1      33.826  21.048  26.611  1.00  0.00     0.009 C 
ENDBRANCH  15  17
ENDBRANCH  13  15
ENDBRANCH  10  13
ENDBRANCH   5   9
ENDBRANCH   3   5
ENDBRANCH   2   3
ENDBRANCH   1   2
BRANCH   1  20
ATOM     20  C   UNL A   1      34.324  29.866  27.314  1.00  0.00     0.275 C 
BRANCH  20  21
ATOM     21  O   UNL A   1      35.170  29.325  28.346  1.00  0.00    -0.458 OA
BRANCH  21  22
ATOM     22  C   UNL A   1      36.009  30.238  28.875  1.00  0.00     0.338 C 
ATOM     23  O   UNL A   1      35.703  31.263  29.460  1.00  0.00    -0.246 OA
BRANCH  22  24
ATOM     24  C   UNL A   1      37.382  29.774  28.857  1.00  0.00     0.060 A 
ATOM     25  C   UNL A   1      38.021  29.749  27.617  1.00  0.00     0.016 A 
ATOM     26  C   UNL A   1      37.987  29.267  30.001  1.00  0.00     0.016 A 
ATOM     27  C   UNL A   1      39.286  29.208  27.503  1.00  0.00     0.010 A 
ATOM     28  C   UNL A   1      39.288  28.785  29.901  1.00  0.00     0.010 A 
ATOM     29  C   UNL A   1      39.945  28.774  28.656  1.00  0.00    -0.014 A 
BRANCH  29  30
ATOM     30  C   UNL A   1      41.376  28.429  28.590  1.00  0.00     0.031 A 
ATOM     31  C   UNL A   1      42.413  29.494  28.699  1.00  0.00     0.074 A 
ATOM     32  C   UNL A   1      41.699  27.144  28.352  1.00  0.00     0.049 A 
ATOM     33  N   UNL A   1      43.686  29.427  28.418  1.00  0.00    -0.248 NA
ATOM     34  C   UNL A   1      41.959  30.810  29.174  1.00  0.00     0.031 C 
ATOM     35  C   UNL A   1      40.744  26.032  28.279  1.00  0.00     0.029 A 
ATOM     36  N   UNL A   1      42.910  26.558  28.099  1.00  0.00    -0.354 N 
ATOM     37  C   UNL A   1      44.182  30.706  28.632  1.00  0.00     0.074 A 
ATOM     38  C   UNL A   1      43.074  31.523  29.082  1.00  0.00     0.031 C 
ATOM     39  C   UNL A   1      41.403  24.904  27.988  1.00  0.00     0.029 A 
ATOM     40  C   UNL A   1      42.805  25.228  27.770  1.00  0.00     0.049 A 
ATOM     41  H   UNL A   1      43.767  27.040  28.148  1.00  0.00     0.167 HD
ATOM     42  C   UNL A   1      45.447  31.150  28.438  1.00  0.00     0.031 A 
ATOM     43  C   UNL A   1      43.722  24.378  27.276  1.00  0.00     0.031 A 
ATOM     44  C   UNL A   1      46.515  30.306  27.968  1.00  0.00     0.049 A 
ATOM     45  C   UNL A   1      45.105  24.898  27.031  1.00  0.00     0.074 A 
ATOM     46  C   UNL A   1      47.835  30.637  27.722  1.00  0.00     0.029 A 
ATOM     47  N   UNL A   1      46.377  28.956  27.667  1.00  0.00    -0.354 N 
ATOM     48  N   UNL A   1      45.564  26.114  27.209  1.00  0.00    -0.248 NA
ATOM     49  C   UNL A   1      46.091  23.943  26.514  1.00  0.00     0.031 C 
ATOM     50  C   UNL A   1      48.483  29.497  27.232  1.00  0.00     0.029 A 
ATOM     51  C   UNL A   1      47.581  28.442  27.220  1.00  0.00     0.049 A 
ATOM     52  H   UNL A   1      45.543  28.441  27.757  1.00  0.00     0.167 HD
ATOM     53  C   UNL A   1      46.899  26.073  26.836  1.00  0.00     0.074 A 
ATOM     54  C   UNL A   1      47.175  24.705  26.433  1.00  0.00     0.031 C 
ATOM     55  C   UNL A   1      47.814  27.074  26.825  1.00  0.00     0.031 A 
BRANCH  42  56
ATOM     56  C   UNL A   1      45.699  32.618  28.651  1.00  0.00    -0.014 A 
ATOM     57  C   UNL A   1      45.543  33.553  27.613  1.00  0.00     0.010 A 
ATOM     58  C   UNL A   1      46.133  33.064  29.913  1.00  0.00     0.010 A 
ATOM     59  C   UNL A   1      45.878  34.897  27.814  1.00  0.00     0.020 A 
ATOM     60  C   UNL A   1      46.446  34.410  30.126  1.00  0.00     0.020 A 
ATOM     61  C   UNL A   1      46.344  35.313  29.066  1.00  0.00     0.054 A 
BRANCH  61  62
ATOM     62  S   UNL A   1      46.812  37.051  29.297  1.00  0.00     0.124 S 
ATOM     63  O   UNL A   1      47.580  36.991  30.539  1.00  0.00    -0.237 OA
ATOM     64  O   UNL A   1      47.587  37.341  28.094  1.00  0.00    -0.237 OA
ATOM     65  O   UNL A   1      45.529  37.745  29.391  1.00  0.00    -0.744 OA
ENDBRANCH  61  62
ENDBRANCH  42  56
BRANCH  43  66
ATOM     66  C   UNL A   1      43.311  22.991  26.939  1.00  0.00    -0.014 A 
ATOM     67  C   UNL A   1      43.665  22.419  25.707  1.00  0.00     0.010 A 
ATOM     68  C   UNL A   1      42.668  22.192  27.906  1.00  0.00     0.010 A 
ATOM     69  C   UNL A   1      43.399  21.069  25.453  1.00  0.00     0.020 A 
ATOM     70  C   UNL A   1      42.424  20.838  27.666  1.00  0.00     0.020 A 
ATOM     71  C   UNL A   1      42.791  20.284  26.438  1.00  0.00     0.054 A 
BRANCH  71  72
ATOM     72  S   UNL A   1      42.564  18.510  26.132  1.00  0.00     0.124 S 
ATOM     73  O   UNL A   1      41.157  18.445  25.750  1.00  0.00    -0.237 OA
ATOM     74  O   UNL A   1      43.524  18.246  25.063  1.00  0.00    -0.237 OA
ATOM     75  O   UNL A   1      42.894  17.897  27.417  1.00  0.00    -0.744 OA
ENDBRANCH  71  72
ENDBRANCH  43  66
BRANCH  55  76
ATOM     76  C   UNL A   1      49.206  26.714  26.395  1.00  0.00    -0.014 A 
ATOM     77  C   UNL A   1      49.618  26.887  25.063  1.00  0.00     0.010 A 
ATOM     78  C   UNL A   1      50.130  26.267  27.356  1.00  0.00     0.010 A 
ATOM     79  C   UNL A   1      50.937  26.609  24.696  1.00  0.00     0.020 A 
ATOM     80  C   UNL A   1      51.453  26.007  26.995  1.00  0.00     0.020 A 
ATOM     81  C   UNL A   1      51.845  26.173  25.665  1.00  0.00     0.054 A 
BRANCH  81  82
ATOM     82  S   UNL A   1      53.570  25.888  25.181  1.00  0.00     0.124 S 
ATOM     83  O   UNL A   1      53.509  24.538  24.629  1.00  0.00    -0.237 OA
ATOM     84  O   UNL A   1      53.814  26.954  24.214  1.00  0.00    -0.237 OA
ATOM     85  O   UNL A   1      54.306  26.016  26.438  1.00  0.00    -0.744 OA
ENDBRANCH  81  82
ENDBRANCH  55  76
ENDBRANCH  29  30
ENDBRANCH  22  24
ENDBRANCH  21  22
ENDBRANCH  20  21
ENDBRANCH   1  20
TORSDOF 19
ENDMDL
