MODEL 1
REMARK VINA RESULT:     -10.0      0.000      0.000
REMARK SMILES CC(=O)c1ccc(N2/C(=[NH+]/C(=O)CCC(=O)OCCOC(=O)c3ccc(-c4c5nc(c(-c6ccc(S(=O)(=O)[O-])cc6)c6ccc([nH]6)c(-c6ccc(S(=O)(=O)[O-])cc6)c6nc(c(-c7ccc(S(=O)(=O)[O-])cc7)c7ccc4[nH]7)C=C6)C=C5)cc3)S[C@H]3CS(=O)(=O)C[C@@H]32)cc1
REMARK SMILES IDX 18 1 17 2 15 3 16 4 14 5 13 6 11 7 8 8 9 9 90 10 10 11 83 12
REMARK SMILES IDX 84 13 89 14 85 16 86 17 12 18 87 19 88 20 7 21 4 22 5 23
REMARK SMILES IDX 92 24 6 25 91 26 2 27 1 28 3 29 19 30 20 31 21 32 22 33
REMARK SMILES IDX 23 34 24 35 82 36 25 37 81 38 26 39 27 40 28 41 75 42 29 43
REMARK SMILES IDX 80 44 74 45 76 46 30 47 79 48 73 49 72 50 31 52 61 53 42 54
REMARK SMILES IDX 60 55 43 56 46 57 59 58 77 59 44 60 45 61 58 63 78 64 47 65
REMARK SMILES IDX 32 66 33 67 41 68 34 69 40 70 35 71 36 72 37 73 38 74 39 75
REMARK SMILES IDX 62 76 63 77 71 78 64 79 70 80 65 81 66 82 67 83 68 84 69 85
REMARK SMILES IDX 48 86 49 87 57 88 50 89 56 90 51 91 52 92 53 93 54 94 55 95
REMARK H PARENT 10 15 76 51 46 62
REMARK Flexibility Score: inf
ROOT
ATOM      1  C   UNL A   1      34.671  33.452  28.531  1.00  0.00     0.274 C 
ENDROOT
BRANCH   1   2
ATOM      2  O   UNL A   1      34.459  34.601  29.362  1.00  0.00    -0.462 OA
BRANCH   2   3
ATOM      3  C   UNL A   1      33.230  35.156  29.382  1.00  0.00     0.306 C 
ATOM      4  O   UNL A   1      32.500  35.285  28.410  1.00  0.00    -0.252 OA
BRANCH   3   5
ATOM      5  C   UNL A   1      32.873  35.642  30.764  1.00  0.00     0.135 C 
BRANCH   5   6
ATOM      6  C   UNL A   1      34.085  36.085  31.569  1.00  0.00     0.139 C 
BRANCH   6   7
ATOM      7  C   UNL A   1      34.690  34.986  32.421  1.00  0.00     0.308 C 
ATOM      8  N   UNL A   1      38.016  33.394  32.640  1.00  0.00    -0.217 N 
ATOM      9  C   UNL A   1      36.714  33.878  32.865  1.00  0.00     0.319 C 
ATOM     10  C   UNL A   1      38.438  32.377  33.604  1.00  0.00     0.212 C 
ATOM     11  N   UNL A   1      35.982  34.613  32.096  1.00  0.00    -0.204 N 
ATOM     12  S   UNL A   1      36.202  33.298  34.500  1.00  0.00    -0.029 SA
ATOM     13  C   UNL A   1      37.887  32.894  34.931  1.00  0.00     0.120 C 
ATOM     14  C   UNL A   1      39.905  32.138  33.897  1.00  0.00     0.188 C 
ATOM     15  H   UNL A   1      36.360  34.922  31.240  1.00  0.00     0.316 HD
ATOM     16  C   UNL A   1      38.163  31.821  35.948  1.00  0.00     0.156 C 
ATOM     17  S   UNL A   1      39.847  31.363  35.523  1.00  0.00     0.155 S 
ATOM     18  O   UNL A   1      33.974  34.483  33.286  1.00  0.00    -0.247 OA
ATOM     19  O   UNL A   1      40.751  32.077  36.399  1.00  0.00    -0.229 OA
ATOM     20  O   UNL A   1      39.900  29.927  35.356  1.00  0.00    -0.229 OA
BRANCH   8  21
ATOM     21  C   UNL A   1      38.938  33.791  31.664  1.00  0.00     0.128 A 
ATOM     22  C   UNL A   1      40.698  34.871  29.702  1.00  0.00     0.018 A 
ATOM     23  C   UNL A   1      41.118  34.684  31.026  1.00  0.00     0.016 A 
ATOM     24  C   UNL A   1      39.381  34.549  29.371  1.00  0.00     0.016 A 
ATOM     25  C   UNL A   1      40.246  34.160  31.996  1.00  0.00     0.052 A 
ATOM     26  C   UNL A   1      38.518  34.007  30.343  1.00  0.00     0.052 A 
BRANCH  22  27
ATOM     27  C   UNL A   1      41.683  35.391  28.701  1.00  0.00     0.159 C 
ATOM     28  C   UNL A   1      43.101  35.681  29.126  1.00  0.00     0.093 C 
ATOM     29  O   UNL A   1      41.330  35.559  27.534  1.00  0.00    -0.295 OA
ENDBRANCH  22  27
ENDBRANCH   8  21
ENDBRANCH   6   7
ENDBRANCH   5   6
ENDBRANCH   3   5
ENDBRANCH   2   3
ENDBRANCH   1   2
BRANCH   1  30
ATOM     30  C   UNL A   1      34.715  32.201  29.406  1.00  0.00     0.275 C 
BRANCH  30  31
ATOM     31  O   UNL A   1      36.022  31.623  29.271  1.00  0.00    -0.458 OA
BRANCH  31  32
ATOM     32  C   UNL A   1      36.509  30.993  30.361  1.00  0.00     0.338 C 
ATOM     33  O   UNL A   1      35.953  30.766  31.415  1.00  0.00    -0.246 OA
BRANCH  32  34
ATOM     34  C   UNL A   1      37.837  30.491  29.996  1.00  0.00     0.060 A 
ATOM     35  C   UNL A   1      38.714  30.073  31.003  1.00  0.00     0.016 A 
ATOM     36  C   UNL A   1      38.196  30.428  28.652  1.00  0.00     0.016 A 
ATOM     37  C   UNL A   1      39.973  29.591  30.662  1.00  0.00     0.010 A 
ATOM     38  C   UNL A   1      39.452  29.936  28.312  1.00  0.00     0.010 A 
ATOM     39  C   UNL A   1      40.350  29.527  29.316  1.00  0.00    -0.014 A 
BRANCH  39  40
ATOM     40  C   UNL A   1      41.712  29.098  28.935  1.00  0.00     0.031 A 
ATOM     41  C   UNL A   1      42.812  30.117  28.906  1.00  0.00     0.074 A 
ATOM     42  C   UNL A   1      41.940  27.817  28.591  1.00  0.00     0.049 A 
ATOM     43  N   UNL A   1      44.042  29.992  28.482  1.00  0.00    -0.248 NA
ATOM     44  C   UNL A   1      42.481  31.459  29.413  1.00  0.00     0.031 C 
ATOM     45  C   UNL A   1      40.946  26.741  28.625  1.00  0.00     0.029 A 
ATOM     46  N   UNL A   1      43.078  27.207  28.133  1.00  0.00    -0.354 N 
ATOM     47  C   UNL A   1      44.625  31.242  28.653  1.00  0.00     0.074 A 
ATOM     48  C   UNL A   1      43.607  32.119  29.188  1.00  0.00     0.031 C 
ATOM     49  C   UNL A   1      41.522  25.602  28.207  1.00  0.00     0.029 A 
ATOM     50  C   UNL A   1      42.902  25.880  27.823  1.00  0.00     0.049 A 
ATOM     51  H   UNL A   1      43.939  27.675  28.035  1.00  0.00     0.167 HD
ATOM     52  C   UNL A   1      45.898  31.619  28.387  1.00  0.00     0.031 A 
ATOM     53  C   UNL A   1      43.754  24.999  27.263  1.00  0.00     0.031 A 
ATOM     54  C   UNL A   1      46.892  30.733  27.841  1.00  0.00     0.049 A 
ATOM     55  C   UNL A   1      45.139  25.464  26.902  1.00  0.00     0.074 A 
ATOM     56  C   UNL A   1      48.214  31.004  27.536  1.00  0.00     0.029 A 
ATOM     57  N   UNL A   1      46.670  29.402  27.515  1.00  0.00    -0.354 N 
ATOM     58  N   UNL A   1      45.683  26.647  27.074  1.00  0.00    -0.248 NA
ATOM     59  C   UNL A   1      46.028  24.477  26.276  1.00  0.00     0.031 C 
ATOM     60  C   UNL A   1      48.773  29.855  26.970  1.00  0.00     0.029 A 
ATOM     61  C   UNL A   1      47.823  28.845  26.989  1.00  0.00     0.049 A 
ATOM     62  H   UNL A   1      45.818  28.925  27.639  1.00  0.00     0.167 HD
ATOM     63  C   UNL A   1      46.987  26.536  26.607  1.00  0.00     0.074 A 
ATOM     64  C   UNL A   1      47.154  25.168  26.159  1.00  0.00     0.031 C 
ATOM     65  C   UNL A   1      47.962  27.478  26.554  1.00  0.00     0.031 A 
BRANCH  52  66
ATOM     66  C   UNL A   1      46.271  33.055  28.653  1.00  0.00    -0.014 A 
ATOM     67  C   UNL A   1      46.712  33.473  29.921  1.00  0.00     0.010 A 
ATOM     68  C   UNL A   1      46.208  33.995  27.609  1.00  0.00     0.010 A 
ATOM     69  C   UNL A   1      47.047  34.811  30.149  1.00  0.00     0.020 A 
ATOM     70  C   UNL A   1      46.571  35.328  27.824  1.00  0.00     0.020 A 
ATOM     71  C   UNL A   1      46.973  35.730  29.099  1.00  0.00     0.054 A 
BRANCH  71  72
ATOM     72  S   UNL A   1      47.439  37.454  29.419  1.00  0.00     0.124 S 
ATOM     73  O   UNL A   1      48.607  37.295  30.283  1.00  0.00    -0.237 OA
ATOM     74  O   UNL A   1      47.715  37.963  28.079  1.00  0.00    -0.237 OA
ATOM     75  O   UNL A   1      46.259  38.019  30.068  1.00  0.00    -0.744 OA
ENDBRANCH  71  72
ENDBRANCH  52  66
BRANCH  53  76
ATOM     76  C   UNL A   1      43.316  23.601  26.994  1.00  0.00    -0.014 A 
ATOM     77  C   UNL A   1      43.155  23.143  25.674  1.00  0.00     0.010 A 
ATOM     78  C   UNL A   1      43.056  22.716  28.058  1.00  0.00     0.010 A 
ATOM     79  C   UNL A   1      42.722  21.837  25.424  1.00  0.00     0.020 A 
ATOM     80  C   UNL A   1      42.654  21.401  27.812  1.00  0.00     0.020 A 
ATOM     81  C   UNL A   1      42.475  20.975  26.494  1.00  0.00     0.054 A 
BRANCH  81  82
ATOM     82  S   UNL A   1      41.948  19.274  26.143  1.00  0.00     0.124 S 
ATOM     83  O   UNL A   1      42.736  18.951  24.958  1.00  0.00    -0.237 OA
ATOM     84  O   UNL A   1      42.325  18.569  27.365  1.00  0.00    -0.237 OA
ATOM     85  O   UNL A   1      40.509  19.399  25.924  1.00  0.00    -0.744 OA
ENDBRANCH  81  82
ENDBRANCH  53  76
BRANCH  65  86
ATOM     86  C   UNL A   1      49.311  27.048  26.038  1.00  0.00    -0.014 A 
ATOM     87  C   UNL A   1      49.644  27.158  24.677  1.00  0.00     0.010 A 
ATOM     88  C   UNL A   1      50.279  26.582  26.946  1.00  0.00     0.010 A 
ATOM     89  C   UNL A   1      50.912  26.778  24.228  1.00  0.00     0.020 A 
ATOM     90  C   UNL A   1      51.558  26.233  26.507  1.00  0.00     0.020 A 
ATOM     91  C   UNL A   1      51.861  26.321  25.148  1.00  0.00     0.054 A 
BRANCH  91  92
ATOM     92  S   UNL A   1      53.514  25.883  24.546  1.00  0.00     0.124 S 
ATOM     93  O   UNL A   1      54.378  26.576  25.498  1.00  0.00    -0.237 OA
ATOM     94  O   UNL A   1      53.514  24.425  24.642  1.00  0.00    -0.237 OA
ATOM     95  O   UNL A   1      53.540  26.411  23.184  1.00  0.00    -0.744 OA
ENDBRANCH  91  92
ENDBRANCH  65  86
ENDBRANCH  39  40
ENDBRANCH  32  34
ENDBRANCH  31  32
ENDBRANCH  30  31
ENDBRANCH   1  30
TORSDOF 18
ENDMDL
MODEL 2
REMARK VINA RESULT:      -9.8      5.997     14.214
REMARK SMILES CC(=O)c1ccc(N2/C(=[NH+]/C(=O)CCC(=O)OCCOC(=O)c3ccc(-c4c5nc(c(-c6ccc(S(=O)(=O)[O-])cc6)c6ccc([nH]6)c(-c6ccc(S(=O)(=O)[O-])cc6)c6nc(c(-c7ccc(S(=O)(=O)[O-])cc7)c7ccc4[nH]7)C=C6)C=C5)cc3)S[C@H]3CS(=O)(=O)C[C@@H]32)cc1
REMARK SMILES IDX 18 1 17 2 15 3 16 4 14 5 13 6 11 7 8 8 9 9 90 10 10 11 83 12
REMARK SMILES IDX 84 13 89 14 85 16 86 17 12 18 87 19 88 20 7 21 4 22 5 23
REMARK SMILES IDX 92 24 6 25 91 26 2 27 1 28 3 29 19 30 20 31 21 32 22 33
REMARK SMILES IDX 23 34 24 35 82 36 25 37 81 38 26 39 27 40 28 41 75 42 29 43
REMARK SMILES IDX 80 44 74 45 76 46 30 47 79 48 73 49 72 50 31 52 61 53 42 54
REMARK SMILES IDX 60 55 43 56 46 57 59 58 77 59 44 60 45 61 58 63 78 64 47 65
REMARK SMILES IDX 32 66 33 67 41 68 34 69 40 70 35 71 36 72 37 73 38 74 39 75
REMARK SMILES IDX 62 76 63 77 71 78 64 79 70 80 65 81 66 82 67 83 68 84 69 85
REMARK SMILES IDX 48 86 49 87 57 88 50 89 56 90 51 91 52 92 53 93 54 94 55 95
REMARK H PARENT 10 15 76 51 46 62
REMARK Flexibility Score: inf
ROOT
ATOM      1  C   UNL A   1      43.724  22.732  25.647  1.00  0.00     0.274 C 
ENDROOT
BRANCH   1   2
ATOM      2  O   UNL A   1      42.429  22.180  25.373  1.00  0.00    -0.462 OA
BRANCH   2   3
ATOM      3  C   UNL A   1      41.714  21.687  26.406  1.00  0.00     0.306 C 
ATOM      4  O   UNL A   1      42.084  20.797  27.157  1.00  0.00    -0.252 OA
BRANCH   3   5
ATOM      5  C   UNL A   1      40.363  22.352  26.500  1.00  0.00     0.135 C 
BRANCH   5   6
ATOM      6  C   UNL A   1      39.226  21.456  26.036  1.00  0.00     0.139 C 
BRANCH   6   7
ATOM      7  C   UNL A   1      37.988  22.214  25.597  1.00  0.00     0.308 C 
ATOM      8  N   UNL A   1      34.483  21.286  24.887  1.00  0.00    -0.217 N 
ATOM      9  C   UNL A   1      35.688  21.945  25.193  1.00  0.00     0.319 C 
ATOM     10  C   UNL A   1      33.389  22.196  24.542  1.00  0.00     0.212 C 
ATOM     11  N   UNL A   1      36.869  21.442  25.337  1.00  0.00    -0.204 N 
ATOM     12  S   UNL A   1      35.305  23.702  25.388  1.00  0.00    -0.029 SA
ATOM     13  C   UNL A   1      33.560  23.349  25.528  1.00  0.00     0.120 C 
ATOM     14  C   UNL A   1      31.943  21.784  24.722  1.00  0.00     0.188 C 
ATOM     15  H   UNL A   1      36.978  20.466  25.258  1.00  0.00     0.316 HD
ATOM     16  C   UNL A   1      32.551  24.391  25.135  1.00  0.00     0.156 C 
ATOM     17  S   UNL A   1      31.104  23.375  24.820  1.00  0.00     0.155 S 
ATOM     18  O   UNL A   1      38.091  23.431  25.456  1.00  0.00    -0.247 OA
ATOM     19  O   UNL A   1      30.275  23.379  26.006  1.00  0.00    -0.229 OA
ATOM     20  O   UNL A   1      30.588  23.710  23.511  1.00  0.00    -0.229 OA
BRANCH   8  21
ATOM     21  C   UNL A   1      34.206  19.915  24.918  1.00  0.00     0.128 A 
ATOM     22  C   UNL A   1      33.830  17.106  25.211  1.00  0.00     0.018 A 
ATOM     23  C   UNL A   1      32.903  18.019  25.735  1.00  0.00     0.016 A 
ATOM     24  C   UNL A   1      34.965  17.606  24.571  1.00  0.00     0.016 A 
ATOM     25  C   UNL A   1      33.095  19.404  25.598  1.00  0.00     0.052 A 
ATOM     26  C   UNL A   1      35.142  18.994  24.422  1.00  0.00     0.052 A 
BRANCH  22  27
ATOM     27  C   UNL A   1      33.552  15.641  25.348  1.00  0.00     0.159 C 
ATOM     28  C   UNL A   1      32.135  15.162  25.541  1.00  0.00     0.093 C 
ATOM     29  O   UNL A   1      34.483  14.839  25.281  1.00  0.00    -0.295 OA
ENDBRANCH  22  27
ENDBRANCH   8  21
ENDBRANCH   6   7
ENDBRANCH   5   6
ENDBRANCH   3   5
ENDBRANCH   2   3
ENDBRANCH   1   2
BRANCH   1  30
ATOM     30  C   UNL A   1      43.637  23.630  26.879  1.00  0.00     0.275 C 
BRANCH  30  31
ATOM     31  O   UNL A   1      43.873  24.979  26.450  1.00  0.00    -0.458 OA
BRANCH  31  32
ATOM     32  C   UNL A   1      42.781  25.692  26.102  1.00  0.00     0.338 C 
ATOM     33  O   UNL A   1      42.143  25.644  25.071  1.00  0.00    -0.246 OA
BRANCH  32  34
ATOM     34  C   UNL A   1      42.399  26.477  27.280  1.00  0.00     0.060 A 
ATOM     35  C   UNL A   1      43.125  27.628  27.603  1.00  0.00     0.016 A 
ATOM     36  C   UNL A   1      41.313  26.067  28.048  1.00  0.00     0.016 A 
ATOM     37  C   UNL A   1      42.763  28.379  28.716  1.00  0.00     0.010 A 
ATOM     38  C   UNL A   1      40.947  26.825  29.156  1.00  0.00     0.010 A 
ATOM     39  C   UNL A   1      41.678  27.977  29.501  1.00  0.00    -0.014 A 
BRANCH  39  40
ATOM     40  C   UNL A   1      41.328  28.711  30.735  1.00  0.00     0.031 A 
ATOM     41  C   UNL A   1      40.177  29.673  30.706  1.00  0.00     0.074 A 
ATOM     42  C   UNL A   1      42.058  28.534  31.851  1.00  0.00     0.049 A 
ATOM     43  N   UNL A   1      39.778  30.511  31.625  1.00  0.00    -0.248 NA
ATOM     44  C   UNL A   1      39.374  29.702  29.471  1.00  0.00     0.031 C 
ATOM     45  C   UNL A   1      43.171  27.592  31.994  1.00  0.00     0.029 A 
ATOM     46  N   UNL A   1      41.981  29.149  33.073  1.00  0.00    -0.354 N 
ATOM     47  C   UNL A   1      38.691  31.181  31.074  1.00  0.00     0.074 A 
ATOM     48  C   UNL A   1      38.514  30.675  29.731  1.00  0.00     0.031 C 
ATOM     49  C   UNL A   1      43.671  27.692  33.237  1.00  0.00     0.029 A 
ATOM     50  C   UNL A   1      42.953  28.741  33.955  1.00  0.00     0.049 A 
ATOM     51  H   UNL A   1      41.296  29.819  33.298  1.00  0.00     0.167 HD
ATOM     52  C   UNL A   1      37.913  32.131  31.644  1.00  0.00     0.031 A 
ATOM     53  C   UNL A   1      43.247  29.188  35.191  1.00  0.00     0.031 A 
ATOM     54  C   UNL A   1      38.117  32.631  32.978  1.00  0.00     0.049 A 
ATOM     55  C   UNL A   1      42.417  30.301  35.772  1.00  0.00     0.074 A 
ATOM     56  C   UNL A   1      37.388  33.588  33.660  1.00  0.00     0.029 A 
ATOM     57  N   UNL A   1      39.128  32.212  33.833  1.00  0.00    -0.354 N 
ATOM     58  N   UNL A   1      41.386  30.923  35.246  1.00  0.00    -0.248 NA
ATOM     59  C   UNL A   1      42.784  30.772  37.113  1.00  0.00     0.031 C 
ATOM     60  C   UNL A   1      37.994  33.791  34.904  1.00  0.00     0.029 A 
ATOM     61  C   UNL A   1      39.057  32.910  35.026  1.00  0.00     0.049 A 
ATOM     62  H   UNL A   1      39.796  31.522  33.621  1.00  0.00     0.167 HD
ATOM     63  C   UNL A   1      40.964  31.836  36.205  1.00  0.00     0.074 A 
ATOM     64  C   UNL A   1      41.840  31.674  37.348  1.00  0.00     0.031 C 
ATOM     65  C   UNL A   1      39.942  32.726  36.150  1.00  0.00     0.031 A 
BRANCH  52  66
ATOM     66  C   UNL A   1      36.797  32.710  30.813  1.00  0.00    -0.014 A 
ATOM     67  C   UNL A   1      35.472  32.263  30.957  1.00  0.00     0.010 A 
ATOM     68  C   UNL A   1      37.075  33.740  29.896  1.00  0.00     0.010 A 
ATOM     69  C   UNL A   1      34.452  32.808  30.171  1.00  0.00     0.020 A 
ATOM     70  C   UNL A   1      36.053  34.309  29.130  1.00  0.00     0.020 A 
ATOM     71  C   UNL A   1      34.749  33.827  29.263  1.00  0.00     0.054 A 
BRANCH  71  72
ATOM     72  S   UNL A   1      33.400  34.533  28.276  1.00  0.00     0.124 S 
ATOM     73  O   UNL A   1      32.597  35.201  29.298  1.00  0.00    -0.237 OA
ATOM     74  O   UNL A   1      34.108  35.419  27.356  1.00  0.00    -0.237 OA
ATOM     75  O   UNL A   1      32.774  33.367  27.657  1.00  0.00    -0.744 OA
ENDBRANCH  71  72
ENDBRANCH  52  66
BRANCH  53  76
ATOM     76  C   UNL A   1      44.384  28.599  35.950  1.00  0.00    -0.014 A 
ATOM     77  C   UNL A   1      45.702  29.027  35.713  1.00  0.00     0.010 A 
ATOM     78  C   UNL A   1      44.156  27.602  36.919  1.00  0.00     0.010 A 
ATOM     79  C   UNL A   1      46.771  28.457  36.411  1.00  0.00     0.020 A 
ATOM     80  C   UNL A   1      45.219  27.052  37.642  1.00  0.00     0.020 A 
ATOM     81  C   UNL A   1      46.522  27.473  37.372  1.00  0.00     0.054 A 
BRANCH  81  82
ATOM     82  S   UNL A   1      47.922  26.773  38.289  1.00  0.00     0.124 S 
ATOM     83  O   UNL A   1      48.030  25.439  37.705  1.00  0.00    -0.237 OA
ATOM     84  O   UNL A   1      49.005  27.696  37.964  1.00  0.00    -0.237 OA
ATOM     85  O   UNL A   1      47.475  26.813  39.680  1.00  0.00    -0.744 OA
ENDBRANCH  81  82
ENDBRANCH  53  76
BRANCH  65  86
ATOM     86  C   UNL A   1      39.685  33.559  37.379  1.00  0.00    -0.014 A 
ATOM     87  C   UNL A   1      38.829  33.113  38.401  1.00  0.00     0.010 A 
ATOM     88  C   UNL A   1      40.360  34.783  37.535  1.00  0.00     0.010 A 
ATOM     89  C   UNL A   1      38.629  33.893  39.543  1.00  0.00     0.020 A 
ATOM     90  C   UNL A   1      40.189  35.550  38.689  1.00  0.00     0.020 A 
ATOM     91  C   UNL A   1      39.314  35.105  39.681  1.00  0.00     0.054 A 
BRANCH  91  92
ATOM     92  S   UNL A   1      39.075  36.073  41.195  1.00  0.00     0.124 S 
ATOM     93  O   UNL A   1      40.323  35.828  41.913  1.00  0.00    -0.237 OA
ATOM     94  O   UNL A   1      38.899  37.430  40.683  1.00  0.00    -0.237 OA
ATOM     95  O   UNL A   1      37.883  35.483  41.800  1.00  0.00    -0.744 OA
ENDBRANCH  91  92
ENDBRANCH  65  86
ENDBRANCH  39  40
ENDBRANCH  32  34
ENDBRANCH  31  32
ENDBRANCH  30  31
ENDBRANCH   1  30
TORSDOF 18
ENDMDL
MODEL 3
REMARK VINA RESULT:      -9.7      0.708      8.000
REMARK SMILES CC(=O)c1ccc(N2/C(=[NH+]/C(=O)CCC(=O)OCCOC(=O)c3ccc(-c4c5nc(c(-c6ccc(S(=O)(=O)[O-])cc6)c6ccc([nH]6)c(-c6ccc(S(=O)(=O)[O-])cc6)c6nc(c(-c7ccc(S(=O)(=O)[O-])cc7)c7ccc4[nH]7)C=C6)C=C5)cc3)S[C@H]3CS(=O)(=O)C[C@@H]32)cc1
REMARK SMILES IDX 18 1 17 2 15 3 16 4 14 5 13 6 11 7 8 8 9 9 90 10 10 11 83 12
REMARK SMILES IDX 84 13 89 14 85 16 86 17 12 18 87 19 88 20 7 21 4 22 5 23
REMARK SMILES IDX 92 24 6 25 91 26 2 27 1 28 3 29 19 30 20 31 21 32 22 33
REMARK SMILES IDX 23 34 24 35 82 36 25 37 81 38 26 39 27 40 28 41 75 42 29 43
REMARK SMILES IDX 80 44 74 45 76 46 30 47 79 48 73 49 72 50 31 52 61 53 42 54
REMARK SMILES IDX 60 55 43 56 46 57 59 58 77 59 44 60 45 61 58 63 78 64 47 65
REMARK SMILES IDX 32 66 33 67 41 68 34 69 40 70 35 71 36 72 37 73 38 74 39 75
REMARK SMILES IDX 62 76 63 77 71 78 64 79 70 80 65 81 66 82 67 83 68 84 69 85
REMARK SMILES IDX 48 86 49 87 57 88 50 89 56 90 51 91 52 92 53 93 54 94 55 95
REMARK H PARENT 10 15 76 51 46 62
REMARK Flexibility Score: inf
ROOT
ATOM      1  C   UNL A   1      34.701  33.193  29.811  1.00  0.00     0.274 C 
ENDROOT
BRANCH   1   2
ATOM      2  O   UNL A   1      34.670  34.446  30.509  1.00  0.00    -0.462 OA
BRANCH   2   3
ATOM      3  C   UNL A   1      33.479  35.061  30.661  1.00  0.00     0.306 C 
ATOM      4  O   UNL A   1      32.567  35.041  29.848  1.00  0.00    -0.252 OA
BRANCH   3   5
ATOM      5  C   UNL A   1      33.421  35.823  31.962  1.00  0.00     0.135 C 
BRANCH   5   6
ATOM      6  C   UNL A   1      34.793  36.055  32.575  1.00  0.00     0.139 C 
BRANCH   6   7
ATOM      7  C   UNL A   1      35.373  34.833  33.260  1.00  0.00     0.308 C 
ATOM      8  N   UNL A   1      38.625  33.083  33.147  1.00  0.00    -0.217 N 
ATOM      9  C   UNL A   1      37.356  33.591  33.482  1.00  0.00     0.319 C 
ATOM     10  C   UNL A   1      39.031  31.936  33.961  1.00  0.00     0.212 C 
ATOM     11  N   UNL A   1      36.634  34.448  32.839  1.00  0.00    -0.204 N 
ATOM     12  S   UNL A   1      36.873  32.834  35.052  1.00  0.00    -0.029 SA
ATOM     13  C   UNL A   1      38.551  32.306  35.362  1.00  0.00     0.120 C 
ATOM     14  C   UNL A   1      40.493  31.599  34.163  1.00  0.00     0.188 C 
ATOM     15  H   UNL A   1      36.997  34.845  32.014  1.00  0.00     0.316 HD
ATOM     16  C   UNL A   1      38.809  31.104  36.227  1.00  0.00     0.156 C 
ATOM     17  S   UNL A   1      40.454  30.630  35.682  1.00  0.00     0.155 S 
ATOM     18  O   UNL A   1      34.665  34.257  34.084  1.00  0.00    -0.247 OA
ATOM     19  O   UNL A   1      41.420  31.189  36.603  1.00  0.00    -0.229 OA
ATOM     20  O   UNL A   1      40.433  29.226  35.336  1.00  0.00    -0.229 OA
BRANCH   8  21
ATOM     21  C   UNL A   1      39.531  33.559  32.192  1.00  0.00     0.128 A 
ATOM     22  C   UNL A   1      41.202  34.768  30.227  1.00  0.00     0.018 A 
ATOM     23  C   UNL A   1      41.526  34.830  31.590  1.00  0.00     0.016 A 
ATOM     24  C   UNL A   1      40.019  34.130  29.854  1.00  0.00     0.016 A 
ATOM     25  C   UNL A   1      40.696  34.241  32.559  1.00  0.00     0.052 A 
ATOM     26  C   UNL A   1      39.200  33.527  30.829  1.00  0.00     0.052 A 
BRANCH  22  27
ATOM     27  C   UNL A   1      42.146  35.374  29.235  1.00  0.00     0.159 C 
ATOM     28  C   UNL A   1      43.521  35.809  29.678  1.00  0.00     0.093 C 
ATOM     29  O   UNL A   1      41.797  35.494  28.062  1.00  0.00    -0.295 OA
ENDBRANCH  22  27
ENDBRANCH   8  21
ENDBRANCH   6   7
ENDBRANCH   5   6
ENDBRANCH   3   5
ENDBRANCH   2   3
ENDBRANCH   1   2
BRANCH   1  30
ATOM     30  C   UNL A   1      35.171  32.098  30.765  1.00  0.00     0.275 C 
BRANCH  30  31
ATOM     31  O   UNL A   1      36.289  31.439  30.153  1.00  0.00    -0.458 OA
BRANCH  31  32
ATOM     32  C   UNL A   1      36.807  30.392  30.830  1.00  0.00     0.338 C 
ATOM     33  O   UNL A   1      36.275  29.698  31.671  1.00  0.00    -0.246 OA
BRANCH  32  34
ATOM     34  C   UNL A   1      38.134  30.140  30.261  1.00  0.00     0.060 A 
ATOM     35  C   UNL A   1      38.303  30.171  28.873  1.00  0.00     0.016 A 
ATOM     36  C   UNL A   1      39.204  29.886  31.115  1.00  0.00     0.016 A 
ATOM     37  C   UNL A   1      39.561  29.939  28.328  1.00  0.00     0.010 A 
ATOM     38  C   UNL A   1      40.464  29.664  30.568  1.00  0.00     0.010 A 
ATOM     39  C   UNL A   1      40.645  29.676  29.173  1.00  0.00    -0.014 A 
BRANCH  39  40
ATOM     40  C   UNL A   1      41.972  29.343  28.614  1.00  0.00     0.031 A 
ATOM     41  C   UNL A   1      42.242  27.933  28.179  1.00  0.00     0.074 A 
ATOM     42  C   UNL A   1      42.922  30.291  28.532  1.00  0.00     0.049 A 
ATOM     43  N   UNL A   1      43.364  27.392  27.784  1.00  0.00    -0.248 NA
ATOM     44  C   UNL A   1      41.099  27.006  28.201  1.00  0.00     0.031 C 
ATOM     45  C   UNL A   1      42.746  31.700  28.892  1.00  0.00     0.029 A 
ATOM     46  N   UNL A   1      44.231  30.208  28.133  1.00  0.00    -0.354 N 
ATOM     47  C   UNL A   1      43.067  26.058  27.529  1.00  0.00     0.074 A 
ATOM     48  C   UNL A   1      41.669  25.864  27.844  1.00  0.00     0.031 C 
ATOM     49  C   UNL A   1      43.906  32.350  28.693  1.00  0.00     0.029 A 
ATOM     50  C   UNL A   1      44.916  31.394  28.249  1.00  0.00     0.049 A 
ATOM     51  H   UNL A   1      44.640  29.380  27.795  1.00  0.00     0.167 HD
ATOM     52  C   UNL A   1      43.891  25.086  27.070  1.00  0.00     0.031 A 
ATOM     53  C   UNL A   1      46.220  31.667  28.049  1.00  0.00     0.031 A 
ATOM     54  C   UNL A   1      45.283  25.298  26.776  1.00  0.00     0.049 A 
ATOM     55  C   UNL A   1      47.132  30.551  27.616  1.00  0.00     0.074 A 
ATOM     56  C   UNL A   1      46.212  24.388  26.302  1.00  0.00     0.029 A 
ATOM     57  N   UNL A   1      45.949  26.506  26.931  1.00  0.00    -0.354 N 
ATOM     58  N   UNL A   1      46.840  29.294  27.372  1.00  0.00    -0.248 NA
ATOM     59  C   UNL A   1      48.549  30.887  27.430  1.00  0.00     0.031 C 
ATOM     60  C   UNL A   1      47.451  25.031  26.229  1.00  0.00     0.029 A 
ATOM     61  C   UNL A   1      47.281  26.360  26.587  1.00  0.00     0.049 A 
ATOM     62  H   UNL A   1      45.534  27.343  27.242  1.00  0.00     0.167 HD
ATOM     63  C   UNL A   1      48.030  28.699  26.971  1.00  0.00     0.074 A 
ATOM     64  C   UNL A   1      49.042  29.736  26.992  1.00  0.00     0.031 C 
ATOM     65  C   UNL A   1      48.267  27.412  26.614  1.00  0.00     0.031 A 
BRANCH  52  66
ATOM     66  C   UNL A   1      43.311  23.706  26.894  1.00  0.00    -0.014 A 
ATOM     67  C   UNL A   1      42.916  23.236  25.629  1.00  0.00     0.010 A 
ATOM     68  C   UNL A   1      43.190  22.855  28.007  1.00  0.00     0.010 A 
ATOM     69  C   UNL A   1      42.374  21.955  25.488  1.00  0.00     0.020 A 
ATOM     70  C   UNL A   1      42.677  21.562  27.866  1.00  0.00     0.020 A 
ATOM     71  C   UNL A   1      42.258  21.127  26.607  1.00  0.00     0.054 A 
BRANCH  71  72
ATOM     72  S   UNL A   1      41.575  19.460  26.388  1.00  0.00     0.124 S 
ATOM     73  O   UNL A   1      40.183  19.747  26.050  1.00  0.00    -0.237 OA
ATOM     74  O   UNL A   1      42.387  18.924  25.299  1.00  0.00    -0.237 OA
ATOM     75  O   UNL A   1      41.781  18.825  27.687  1.00  0.00    -0.744 OA
ENDBRANCH  71  72
ENDBRANCH  52  66
BRANCH  53  76
ATOM     76  C   UNL A   1      46.740  33.044  28.273  1.00  0.00    -0.014 A 
ATOM     77  C   UNL A   1      47.223  33.431  29.535  1.00  0.00     0.010 A 
ATOM     78  C   UNL A   1      46.757  33.981  27.221  1.00  0.00     0.010 A 
ATOM     79  C   UNL A   1      47.690  34.731  29.749  1.00  0.00     0.020 A 
ATOM     80  C   UNL A   1      47.252  35.272  27.422  1.00  0.00     0.020 A 
ATOM     81  C   UNL A   1      47.702  35.643  28.691  1.00  0.00     0.054 A 
BRANCH  81  82
ATOM     82  S   UNL A   1      48.346  37.314  28.984  1.00  0.00     0.124 S 
ATOM     83  O   UNL A   1      49.304  37.466  27.892  1.00  0.00    -0.237 OA
ATOM     84  O   UNL A   1      47.143  38.136  28.889  1.00  0.00    -0.237 OA
ATOM     85  O   UNL A   1      48.929  37.228  30.321  1.00  0.00    -0.744 OA
ENDBRANCH  81  82
ENDBRANCH  53  76
BRANCH  65  86
ATOM     86  C   UNL A   1      49.664  27.064  26.170  1.00  0.00    -0.014 A 
ATOM     87  C   UNL A   1      50.582  26.458  27.045  1.00  0.00     0.010 A 
ATOM     88  C   UNL A   1      50.041  27.297  24.835  1.00  0.00     0.010 A 
ATOM     89  C   UNL A   1      51.863  26.120  26.601  1.00  0.00     0.020 A 
ATOM     90  C   UNL A   1      51.309  26.930  24.377  1.00  0.00     0.020 A 
ATOM     91  C   UNL A   1      52.216  26.356  25.268  1.00  0.00     0.054 A 
BRANCH  91  92
ATOM     92  S   UNL A   1      53.867  25.862  24.705  1.00  0.00     0.124 S 
ATOM     93  O   UNL A   1      54.733  26.708  25.521  1.00  0.00    -0.237 OA
ATOM     94  O   UNL A   1      53.900  24.437  25.022  1.00  0.00    -0.237 OA
ATOM     95  O   UNL A   1      53.856  26.176  23.278  1.00  0.00    -0.744 OA
ENDBRANCH  91  92
ENDBRANCH  65  86
ENDBRANCH  39  40
ENDBRANCH  32  34
ENDBRANCH  31  32
ENDBRANCH  30  31
ENDBRANCH   1  30
TORSDOF 18
ENDMDL
