MODEL 1
REMARK VINA RESULT:     -10.4      0.000      0.000
REMARK SMILES Cc1csc(NC(=O)[C@@H]2CC=CC[C@H]2C(=O)OCCOC(=O)c2ccc(-c3c4nc(c(-c5ccc(S(=O)(=O)[O-])cc5)c5ccc([nH]5)c(-c5ccc(S(=O)(=O)[O-])cc5)c5nc(c(-c6ccc(S(=O)(=O)[O-])cc6)c6ccc3[nH]6)C=C5)C=C4)cc2)n1
REMARK SMILES IDX 19 1 18 2 17 3 15 4 16 5 14 6 9 7 10 8 11 9 13 10 12 11 7 12
REMARK SMILES IDX 6 13 8 15 5 16 1 17 2 18 3 19 83 20 4 21 20 22 21 23 22 24
REMARK SMILES IDX 23 25 24 26 82 27 25 28 81 29 26 30 27 31 28 32 75 33 29 34
REMARK SMILES IDX 80 35 74 36 76 37 30 38 79 39 73 40 72 41 31 43 61 44 42 45
REMARK SMILES IDX 60 46 43 47 46 48 59 49 77 50 44 51 45 52 58 54 78 55 47 56
REMARK SMILES IDX 32 57 33 58 41 59 34 60 40 61 35 62 36 63 37 64 38 65 39 66
REMARK SMILES IDX 62 67 63 68 71 69 64 70 70 71 65 72 66 73 67 74 68 75 69 76
REMARK SMILES IDX 48 77 49 78 57 79 50 80 56 81 51 82 52 83 53 84 54 85 55 86
REMARK H PARENT 6 14 76 42 46 53
REMARK Flexibility Score: inf
ROOT
ATOM      1  C   UNL A   1      33.510  28.373  26.352  1.00  0.00     0.275 C 
ENDROOT
BRANCH   1   2
ATOM      2  C   UNL A   1      32.942  26.953  26.275  1.00  0.00     0.274 C 
BRANCH   2   3
ATOM      3  O   UNL A   1      33.899  25.973  25.825  1.00  0.00    -0.462 OA
BRANCH   3   4
ATOM      4  C   UNL A   1      33.384  24.768  25.496  1.00  0.00     0.310 C 
ATOM      5  O   UNL A   1      32.236  24.417  25.757  1.00  0.00    -0.252 OA
BRANCH   4   6
ATOM      6  C   UNL A   1      34.382  23.781  24.922  1.00  0.00     0.116 C 
ATOM      7  C   UNL A   1      34.563  23.676  23.389  1.00  0.00     0.097 C 
ATOM      8  C   UNL A   1      35.691  22.679  23.107  1.00  0.00     0.041 C 
ATOM      9  C   UNL A   1      36.949  22.913  23.885  1.00  0.00    -0.030 C 
ATOM     10  C   UNL A   1      35.705  24.151  25.639  1.00  0.00     0.043 C 
ATOM     11  C   UNL A   1      36.950  23.578  25.043  1.00  0.00    -0.030 C 
BRANCH   7  12
ATOM     12  C   UNL A   1      33.231  23.459  22.635  1.00  0.00     0.230 C 
ATOM     13  N   UNL A   1      32.507  24.394  21.968  1.00  0.00    -0.302 N 
ATOM     14  H   UNL A   1      32.141  24.105  21.101  1.00  0.00     0.172 HD
ATOM     15  O   UNL A   1      32.832  22.291  22.509  1.00  0.00    -0.274 OA
BRANCH  13  16
ATOM     16  C   UNL A   1      32.217  25.679  22.330  1.00  0.00     0.189 A 
ATOM     17  C   UNL A   1      30.138  28.220  23.770  1.00  0.00     0.068 C 
ATOM     18  C   UNL A   1      31.255  27.526  23.079  1.00  0.00     0.051 A 
ATOM     19  C   UNL A   1      32.471  28.055  22.693  1.00  0.00     0.092 A 
ATOM     20  N   UNL A   1      31.105  26.181  22.793  1.00  0.00    -0.225 NA
ATOM     21  S   UNL A   1      33.460  26.813  22.028  1.00  0.00    -0.105 S 
ENDBRANCH  13  16
ENDBRANCH   7  12
ENDBRANCH   4   6
ENDBRANCH   3   4
ENDBRANCH   2   3
ENDBRANCH   1   2
BRANCH   1  22
ATOM     22  O   UNL A   1      33.772  28.775  27.709  1.00  0.00    -0.458 OA
BRANCH  22  23
ATOM     23  C   UNL A   1      34.271  30.018  27.863  1.00  0.00     0.338 C 
ATOM     24  O   UNL A   1      33.686  31.087  27.753  1.00  0.00    -0.246 OA
BRANCH  23  25
ATOM     25  C   UNL A   1      35.684  29.958  28.245  1.00  0.00     0.060 A 
ATOM     26  C   UNL A   1      36.657  30.131  27.257  1.00  0.00     0.016 A 
ATOM     27  C   UNL A   1      36.037  29.557  29.533  1.00  0.00     0.016 A 
ATOM     28  C   UNL A   1      37.993  29.883  27.548  1.00  0.00     0.010 A 
ATOM     29  C   UNL A   1      37.381  29.322  29.828  1.00  0.00     0.010 A 
ATOM     30  C   UNL A   1      38.363  29.461  28.831  1.00  0.00    -0.014 A 
BRANCH  30  31
ATOM     31  C   UNL A   1      39.772  29.115  29.120  1.00  0.00     0.031 A 
ATOM     32  C   UNL A   1      40.684  30.142  29.726  1.00  0.00     0.074 A 
ATOM     33  C   UNL A   1      40.224  27.880  28.835  1.00  0.00     0.049 A 
ATOM     34  N   UNL A   1      41.971  30.075  29.946  1.00  0.00    -0.248 NA
ATOM     35  C   UNL A   1      40.066  31.413  30.139  1.00  0.00     0.031 C 
ATOM     36  C   UNL A   1      39.412  26.789  28.294  1.00  0.00     0.029 A 
ATOM     37  N   UNL A   1      41.476  27.340  28.957  1.00  0.00    -0.354 N 
ATOM     38  C   UNL A   1      42.325  31.302  30.494  1.00  0.00     0.074 A 
ATOM     39  C   UNL A   1      41.118  32.096  30.570  1.00  0.00     0.031 C 
ATOM     40  C   UNL A   1      40.190  25.706  28.131  1.00  0.00     0.029 A 
ATOM     41  C   UNL A   1      41.560  26.046  28.503  1.00  0.00     0.049 A 
ATOM     42  H   UNL A   1      42.243  27.831  29.333  1.00  0.00     0.167 HD
ATOM     43  C   UNL A   1      43.550  31.727  30.887  1.00  0.00     0.031 A 
ATOM     44  C   UNL A   1      42.628  25.238  28.367  1.00  0.00     0.031 A 
ATOM     45  C   UNL A   1      44.744  30.927  30.804  1.00  0.00     0.049 A 
ATOM     46  C   UNL A   1      43.985  25.751  28.757  1.00  0.00     0.074 A 
ATOM     47  C   UNL A   1      46.033  31.261  31.178  1.00  0.00     0.029 A 
ATOM     48  N   UNL A   1      44.792  29.632  30.310  1.00  0.00    -0.354 N 
ATOM     49  N   UNL A   1      44.309  26.921  29.252  1.00  0.00    -0.248 NA
ATOM     50  C   UNL A   1      45.118  24.838  28.563  1.00  0.00     0.031 C 
ATOM     51  C   UNL A   1      46.870  30.180  30.873  1.00  0.00     0.029 A 
ATOM     52  C   UNL A   1      46.092  29.157  30.351  1.00  0.00     0.049 A 
ATOM     53  H   UNL A   1      44.017  29.124  29.979  1.00  0.00     0.167 HD
ATOM     54  C   UNL A   1      45.685  26.882  29.442  1.00  0.00     0.074 A 
ATOM     55  C   UNL A   1      46.127  25.567  29.021  1.00  0.00     0.031 C 
ATOM     56  C   UNL A   1      46.509  27.847  29.918  1.00  0.00     0.031 A 
BRANCH  43  57
ATOM     57  C   UNL A   1      43.663  33.137  31.398  1.00  0.00    -0.014 A 
ATOM     58  C   UNL A   1      43.435  33.446  32.751  1.00  0.00     0.010 A 
ATOM     59  C   UNL A   1      44.024  34.168  30.512  1.00  0.00     0.010 A 
ATOM     60  C   UNL A   1      43.528  34.768  33.200  1.00  0.00     0.020 A 
ATOM     61  C   UNL A   1      44.139  35.487  30.961  1.00  0.00     0.020 A 
ATOM     62  C   UNL A   1      43.871  35.782  32.300  1.00  0.00     0.054 A 
BRANCH  62  63
ATOM     63  S   UNL A   1      43.992  37.487  32.906  1.00  0.00     0.124 S 
ATOM     64  O   UNL A   1      43.802  38.256  31.678  1.00  0.00    -0.237 OA
ATOM     65  O   UNL A   1      42.896  37.566  33.869  1.00  0.00    -0.237 OA
ATOM     66  O   UNL A   1      45.330  37.555  33.485  1.00  0.00    -0.744 OA
ENDBRANCH  62  63
ENDBRANCH  43  57
BRANCH  44  67
ATOM     67  C   UNL A   1      42.448  23.873  27.806  1.00  0.00    -0.014 A 
ATOM     68  C   UNL A   1      42.530  23.654  26.422  1.00  0.00     0.010 A 
ATOM     69  C   UNL A   1      42.236  22.778  28.664  1.00  0.00     0.010 A 
ATOM     70  C   UNL A   1      42.403  22.361  25.903  1.00  0.00     0.020 A 
ATOM     71  C   UNL A   1      42.132  21.482  28.152  1.00  0.00     0.020 A 
ATOM     72  C   UNL A   1      42.208  21.283  26.772  1.00  0.00     0.054 A 
BRANCH  72  73
ATOM     73  S   UNL A   1      42.125  19.605  26.087  1.00  0.00     0.124 S 
ATOM     74  O   UNL A   1      43.065  19.687  24.974  1.00  0.00    -0.237 OA
ATOM     75  O   UNL A   1      42.549  18.777  27.214  1.00  0.00    -0.237 OA
ATOM     76  O   UNL A   1      40.720  19.460  25.712  1.00  0.00    -0.744 OA
ENDBRANCH  72  73
ENDBRANCH  44  67
BRANCH  56  77
ATOM     77  C   UNL A   1      47.968  27.504  30.032  1.00  0.00    -0.014 A 
ATOM     78  C   UNL A   1      48.853  27.747  28.967  1.00  0.00     0.010 A 
ATOM     79  C   UNL A   1      48.464  26.969  31.234  1.00  0.00     0.010 A 
ATOM     80  C   UNL A   1      50.208  27.432  29.094  1.00  0.00     0.020 A 
ATOM     81  C   UNL A   1      49.822  26.674  31.371  1.00  0.00     0.020 A 
ATOM     82  C   UNL A   1      50.683  26.894  30.293  1.00  0.00     0.054 A 
BRANCH  82  83
ATOM     83  S   UNL A   1      52.453  26.526  30.451  1.00  0.00     0.124 S 
ATOM     84  O   UNL A   1      52.447  25.394  31.372  1.00  0.00    -0.237 OA
ATOM     85  O   UNL A   1      52.842  26.216  29.077  1.00  0.00    -0.237 OA
ATOM     86  O   UNL A   1      53.016  27.764  30.986  1.00  0.00    -0.744 OA
ENDBRANCH  82  83
ENDBRANCH  56  77
ENDBRANCH  30  31
ENDBRANCH  23  25
ENDBRANCH  22  23
ENDBRANCH   1  22
TORSDOF 16
ENDMDL
MODEL 2
REMARK VINA RESULT:     -10.1      2.645      3.908
REMARK SMILES Cc1csc(NC(=O)[C@@H]2CC=CC[C@H]2C(=O)OCCOC(=O)c2ccc(-c3c4nc(c(-c5ccc(S(=O)(=O)[O-])cc5)c5ccc([nH]5)c(-c5ccc(S(=O)(=O)[O-])cc5)c5nc(c(-c6ccc(S(=O)(=O)[O-])cc6)c6ccc3[nH]6)C=C5)C=C4)cc2)n1
REMARK SMILES IDX 19 1 18 2 17 3 15 4 16 5 14 6 9 7 10 8 11 9 13 10 12 11 7 12
REMARK SMILES IDX 6 13 8 15 5 16 1 17 2 18 3 19 83 20 4 21 20 22 21 23 22 24
REMARK SMILES IDX 23 25 24 26 82 27 25 28 81 29 26 30 27 31 28 32 75 33 29 34
REMARK SMILES IDX 80 35 74 36 76 37 30 38 79 39 73 40 72 41 31 43 61 44 42 45
REMARK SMILES IDX 60 46 43 47 46 48 59 49 77 50 44 51 45 52 58 54 78 55 47 56
REMARK SMILES IDX 32 57 33 58 41 59 34 60 40 61 35 62 36 63 37 64 38 65 39 66
REMARK SMILES IDX 62 67 63 68 71 69 64 70 70 71 65 72 66 73 67 74 68 75 69 76
REMARK SMILES IDX 48 77 49 78 57 79 50 80 56 81 51 82 52 83 53 84 54 85 55 86
REMARK H PARENT 6 14 76 42 46 53
REMARK Flexibility Score: inf
ROOT
ATOM      1  C   UNL A   1      34.414  31.104  27.772  1.00  0.00     0.275 C 
ENDROOT
BRANCH   1   2
ATOM      2  C   UNL A   1      33.258  30.487  26.979  1.00  0.00     0.274 C 
BRANCH   2   3
ATOM      3  O   UNL A   1      33.690  29.618  25.913  1.00  0.00    -0.462 OA
BRANCH   3   4
ATOM      4  C   UNL A   1      33.337  28.320  26.044  1.00  0.00     0.310 C 
ATOM      5  O   UNL A   1      32.987  27.807  27.104  1.00  0.00    -0.252 OA
BRANCH   4   6
ATOM      6  C   UNL A   1      33.568  27.468  24.811  1.00  0.00     0.116 C 
ATOM      7  C   UNL A   1      32.465  26.495  24.333  1.00  0.00     0.097 C 
ATOM      8  C   UNL A   1      32.933  25.845  23.027  1.00  0.00     0.041 C 
ATOM      9  C   UNL A   1      33.434  26.801  21.991  1.00  0.00    -0.030 C 
ATOM     10  C   UNL A   1      33.940  28.505  23.723  1.00  0.00     0.043 C 
ATOM     11  C   UNL A   1      33.901  28.010  22.313  1.00  0.00    -0.030 C 
BRANCH   7  12
ATOM     12  C   UNL A   1      31.966  25.548  25.449  1.00  0.00     0.230 C 
ATOM     13  N   UNL A   1      32.727  24.802  26.290  1.00  0.00    -0.302 N 
ATOM     14  H   UNL A   1      32.433  24.792  27.229  1.00  0.00     0.172 HD
ATOM     15  O   UNL A   1      30.751  25.554  25.699  1.00  0.00    -0.274 OA
BRANCH  13  16
ATOM     16  C   UNL A   1      33.844  24.065  26.016  1.00  0.00     0.189 A 
ATOM     17  C   UNL A   1      37.351  23.652  25.401  1.00  0.00     0.068 C 
ATOM     18  C   UNL A   1      35.901  23.381  25.568  1.00  0.00     0.051 A 
ATOM     19  C   UNL A   1      35.267  22.154  25.608  1.00  0.00     0.092 A 
ATOM     20  N   UNL A   1      35.053  24.462  25.729  1.00  0.00    -0.225 NA
ATOM     21  S   UNL A   1      33.591  22.376  25.928  1.00  0.00    -0.105 S 
ENDBRANCH  13  16
ENDBRANCH   7  12
ENDBRANCH   4   6
ENDBRANCH   3   4
ENDBRANCH   2   3
ENDBRANCH   1   2
BRANCH   1  22
ATOM     22  O   UNL A   1      35.267  30.100  28.350  1.00  0.00    -0.458 OA
BRANCH  22  23
ATOM     23  C   UNL A   1      36.200  30.554  29.212  1.00  0.00     0.338 C 
ATOM     24  O   UNL A   1      36.066  31.375  30.109  1.00  0.00    -0.246 OA
BRANCH  23  25
ATOM     25  C   UNL A   1      37.482  29.884  28.976  1.00  0.00     0.060 A 
ATOM     26  C   UNL A   1      38.252  29.497  30.076  1.00  0.00     0.016 A 
ATOM     27  C   UNL A   1      37.995  29.806  27.681  1.00  0.00     0.016 A 
ATOM     28  C   UNL A   1      39.553  29.045  29.888  1.00  0.00     0.010 A 
ATOM     29  C   UNL A   1      39.297  29.338  27.493  1.00  0.00     0.010 A 
ATOM     30  C   UNL A   1      40.090  28.977  28.597  1.00  0.00    -0.014 A 
BRANCH  30  31
ATOM     31  C   UNL A   1      41.501  28.577  28.401  1.00  0.00     0.031 A 
ATOM     32  C   UNL A   1      42.590  29.607  28.501  1.00  0.00     0.074 A 
ATOM     33  C   UNL A   1      41.795  27.292  28.136  1.00  0.00     0.049 A 
ATOM     34  N   UNL A   1      43.866  29.483  28.250  1.00  0.00    -0.248 NA
ATOM     35  C   UNL A   1      42.188  30.953  28.940  1.00  0.00     0.031 C 
ATOM     36  C   UNL A   1      40.822  26.200  28.070  1.00  0.00     0.029 A 
ATOM     37  N   UNL A   1      42.996  26.690  27.868  1.00  0.00    -0.354 N 
ATOM     38  C   UNL A   1      44.418  30.739  28.470  1.00  0.00     0.074 A 
ATOM     39  C   UNL A   1      43.337  31.612  28.872  1.00  0.00     0.031 C 
ATOM     40  C   UNL A   1      41.468  25.058  27.778  1.00  0.00     0.029 A 
ATOM     41  C   UNL A   1      42.885  25.350  27.586  1.00  0.00     0.049 A 
ATOM     42  H   UNL A   1      43.855  27.171  27.876  1.00  0.00     0.167 HD
ATOM     43  C   UNL A   1      45.709  31.127  28.338  1.00  0.00     0.031 A 
ATOM     44  C   UNL A   1      43.814  24.465  27.180  1.00  0.00     0.031 A 
ATOM     45  C   UNL A   1      46.776  30.248  27.935  1.00  0.00     0.049 A 
ATOM     46  C   UNL A   1      45.229  24.932  26.986  1.00  0.00     0.074 A 
ATOM     47  C   UNL A   1      48.119  30.540  27.773  1.00  0.00     0.029 A 
ATOM     48  N   UNL A   1      46.618  28.905  27.629  1.00  0.00    -0.354 N 
ATOM     49  N   UNL A   1      45.733  26.128  27.176  1.00  0.00    -0.248 NA
ATOM     50  C   UNL A   1      46.197  23.932  26.518  1.00  0.00     0.031 C 
ATOM     51  C   UNL A   1      48.767  29.380  27.330  1.00  0.00     0.029 A 
ATOM     52  C   UNL A   1      47.834  28.356  27.260  1.00  0.00     0.049 A 
ATOM     53  H   UNL A   1      45.766  28.413  27.667  1.00  0.00     0.167 HD
ATOM     54  C   UNL A   1      47.082  26.023  26.861  1.00  0.00     0.074 A 
ATOM     55  C   UNL A   1      47.317  24.643  26.483  1.00  0.00     0.031 C 
ATOM     56  C   UNL A   1      48.040  26.981  26.880  1.00  0.00     0.031 A 
BRANCH  43  57
ATOM     57  C   UNL A   1      46.026  32.577  28.587  1.00  0.00    -0.014 A 
ATOM     58  C   UNL A   1      46.399  33.035  29.863  1.00  0.00     0.010 A 
ATOM     59  C   UNL A   1      45.970  33.491  27.520  1.00  0.00     0.010 A 
ATOM     60  C   UNL A   1      46.671  34.391  30.075  1.00  0.00     0.020 A 
ATOM     61  C   UNL A   1      46.263  34.843  27.723  1.00  0.00     0.020 A 
ATOM     62  C   UNL A   1      46.593  35.288  29.005  1.00  0.00     0.054 A 
BRANCH  62  63
ATOM     63  S   UNL A   1      46.957  37.040  29.302  1.00  0.00     0.124 S 
ATOM     64  O   UNL A   1      45.690  37.521  29.847  1.00  0.00    -0.237 OA
ATOM     65  O   UNL A   1      48.066  36.983  30.251  1.00  0.00    -0.237 OA
ATOM     66  O   UNL A   1      47.302  37.552  27.978  1.00  0.00    -0.744 OA
ENDBRANCH  62  63
ENDBRANCH  43  57
BRANCH  44  67
ATOM     67  C   UNL A   1      43.418  23.060  26.903  1.00  0.00    -0.014 A 
ATOM     68  C   UNL A   1      43.667  22.482  25.648  1.00  0.00     0.010 A 
ATOM     69  C   UNL A   1      42.827  22.279  27.915  1.00  0.00     0.010 A 
ATOM     70  C   UNL A   1      43.330  21.146  25.407  1.00  0.00     0.020 A 
ATOM     71  C   UNL A   1      42.511  20.938  27.685  1.00  0.00     0.020 A 
ATOM     72  C   UNL A   1      42.758  20.381  26.428  1.00  0.00     0.054 A 
BRANCH  72  73
ATOM     73  S   UNL A   1      42.403  18.629  26.121  1.00  0.00     0.124 S 
ATOM     74  O   UNL A   1      43.323  18.321  25.031  1.00  0.00    -0.237 OA
ATOM     75  O   UNL A   1      42.713  18.009  27.406  1.00  0.00    -0.237 OA
ATOM     76  O   UNL A   1      40.985  18.627  25.764  1.00  0.00    -0.744 OA
ENDBRANCH  72  73
ENDBRANCH  44  67
BRANCH  56  77
ATOM     77  C   UNL A   1      49.434  26.561  26.504  1.00  0.00    -0.014 A 
ATOM     78  C   UNL A   1      50.281  25.946  27.442  1.00  0.00     0.010 A 
ATOM     79  C   UNL A   1      49.884  26.750  25.186  1.00  0.00     0.010 A 
ATOM     80  C   UNL A   1      51.570  25.553  27.073  1.00  0.00     0.020 A 
ATOM     81  C   UNL A   1      51.164  26.338  24.808  1.00  0.00     0.020 A 
ATOM     82  C   UNL A   1      52.005  25.754  25.759  1.00  0.00     0.054 A 
BRANCH  82  83
ATOM     83  S   UNL A   1      53.668  25.203  25.290  1.00  0.00     0.124 S 
ATOM     84  O   UNL A   1      53.768  25.678  23.914  1.00  0.00    -0.237 OA
ATOM     85  O   UNL A   1      54.522  25.891  26.256  1.00  0.00    -0.237 OA
ATOM     86  O   UNL A   1      53.607  23.751  25.447  1.00  0.00    -0.744 OA
ENDBRANCH  82  83
ENDBRANCH  56  77
ENDBRANCH  30  31
ENDBRANCH  23  25
ENDBRANCH  22  23
ENDBRANCH   1  22
TORSDOF 16
ENDMDL
MODEL 3
REMARK VINA RESULT:      -9.9      1.414      2.143
REMARK SMILES Cc1csc(NC(=O)[C@@H]2CC=CC[C@H]2C(=O)OCCOC(=O)c2ccc(-c3c4nc(c(-c5ccc(S(=O)(=O)[O-])cc5)c5ccc([nH]5)c(-c5ccc(S(=O)(=O)[O-])cc5)c5nc(c(-c6ccc(S(=O)(=O)[O-])cc6)c6ccc3[nH]6)C=C5)C=C4)cc2)n1
REMARK SMILES IDX 19 1 18 2 17 3 15 4 16 5 14 6 9 7 10 8 11 9 13 10 12 11 7 12
REMARK SMILES IDX 6 13 8 15 5 16 1 17 2 18 3 19 83 20 4 21 20 22 21 23 22 24
REMARK SMILES IDX 23 25 24 26 82 27 25 28 81 29 26 30 27 31 28 32 75 33 29 34
REMARK SMILES IDX 80 35 74 36 76 37 30 38 79 39 73 40 72 41 31 43 61 44 42 45
REMARK SMILES IDX 60 46 43 47 46 48 59 49 77 50 44 51 45 52 58 54 78 55 47 56
REMARK SMILES IDX 32 57 33 58 41 59 34 60 40 61 35 62 36 63 37 64 38 65 39 66
REMARK SMILES IDX 62 67 63 68 71 69 64 70 70 71 65 72 66 73 67 74 68 75 69 76
REMARK SMILES IDX 48 77 49 78 57 79 50 80 56 81 51 82 52 83 53 84 54 85 55 86
REMARK H PARENT 6 14 76 42 46 53
REMARK Flexibility Score: inf
ROOT
ATOM      1  C   UNL A   1      32.673  30.775  26.728  1.00  0.00     0.275 C 
ENDROOT
BRANCH   1   2
ATOM      2  C   UNL A   1      31.852  29.762  25.923  1.00  0.00     0.274 C 
BRANCH   2   3
ATOM      3  O   UNL A   1      32.468  28.461  25.835  1.00  0.00    -0.462 OA
BRANCH   3   4
ATOM      4  C   UNL A   1      31.982  27.532  26.687  1.00  0.00     0.310 C 
ATOM      5  O   UNL A   1      31.421  27.797  27.747  1.00  0.00    -0.252 OA
BRANCH   4   6
ATOM      6  C   UNL A   1      32.328  26.098  26.333  1.00  0.00     0.116 C 
ATOM      7  C   UNL A   1      31.533  25.367  25.225  1.00  0.00     0.097 C 
ATOM      8  C   UNL A   1      32.157  23.984  25.020  1.00  0.00     0.041 C 
ATOM      9  C   UNL A   1      33.644  23.982  24.846  1.00  0.00    -0.030 C 
ATOM     10  C   UNL A   1      33.842  26.164  26.013  1.00  0.00     0.043 C 
ATOM     11  C   UNL A   1      34.410  24.974  25.308  1.00  0.00    -0.030 C 
BRANCH   7  12
ATOM     12  C   UNL A   1      30.003  25.421  25.441  1.00  0.00     0.230 C 
ATOM     13  N   UNL A   1      29.070  25.889  24.574  1.00  0.00    -0.302 N 
ATOM     14  H   UNL A   1      28.253  25.345  24.497  1.00  0.00     0.172 HD
ATOM     15  O   UNL A   1      29.552  24.868  26.456  1.00  0.00    -0.274 OA
BRANCH  13  16
ATOM     16  C   UNL A   1      29.106  27.008  23.790  1.00  0.00     0.189 A 
ATOM     17  C   UNL A   1      27.700  29.985  22.372  1.00  0.00     0.068 C 
ATOM     18  C   UNL A   1      28.624  28.866  22.690  1.00  0.00     0.051 A 
ATOM     19  C   UNL A   1      29.948  28.730  22.319  1.00  0.00     0.092 A 
ATOM     20  N   UNL A   1      28.145  27.830  23.470  1.00  0.00    -0.225 NA
ATOM     21  S   UNL A   1      30.608  27.309  23.030  1.00  0.00    -0.105 S 
ENDBRANCH  13  16
ENDBRANCH   7  12
ENDBRANCH   4   6
ENDBRANCH   3   4
ENDBRANCH   2   3
ENDBRANCH   1   2
BRANCH   1  22
ATOM     22  O   UNL A   1      33.979  30.269  27.057  1.00  0.00    -0.458 OA
BRANCH  22  23
ATOM     23  C   UNL A   1      34.594  30.875  28.093  1.00  0.00     0.338 C 
ATOM     24  O   UNL A   1      34.168  31.775  28.805  1.00  0.00    -0.246 OA
BRANCH  23  25
ATOM     25  C   UNL A   1      35.910  30.276  28.328  1.00  0.00     0.060 A 
ATOM     26  C   UNL A   1      36.248  29.883  29.625  1.00  0.00     0.016 A 
ATOM     27  C   UNL A   1      36.861  30.271  27.308  1.00  0.00     0.016 A 
ATOM     28  C   UNL A   1      37.553  29.499  29.916  1.00  0.00     0.010 A 
ATOM     29  C   UNL A   1      38.167  29.871  27.598  1.00  0.00     0.010 A 
ATOM     30  C   UNL A   1      38.524  29.506  28.908  1.00  0.00    -0.014 A 
BRANCH  30  31
ATOM     31  C   UNL A   1      39.931  29.180  29.233  1.00  0.00     0.031 A 
ATOM     32  C   UNL A   1      40.815  30.222  29.855  1.00  0.00     0.074 A 
ATOM     33  C   UNL A   1      40.404  27.949  28.967  1.00  0.00     0.049 A 
ATOM     34  N   UNL A   1      42.096  30.172  30.107  1.00  0.00    -0.248 NA
ATOM     35  C   UNL A   1      40.171  31.487  30.246  1.00  0.00     0.031 C 
ATOM     36  C   UNL A   1      39.619  26.844  28.414  1.00  0.00     0.029 A 
ATOM     37  N   UNL A   1      41.661  27.425  29.123  1.00  0.00    -0.354 N 
ATOM     38  C   UNL A   1      42.422  31.407  30.656  1.00  0.00     0.074 A 
ATOM     39  C   UNL A   1      41.203  32.186  30.698  1.00  0.00     0.031 C 
ATOM     40  C   UNL A   1      40.415  25.771  28.275  1.00  0.00     0.029 A 
ATOM     41  C   UNL A   1      41.771  26.130  28.679  1.00  0.00     0.049 A 
ATOM     42  H   UNL A   1      42.411  27.928  29.514  1.00  0.00     0.167 HD
ATOM     43  C   UNL A   1      43.631  31.849  31.076  1.00  0.00     0.031 A 
ATOM     44  C   UNL A   1      42.852  25.335  28.573  1.00  0.00     0.031 A 
ATOM     45  C   UNL A   1      44.837  31.064  31.026  1.00  0.00     0.049 A 
ATOM     46  C   UNL A   1      44.193  25.867  28.993  1.00  0.00     0.074 A 
ATOM     47  C   UNL A   1      46.112  31.417  31.429  1.00  0.00     0.029 A 
ATOM     48  N   UNL A   1      44.914  29.767  30.542  1.00  0.00    -0.354 N 
ATOM     49  N   UNL A   1      44.490  27.044  29.489  1.00  0.00    -0.248 NA
ATOM     50  C   UNL A   1      45.342  24.968  28.832  1.00  0.00     0.031 C 
ATOM     51  C   UNL A   1      46.970  30.345  31.151  1.00  0.00     0.029 A 
ATOM     52  C   UNL A   1      46.217  29.309  30.616  1.00  0.00     0.049 A 
ATOM     53  H   UNL A   1      44.153  29.248  30.195  1.00  0.00     0.167 HD
ATOM     54  C   UNL A   1      45.862  27.024  29.711  1.00  0.00     0.074 A 
ATOM     55  C   UNL A   1      46.331  25.712  29.309  1.00  0.00     0.031 C 
ATOM     56  C   UNL A   1      46.661  28.002  30.202  1.00  0.00     0.031 A 
BRANCH  43  57
ATOM     57  C   UNL A   1      43.714  33.264  31.581  1.00  0.00    -0.014 A 
ATOM     58  C   UNL A   1      43.595  33.560  32.950  1.00  0.00     0.010 A 
ATOM     59  C   UNL A   1      43.935  34.313  30.670  1.00  0.00     0.010 A 
ATOM     60  C   UNL A   1      43.657  34.885  33.395  1.00  0.00     0.020 A 
ATOM     61  C   UNL A   1      44.019  35.636  31.113  1.00  0.00     0.020 A 
ATOM     62  C   UNL A   1      43.860  35.916  32.472  1.00  0.00     0.054 A 
BRANCH  62  63
ATOM     63  S   UNL A   1      43.943  37.626  33.072  1.00  0.00     0.124 S 
ATOM     64  O   UNL A   1      42.808  37.677  33.991  1.00  0.00    -0.237 OA
ATOM     65  O   UNL A   1      45.261  37.684  33.701  1.00  0.00    -0.237 OA
ATOM     66  O   UNL A   1      43.802  38.427  31.859  1.00  0.00    -0.744 OA
ENDBRANCH  62  63
ENDBRANCH  43  57
BRANCH  44  67
ATOM     67  C   UNL A   1      42.703  23.965  28.016  1.00  0.00    -0.014 A 
ATOM     68  C   UNL A   1      42.331  22.894  28.845  1.00  0.00     0.010 A 
ATOM     69  C   UNL A   1      42.892  23.736  26.641  1.00  0.00     0.010 A 
ATOM     70  C   UNL A   1      42.150  21.615  28.308  1.00  0.00     0.020 A 
ATOM     71  C   UNL A   1      42.690  22.466  26.096  1.00  0.00     0.020 A 
ATOM     72  C   UNL A   1      42.327  21.410  26.935  1.00  0.00     0.054 A 
BRANCH  72  73
ATOM     73  S   UNL A   1      42.011  19.762  26.245  1.00  0.00     0.124 S 
ATOM     74  O   UNL A   1      42.909  19.739  25.096  1.00  0.00    -0.237 OA
ATOM     75  O   UNL A   1      42.372  18.878  27.350  1.00  0.00    -0.237 OA
ATOM     76  O   UNL A   1      40.585  19.796  25.926  1.00  0.00    -0.744 OA
ENDBRANCH  72  73
ENDBRANCH  44  67
BRANCH  56  77
ATOM     77  C   UNL A   1      48.122  27.679  30.353  1.00  0.00    -0.014 A 
ATOM     78  C   UNL A   1      48.613  27.087  31.529  1.00  0.00     0.010 A 
ATOM     79  C   UNL A   1      49.003  27.935  29.288  1.00  0.00     0.010 A 
ATOM     80  C   UNL A   1      49.972  26.783  31.648  1.00  0.00     0.020 A 
ATOM     81  C   UNL A   1      50.357  27.613  29.396  1.00  0.00     0.020 A 
ATOM     82  C   UNL A   1      50.836  27.051  30.583  1.00  0.00     0.054 A 
BRANCH  82  83
ATOM     83  S   UNL A   1      52.590  26.616  30.743  1.00  0.00     0.124 S 
ATOM     84  O   UNL A   1      52.992  26.458  29.349  1.00  0.00    -0.237 OA
ATOM     85  O   UNL A   1      53.150  27.777  31.431  1.00  0.00    -0.237 OA
ATOM     86  O   UNL A   1      52.569  25.385  31.530  1.00  0.00    -0.744 OA
ENDBRANCH  82  83
ENDBRANCH  56  77
ENDBRANCH  30  31
ENDBRANCH  23  25
ENDBRANCH  22  23
ENDBRANCH   1  22
TORSDOF 16
ENDMDL
