MODEL 1
REMARK VINA RESULT:     -10.4      0.000      0.000
REMARK SMILES [NH3+]C[C@H]1CC[C@@H](C(=O)N[C@H](CC(=O)OCCOC(=O)c2ccc(-c3c4nc(c(-c5ccc(S(=O)(=O)[O-])cc5)c5ccc([nH]5)c(-c5ccc(S(=O)(=O)[O-])cc5)c5nc(c(-c6ccc(S(=O)(=O)[O-])cc6)c6ccc3[nH]6)C=C5)C=C4)cc2)c2cccs2)O1
REMARK SMILES IDX 15 1 14 2 12 3 13 4 11 5 10 6 9 7 7 8 8 9 6 11 3 12 4 13
REMARK SMILES IDX 85 14 5 15 2 16 1 17 80 21 81 22 84 23 82 24 83 25 16 26
REMARK SMILES IDX 17 27 18 28 19 29 20 30 21 31 79 32 22 33 78 34 23 35 24 36
REMARK SMILES IDX 25 37 72 38 26 39 77 40 71 41 73 42 27 43 76 44 70 45 69 46
REMARK SMILES IDX 28 48 58 49 39 50 57 51 40 52 43 53 56 54 74 55 41 56 42 57
REMARK SMILES IDX 55 59 75 60 44 61 29 62 30 63 38 64 31 65 37 66 32 67 33 68
REMARK SMILES IDX 34 69 35 70 36 71 59 72 60 73 68 74 61 75 67 76 62 77 63 78
REMARK SMILES IDX 64 79 65 80 66 81 45 82 46 83 54 84 47 85 53 86 48 87 49 88
REMARK SMILES IDX 50 89 51 90 52 91
REMARK H PARENT 9 10 1 18 1 19 1 20 73 47 43 58
REMARK Flexibility Score: inf
ROOT
ATOM      1  C   UNL A   1      33.195  30.168  26.656  1.00  0.00     0.274 C 
ENDROOT
BRANCH   1   2
ATOM      2  O   UNL A   1      31.841  29.790  26.957  1.00  0.00    -0.462 OA
BRANCH   2   3
ATOM      3  C   UNL A   1      31.650  28.485  27.241  1.00  0.00     0.308 C 
ATOM      4  O   UNL A   1      31.028  28.075  28.216  1.00  0.00    -0.252 OA
BRANCH   3   5
ATOM      5  C   UNL A   1      32.407  27.542  26.349  1.00  0.00     0.153 C 
BRANCH   5   6
ATOM      6  C   UNL A   1      31.733  26.343  25.685  1.00  0.00     0.133 C 
BRANCH   6   7
ATOM      7  N   UNL A   1      31.289  25.346  26.647  1.00  0.00    -0.346 N 
ATOM      8  C   UNL A   1      31.548  24.006  26.692  1.00  0.00     0.249 C 
ATOM      9  O   UNL A   1      30.933  23.331  27.526  1.00  0.00    -0.272 OA
ATOM     10  H   UNL A   1      30.718  25.688  27.372  1.00  0.00     0.164 HD
BRANCH   8  11
ATOM     11  C   UNL A   1      32.596  23.322  25.763  1.00  0.00     0.207 C 
ATOM     12  C   UNL A   1      33.077  21.301  24.690  1.00  0.00     0.174 C 
ATOM     13  C   UNL A   1      32.166  22.054  23.744  1.00  0.00     0.041 C 
ATOM     14  O   UNL A   1      32.946  21.954  25.966  1.00  0.00    -0.359 OA
ATOM     15  C   UNL A   1      32.162  23.458  24.303  1.00  0.00     0.045 C 
BRANCH  12  16
ATOM     16  C   UNL A   1      32.735  19.804  24.833  1.00  0.00     0.291 C 
BRANCH  16  17
ATOM     17  N   UNL A   1      33.069  19.204  26.119  1.00  0.00    -0.355 N 
ATOM     18  H   UNL A   1      34.054  18.939  26.124  1.00  0.00     0.344 HD
ATOM     19  H   UNL A   1      32.493  18.375  26.267  1.00  0.00     0.344 HD
ATOM     20  H   UNL A   1      32.895  19.878  26.864  1.00  0.00     0.344 HD
ENDBRANCH  16  17
ENDBRANCH  12  16
ENDBRANCH   8  11
ENDBRANCH   6   7
BRANCH   6  21
ATOM     21  C   UNL A   1      30.645  26.727  24.699  1.00  0.00     0.028 A 
ATOM     22  C   UNL A   1      30.736  27.679  23.695  1.00  0.00     0.017 A 
ATOM     23  S   UNL A   1      29.102  25.970  24.669  1.00  0.00    -0.147 S 
ATOM     24  C   UNL A   1      29.515  27.857  22.986  1.00  0.00     0.012 A 
ATOM     25  C   UNL A   1      28.540  26.991  23.423  1.00  0.00     0.065 A 
ENDBRANCH   6  21
ENDBRANCH   5   6
ENDBRANCH   3   5
ENDBRANCH   2   3
ENDBRANCH   1   2
BRANCH   1  26
ATOM     26  C   UNL A   1      33.958  30.579  27.914  1.00  0.00     0.275 C 
BRANCH  26  27
ATOM     27  O   UNL A   1      35.374  30.349  27.785  1.00  0.00    -0.458 OA
BRANCH  27  28
ATOM     28  C   UNL A   1      36.071  30.359  28.946  1.00  0.00     0.338 C 
ATOM     29  O   UNL A   1      35.683  30.721  30.043  1.00  0.00    -0.246 OA
BRANCH  28  30
ATOM     30  C   UNL A   1      37.398  29.768  28.730  1.00  0.00     0.060 A 
ATOM     31  C   UNL A   1      38.183  29.474  29.843  1.00  0.00     0.016 A 
ATOM     32  C   UNL A   1      37.913  29.620  27.442  1.00  0.00     0.016 A 
ATOM     33  C   UNL A   1      39.497  29.052  29.671  1.00  0.00     0.010 A 
ATOM     34  C   UNL A   1      39.227  29.164  27.274  1.00  0.00     0.010 A 
ATOM     35  C   UNL A   1      40.039  28.893  28.388  1.00  0.00    -0.014 A 
BRANCH  35  36
ATOM     36  C   UNL A   1      41.466  28.494  28.235  1.00  0.00     0.031 A 
ATOM     37  C   UNL A   1      42.562  29.505  28.443  1.00  0.00     0.074 A 
ATOM     38  C   UNL A   1      41.791  27.213  27.962  1.00  0.00     0.049 A 
ATOM     39  N   UNL A   1      43.842  29.398  28.185  1.00  0.00    -0.248 NA
ATOM     40  C   UNL A   1      42.169  30.807  29.006  1.00  0.00     0.031 C 
ATOM     41  C   UNL A   1      40.841  26.108  27.819  1.00  0.00     0.029 A 
ATOM     42  N   UNL A   1      43.015  26.621  27.775  1.00  0.00    -0.354 N 
ATOM     43  C   UNL A   1      44.395  30.636  28.492  1.00  0.00     0.074 A 
ATOM     44  C   UNL A   1      43.314  31.474  28.968  1.00  0.00     0.031 C 
ATOM     45  C   UNL A   1      41.518  24.969  27.612  1.00  0.00     0.029 A 
ATOM     46  C   UNL A   1      42.942  25.274  27.509  1.00  0.00     0.049 A 
ATOM     47  H   UNL A   1      43.866  27.114  27.825  1.00  0.00     0.167 HD
ATOM     48  C   UNL A   1      45.683  31.039  28.375  1.00  0.00     0.031 A 
ATOM     49  C   UNL A   1      43.898  24.389  27.171  1.00  0.00     0.031 A 
ATOM     50  C   UNL A   1      46.763  30.187  27.946  1.00  0.00     0.049 A 
ATOM     51  C   UNL A   1      45.313  24.865  27.005  1.00  0.00     0.074 A 
ATOM     52  C   UNL A   1      48.101  30.506  27.783  1.00  0.00     0.029 A 
ATOM     53  N   UNL A   1      46.633  28.844  27.629  1.00  0.00    -0.354 N 
ATOM     54  N   UNL A   1      45.805  26.065  27.202  1.00  0.00    -0.248 NA
ATOM     55  C   UNL A   1      46.295  23.876  26.540  1.00  0.00     0.031 C 
ATOM     56  C   UNL A   1      48.772  29.363  27.334  1.00  0.00     0.029 A 
ATOM     57  C   UNL A   1      47.861  28.322  27.261  1.00  0.00     0.049 A 
ATOM     58  H   UNL A   1      45.791  28.335  27.663  1.00  0.00     0.167 HD
ATOM     59  C   UNL A   1      47.153  25.978  26.877  1.00  0.00     0.074 A 
ATOM     60  C   UNL A   1      47.406  24.601  26.504  1.00  0.00     0.031 C 
ATOM     61  C   UNL A   1      48.094  26.953  26.877  1.00  0.00     0.031 A 
BRANCH  48  62
ATOM     62  C   UNL A   1      45.990  32.486  28.655  1.00  0.00    -0.014 A 
ATOM     63  C   UNL A   1      45.896  33.471  27.655  1.00  0.00     0.010 A 
ATOM     64  C   UNL A   1      46.345  32.869  29.962  1.00  0.00     0.010 A 
ATOM     65  C   UNL A   1      46.184  34.807  27.953  1.00  0.00     0.020 A 
ATOM     66  C   UNL A   1      46.611  34.206  30.268  1.00  0.00     0.020 A 
ATOM     67  C   UNL A   1      46.545  35.165  29.257  1.00  0.00     0.054 A 
BRANCH  67  68
ATOM     68  S   UNL A   1      46.893  36.908  29.624  1.00  0.00     0.124 S 
ATOM     69  O   UNL A   1      47.489  37.367  28.372  1.00  0.00    -0.237 OA
ATOM     70  O   UNL A   1      45.569  37.447  29.924  1.00  0.00    -0.237 OA
ATOM     71  O   UNL A   1      47.808  36.847  30.762  1.00  0.00    -0.744 OA
ENDBRANCH  67  68
ENDBRANCH  48  62
BRANCH  49  72
ATOM     72  C   UNL A   1      43.531  22.973  26.894  1.00  0.00    -0.014 A 
ATOM     73  C   UNL A   1      43.903  22.359  25.686  1.00  0.00     0.010 A 
ATOM     74  C   UNL A   1      42.829  22.223  27.857  1.00  0.00     0.010 A 
ATOM     75  C   UNL A   1      43.582  21.018  25.448  1.00  0.00     0.020 A 
ATOM     76  C   UNL A   1      42.534  20.877  27.635  1.00  0.00     0.020 A 
ATOM     77  C   UNL A   1      42.905  20.285  26.427  1.00  0.00     0.054 A 
BRANCH  77  78
ATOM     78  S   UNL A   1      42.572  18.523  26.139  1.00  0.00     0.124 S 
ATOM     79  O   UNL A   1      42.806  17.952  27.461  1.00  0.00    -0.237 OA
ATOM     80  O   UNL A   1      41.182  18.531  25.689  1.00  0.00    -0.237 OA
ATOM     81  O   UNL A   1      43.548  18.158  25.114  1.00  0.00    -0.744 OA
ENDBRANCH  77  78
ENDBRANCH  49  72
BRANCH  61  82
ATOM     82  C   UNL A   1      49.486  26.561  26.467  1.00  0.00    -0.014 A 
ATOM     83  C   UNL A   1      49.899  26.664  25.126  1.00  0.00     0.010 A 
ATOM     84  C   UNL A   1      50.404  26.117  27.437  1.00  0.00     0.010 A 
ATOM     85  C   UNL A   1      51.196  26.299  24.757  1.00  0.00     0.020 A 
ATOM     86  C   UNL A   1      51.707  25.771  27.074  1.00  0.00     0.020 A 
ATOM     87  C   UNL A   1      52.091  25.851  25.733  1.00  0.00     0.054 A 
BRANCH  87  88
ATOM     88  S   UNL A   1      53.779  25.411  25.237  1.00  0.00     0.124 S 
ATOM     89  O   UNL A   1      54.582  26.114  26.233  1.00  0.00    -0.237 OA
ATOM     90  O   UNL A   1      53.779  23.954  25.347  1.00  0.00    -0.237 OA
ATOM     91  O   UNL A   1      53.883  25.926  23.873  1.00  0.00    -0.744 OA
ENDBRANCH  87  88
ENDBRANCH  61  82
ENDBRANCH  35  36
ENDBRANCH  28  30
ENDBRANCH  27  28
ENDBRANCH  26  27
ENDBRANCH   1  26
TORSDOF 20
ENDMDL
MODEL 2
REMARK VINA RESULT:     -10.3      7.029     12.153
REMARK SMILES [NH3+]C[C@H]1CC[C@@H](C(=O)N[C@H](CC(=O)OCCOC(=O)c2ccc(-c3c4nc(c(-c5ccc(S(=O)(=O)[O-])cc5)c5ccc([nH]5)c(-c5ccc(S(=O)(=O)[O-])cc5)c5nc(c(-c6ccc(S(=O)(=O)[O-])cc6)c6ccc3[nH]6)C=C5)C=C4)cc2)c2cccs2)O1
REMARK SMILES IDX 15 1 14 2 12 3 13 4 11 5 10 6 9 7 7 8 8 9 6 11 3 12 4 13
REMARK SMILES IDX 85 14 5 15 2 16 1 17 80 21 81 22 84 23 82 24 83 25 16 26
REMARK SMILES IDX 17 27 18 28 19 29 20 30 21 31 79 32 22 33 78 34 23 35 24 36
REMARK SMILES IDX 25 37 72 38 26 39 77 40 71 41 73 42 27 43 76 44 70 45 69 46
REMARK SMILES IDX 28 48 58 49 39 50 57 51 40 52 43 53 56 54 74 55 41 56 42 57
REMARK SMILES IDX 55 59 75 60 44 61 29 62 30 63 38 64 31 65 37 66 32 67 33 68
REMARK SMILES IDX 34 69 35 70 36 71 59 72 60 73 68 74 61 75 67 76 62 77 63 78
REMARK SMILES IDX 64 79 65 80 66 81 45 82 46 83 54 84 47 85 53 86 48 87 49 88
REMARK SMILES IDX 50 89 51 90 52 91
REMARK H PARENT 9 10 1 18 1 19 1 20 73 47 43 58
REMARK Flexibility Score: inf
ROOT
ATOM      1  C   UNL A   1      37.413  22.971  26.017  1.00  0.00     0.274 C 
ENDROOT
BRANCH   1   2
ATOM      2  O   UNL A   1      36.605  23.885  25.257  1.00  0.00    -0.462 OA
BRANCH   2   3
ATOM      3  C   UNL A   1      36.186  23.433  24.056  1.00  0.00     0.308 C 
ATOM      4  O   UNL A   1      36.850  22.708  23.321  1.00  0.00    -0.252 OA
BRANCH   3   5
ATOM      5  C   UNL A   1      34.885  24.025  23.595  1.00  0.00     0.153 C 
BRANCH   5   6
ATOM      6  C   UNL A   1      33.539  23.507  24.100  1.00  0.00     0.133 C 
BRANCH   6   7
ATOM      7  N   UNL A   1      33.650  22.801  25.368  1.00  0.00    -0.346 N 
ATOM      8  C   UNL A   1      33.712  21.459  25.613  1.00  0.00     0.249 C 
ATOM      9  O   UNL A   1      33.652  21.088  26.790  1.00  0.00    -0.272 OA
ATOM     10  H   UNL A   1      33.687  23.375  26.165  1.00  0.00     0.164 HD
BRANCH   8  11
ATOM     11  C   UNL A   1      33.882  20.405  24.477  1.00  0.00     0.207 C 
ATOM     12  C   UNL A   1      33.891  18.102  24.076  1.00  0.00     0.174 C 
ATOM     13  C   UNL A   1      32.438  18.521  23.991  1.00  0.00     0.041 C 
ATOM     14  O   UNL A   1      34.576  19.186  24.732  1.00  0.00    -0.359 OA
ATOM     15  C   UNL A   1      32.512  20.028  23.910  1.00  0.00     0.045 C 
BRANCH  12  16
ATOM     16  C   UNL A   1      34.121  16.792  24.857  1.00  0.00     0.291 C 
BRANCH  16  17
ATOM     17  N   UNL A   1      33.327  16.637  26.069  1.00  0.00    -0.355 N 
ATOM     18  H   UNL A   1      32.397  16.294  25.825  1.00  0.00     0.344 HD
ATOM     19  H   UNL A   1      33.244  17.538  26.539  1.00  0.00     0.344 HD
ATOM     20  H   UNL A   1      33.782  15.969  26.691  1.00  0.00     0.344 HD
ENDBRANCH  16  17
ENDBRANCH  12  16
ENDBRANCH   8  11
ENDBRANCH   6   7
BRANCH   6  21
ATOM     21  C   UNL A   1      32.449  24.562  24.115  1.00  0.00     0.028 A 
ATOM     22  C   UNL A   1      32.597  25.902  24.442  1.00  0.00     0.017 A 
ATOM     23  S   UNL A   1      30.823  24.232  23.666  1.00  0.00    -0.147 S 
ATOM     24  C   UNL A   1      31.367  26.616  24.429  1.00  0.00     0.012 A 
ATOM     25  C   UNL A   1      30.319  25.821  24.031  1.00  0.00     0.065 A 
ENDBRANCH   6  21
ENDBRANCH   5   6
ENDBRANCH   3   5
ENDBRANCH   2   3
ENDBRANCH   1   2
BRANCH   1  26
ATOM     26  C   UNL A   1      38.763  23.585  26.385  1.00  0.00     0.275 C 
BRANCH  26  27
ATOM     27  O   UNL A   1      38.613  24.788  27.162  1.00  0.00    -0.458 OA
BRANCH  27  28
ATOM     28  C   UNL A   1      39.608  25.696  27.023  1.00  0.00     0.338 C 
ATOM     29  O   UNL A   1      40.387  25.807  26.094  1.00  0.00    -0.246 OA
BRANCH  28  30
ATOM     30  C   UNL A   1      39.579  26.638  28.150  1.00  0.00     0.060 A 
ATOM     31  C   UNL A   1      40.267  27.843  28.026  1.00  0.00     0.016 A 
ATOM     32  C   UNL A   1      38.982  26.284  29.361  1.00  0.00     0.016 A 
ATOM     33  C   UNL A   1      40.381  28.690  29.124  1.00  0.00     0.010 A 
ATOM     34  C   UNL A   1      39.075  27.156  30.454  1.00  0.00     0.010 A 
ATOM     35  C   UNL A   1      39.792  28.360  30.351  1.00  0.00    -0.014 A 
BRANCH  35  36
ATOM     36  C   UNL A   1      39.978  29.259  31.524  1.00  0.00     0.031 A 
ATOM     37  C   UNL A   1      41.198  29.124  32.396  1.00  0.00     0.074 A 
ATOM     38  C   UNL A   1      39.085  30.236  31.784  1.00  0.00     0.049 A 
ATOM     39  N   UNL A   1      41.452  29.686  33.551  1.00  0.00    -0.248 NA
ATOM     40  C   UNL A   1      42.267  28.236  31.911  1.00  0.00     0.031 C 
ATOM     41  C   UNL A   1      37.900  30.541  30.978  1.00  0.00     0.029 A 
ATOM     42  N   UNL A   1      39.045  31.166  32.793  1.00  0.00    -0.354 N 
ATOM     43  C   UNL A   1      42.677  29.172  33.962  1.00  0.00     0.074 A 
ATOM     44  C   UNL A   1      43.122  28.263  32.925  1.00  0.00     0.031 C 
ATOM     45  C   UNL A   1      37.278  31.610  31.497  1.00  0.00     0.029 A 
ATOM     46  C   UNL A   1      37.959  32.007  32.725  1.00  0.00     0.049 A 
ATOM     47  H   UNL A   1      39.728  31.225  33.500  1.00  0.00     0.167 HD
ATOM     48  C   UNL A   1      43.361  29.426  35.103  1.00  0.00     0.031 A 
ATOM     49  C   UNL A   1      37.526  32.958  33.574  1.00  0.00     0.031 A 
ATOM     50  C   UNL A   1      42.938  30.367  36.109  1.00  0.00     0.049 A 
ATOM     51  C   UNL A   1      38.275  33.194  34.855  1.00  0.00     0.074 A 
ATOM     52  C   UNL A   1      43.556  30.686  37.306  1.00  0.00     0.029 A 
ATOM     53  N   UNL A   1      41.800  31.155  36.026  1.00  0.00    -0.354 N 
ATOM     54  N   UNL A   1      39.380  32.627  35.277  1.00  0.00    -0.248 NA
ATOM     55  C   UNL A   1      37.701  34.174  35.787  1.00  0.00     0.031 C 
ATOM     56  C   UNL A   1      42.772  31.641  37.964  1.00  0.00     0.029 A 
ATOM     57  C   UNL A   1      41.691  31.950  37.155  1.00  0.00     0.049 A 
ATOM     58  H   UNL A   1      41.165  31.152  35.275  1.00  0.00     0.167 HD
ATOM     59  C   UNL A   1      39.630  33.177  36.529  1.00  0.00     0.074 A 
ATOM     60  C   UNL A   1      38.581  34.144  36.780  1.00  0.00     0.031 C 
ATOM     61  C   UNL A   1      40.632  32.896  37.397  1.00  0.00     0.031 A 
BRANCH  48  62
ATOM     62  C   UNL A   1      44.611  28.628  35.361  1.00  0.00    -0.014 A 
ATOM     63  C   UNL A   1      44.568  27.353  35.952  1.00  0.00     0.010 A 
ATOM     64  C   UNL A   1      45.854  29.157  34.964  1.00  0.00     0.010 A 
ATOM     65  C   UNL A   1      45.750  26.637  36.172  1.00  0.00     0.020 A 
ATOM     66  C   UNL A   1      47.034  28.435  35.162  1.00  0.00     0.020 A 
ATOM     67  C   UNL A   1      46.976  27.186  35.779  1.00  0.00     0.054 A 
BRANCH  67  68
ATOM     68  S   UNL A   1      48.494  26.229  36.055  1.00  0.00     0.124 S 
ATOM     69  O   UNL A   1      49.530  27.218  35.770  1.00  0.00    -0.237 OA
ATOM     70  O   UNL A   1      48.376  25.829  37.454  1.00  0.00    -0.237 OA
ATOM     71  O   UNL A   1      48.395  25.137  35.089  1.00  0.00    -0.744 OA
ENDBRANCH  67  68
ENDBRANCH  48  62
BRANCH  49  72
ATOM     72  C   UNL A   1      36.275  33.706  33.271  1.00  0.00    -0.014 A 
ATOM     73  C   UNL A   1      36.326  34.978  32.676  1.00  0.00     0.010 A 
ATOM     74  C   UNL A   1      35.022  33.130  33.552  1.00  0.00     0.010 A 
ATOM     75  C   UNL A   1      35.144  35.659  32.365  1.00  0.00     0.020 A 
ATOM     76  C   UNL A   1      33.841  33.794  33.215  1.00  0.00     0.020 A 
ATOM     77  C   UNL A   1      33.909  35.059  32.631  1.00  0.00     0.054 A 
BRANCH  77  78
ATOM     78  S   UNL A   1      32.386  35.918  32.143  1.00  0.00     0.124 S 
ATOM     79  O   UNL A   1      32.556  36.036  30.699  1.00  0.00    -0.237 OA
ATOM     80  O   UNL A   1      31.344  34.996  32.585  1.00  0.00    -0.237 OA
ATOM     81  O   UNL A   1      32.452  37.173  32.888  1.00  0.00    -0.744 OA
ENDBRANCH  77  78
ENDBRANCH  49  72
BRANCH  61  82
ATOM     82  C   UNL A   1      40.643  33.652  38.697  1.00  0.00    -0.014 A 
ATOM     83  C   UNL A   1      41.346  34.863  38.821  1.00  0.00     0.010 A 
ATOM     84  C   UNL A   1      39.913  33.164  39.797  1.00  0.00     0.010 A 
ATOM     85  C   UNL A   1      41.346  35.558  40.034  1.00  0.00     0.020 A 
ATOM     86  C   UNL A   1      39.895  33.866  41.004  1.00  0.00     0.020 A 
ATOM     87  C   UNL A   1      40.624  35.053  41.119  1.00  0.00     0.054 A 
BRANCH  87  88
ATOM     88  S   UNL A   1      40.614  35.985  42.674  1.00  0.00     0.124 S 
ATOM     89  O   UNL A   1      39.203  35.939  43.047  1.00  0.00    -0.237 OA
ATOM     90  O   UNL A   1      41.513  35.208  43.523  1.00  0.00    -0.237 OA
ATOM     91  O   UNL A   1      41.115  37.303  42.289  1.00  0.00    -0.744 OA
ENDBRANCH  87  88
ENDBRANCH  61  82
ENDBRANCH  35  36
ENDBRANCH  28  30
ENDBRANCH  27  28
ENDBRANCH  26  27
ENDBRANCH   1  26
TORSDOF 20
ENDMDL
MODEL 3
REMARK VINA RESULT:     -10.3      2.072      2.600
REMARK SMILES [NH3+]C[C@H]1CC[C@@H](C(=O)N[C@H](CC(=O)OCCOC(=O)c2ccc(-c3c4nc(c(-c5ccc(S(=O)(=O)[O-])cc5)c5ccc([nH]5)c(-c5ccc(S(=O)(=O)[O-])cc5)c5nc(c(-c6ccc(S(=O)(=O)[O-])cc6)c6ccc3[nH]6)C=C5)C=C4)cc2)c2cccs2)O1
REMARK SMILES IDX 15 1 14 2 12 3 13 4 11 5 10 6 9 7 7 8 8 9 6 11 3 12 4 13
REMARK SMILES IDX 85 14 5 15 2 16 1 17 80 21 81 22 84 23 82 24 83 25 16 26
REMARK SMILES IDX 17 27 18 28 19 29 20 30 21 31 79 32 22 33 78 34 23 35 24 36
REMARK SMILES IDX 25 37 72 38 26 39 77 40 71 41 73 42 27 43 76 44 70 45 69 46
REMARK SMILES IDX 28 48 58 49 39 50 57 51 40 52 43 53 56 54 74 55 41 56 42 57
REMARK SMILES IDX 55 59 75 60 44 61 29 62 30 63 38 64 31 65 37 66 32 67 33 68
REMARK SMILES IDX 34 69 35 70 36 71 59 72 60 73 68 74 61 75 67 76 62 77 63 78
REMARK SMILES IDX 64 79 65 80 66 81 45 82 46 83 54 84 47 85 53 86 48 87 49 88
REMARK SMILES IDX 50 89 51 90 52 91
REMARK H PARENT 9 10 1 18 1 19 1 20 73 47 43 58
REMARK Flexibility Score: inf
ROOT
ATOM      1  C   UNL A   1      33.614  28.518  26.875  1.00  0.00     0.274 C 
ENDROOT
BRANCH   1   2
ATOM      2  O   UNL A   1      32.272  29.034  26.855  1.00  0.00    -0.462 OA
BRANCH   2   3
ATOM      3  C   UNL A   1      31.973  29.841  25.816  1.00  0.00     0.308 C 
ATOM      4  O   UNL A   1      31.573  30.996  25.932  1.00  0.00    -0.252 OA
BRANCH   3   5
ATOM      5  C   UNL A   1      32.006  29.161  24.477  1.00  0.00     0.153 C 
BRANCH   5   6
ATOM      6  C   UNL A   1      30.980  28.097  24.087  1.00  0.00     0.133 C 
BRANCH   6   7
ATOM      7  N   UNL A   1      30.604  27.245  25.204  1.00  0.00    -0.346 N 
ATOM      8  C   UNL A   1      30.768  25.899  25.364  1.00  0.00     0.249 C 
ATOM      9  O   UNL A   1      30.229  25.368  26.342  1.00  0.00    -0.272 OA
ATOM     10  H   UNL A   1      30.167  27.706  25.956  1.00  0.00     0.164 HD
BRANCH   8  11
ATOM     11  C   UNL A   1      31.622  25.036  24.387  1.00  0.00     0.207 C 
ATOM     12  C   UNL A   1      32.799  25.144  22.369  1.00  0.00     0.174 C 
ATOM     13  C   UNL A   1      33.778  25.593  23.434  1.00  0.00     0.041 C 
ATOM     14  O   UNL A   1      31.496  25.217  22.978  1.00  0.00    -0.359 OA
ATOM     15  C   UNL A   1      33.106  25.186  24.724  1.00  0.00     0.045 C 
BRANCH  12  16
ATOM     16  C   UNL A   1      32.826  26.003  21.089  1.00  0.00     0.291 C 
BRANCH  16  17
ATOM     17  N   UNL A   1      32.020  25.503  19.982  1.00  0.00    -0.355 N 
ATOM     18  H   UNL A   1      31.122  25.174  20.336  1.00  0.00     0.344 HD
ATOM     19  H   UNL A   1      32.509  24.733  19.526  1.00  0.00     0.344 HD
ATOM     20  H   UNL A   1      31.864  26.253  19.309  1.00  0.00     0.344 HD
ENDBRANCH  16  17
ENDBRANCH  12  16
ENDBRANCH   8  11
ENDBRANCH   6   7
BRANCH   6  21
ATOM     21  C   UNL A   1      29.777  28.657  23.350  1.00  0.00     0.028 A 
ATOM     22  C   UNL A   1      28.448  28.321  23.559  1.00  0.00     0.017 A 
ATOM     23  S   UNL A   1      29.906  29.864  22.134  1.00  0.00    -0.147 S 
ATOM     24  C   UNL A   1      27.562  28.970  22.654  1.00  0.00     0.012 A 
ATOM     25  C   UNL A   1      28.229  29.833  21.817  1.00  0.00     0.065 A 
ENDBRANCH   6  21
ENDBRANCH   5   6
ENDBRANCH   3   5
ENDBRANCH   2   3
ENDBRANCH   1   2
BRANCH   1  26
ATOM     26  C   UNL A   1      34.535  29.379  27.737  1.00  0.00     0.275 C 
BRANCH  26  27
ATOM     27  O   UNL A   1      35.886  28.881  27.746  1.00  0.00    -0.458 OA
BRANCH  27  28
ATOM     28  C   UNL A   1      36.713  29.461  28.648  1.00  0.00     0.338 C 
ATOM     29  O   UNL A   1      36.401  30.116  29.626  1.00  0.00    -0.246 OA
BRANCH  28  30
ATOM     30  C   UNL A   1      38.105  29.112  28.338  1.00  0.00     0.060 A 
ATOM     31  C   UNL A   1      38.888  28.547  29.343  1.00  0.00     0.016 A 
ATOM     32  C   UNL A   1      38.669  29.451  27.108  1.00  0.00     0.016 A 
ATOM     33  C   UNL A   1      40.247  28.342  29.128  1.00  0.00     0.010 A 
ATOM     34  C   UNL A   1      40.032  29.213  26.886  1.00  0.00     0.010 A 
ATOM     35  C   UNL A   1      40.839  28.672  27.902  1.00  0.00    -0.014 A 
BRANCH  35  36
ATOM     36  C   UNL A   1      42.306  28.492  27.720  1.00  0.00     0.031 A 
ATOM     37  C   UNL A   1      43.258  29.592  28.111  1.00  0.00     0.074 A 
ATOM     38  C   UNL A   1      42.799  27.327  27.254  1.00  0.00     0.049 A 
ATOM     39  N   UNL A   1      44.541  29.696  27.868  1.00  0.00    -0.248 NA
ATOM     40  C   UNL A   1      42.695  30.723  28.865  1.00  0.00     0.031 C 
ATOM     41  C   UNL A   1      42.004  26.144  26.914  1.00  0.00     0.029 A 
ATOM     42  N   UNL A   1      44.091  26.938  27.002  1.00  0.00    -0.354 N 
ATOM     43  C   UNL A   1      44.925  30.931  28.381  1.00  0.00     0.074 A 
ATOM     44  C   UNL A   1      43.741  31.532  28.960  1.00  0.00     0.031 C 
ATOM     45  C   UNL A   1      42.827  25.151  26.544  1.00  0.00     0.029 A 
ATOM     46  C   UNL A   1      44.198  25.653  26.524  1.00  0.00     0.049 A 
ATOM     47  H   UNL A   1      44.869  27.523  27.150  1.00  0.00     0.167 HD
ATOM     48  C   UNL A   1      46.148  31.512  28.359  1.00  0.00     0.031 A 
ATOM     49  C   UNL A   1      45.264  24.966  26.071  1.00  0.00     0.031 A 
ATOM     50  C   UNL A   1      47.332  30.889  27.825  1.00  0.00     0.049 A 
ATOM     51  C   UNL A   1      46.603  25.645  26.015  1.00  0.00     0.074 A 
ATOM     52  C   UNL A   1      48.616  31.403  27.746  1.00  0.00     0.029 A 
ATOM     53  N   UNL A   1      47.382  29.609  27.296  1.00  0.00    -0.354 N 
ATOM     54  N   UNL A   1      46.931  26.851  26.412  1.00  0.00    -0.248 NA
ATOM     55  C   UNL A   1      47.709  24.880  25.422  1.00  0.00     0.031 C 
ATOM     56  C   UNL A   1      49.433  30.444  27.135  1.00  0.00     0.029 A 
ATOM     57  C   UNL A   1      48.669  29.319  26.877  1.00  0.00     0.049 A 
ATOM     58  H   UNL A   1      46.615  28.995  27.229  1.00  0.00     0.167 HD
ATOM     59  C   UNL A   1      48.279  26.994  26.109  1.00  0.00     0.074 A 
ATOM     60  C   UNL A   1      48.714  25.741  25.527  1.00  0.00     0.031 C 
ATOM     61  C   UNL A   1      49.082  28.071  26.285  1.00  0.00     0.031 A 
BRANCH  48  62
ATOM     62  C   UNL A   1      46.260  32.923  28.873  1.00  0.00    -0.014 A 
ATOM     63  C   UNL A   1      46.032  34.034  28.043  1.00  0.00     0.010 A 
ATOM     64  C   UNL A   1      46.564  33.134  30.231  1.00  0.00     0.010 A 
ATOM     65  C   UNL A   1      46.139  35.332  28.556  1.00  0.00     0.020 A 
ATOM     66  C   UNL A   1      46.650  34.427  30.752  1.00  0.00     0.020 A 
ATOM     67  C   UNL A   1      46.453  35.519  29.907  1.00  0.00     0.054 A 
BRANCH  67  68
ATOM     68  S   UNL A   1      46.566  37.211  30.555  1.00  0.00     0.124 S 
ATOM     69  O   UNL A   1      45.521  37.214  31.575  1.00  0.00    -0.237 OA
ATOM     70  O   UNL A   1      47.935  37.275  31.058  1.00  0.00    -0.237 OA
ATOM     71  O   UNL A   1      46.297  38.048  29.387  1.00  0.00    -0.744 OA
ENDBRANCH  67  68
ENDBRANCH  48  62
BRANCH  49  72
ATOM     72  C   UNL A   1      45.088  23.578  25.564  1.00  0.00    -0.014 A 
ATOM     73  C   UNL A   1      44.479  23.341  24.320  1.00  0.00     0.010 A 
ATOM     74  C   UNL A   1      45.561  22.486  26.315  1.00  0.00     0.010 A 
ATOM     75  C   UNL A   1      44.347  22.035  23.836  1.00  0.00     0.020 A 
ATOM     76  C   UNL A   1      45.459  21.184  25.821  1.00  0.00     0.020 A 
ATOM     77  C   UNL A   1      44.845  20.965  24.588  1.00  0.00     0.054 A 
BRANCH  77  78
ATOM     78  S   UNL A   1      44.745  19.285  23.907  1.00  0.00     0.124 S 
ATOM     79  O   UNL A   1      44.666  19.545  22.474  1.00  0.00    -0.237 OA
ATOM     80  O   UNL A   1      45.989  18.678  24.374  1.00  0.00    -0.237 OA
ATOM     81  O   UNL A   1      43.531  18.745  24.516  1.00  0.00    -0.744 OA
ENDBRANCH  77  78
ENDBRANCH  49  72
BRANCH  61  82
ATOM     82  C   UNL A   1      50.515  27.936  25.849  1.00  0.00    -0.014 A 
ATOM     83  C   UNL A   1      51.504  27.499  26.748  1.00  0.00     0.010 A 
ATOM     84  C   UNL A   1      50.870  28.215  24.517  1.00  0.00     0.010 A 
ATOM     85  C   UNL A   1      52.832  27.374  26.330  1.00  0.00     0.020 A 
ATOM     86  C   UNL A   1      52.193  28.071  24.091  1.00  0.00     0.020 A 
ATOM     87  C   UNL A   1      53.169  27.666  25.005  1.00  0.00     0.054 A 
BRANCH  87  88
ATOM     88  S   UNL A   1      54.892  27.469  24.476  1.00  0.00     0.124 S 
ATOM     89  O   UNL A   1      55.507  26.873  25.659  1.00  0.00    -0.237 OA
ATOM     90  O   UNL A   1      54.776  26.586  23.317  1.00  0.00    -0.237 OA
ATOM     91  O   UNL A   1      55.318  28.833  24.172  1.00  0.00    -0.744 OA
ENDBRANCH  87  88
ENDBRANCH  61  82
ENDBRANCH  35  36
ENDBRANCH  28  30
ENDBRANCH  27  28
ENDBRANCH  26  27
ENDBRANCH   1  26
TORSDOF 20
ENDMDL
