MODEL 1
REMARK VINA RESULT:     -10.4      0.000      0.000
REMARK SMILES Cc1ccc(OCCC[N@H+]2CCCC[C@@H]2C(=O)OCCOC(=O)c2ccc(-c3c4nc(c(-c5ccc(S(=O)(=O)[O-])cc5)c5ccc([nH]5)c(-c5ccc(S(=O)(=O)[O-])cc5)c5nc(c(-c6ccc(S(=O)(=O)[O-])cc6)c6ccc3[nH]6)C=C5)C=C4)cc2)cc1C
REMARK SMILES IDX 19 1 18 2 16 3 17 4 15 5 10 6 11 7 12 9 14 10 13 11 9 12
REMARK SMILES IDX 8 13 7 14 6 15 5 16 1 17 2 18 3 19 85 20 4 21 84 22 86 23
REMARK SMILES IDX 20 24 21 25 22 26 23 27 24 28 25 29 83 30 26 31 82 32 27 33
REMARK SMILES IDX 28 34 29 35 76 36 30 37 81 38 75 39 77 40 31 41 80 42 74 43
REMARK SMILES IDX 73 44 32 46 62 47 43 48 61 49 44 50 47 51 60 52 78 53 45 54
REMARK SMILES IDX 46 55 59 57 79 58 48 59 33 60 34 61 42 62 35 63 41 64 36 65
REMARK SMILES IDX 37 66 38 67 39 68 40 69 63 70 64 71 72 72 65 73 71 74 66 75
REMARK SMILES IDX 67 76 68 77 69 78 70 79 49 80 50 81 58 82 51 83 57 84 52 85
REMARK SMILES IDX 53 86 54 87 55 88 56 89
REMARK H PARENT 10 8 77 45 47 56
REMARK Flexibility Score: inf
ROOT
ATOM      1  C   UNL A   1      36.690  32.426  33.523  1.00  0.00     0.274 C 
ENDROOT
BRANCH   1   2
ATOM      2  O   UNL A   1      36.114  33.744  33.616  1.00  0.00    -0.458 OA
BRANCH   2   3
ATOM      3  C   UNL A   1      36.113  34.459  32.459  1.00  0.00     0.365 C 
ATOM      4  O   UNL A   1      37.131  34.819  31.881  1.00  0.00    -0.245 OA
BRANCH   3   5
ATOM      5  C   UNL A   1      34.723  34.785  31.908  1.00  0.00     0.295 C 
ATOM      6  N   UNL A   1      34.727  35.126  30.446  1.00  0.00    -0.323 N 
ATOM      7  C   UNL A   1      33.326  35.375  30.016  1.00  0.00     0.262 C 
ATOM      8  H   UNL A   1      35.319  35.946  30.313  1.00  0.00     0.348 HD
ATOM      9  C   UNL A   1      32.590  36.429  30.847  1.00  0.00     0.062 C 
ATOM     10  C   UNL A   1      34.058  35.873  32.765  1.00  0.00     0.078 C 
ATOM     11  C   UNL A   1      32.619  36.087  32.329  1.00  0.00     0.013 C 
BRANCH   6  12
ATOM     12  C   UNL A   1      35.263  34.006  29.621  1.00  0.00     0.266 C 
BRANCH  12  13
ATOM     13  C   UNL A   1      34.278  32.838  29.444  1.00  0.00     0.103 C 
BRANCH  13  14
ATOM     14  C   UNL A   1      34.240  32.222  28.040  1.00  0.00     0.235 C 
BRANCH  14  15
ATOM     15  O   UNL A   1      34.647  30.835  28.049  1.00  0.00    -0.493 OA
BRANCH  15  16
ATOM     16  C   UNL A   1      33.842  30.068  27.248  1.00  0.00     0.119 A 
ATOM     17  C   UNL A   1      31.048  27.545  25.178  1.00  0.00     0.044 C 
ATOM     18  C   UNL A   1      32.099  28.413  25.814  1.00  0.00    -0.048 A 
ATOM     19  C   UNL A   1      31.781  29.759  26.055  1.00  0.00     0.007 A 
ATOM     20  C   UNL A   1      33.376  27.936  26.172  1.00  0.00    -0.045 A 
ATOM     21  C   UNL A   1      32.659  30.588  26.747  1.00  0.00     0.047 A 
ATOM     22  C   UNL A   1      34.241  28.778  26.900  1.00  0.00     0.050 A 
ATOM     23  C   UNL A   1      33.858  26.574  25.757  1.00  0.00     0.045 C 
ENDBRANCH  15  16
ENDBRANCH  14  15
ENDBRANCH  13  14
ENDBRANCH  12  13
ENDBRANCH   6  12
ENDBRANCH   3   5
ENDBRANCH   2   3
ENDBRANCH   1   2
BRANCH   1  24
ATOM     24  C   UNL A   1      35.912  31.474  32.602  1.00  0.00     0.275 C 
BRANCH  24  25
ATOM     25  O   UNL A   1      36.455  31.423  31.269  1.00  0.00    -0.458 OA
BRANCH  25  26
ATOM     26  C   UNL A   1      36.779  30.179  30.838  1.00  0.00     0.338 C 
ATOM     27  O   UNL A   1      36.009  29.242  30.695  1.00  0.00    -0.246 OA
BRANCH  26  28
ATOM     28  C   UNL A   1      38.181  30.124  30.374  1.00  0.00     0.060 A 
ATOM     29  C   UNL A   1      38.387  30.085  28.989  1.00  0.00     0.016 A 
ATOM     30  C   UNL A   1      39.267  30.031  31.245  1.00  0.00     0.016 A 
ATOM     31  C   UNL A   1      39.667  29.929  28.467  1.00  0.00     0.010 A 
ATOM     32  C   UNL A   1      40.557  29.852  30.720  1.00  0.00     0.010 A 
ATOM     33  C   UNL A   1      40.755  29.760  29.330  1.00  0.00    -0.014 A 
BRANCH  33  34
ATOM     34  C   UNL A   1      42.020  29.247  28.749  1.00  0.00     0.031 A 
ATOM     35  C   UNL A   1      43.196  30.188  28.668  1.00  0.00     0.074 A 
ATOM     36  C   UNL A   1      42.168  27.954  28.406  1.00  0.00     0.049 A 
ATOM     37  N   UNL A   1      44.427  29.945  28.300  1.00  0.00    -0.248 NA
ATOM     38  C   UNL A   1      42.950  31.587  29.060  1.00  0.00     0.031 C 
ATOM     39  C   UNL A   1      41.124  26.930  28.471  1.00  0.00     0.029 A 
ATOM     40  N   UNL A   1      43.272  27.278  27.947  1.00  0.00    -0.354 N 
ATOM     41  C   UNL A   1      45.098  31.158  28.410  1.00  0.00     0.074 A 
ATOM     42  C   UNL A   1      44.134  32.141  28.849  1.00  0.00     0.031 C 
ATOM     43  C   UNL A   1      41.640  25.755  28.063  1.00  0.00     0.029 A 
ATOM     44  C   UNL A   1      43.044  25.944  27.702  1.00  0.00     0.049 A 
ATOM     45  H   UNL A   1      44.146  27.707  27.806  1.00  0.00     0.167 HD
ATOM     46  C   UNL A   1      46.403  31.431  28.179  1.00  0.00     0.031 A 
ATOM     47  C   UNL A   1      43.874  24.988  27.238  1.00  0.00     0.031 A 
ATOM     48  C   UNL A   1      47.372  30.461  27.754  1.00  0.00     0.049 A 
ATOM     49  C   UNL A   1      45.318  25.328  26.960  1.00  0.00     0.074 A 
ATOM     50  C   UNL A   1      48.723  30.642  27.519  1.00  0.00     0.029 A 
ATOM     51  N   UNL A   1      47.095  29.128  27.498  1.00  0.00    -0.354 N 
ATOM     52  N   UNL A   1      45.946  26.470  27.120  1.00  0.00    -0.248 NA
ATOM     53  C   UNL A   1      46.173  24.240  26.459  1.00  0.00     0.031 C 
ATOM     54  C   UNL A   1      49.256  29.427  27.077  1.00  0.00     0.029 A 
ATOM     55  C   UNL A   1      48.245  28.479  27.088  1.00  0.00     0.049 A 
ATOM     56  H   UNL A   1      46.211  28.706  27.594  1.00  0.00     0.167 HD
ATOM     57  C   UNL A   1      47.271  26.226  26.768  1.00  0.00     0.074 A 
ATOM     58  C   UNL A   1      47.360  24.827  26.409  1.00  0.00     0.031 C 
ATOM     59  C   UNL A   1      48.322  27.083  26.744  1.00  0.00     0.031 A 
BRANCH  46  60
ATOM     60  C   UNL A   1      46.854  32.854  28.359  1.00  0.00    -0.014 A 
ATOM     61  C   UNL A   1      47.305  33.322  29.606  1.00  0.00     0.010 A 
ATOM     62  C   UNL A   1      46.868  33.721  27.251  1.00  0.00     0.010 A 
ATOM     63  C   UNL A   1      47.741  34.642  29.747  1.00  0.00     0.020 A 
ATOM     64  C   UNL A   1      47.324  35.034  27.385  1.00  0.00     0.020 A 
ATOM     65  C   UNL A   1      47.747  35.489  28.635  1.00  0.00     0.054 A 
BRANCH  65  66
ATOM     66  S   UNL A   1      48.359  37.185  28.836  1.00  0.00     0.124 S 
ATOM     67  O   UNL A   1      48.571  37.258  30.279  1.00  0.00    -0.237 OA
ATOM     68  O   UNL A   1      49.571  37.187  28.022  1.00  0.00    -0.237 OA
ATOM     69  O   UNL A   1      47.267  38.010  28.324  1.00  0.00    -0.744 OA
ENDBRANCH  65  66
ENDBRANCH  46  60
BRANCH  47  70
ATOM     70  C   UNL A   1      43.372  23.608  26.980  1.00  0.00    -0.014 A 
ATOM     71  C   UNL A   1      43.217  22.683  28.028  1.00  0.00     0.010 A 
ATOM     72  C   UNL A   1      43.115  23.193  25.660  1.00  0.00     0.010 A 
ATOM     73  C   UNL A   1      42.860  21.358  27.756  1.00  0.00     0.020 A 
ATOM     74  C   UNL A   1      42.730  21.877  25.388  1.00  0.00     0.020 A 
ATOM     75  C   UNL A   1      42.628  20.962  26.437  1.00  0.00     0.054 A 
BRANCH  75  76
ATOM     76  S   UNL A   1      42.170  19.237  26.102  1.00  0.00     0.124 S 
ATOM     77  O   UNL A   1      42.451  18.596  27.383  1.00  0.00    -0.237 OA
ATOM     78  O   UNL A   1      40.757  19.348  25.745  1.00  0.00    -0.237 OA
ATOM     79  O   UNL A   1      43.055  18.858  25.003  1.00  0.00    -0.744 OA
ENDBRANCH  75  76
ENDBRANCH  47  70
BRANCH  59  80
ATOM     80  C   UNL A   1      49.668  26.526  26.361  1.00  0.00    -0.014 A 
ATOM     81  C   UNL A   1      50.159  26.636  25.048  1.00  0.00     0.010 A 
ATOM     82  C   UNL A   1      50.471  25.918  27.344  1.00  0.00     0.010 A 
ATOM     83  C   UNL A   1      51.408  26.107  24.714  1.00  0.00     0.020 A 
ATOM     84  C   UNL A   1      51.733  25.412  27.021  1.00  0.00     0.020 A 
ATOM     85  C   UNL A   1      52.185  25.492  25.702  1.00  0.00     0.054 A 
BRANCH  85  86
ATOM     86  S   UNL A   1      53.813  24.828  25.253  1.00  0.00     0.124 S 
ATOM     87  O   UNL A   1      54.119  25.575  24.036  1.00  0.00    -0.237 OA
ATOM     88  O   UNL A   1      54.631  25.161  26.417  1.00  0.00    -0.237 OA
ATOM     89  O   UNL A   1      53.564  23.401  25.063  1.00  0.00    -0.744 OA
ENDBRANCH  85  86
ENDBRANCH  59  80
ENDBRANCH  33  34
ENDBRANCH  26  28
ENDBRANCH  25  26
ENDBRANCH  24  25
ENDBRANCH   1  24
TORSDOF 19
ENDMDL
MODEL 2
REMARK VINA RESULT:     -10.1      2.593      4.118
REMARK SMILES Cc1ccc(OCCC[N@H+]2CCCC[C@@H]2C(=O)OCCOC(=O)c2ccc(-c3c4nc(c(-c5ccc(S(=O)(=O)[O-])cc5)c5ccc([nH]5)c(-c5ccc(S(=O)(=O)[O-])cc5)c5nc(c(-c6ccc(S(=O)(=O)[O-])cc6)c6ccc3[nH]6)C=C5)C=C4)cc2)cc1C
REMARK SMILES IDX 19 1 18 2 16 3 17 4 15 5 10 6 11 7 12 9 14 10 13 11 9 12
REMARK SMILES IDX 8 13 7 14 6 15 5 16 1 17 2 18 3 19 85 20 4 21 84 22 86 23
REMARK SMILES IDX 20 24 21 25 22 26 23 27 24 28 25 29 83 30 26 31 82 32 27 33
REMARK SMILES IDX 28 34 29 35 76 36 30 37 81 38 75 39 77 40 31 41 80 42 74 43
REMARK SMILES IDX 73 44 32 46 62 47 43 48 61 49 44 50 47 51 60 52 78 53 45 54
REMARK SMILES IDX 46 55 59 57 79 58 48 59 33 60 34 61 42 62 35 63 41 64 36 65
REMARK SMILES IDX 37 66 38 67 39 68 40 69 63 70 64 71 72 72 65 73 71 74 66 75
REMARK SMILES IDX 67 76 68 77 69 78 70 79 49 80 50 81 58 82 51 83 57 84 52 85
REMARK SMILES IDX 53 86 54 87 55 88 56 89
REMARK H PARENT 10 8 77 45 47 56
REMARK Flexibility Score: inf
ROOT
ATOM      1  C   UNL A   1      38.272  30.604  33.273  1.00  0.00     0.274 C 
ENDROOT
BRANCH   1   2
ATOM      2  O   UNL A   1      39.179  31.450  32.537  1.00  0.00    -0.458 OA
BRANCH   2   3
ATOM      3  C   UNL A   1      39.243  32.740  32.966  1.00  0.00     0.365 C 
ATOM      4  O   UNL A   1      38.742  33.136  34.011  1.00  0.00    -0.245 OA
BRANCH   3   5
ATOM      5  C   UNL A   1      40.008  33.686  32.037  1.00  0.00     0.295 C 
ATOM      6  N   UNL A   1      39.608  33.556  30.595  1.00  0.00    -0.323 N 
ATOM      7  C   UNL A   1      40.378  34.549  29.801  1.00  0.00     0.262 C 
ATOM      8  H   UNL A   1      39.799  32.598  30.298  1.00  0.00     0.348 HD
ATOM      9  C   UNL A   1      41.895  34.462  29.984  1.00  0.00     0.062 C 
ATOM     10  C   UNL A   1      41.521  33.521  32.245  1.00  0.00     0.078 C 
ATOM     11  C   UNL A   1      42.284  34.566  31.451  1.00  0.00     0.013 C 
BRANCH   6  12
ATOM     12  C   UNL A   1      38.159  33.840  30.398  1.00  0.00     0.266 C 
BRANCH  12  13
ATOM     13  C   UNL A   1      37.451  32.841  29.467  1.00  0.00     0.103 C 
BRANCH  13  14
ATOM     14  C   UNL A   1      36.339  33.436  28.594  1.00  0.00     0.235 C 
BRANCH  14  15
ATOM     15  O   UNL A   1      35.033  32.948  28.977  1.00  0.00    -0.493 OA
BRANCH  15  16
ATOM     16  C   UNL A   1      34.422  33.790  29.869  1.00  0.00     0.119 A 
ATOM     17  C   UNL A   1      32.876  36.784  32.533  1.00  0.00     0.044 C 
ATOM     18  C   UNL A   1      33.362  35.657  31.665  1.00  0.00    -0.048 A 
ATOM     19  C   UNL A   1      32.974  35.653  30.316  1.00  0.00     0.007 A 
ATOM     20  C   UNL A   1      34.181  34.615  32.145  1.00  0.00    -0.045 A 
ATOM     21  C   UNL A   1      33.482  34.709  29.428  1.00  0.00     0.047 A 
ATOM     22  C   UNL A   1      34.713  33.686  31.229  1.00  0.00     0.050 A 
ATOM     23  C   UNL A   1      34.461  34.440  33.612  1.00  0.00     0.045 C 
ENDBRANCH  15  16
ENDBRANCH  14  15
ENDBRANCH  13  14
ENDBRANCH  12  13
ENDBRANCH   6  12
ENDBRANCH   3   5
ENDBRANCH   2   3
ENDBRANCH   1   2
BRANCH   1  24
ATOM     24  C   UNL A   1      37.011  30.218  32.487  1.00  0.00     0.275 C 
BRANCH  24  25
ATOM     25  O   UNL A   1      37.184  29.012  31.716  1.00  0.00    -0.458 OA
BRANCH  25  26
ATOM     26  C   UNL A   1      37.036  29.172  30.378  1.00  0.00     0.338 C 
ATOM     27  O   UNL A   1      36.097  29.712  29.815  1.00  0.00    -0.246 OA
BRANCH  26  28
ATOM     28  C   UNL A   1      38.260  28.765  29.655  1.00  0.00     0.060 A 
ATOM     29  C   UNL A   1      39.281  28.185  30.417  1.00  0.00     0.016 A 
ATOM     30  C   UNL A   1      38.454  29.007  28.294  1.00  0.00     0.016 A 
ATOM     31  C   UNL A   1      40.504  27.868  29.838  1.00  0.00     0.010 A 
ATOM     32  C   UNL A   1      39.696  28.707  27.713  1.00  0.00     0.010 A 
ATOM     33  C   UNL A   1      40.739  28.173  28.493  1.00  0.00    -0.014 A 
BRANCH  33  34
ATOM     34  C   UNL A   1      42.144  28.151  28.017  1.00  0.00     0.031 A 
ATOM     35  C   UNL A   1      42.993  29.374  28.259  1.00  0.00     0.074 A 
ATOM     36  C   UNL A   1      42.695  27.043  27.488  1.00  0.00     0.049 A 
ATOM     37  N   UNL A   1      44.268  29.555  28.032  1.00  0.00    -0.248 NA
ATOM     38  C   UNL A   1      42.313  30.545  28.841  1.00  0.00     0.031 C 
ATOM     39  C   UNL A   1      41.998  25.782  27.235  1.00  0.00     0.029 A 
ATOM     40  N   UNL A   1      43.984  26.800  27.081  1.00  0.00    -0.354 N 
ATOM     41  C   UNL A   1      44.540  30.858  28.435  1.00  0.00     0.074 A 
ATOM     42  C   UNL A   1      43.295  31.432  28.892  1.00  0.00     0.031 C 
ATOM     43  C   UNL A   1      42.869  24.899  26.713  1.00  0.00     0.029 A 
ATOM     44  C   UNL A   1      44.181  25.532  26.588  1.00  0.00     0.049 A 
ATOM     45  H   UNL A   1      44.702  27.471  27.137  1.00  0.00     0.167 HD
ATOM     46  C   UNL A   1      45.721  31.517  28.438  1.00  0.00     0.031 A 
ATOM     47  C   UNL A   1      45.292  24.951  26.092  1.00  0.00     0.031 A 
ATOM     48  C   UNL A   1      46.966  30.953  27.996  1.00  0.00     0.049 A 
ATOM     49  C   UNL A   1      46.591  25.721  26.079  1.00  0.00     0.074 A 
ATOM     50  C   UNL A   1      48.220  31.540  27.985  1.00  0.00     0.029 A 
ATOM     51  N   UNL A   1      47.117  29.675  27.486  1.00  0.00    -0.354 N 
ATOM     52  N   UNL A   1      46.838  26.935  26.512  1.00  0.00    -0.248 NA
ATOM     53  C   UNL A   1      47.768  25.030  25.528  1.00  0.00     0.031 C 
ATOM     54  C   UNL A   1      49.122  30.631  27.426  1.00  0.00     0.029 A 
ATOM     55  C   UNL A   1      48.438  29.460  27.138  1.00  0.00     0.049 A 
ATOM     56  H   UNL A   1      46.391  29.017  27.385  1.00  0.00     0.167 HD
ATOM     57  C   UNL A   1      48.202  27.138  26.314  1.00  0.00     0.074 A 
ATOM     58  C   UNL A   1      48.729  25.917  25.742  1.00  0.00     0.031 C 
ATOM     59  C   UNL A   1      48.952  28.236  26.580  1.00  0.00     0.031 A 
BRANCH  46  60
ATOM     60  C   UNL A   1      45.716  32.943  28.913  1.00  0.00    -0.014 A 
ATOM     61  C   UNL A   1      45.414  34.001  28.037  1.00  0.00     0.010 A 
ATOM     62  C   UNL A   1      45.974  33.223  30.267  1.00  0.00     0.010 A 
ATOM     63  C   UNL A   1      45.394  35.318  28.503  1.00  0.00     0.020 A 
ATOM     64  C   UNL A   1      45.932  34.536  30.741  1.00  0.00     0.020 A 
ATOM     65  C   UNL A   1      45.653  35.576  29.852  1.00  0.00     0.054 A 
BRANCH  65  66
ATOM     66  S   UNL A   1      45.577  37.290  30.441  1.00  0.00     0.124 S 
ATOM     67  O   UNL A   1      46.163  38.019  29.319  1.00  0.00    -0.237 OA
ATOM     68  O   UNL A   1      44.145  37.496  30.645  1.00  0.00    -0.237 OA
ATOM     69  O   UNL A   1      46.381  37.273  31.661  1.00  0.00    -0.744 OA
ENDBRANCH  65  66
ENDBRANCH  46  60
BRANCH  47  70
ATOM     70  C   UNL A   1      45.243  23.568  25.539  1.00  0.00    -0.014 A 
ATOM     71  C   UNL A   1      44.989  23.338  24.175  1.00  0.00     0.010 A 
ATOM     72  C   UNL A   1      45.382  22.465  26.402  1.00  0.00     0.010 A 
ATOM     73  C   UNL A   1      44.828  22.035  23.693  1.00  0.00     0.020 A 
ATOM     74  C   UNL A   1      45.251  21.160  25.918  1.00  0.00     0.020 A 
ATOM     75  C   UNL A   1      44.951  20.955  24.570  1.00  0.00     0.054 A 
BRANCH  75  76
ATOM     76  S   UNL A   1      44.734  19.270  23.929  1.00  0.00     0.124 S 
ATOM     77  O   UNL A   1      46.005  18.646  24.284  1.00  0.00    -0.237 OA
ATOM     78  O   UNL A   1      43.567  18.797  24.669  1.00  0.00    -0.237 OA
ATOM     79  O   UNL A   1      44.514  19.476  22.499  1.00  0.00    -0.744 OA
ENDBRANCH  75  76
ENDBRANCH  47  70
BRANCH  59  80
ATOM     80  C   UNL A   1      50.430  28.156  26.301  1.00  0.00    -0.014 A 
ATOM     81  C   UNL A   1      51.342  27.759  27.296  1.00  0.00     0.010 A 
ATOM     82  C   UNL A   1      50.908  28.446  25.009  1.00  0.00     0.010 A 
ATOM     83  C   UNL A   1      52.709  27.698  27.017  1.00  0.00     0.020 A 
ATOM     84  C   UNL A   1      52.272  28.358  24.719  1.00  0.00     0.020 A 
ATOM     85  C   UNL A   1      53.167  28.004  25.731  1.00  0.00     0.054 A 
BRANCH  85  86
ATOM     86  S   UNL A   1      54.944  27.900  25.383  1.00  0.00     0.124 S 
ATOM     87  O   UNL A   1      55.402  26.978  26.418  1.00  0.00    -0.237 OA
ATOM     88  O   UNL A   1      54.977  27.379  24.018  1.00  0.00    -0.237 OA
ATOM     89  O   UNL A   1      55.406  29.279  25.527  1.00  0.00    -0.744 OA
ENDBRANCH  85  86
ENDBRANCH  59  80
ENDBRANCH  33  34
ENDBRANCH  26  28
ENDBRANCH  25  26
ENDBRANCH  24  25
ENDBRANCH   1  24
TORSDOF 19
ENDMDL
MODEL 3
REMARK VINA RESULT:     -10.1      3.784     10.258
REMARK SMILES Cc1ccc(OCCC[N@H+]2CCCC[C@@H]2C(=O)OCCOC(=O)c2ccc(-c3c4nc(c(-c5ccc(S(=O)(=O)[O-])cc5)c5ccc([nH]5)c(-c5ccc(S(=O)(=O)[O-])cc5)c5nc(c(-c6ccc(S(=O)(=O)[O-])cc6)c6ccc3[nH]6)C=C5)C=C4)cc2)cc1C
REMARK SMILES IDX 19 1 18 2 16 3 17 4 15 5 10 6 11 7 12 9 14 10 13 11 9 12
REMARK SMILES IDX 8 13 7 14 6 15 5 16 1 17 2 18 3 19 85 20 4 21 84 22 86 23
REMARK SMILES IDX 20 24 21 25 22 26 23 27 24 28 25 29 83 30 26 31 82 32 27 33
REMARK SMILES IDX 28 34 29 35 76 36 30 37 81 38 75 39 77 40 31 41 80 42 74 43
REMARK SMILES IDX 73 44 32 46 62 47 43 48 61 49 44 50 47 51 60 52 78 53 45 54
REMARK SMILES IDX 46 55 59 57 79 58 48 59 33 60 34 61 42 62 35 63 41 64 36 65
REMARK SMILES IDX 37 66 38 67 39 68 40 69 63 70 64 71 72 72 65 73 71 74 66 75
REMARK SMILES IDX 67 76 68 77 69 78 70 79 49 80 50 81 58 82 51 83 57 84 52 85
REMARK SMILES IDX 53 86 54 87 55 88 56 89
REMARK H PARENT 10 8 77 45 47 56
REMARK Flexibility Score: inf
ROOT
ATOM      1  C   UNL A   1      41.996  19.280  25.860  1.00  0.00     0.274 C 
ENDROOT
BRANCH   1   2
ATOM      2  O   UNL A   1      41.632  20.650  26.120  1.00  0.00    -0.458 OA
BRANCH   2   3
ATOM      3  C   UNL A   1      40.891  20.849  27.244  1.00  0.00     0.365 C 
ATOM      4  O   UNL A   1      40.807  20.036  28.156  1.00  0.00    -0.245 OA
BRANCH   3   5
ATOM      5  C   UNL A   1      40.157  22.191  27.297  1.00  0.00     0.295 C 
ATOM      6  N   UNL A   1      39.434  22.524  26.024  1.00  0.00    -0.323 N 
ATOM      7  C   UNL A   1      38.724  23.818  26.210  1.00  0.00     0.262 C 
ATOM      8  H   UNL A   1      40.121  22.570  25.272  1.00  0.00     0.348 HD
ATOM      9  C   UNL A   1      39.621  24.966  26.677  1.00  0.00     0.062 C 
ATOM     10  C   UNL A   1      41.121  23.303  27.735  1.00  0.00     0.078 C 
ATOM     11  C   UNL A   1      40.370  24.604  27.951  1.00  0.00     0.013 C 
BRANCH   6  12
ATOM     12  C   UNL A   1      38.415  21.492  25.683  1.00  0.00     0.266 C 
BRANCH  12  13
ATOM     13  C   UNL A   1      37.437  21.926  24.578  1.00  0.00     0.103 C 
BRANCH  13  14
ATOM     14  C   UNL A   1      35.954  21.685  24.886  1.00  0.00     0.235 C 
BRANCH  14  15
ATOM     15  O   UNL A   1      35.578  22.219  26.176  1.00  0.00    -0.493 OA
BRANCH  15  16
ATOM     16  C   UNL A   1      34.629  23.199  26.058  1.00  0.00     0.119 A 
ATOM     17  C   UNL A   1      31.826  26.454  26.156  1.00  0.00     0.044 C 
ATOM     18  C   UNL A   1      32.736  25.262  26.047  1.00  0.00    -0.048 A 
ATOM     19  C   UNL A   1      34.033  25.470  25.550  1.00  0.00     0.007 A 
ATOM     20  C   UNL A   1      32.344  23.959  26.416  1.00  0.00    -0.045 A 
ATOM     21  C   UNL A   1      34.966  24.437  25.533  1.00  0.00     0.047 A 
ATOM     22  C   UNL A   1      33.309  22.932  26.423  1.00  0.00     0.050 A 
ATOM     23  C   UNL A   1      30.918  23.627  26.753  1.00  0.00     0.045 C 
ENDBRANCH  15  16
ENDBRANCH  14  15
ENDBRANCH  13  14
ENDBRANCH  12  13
ENDBRANCH   6  12
ENDBRANCH   3   5
ENDBRANCH   2   3
ENDBRANCH   1   2
BRANCH   1  24
ATOM     24  C   UNL A   1      43.408  19.113  25.280  1.00  0.00     0.275 C 
BRANCH  24  25
ATOM     25  O   UNL A   1      43.894  20.313  24.647  1.00  0.00    -0.458 OA
BRANCH  25  26
ATOM     26  C   UNL A   1      45.244  20.391  24.547  1.00  0.00     0.338 C 
ATOM     27  O   UNL A   1      45.979  19.559  24.042  1.00  0.00    -0.246 OA
BRANCH  26  28
ATOM     28  C   UNL A   1      45.733  21.720  24.971  1.00  0.00     0.060 A 
ATOM     29  C   UNL A   1      45.646  22.020  26.336  1.00  0.00     0.016 A 
ATOM     30  C   UNL A   1      46.189  22.685  24.071  1.00  0.00     0.016 A 
ATOM     31  C   UNL A   1      45.987  23.283  26.807  1.00  0.00     0.010 A 
ATOM     32  C   UNL A   1      46.513  23.967  24.542  1.00  0.00     0.010 A 
ATOM     33  C   UNL A   1      46.374  24.282  25.907  1.00  0.00    -0.014 A 
BRANCH  33  34
ATOM     34  C   UNL A   1      46.381  25.683  26.395  1.00  0.00     0.031 A 
ATOM     35  C   UNL A   1      47.689  26.433  26.379  1.00  0.00     0.074 A 
ATOM     36  C   UNL A   1      45.244  26.318  26.735  1.00  0.00     0.049 A 
ATOM     37  N   UNL A   1      47.927  27.689  26.654  1.00  0.00    -0.248 NA
ATOM     38  C   UNL A   1      48.886  25.663  25.996  1.00  0.00     0.031 C 
ATOM     39  C   UNL A   1      43.908  25.723  26.757  1.00  0.00     0.029 A 
ATOM     40  N   UNL A   1      45.036  27.622  27.115  1.00  0.00    -0.354 N 
ATOM     41  C   UNL A   1      49.297  27.858  26.485  1.00  0.00     0.074 A 
ATOM     42  C   UNL A   1      49.842  26.572  26.113  1.00  0.00     0.031 C 
ATOM     43  C   UNL A   1      43.019  26.660  27.134  1.00  0.00     0.029 A 
ATOM     44  C   UNL A   1      43.721  27.918  27.387  1.00  0.00     0.049 A 
ATOM     45  H   UNL A   1      45.760  28.284  27.186  1.00  0.00     0.167 HD
ATOM     46  C   UNL A   1      50.037  28.983  26.614  1.00  0.00     0.031 A 
ATOM     47  C   UNL A   1      43.152  29.070  27.794  1.00  0.00     0.031 A 
ATOM     48  C   UNL A   1      49.504  30.267  26.972  1.00  0.00     0.049 A 
ATOM     49  C   UNL A   1      44.007  30.304  27.959  1.00  0.00     0.074 A 
ATOM     50  C   UNL A   1      50.175  31.470  27.103  1.00  0.00     0.029 A 
ATOM     51  N   UNL A   1      48.172  30.517  27.259  1.00  0.00    -0.354 N 
ATOM     52  N   UNL A   1      45.292  30.455  27.744  1.00  0.00    -0.248 NA
ATOM     53  C   UNL A   1      43.325  31.530  28.402  1.00  0.00     0.031 C 
ATOM     54  C   UNL A   1      49.256  32.441  27.513  1.00  0.00     0.029 A 
ATOM     55  C   UNL A   1      48.004  31.851  27.586  1.00  0.00     0.049 A 
ATOM     56  H   UNL A   1      47.452  29.847  27.234  1.00  0.00     0.167 HD
ATOM     57  C   UNL A   1      45.564  31.798  27.996  1.00  0.00     0.074 A 
ATOM     58  C   UNL A   1      44.308  32.419  28.358  1.00  0.00     0.031 C 
ATOM     59  C   UNL A   1      46.746  32.459  27.934  1.00  0.00     0.031 A 
BRANCH  46  60
ATOM     60  C   UNL A   1      51.518  28.866  26.390  1.00  0.00    -0.014 A 
ATOM     61  C   UNL A   1      52.390  28.544  27.445  1.00  0.00     0.010 A 
ATOM     62  C   UNL A   1      52.038  29.036  25.094  1.00  0.00     0.010 A 
ATOM     63  C   UNL A   1      53.762  28.419  27.212  1.00  0.00     0.020 A 
ATOM     64  C   UNL A   1      53.406  28.889  24.854  1.00  0.00     0.020 A 
ATOM     65  C   UNL A   1      54.261  28.593  25.917  1.00  0.00     0.054 A 
BRANCH  65  66
ATOM     66  S   UNL A   1      56.040  28.381  25.634  1.00  0.00     0.124 S 
ATOM     67  O   UNL A   1      56.055  27.474  24.488  1.00  0.00    -0.237 OA
ATOM     68  O   UNL A   1      56.486  29.744  25.361  1.00  0.00    -0.237 OA
ATOM     69  O   UNL A   1      56.524  27.808  26.887  1.00  0.00    -0.744 OA
ENDBRANCH  65  66
ENDBRANCH  46  60
BRANCH  47  70
ATOM     70  C   UNL A   1      41.694  29.130  28.100  1.00  0.00    -0.014 A 
ATOM     71  C   UNL A   1      40.740  29.246  27.074  1.00  0.00     0.010 A 
ATOM     72  C   UNL A   1      41.261  29.143  29.439  1.00  0.00     0.010 A 
ATOM     73  C   UNL A   1      39.386  29.421  27.380  1.00  0.00     0.020 A 
ATOM     74  C   UNL A   1      39.906  29.288  29.748  1.00  0.00     0.020 A 
ATOM     75  C   UNL A   1      38.979  29.450  28.716  1.00  0.00     0.054 A 
BRANCH  75  76
ATOM     76  S   UNL A   1      37.220  29.682  29.097  1.00  0.00     0.124 S 
ATOM     77  O   UNL A   1      37.111  31.137  29.146  1.00  0.00    -0.237 OA
ATOM     78  O   UNL A   1      36.562  29.035  27.964  1.00  0.00    -0.237 OA
ATOM     79  O   UNL A   1      37.056  28.997  30.377  1.00  0.00    -0.744 OA
ENDBRANCH  75  76
ENDBRANCH  47  70
BRANCH  59  80
ATOM     80  C   UNL A   1      46.735  33.938  28.218  1.00  0.00    -0.014 A 
ATOM     81  C   UNL A   1      46.953  34.436  29.515  1.00  0.00     0.010 A 
ATOM     82  C   UNL A   1      46.540  34.845  27.159  1.00  0.00     0.010 A 
ATOM     83  C   UNL A   1      46.933  35.812  29.756  1.00  0.00     0.020 A 
ATOM     84  C   UNL A   1      46.547  36.223  27.392  1.00  0.00     0.020 A 
ATOM     85  C   UNL A   1      46.723  36.697  28.694  1.00  0.00     0.054 A 
BRANCH  85  86
ATOM     86  S   UNL A   1      46.718  38.481  29.024  1.00  0.00     0.124 S 
ATOM     87  O   UNL A   1      45.508  38.914  28.332  1.00  0.00    -0.237 OA
ATOM     88  O   UNL A   1      46.663  38.540  30.483  1.00  0.00    -0.237 OA
ATOM     89  O   UNL A   1      47.973  38.944  28.436  1.00  0.00    -0.744 OA
ENDBRANCH  85  86
ENDBRANCH  59  80
ENDBRANCH  33  34
ENDBRANCH  26  28
ENDBRANCH  25  26
ENDBRANCH  24  25
ENDBRANCH   1  24
TORSDOF 19
ENDMDL
