MODEL 1
REMARK VINA RESULT:     -10.9      0.000      0.000
REMARK SMILES O=C(/C=C/N[C@@H](Cc1c[nH]c2ccccc12)C(=O)OCCOC(=O)c1ccc(-c2c3nc(c(-c4ccc(S(=O)(=O)[O-])cc4)c4ccc([nH]4)c(-c4ccc(S(=O)(=O)[O-])cc4)c4nc(c(-c5ccc(S(=O)(=O)[O-])cc5)c5ccc2[nH]5)C=C4)C=C3)cc1)c1ccccc1
REMARK SMILES IDX 20 1 19 2 17 3 18 4 6 5 5 6 4 8 3 9 2 10 1 11 85 12 86 13
REMARK SMILES IDX 90 14 87 15 89 16 88 17 7 18 8 19 9 20 16 21 10 22 11 23
REMARK SMILES IDX 15 24 12 26 14 27 13 28 21 29 22 30 23 31 24 32 25 33 26 34
REMARK SMILES IDX 84 35 27 36 83 37 28 38 29 39 30 40 77 41 31 42 82 43 76 44
REMARK SMILES IDX 78 45 32 46 81 47 75 48 74 49 33 51 63 52 44 53 62 54 45 55
REMARK SMILES IDX 48 56 61 57 79 58 46 59 47 60 60 62 80 63 49 64 34 65 35 66
REMARK SMILES IDX 43 67 36 68 42 69 37 70 38 71 39 72 40 73 41 74 64 75 65 76
REMARK SMILES IDX 73 77 66 78 72 79 67 80 68 81 69 82 70 83 71 84 50 85 51 86
REMARK SMILES IDX 59 87 52 88 58 89 53 90 54 91 55 92 56 93 57 94
REMARK H PARENT 5 7 10 25 78 50 48 61
REMARK Flexibility Score: inf
ROOT
ATOM      1  C   UNL A   1      33.588  31.561  27.651  1.00  0.00     0.274 C 
ENDROOT
BRANCH   1   2
ATOM      2  O   UNL A   1      32.878  30.381  27.233  1.00  0.00    -0.461 OA
BRANCH   2   3
ATOM      3  C   UNL A   1      33.628  29.366  26.706  1.00  0.00     0.329 C 
ATOM      4  O   UNL A   1      34.809  29.160  26.964  1.00  0.00    -0.250 OA
BRANCH   3   5
ATOM      5  C   UNL A   1      32.807  28.485  25.751  1.00  0.00     0.194 C 
BRANCH   5   6
ATOM      6  N   UNL A   1      31.566  27.999  26.380  1.00  0.00    -0.378 N 
ATOM      7  H   UNL A   1      30.946  28.683  26.718  1.00  0.00     0.160 HD
BRANCH   6   8
ATOM      8  C   UNL A   1      31.183  26.692  26.542  1.00  0.00     0.082 C 
ATOM      9  C   UNL A   1      31.834  25.618  26.076  1.00  0.00     0.070 C 
BRANCH   9  10
ATOM     10  C   UNL A   1      31.356  24.222  26.261  1.00  0.00     0.187 C 
ATOM     11  O   UNL A   1      30.698  23.939  27.258  1.00  0.00    -0.289 OA
BRANCH  10  12
ATOM     12  C   UNL A   1      31.684  23.184  25.249  1.00  0.00     0.022 A 
ATOM     13  C   UNL A   1      32.007  21.872  25.617  1.00  0.00     0.012 A 
ATOM     14  C   UNL A   1      31.632  23.528  23.893  1.00  0.00     0.012 A 
ATOM     15  C   UNL A   1      32.331  20.933  24.638  1.00  0.00     0.001 A 
ATOM     16  C   UNL A   1      31.945  22.579  22.916  1.00  0.00     0.001 A 
ATOM     17  C   UNL A   1      32.304  21.285  23.291  1.00  0.00     0.000 A 
ENDBRANCH  10  12
ENDBRANCH   9  10
ENDBRANCH   6   8
ENDBRANCH   5   6
BRANCH   5  18
ATOM     18  C   UNL A   1      32.554  29.196  24.420  1.00  0.00     0.074 C 
BRANCH  18  19
ATOM     19  C   UNL A   1      31.254  28.867  23.746  1.00  0.00    -0.020 A 
ATOM     20  C   UNL A   1      30.937  27.701  23.077  1.00  0.00     0.087 A 
ATOM     21  C   UNL A   1      30.104  29.718  23.659  1.00  0.00     0.003 A 
ATOM     22  N   UNL A   1      29.650  27.796  22.628  1.00  0.00    -0.361 N 
ATOM     23  C   UNL A   1      29.121  29.022  22.955  1.00  0.00     0.046 A 
ATOM     24  C   UNL A   1      29.810  31.020  24.111  1.00  0.00     0.010 A 
ATOM     25  H   UNL A   1      29.171  27.089  22.141  1.00  0.00     0.166 HD
ATOM     26  C   UNL A   1      27.860  29.563  22.681  1.00  0.00     0.026 A 
ATOM     27  C   UNL A   1      28.558  31.581  23.837  1.00  0.00     0.001 A 
ATOM     28  C   UNL A   1      27.598  30.860  23.132  1.00  0.00     0.002 A 
ENDBRANCH  18  19
ENDBRANCH   5  18
ENDBRANCH   3   5
ENDBRANCH   2   3
ENDBRANCH   1   2
BRANCH   1  29
ATOM     29  C   UNL A   1      32.661  32.778  27.609  1.00  0.00     0.275 C 
BRANCH  29  30
ATOM     30  O   UNL A   1      33.422  33.999  27.618  1.00  0.00    -0.458 OA
BRANCH  30  31
ATOM     31  C   UNL A   1      33.420  34.670  28.795  1.00  0.00     0.338 C 
ATOM     32  O   UNL A   1      32.595  35.472  29.193  1.00  0.00    -0.246 OA
BRANCH  31  33
ATOM     33  C   UNL A   1      34.542  34.184  29.610  1.00  0.00     0.060 A 
ATOM     34  C   UNL A   1      35.836  34.342  29.113  1.00  0.00     0.016 A 
ATOM     35  C   UNL A   1      34.322  33.530  30.822  1.00  0.00     0.016 A 
ATOM     36  C   UNL A   1      36.923  33.844  29.823  1.00  0.00     0.010 A 
ATOM     37  C   UNL A   1      35.416  33.038  31.540  1.00  0.00     0.010 A 
ATOM     38  C   UNL A   1      36.723  33.180  31.040  1.00  0.00    -0.014 A 
BRANCH  38  39
ATOM     39  C   UNL A   1      37.883  32.614  31.771  1.00  0.00     0.031 A 
ATOM     40  C   UNL A   1      38.652  31.461  31.188  1.00  0.00     0.074 A 
ATOM     41  C   UNL A   1      38.260  33.155  32.945  1.00  0.00     0.049 A 
ATOM     42  N   UNL A   1      39.683  30.826  31.682  1.00  0.00    -0.248 NA
ATOM     43  C   UNL A   1      38.217  30.969  29.870  1.00  0.00     0.031 C 
ATOM     44  C   UNL A   1      37.621  34.305  33.589  1.00  0.00     0.029 A 
ATOM     45  N   UNL A   1      39.268  32.807  33.807  1.00  0.00    -0.354 N 
ATOM     46  C   UNL A   1      40.021  29.861  30.741  1.00  0.00     0.074 A 
ATOM     47  C   UNL A   1      39.079  29.986  29.649  1.00  0.00     0.031 C 
ATOM     48  C   UNL A   1      38.252  34.566  34.745  1.00  0.00     0.029 A 
ATOM     49  C   UNL A   1      39.303  33.573  34.948  1.00  0.00     0.049 A 
ATOM     50  H   UNL A   1      39.904  32.078  33.627  1.00  0.00     0.167 HD
ATOM     51  C   UNL A   1      41.021  28.949  30.784  1.00  0.00     0.031 A 
ATOM     52  C   UNL A   1      40.072  33.468  36.050  1.00  0.00     0.031 A 
ATOM     53  C   UNL A   1      41.926  28.794  31.893  1.00  0.00     0.049 A 
ATOM     54  C   UNL A   1      41.100  32.372  36.124  1.00  0.00     0.074 A 
ATOM     55  C   UNL A   1      42.965  27.892  32.036  1.00  0.00     0.029 A 
ATOM     56  N   UNL A   1      41.887  29.546  33.057  1.00  0.00    -0.354 N 
ATOM     57  N   UNL A   1      41.415  31.479  35.217  1.00  0.00    -0.248 NA
ATOM     58  C   UNL A   1      41.869  32.268  37.371  1.00  0.00     0.031 C 
ATOM     59  C   UNL A   1      43.516  28.060  33.311  1.00  0.00     0.029 A 
ATOM     60  C   UNL A   1      42.857  29.104  33.940  1.00  0.00     0.049 A 
ATOM     61  H   UNL A   1      41.260  30.285  33.231  1.00  0.00     0.167 HD
ATOM     62  C   UNL A   1      42.429  30.712  35.780  1.00  0.00     0.074 A 
ATOM     63  C   UNL A   1      42.686  31.259  37.097  1.00  0.00     0.031 C 
ATOM     64  C   UNL A   1      43.088  29.649  35.253  1.00  0.00     0.031 A 
BRANCH  51  65
ATOM     65  C   UNL A   1      41.150  28.009  29.617  1.00  0.00    -0.014 A 
ATOM     66  C   UNL A   1      42.105  28.227  28.607  1.00  0.00     0.010 A 
ATOM     67  C   UNL A   1      40.320  26.876  29.543  1.00  0.00     0.010 A 
ATOM     68  C   UNL A   1      42.203  27.346  27.527  1.00  0.00     0.020 A 
ATOM     69  C   UNL A   1      40.429  25.982  28.474  1.00  0.00     0.020 A 
ATOM     70  C   UNL A   1      41.360  26.233  27.464  1.00  0.00     0.054 A 
BRANCH  70  71
ATOM     71  S   UNL A   1      41.516  25.097  26.057  1.00  0.00     0.124 S 
ATOM     72  O   UNL A   1      41.911  26.004  24.982  1.00  0.00    -0.237 OA
ATOM     73  O   UNL A   1      42.549  24.167  26.507  1.00  0.00    -0.237 OA
ATOM     74  O   UNL A   1      40.179  24.522  25.926  1.00  0.00    -0.744 OA
ENDBRANCH  70  71
ENDBRANCH  51  65
BRANCH  52  75
ATOM     75  C   UNL A   1      39.861  34.399  37.191  1.00  0.00    -0.014 A 
ATOM     76  C   UNL A   1      39.071  34.024  38.290  1.00  0.00     0.010 A 
ATOM     77  C   UNL A   1      40.468  35.669  37.185  1.00  0.00     0.010 A 
ATOM     78  C   UNL A   1      38.887  34.904  39.361  1.00  0.00     0.020 A 
ATOM     79  C   UNL A   1      40.307  36.541  38.264  1.00  0.00     0.020 A 
ATOM     80  C   UNL A   1      39.508  36.157  39.342  1.00  0.00     0.054 A 
BRANCH  80  81
ATOM     81  S   UNL A   1      39.309  37.260  40.770  1.00  0.00     0.124 S 
ATOM     82  O   UNL A   1      38.674  36.380  41.744  1.00  0.00    -0.237 OA
ATOM     83  O   UNL A   1      40.687  37.645  41.067  1.00  0.00    -0.237 OA
ATOM     84  O   UNL A   1      38.469  38.337  40.252  1.00  0.00    -0.744 OA
ENDBRANCH  80  81
ENDBRANCH  52  75
BRANCH  64  85
ATOM     85  C   UNL A   1      44.159  29.017  36.098  1.00  0.00    -0.014 A 
ATOM     86  C   UNL A   1      45.467  29.533  36.115  1.00  0.00     0.010 A 
ATOM     87  C   UNL A   1      43.842  27.921  36.921  1.00  0.00     0.010 A 
ATOM     88  C   UNL A   1      46.447  28.945  36.920  1.00  0.00     0.020 A 
ATOM     89  C   UNL A   1      44.812  27.347  37.745  1.00  0.00     0.020 A 
ATOM     90  C   UNL A   1      46.113  27.854  37.729  1.00  0.00     0.054 A 
BRANCH  90  91
ATOM     91  S   UNL A   1      47.389  27.133  38.796  1.00  0.00     0.124 S 
ATOM     92  O   UNL A   1      47.661  25.862  38.128  1.00  0.00    -0.237 OA
ATOM     93  O   UNL A   1      48.463  28.121  38.729  1.00  0.00    -0.237 OA
ATOM     94  O   UNL A   1      46.732  27.025  40.097  1.00  0.00    -0.744 OA
ENDBRANCH  90  91
ENDBRANCH  64  85
ENDBRANCH  38  39
ENDBRANCH  31  33
ENDBRANCH  30  31
ENDBRANCH  29  30
ENDBRANCH   1  29
TORSDOF 20
ENDMDL
MODEL 2
REMARK VINA RESULT:     -10.4      6.639     13.377
REMARK SMILES O=C(/C=C/N[C@@H](Cc1c[nH]c2ccccc12)C(=O)OCCOC(=O)c1ccc(-c2c3nc(c(-c4ccc(S(=O)(=O)[O-])cc4)c4ccc([nH]4)c(-c4ccc(S(=O)(=O)[O-])cc4)c4nc(c(-c5ccc(S(=O)(=O)[O-])cc5)c5ccc2[nH]5)C=C4)C=C3)cc1)c1ccccc1
REMARK SMILES IDX 20 1 19 2 17 3 18 4 6 5 5 6 4 8 3 9 2 10 1 11 85 12 86 13
REMARK SMILES IDX 90 14 87 15 89 16 88 17 7 18 8 19 9 20 16 21 10 22 11 23
REMARK SMILES IDX 15 24 12 26 14 27 13 28 21 29 22 30 23 31 24 32 25 33 26 34
REMARK SMILES IDX 84 35 27 36 83 37 28 38 29 39 30 40 77 41 31 42 82 43 76 44
REMARK SMILES IDX 78 45 32 46 81 47 75 48 74 49 33 51 63 52 44 53 62 54 45 55
REMARK SMILES IDX 48 56 61 57 79 58 46 59 47 60 60 62 80 63 49 64 34 65 35 66
REMARK SMILES IDX 43 67 36 68 42 69 37 70 38 71 39 72 40 73 41 74 64 75 65 76
REMARK SMILES IDX 73 77 66 78 72 79 67 80 68 81 69 82 70 83 71 84 50 85 51 86
REMARK SMILES IDX 59 87 52 88 58 89 53 90 54 91 55 92 56 93 57 94
REMARK H PARENT 5 7 10 25 78 50 48 61
REMARK Flexibility Score: inf
ROOT
ATOM      1  C   UNL A   1      35.596  32.407  33.276  1.00  0.00     0.274 C 
ENDROOT
BRANCH   1   2
ATOM      2  O   UNL A   1      36.509  33.149  34.104  1.00  0.00    -0.461 OA
BRANCH   2   3
ATOM      3  C   UNL A   1      37.517  32.440  34.697  1.00  0.00     0.329 C 
ATOM      4  O   UNL A   1      37.358  31.581  35.558  1.00  0.00    -0.250 OA
BRANCH   3   5
ATOM      5  C   UNL A   1      38.895  32.835  34.144  1.00  0.00     0.194 C 
BRANCH   5   6
ATOM      6  N   UNL A   1      38.904  34.210  33.615  1.00  0.00    -0.378 N 
ATOM      7  H   UNL A   1      38.764  34.934  34.267  1.00  0.00     0.160 HD
BRANCH   6   8
ATOM      8  C   UNL A   1      39.087  34.589  32.310  1.00  0.00     0.082 C 
ATOM      9  C   UNL A   1      39.563  33.817  31.326  1.00  0.00     0.070 C 
BRANCH   9  10
ATOM     10  C   UNL A   1      39.765  34.290  29.931  1.00  0.00     0.187 C 
ATOM     11  O   UNL A   1      38.845  34.193  29.123  1.00  0.00    -0.289 OA
BRANCH  10  12
ATOM     12  C   UNL A   1      41.074  34.866  29.523  1.00  0.00     0.022 A 
ATOM     13  C   UNL A   1      41.283  35.382  28.238  1.00  0.00     0.012 A 
ATOM     14  C   UNL A   1      42.106  34.922  30.466  1.00  0.00     0.012 A 
ATOM     15  C   UNL A   1      42.532  35.892  27.887  1.00  0.00     0.001 A 
ATOM     16  C   UNL A   1      43.352  35.447  30.112  1.00  0.00     0.001 A 
ATOM     17  C   UNL A   1      43.566  35.922  28.820  1.00  0.00     0.000 A 
ENDBRANCH  10  12
ENDBRANCH   9  10
ENDBRANCH   6   8
ENDBRANCH   5   6
BRANCH   5  18
ATOM     18  C   UNL A   1      39.998  32.594  35.177  1.00  0.00     0.074 C 
BRANCH  18  19
ATOM     19  C   UNL A   1      41.312  33.261  34.890  1.00  0.00    -0.020 A 
ATOM     20  C   UNL A   1      41.796  34.421  35.461  1.00  0.00     0.087 A 
ATOM     21  C   UNL A   1      42.301  32.819  33.952  1.00  0.00     0.003 A 
ATOM     22  N   UNL A   1      43.035  34.675  34.941  1.00  0.00    -0.361 N 
ATOM     23  C   UNL A   1      43.362  33.722  34.006  1.00  0.00     0.046 A 
ATOM     24  C   UNL A   1      42.388  31.734  33.055  1.00  0.00     0.010 A 
ATOM     25  H   UNL A   1      43.608  35.431  35.199  1.00  0.00     0.166 HD
ATOM     26  C   UNL A   1      44.506  33.595  33.209  1.00  0.00     0.026 A 
ATOM     27  C   UNL A   1      43.520  31.597  32.244  1.00  0.00     0.001 A 
ATOM     28  C   UNL A   1      44.563  32.516  32.322  1.00  0.00     0.002 A 
ENDBRANCH  18  19
ENDBRANCH   5  18
ENDBRANCH   3   5
ENDBRANCH   2   3
ENDBRANCH   1   2
BRANCH   1  29
ATOM     29  C   UNL A   1      36.042  32.462  31.814  1.00  0.00     0.275 C 
BRANCH  29  30
ATOM     30  O   UNL A   1      36.475  31.166  31.363  1.00  0.00    -0.458 OA
BRANCH  30  31
ATOM     31  C   UNL A   1      36.469  30.993  30.019  1.00  0.00     0.338 C 
ATOM     32  O   UNL A   1      35.594  31.303  29.232  1.00  0.00    -0.246 OA
BRANCH  31  33
ATOM     33  C   UNL A   1      37.777  30.459  29.613  1.00  0.00     0.060 A 
ATOM     34  C   UNL A   1      38.767  30.327  30.587  1.00  0.00     0.016 A 
ATOM     35  C   UNL A   1      38.045  30.143  28.282  1.00  0.00     0.016 A 
ATOM     36  C   UNL A   1      40.037  29.882  30.237  1.00  0.00     0.010 A 
ATOM     37  C   UNL A   1      39.320  29.687  27.932  1.00  0.00     0.010 A 
ATOM     38  C   UNL A   1      40.328  29.565  28.904  1.00  0.00    -0.014 A 
BRANCH  38  39
ATOM     39  C   UNL A   1      41.697  29.132  28.531  1.00  0.00     0.031 A 
ATOM     40  C   UNL A   1      42.820  30.130  28.495  1.00  0.00     0.074 A 
ATOM     41  C   UNL A   1      41.933  27.836  28.251  1.00  0.00     0.049 A 
ATOM     42  N   UNL A   1      44.076  29.945  28.182  1.00  0.00    -0.248 NA
ATOM     43  C   UNL A   1      42.493  31.514  28.878  1.00  0.00     0.031 C 
ATOM     44  C   UNL A   1      40.933  26.766  28.297  1.00  0.00     0.029 A 
ATOM     45  N   UNL A   1      43.086  27.201  27.867  1.00  0.00    -0.354 N 
ATOM     46  C   UNL A   1      44.691  31.183  28.328  1.00  0.00     0.074 A 
ATOM     47  C   UNL A   1      43.668  32.116  28.748  1.00  0.00     0.031 C 
ATOM     48  C   UNL A   1      41.518  25.607  27.953  1.00  0.00     0.029 A 
ATOM     49  C   UNL A   1      42.915  25.860  27.614  1.00  0.00     0.049 A 
ATOM     50  H   UNL A   1      43.952  27.659  27.781  1.00  0.00     0.167 HD
ATOM     51  C   UNL A   1      45.988  31.513  28.125  1.00  0.00     0.031 A 
ATOM     52  C   UNL A   1      43.777  24.944  27.130  1.00  0.00     0.031 A 
ATOM     53  C   UNL A   1      46.994  30.595  27.660  1.00  0.00     0.049 A 
ATOM     54  C   UNL A   1      45.183  25.362  26.801  1.00  0.00     0.074 A 
ATOM     55  C   UNL A   1      48.333  30.837  27.412  1.00  0.00     0.029 A 
ATOM     56  N   UNL A   1      46.765  29.262  27.352  1.00  0.00    -0.354 N 
ATOM     57  N   UNL A   1      45.750  26.535  26.961  1.00  0.00    -0.248 NA
ATOM     58  C   UNL A   1      46.062  24.338  26.222  1.00  0.00     0.031 C 
ATOM     59  C   UNL A   1      48.901  29.666  26.899  1.00  0.00     0.029 A 
ATOM     60  C   UNL A   1      47.929  28.678  26.880  1.00  0.00     0.049 A 
ATOM     61  H   UNL A   1      45.902  28.799  27.453  1.00  0.00     0.167 HD
ATOM     62  C   UNL A   1      47.057  26.385  26.512  1.00  0.00     0.074 A 
ATOM     63  C   UNL A   1      47.201  25.005  26.093  1.00  0.00     0.031 C 
ATOM     64  C   UNL A   1      48.050  27.308  26.452  1.00  0.00     0.031 A 
BRANCH  51  65
ATOM     65  C   UNL A   1      46.379  32.948  28.351  1.00  0.00    -0.014 A 
ATOM     66  C   UNL A   1      46.728  33.415  29.632  1.00  0.00     0.010 A 
ATOM     67  C   UNL A   1      46.422  33.837  27.262  1.00  0.00     0.010 A 
ATOM     68  C   UNL A   1      47.080  34.754  29.823  1.00  0.00     0.020 A 
ATOM     69  C   UNL A   1      46.793  35.172  27.446  1.00  0.00     0.020 A 
ATOM     70  C   UNL A   1      47.104  35.625  28.729  1.00  0.00     0.054 A 
BRANCH  70  71
ATOM     71  S   UNL A   1      47.577  37.356  29.001  1.00  0.00     0.124 S 
ATOM     72  O   UNL A   1      48.687  37.514  28.065  1.00  0.00    -0.237 OA
ATOM     73  O   UNL A   1      46.356  38.081  28.657  1.00  0.00    -0.237 OA
ATOM     74  O   UNL A   1      47.944  37.396  30.415  1.00  0.00    -0.744 OA
ENDBRANCH  70  71
ENDBRANCH  51  65
BRANCH  52  75
ATOM     75  C   UNL A   1      43.313  23.552  26.882  1.00  0.00    -0.014 A 
ATOM     76  C   UNL A   1      43.116  23.081  25.573  1.00  0.00     0.010 A 
ATOM     77  C   UNL A   1      43.080  22.683  27.965  1.00  0.00     0.010 A 
ATOM     78  C   UNL A   1      42.689  21.767  25.352  1.00  0.00     0.020 A 
ATOM     79  C   UNL A   1      42.678  21.364  27.747  1.00  0.00     0.020 A 
ATOM     80  C   UNL A   1      42.475  20.916  26.441  1.00  0.00     0.054 A 
BRANCH  80  81
ATOM     81  S   UNL A   1      41.983  19.197  26.131  1.00  0.00     0.124 S 
ATOM     82  O   UNL A   1      42.844  18.834  25.010  1.00  0.00    -0.237 OA
ATOM     83  O   UNL A   1      42.289  18.545  27.402  1.00  0.00    -0.237 OA
ATOM     84  O   UNL A   1      40.559  19.302  25.821  1.00  0.00    -0.744 OA
ENDBRANCH  80  81
ENDBRANCH  52  75
BRANCH  64  85
ATOM     85  C   UNL A   1      49.382  26.851  25.925  1.00  0.00    -0.014 A 
ATOM     86  C   UNL A   1      49.807  27.199  24.631  1.00  0.00     0.010 A 
ATOM     87  C   UNL A   1      50.239  26.102  26.753  1.00  0.00     0.010 A 
ATOM     88  C   UNL A   1      51.056  26.782  24.164  1.00  0.00     0.020 A 
ATOM     89  C   UNL A   1      51.498  25.705  26.297  1.00  0.00     0.020 A 
ATOM     90  C   UNL A   1      51.893  26.035  24.999  1.00  0.00     0.054 A 
BRANCH  90  91
ATOM     91  S   UNL A   1      53.526  25.539  24.387  1.00  0.00     0.124 S 
ATOM     92  O   UNL A   1      53.457  25.937  22.983  1.00  0.00    -0.237 OA
ATOM     93  O   UNL A   1      54.435  26.325  25.218  1.00  0.00    -0.237 OA
ATOM     94  O   UNL A   1      53.563  24.098  24.626  1.00  0.00    -0.744 OA
ENDBRANCH  90  91
ENDBRANCH  64  85
ENDBRANCH  38  39
ENDBRANCH  31  33
ENDBRANCH  30  31
ENDBRANCH  29  30
ENDBRANCH   1  29
TORSDOF 20
ENDMDL
MODEL 3
REMARK VINA RESULT:     -10.3      1.558      2.774
REMARK SMILES O=C(/C=C/N[C@@H](Cc1c[nH]c2ccccc12)C(=O)OCCOC(=O)c1ccc(-c2c3nc(c(-c4ccc(S(=O)(=O)[O-])cc4)c4ccc([nH]4)c(-c4ccc(S(=O)(=O)[O-])cc4)c4nc(c(-c5ccc(S(=O)(=O)[O-])cc5)c5ccc2[nH]5)C=C4)C=C3)cc1)c1ccccc1
REMARK SMILES IDX 20 1 19 2 17 3 18 4 6 5 5 6 4 8 3 9 2 10 1 11 85 12 86 13
REMARK SMILES IDX 90 14 87 15 89 16 88 17 7 18 8 19 9 20 16 21 10 22 11 23
REMARK SMILES IDX 15 24 12 26 14 27 13 28 21 29 22 30 23 31 24 32 25 33 26 34
REMARK SMILES IDX 84 35 27 36 83 37 28 38 29 39 30 40 77 41 31 42 82 43 76 44
REMARK SMILES IDX 78 45 32 46 81 47 75 48 74 49 33 51 63 52 44 53 62 54 45 55
REMARK SMILES IDX 48 56 61 57 79 58 46 59 47 60 60 62 80 63 49 64 34 65 35 66
REMARK SMILES IDX 43 67 36 68 42 69 37 70 38 71 39 72 40 73 41 74 64 75 65 76
REMARK SMILES IDX 73 77 66 78 72 79 67 80 68 81 69 82 70 83 71 84 50 85 51 86
REMARK SMILES IDX 59 87 52 88 58 89 53 90 54 91 55 92 56 93 57 94
REMARK H PARENT 5 7 10 25 78 50 48 61
REMARK Flexibility Score: inf
ROOT
ATOM      1  C   UNL A   1      33.563  30.529  27.494  1.00  0.00     0.274 C 
ENDROOT
BRANCH   1   2
ATOM      2  O   UNL A   1      32.187  30.266  27.165  1.00  0.00    -0.461 OA
BRANCH   2   3
ATOM      3  C   UNL A   1      31.942  29.700  25.946  1.00  0.00     0.329 C 
ATOM      4  O   UNL A   1      31.505  30.298  24.969  1.00  0.00    -0.250 OA
BRANCH   3   5
ATOM      5  C   UNL A   1      32.299  28.205  25.929  1.00  0.00     0.194 C 
BRANCH   5   6
ATOM      6  N   UNL A   1      31.105  27.352  26.066  1.00  0.00    -0.378 N 
ATOM      7  H   UNL A   1      30.258  27.721  25.728  1.00  0.00     0.160 HD
BRANCH   6   8
ATOM      8  C   UNL A   1      31.048  26.096  26.615  1.00  0.00     0.082 C 
ATOM      9  C   UNL A   1      30.516  25.010  26.041  1.00  0.00     0.070 C 
BRANCH   9  10
ATOM     10  C   UNL A   1      30.459  23.677  26.696  1.00  0.00     0.187 C 
ATOM     11  O   UNL A   1      29.478  23.381  27.374  1.00  0.00    -0.289 OA
BRANCH  10  12
ATOM     12  C   UNL A   1      31.585  22.720  26.534  1.00  0.00     0.022 A 
ATOM     13  C   UNL A   1      32.670  22.703  27.419  1.00  0.00     0.012 A 
ATOM     14  C   UNL A   1      31.533  21.792  25.488  1.00  0.00     0.012 A 
ATOM     15  C   UNL A   1      33.718  21.805  27.219  1.00  0.00     0.001 A 
ATOM     16  C   UNL A   1      32.580  20.886  25.301  1.00  0.00     0.001 A 
ATOM     17  C   UNL A   1      33.676  20.900  26.162  1.00  0.00     0.000 A 
ENDBRANCH  10  12
ENDBRANCH   9  10
ENDBRANCH   6   8
ENDBRANCH   5   6
BRANCH   5  18
ATOM     18  C   UNL A   1      33.139  27.848  24.701  1.00  0.00     0.074 C 
BRANCH  18  19
ATOM     19  C   UNL A   1      33.752  26.478  24.711  1.00  0.00    -0.020 A 
ATOM     20  C   UNL A   1      34.640  25.972  25.640  1.00  0.00     0.087 A 
ATOM     21  C   UNL A   1      33.540  25.447  23.738  1.00  0.00     0.003 A 
ATOM     22  N   UNL A   1      34.939  24.684  25.295  1.00  0.00    -0.361 N 
ATOM     23  C   UNL A   1      34.295  24.341  24.130  1.00  0.00     0.046 A 
ATOM     24  C   UNL A   1      32.778  25.354  22.556  1.00  0.00     0.010 A 
ATOM     25  H   UNL A   1      35.531  24.088  25.806  1.00  0.00     0.166 HD
ATOM     26  C   UNL A   1      34.325  23.147  23.399  1.00  0.00     0.026 A 
ATOM     27  C   UNL A   1      32.804  24.171  21.807  1.00  0.00     0.001 A 
ATOM     28  C   UNL A   1      33.568  23.085  22.226  1.00  0.00     0.002 A 
ENDBRANCH  18  19
ENDBRANCH   5  18
ENDBRANCH   3   5
ENDBRANCH   2   3
ENDBRANCH   1   2
BRANCH   1  29
ATOM     29  C   UNL A   1      33.880  32.013  27.299  1.00  0.00     0.275 C 
BRANCH  29  30
ATOM     30  O   UNL A   1      33.163  32.817  28.252  1.00  0.00    -0.458 OA
BRANCH  30  31
ATOM     31  C   UNL A   1      33.823  33.916  28.691  1.00  0.00     0.338 C 
ATOM     32  O   UNL A   1      33.517  35.083  28.526  1.00  0.00    -0.246 OA
BRANCH  31  33
ATOM     33  C   UNL A   1      34.945  33.480  29.533  1.00  0.00     0.060 A 
ATOM     34  C   UNL A   1      36.214  33.993  29.259  1.00  0.00     0.016 A 
ATOM     35  C   UNL A   1      34.765  32.536  30.543  1.00  0.00     0.016 A 
ATOM     36  C   UNL A   1      37.314  33.563  29.992  1.00  0.00     0.010 A 
ATOM     37  C   UNL A   1      35.871  32.111  31.286  1.00  0.00     0.010 A 
ATOM     38  C   UNL A   1      37.155  32.612  31.007  1.00  0.00    -0.014 A 
BRANCH  38  39
ATOM     39  C   UNL A   1      38.340  32.126  31.755  1.00  0.00     0.031 A 
ATOM     40  C   UNL A   1      39.233  31.077  31.155  1.00  0.00     0.074 A 
ATOM     41  C   UNL A   1      38.626  32.649  32.963  1.00  0.00     0.049 A 
ATOM     42  N   UNL A   1      40.303  30.520  31.660  1.00  0.00    -0.248 NA
ATOM     43  C   UNL A   1      38.889  30.603  29.804  1.00  0.00     0.031 C 
ATOM     44  C   UNL A   1      37.860  33.705  33.630  1.00  0.00     0.029 A 
ATOM     45  N   UNL A   1      39.634  32.359  33.846  1.00  0.00    -0.354 N 
ATOM     46  C   UNL A   1      40.761  29.632  30.694  1.00  0.00     0.074 A 
ATOM     47  C   UNL A   1      39.847  29.716  29.575  1.00  0.00     0.031 C 
ATOM     48  C   UNL A   1      38.426  33.974  34.817  1.00  0.00     0.029 A 
ATOM     49  C   UNL A   1      39.560  33.076  35.017  1.00  0.00     0.049 A 
ATOM     50  H   UNL A   1      40.343  31.702  33.660  1.00  0.00     0.167 HD
ATOM     51  C   UNL A   1      41.842  28.817  30.737  1.00  0.00     0.031 A 
ATOM     52  C   UNL A   1      40.301  32.996  36.141  1.00  0.00     0.031 A 
ATOM     53  C   UNL A   1      42.722  28.700  31.869  1.00  0.00     0.049 A 
ATOM     54  C   UNL A   1      41.424  32.000  36.208  1.00  0.00     0.074 A 
ATOM     55  C   UNL A   1      43.837  27.894  32.014  1.00  0.00     0.029 A 
ATOM     56  N   UNL A   1      42.574  29.394  33.061  1.00  0.00    -0.354 N 
ATOM     57  N   UNL A   1      41.852  31.179  35.278  1.00  0.00    -0.248 NA
ATOM     58  C   UNL A   1      42.161  31.914  37.476  1.00  0.00     0.031 C 
ATOM     59  C   UNL A   1      44.329  28.058  33.313  1.00  0.00     0.029 A 
ATOM     60  C   UNL A   1      43.554  29.008  33.960  1.00  0.00     0.049 A 
ATOM     61  H   UNL A   1      41.875  30.063  33.241  1.00  0.00     0.167 HD
ATOM     62  C   UNL A   1      42.916  30.487  35.846  1.00  0.00     0.074 A 
ATOM     63  C   UNL A   1      43.077  30.999  37.192  1.00  0.00     0.031 C 
ATOM     64  C   UNL A   1      43.690  29.515  35.301  1.00  0.00     0.031 A 
BRANCH  51  65
ATOM     65  C   UNL A   1      42.097  27.944  29.538  1.00  0.00    -0.014 A 
ATOM     66  C   UNL A   1      43.158  28.212  28.654  1.00  0.00     0.010 A 
ATOM     67  C   UNL A   1      41.278  26.825  29.307  1.00  0.00     0.010 A 
ATOM     68  C   UNL A   1      43.373  27.394  27.541  1.00  0.00     0.020 A 
ATOM     69  C   UNL A   1      41.503  25.993  28.207  1.00  0.00     0.020 A 
ATOM     70  C   UNL A   1      42.539  26.293  27.322  1.00  0.00     0.054 A 
BRANCH  70  71
ATOM     71  S   UNL A   1      42.847  25.239  25.877  1.00  0.00     0.124 S 
ATOM     72  O   UNL A   1      42.122  24.022  26.234  1.00  0.00    -0.237 OA
ATOM     73  O   UNL A   1      42.271  26.016  24.783  1.00  0.00    -0.237 OA
ATOM     74  O   UNL A   1      44.303  25.110  25.847  1.00  0.00    -0.744 OA
ENDBRANCH  70  71
ENDBRANCH  51  65
BRANCH  52  75
ATOM     75  C   UNL A   1      39.965  33.853  37.310  1.00  0.00    -0.014 A 
ATOM     76  C   UNL A   1      40.366  35.198  37.356  1.00  0.00     0.010 A 
ATOM     77  C   UNL A   1      39.223  33.322  38.382  1.00  0.00     0.010 A 
ATOM     78  C   UNL A   1      40.036  35.997  38.456  1.00  0.00     0.020 A 
ATOM     79  C   UNL A   1      38.870  34.123  39.470  1.00  0.00     0.020 A 
ATOM     80  C   UNL A   1      39.288  35.454  39.506  1.00  0.00     0.054 A 
BRANCH  80  81
ATOM     81  S   UNL A   1      38.816  36.523  40.894  1.00  0.00     0.124 S 
ATOM     82  O   UNL A   1      38.364  37.728  40.207  1.00  0.00    -0.237 OA
ATOM     83  O   UNL A   1      37.774  35.741  41.556  1.00  0.00    -0.237 OA
ATOM     84  O   UNL A   1      40.056  36.660  41.654  1.00  0.00    -0.744 OA
ENDBRANCH  80  81
ENDBRANCH  52  75
BRANCH  64  85
ATOM     85  C   UNL A   1      44.789  28.951  36.158  1.00  0.00    -0.014 A 
ATOM     86  C   UNL A   1      44.567  27.827  36.973  1.00  0.00     0.010 A 
ATOM     87  C   UNL A   1      46.073  29.524  36.112  1.00  0.00     0.010 A 
ATOM     88  C   UNL A   1      45.604  27.304  37.750  1.00  0.00     0.020 A 
ATOM     89  C   UNL A   1      47.118  28.988  36.869  1.00  0.00     0.020 A 
ATOM     90  C   UNL A   1      46.873  27.889  37.694  1.00  0.00     0.054 A 
BRANCH  90  91
ATOM     91  S   UNL A   1      48.214  27.169  38.679  1.00  0.00     0.124 S 
ATOM     92  O   UNL A   1      47.722  27.351  40.042  1.00  0.00    -0.237 OA
ATOM     93  O   UNL A   1      48.256  25.787  38.206  1.00  0.00    -0.237 OA
ATOM     94  O   UNL A   1      49.378  27.977  38.322  1.00  0.00    -0.744 OA
ENDBRANCH  90  91
ENDBRANCH  64  85
ENDBRANCH  38  39
ENDBRANCH  31  33
ENDBRANCH  30  31
ENDBRANCH  29  30
ENDBRANCH   1  29
TORSDOF 20
ENDMDL
