MODEL 1
REMARK VINA RESULT:     -10.8      0.000      0.000
REMARK SMILES CC[C@](C)(NC(=O)N(C)Cc1cccc(C)c1)C(=O)OCCOC(=O)c1ccc(-c2c3nc(c(-c4ccc(S(=O)(=O)[O-])cc4)c4ccc([nH]4)c(-c4ccc(S(=O)(=O)[O-])cc4)c4nc(c(-c5ccc(S(=O)(=O)[O-])cc5)c5ccc2[nH]5)C=C4)C=C3)cc1
REMARK SMILES IDX 21 1 20 2 18 3 19 4 3 5 4 6 2 7 1 8 5 9 6 10 7 12 8 13 9 14
REMARK SMILES IDX 10 15 11 16 12 17 17 18 13 19 15 20 14 21 16 22 22 23 23 24
REMARK SMILES IDX 24 25 25 26 26 27 27 28 85 29 28 30 84 31 29 32 30 33 31 34
REMARK SMILES IDX 78 35 32 36 83 37 77 38 79 39 33 40 82 41 76 42 75 43 34 45
REMARK SMILES IDX 64 46 45 47 63 48 46 49 49 50 62 51 80 52 47 53 48 54 61 56
REMARK SMILES IDX 81 57 50 58 35 59 36 60 44 61 37 62 43 63 38 64 39 65 40 66
REMARK SMILES IDX 41 67 42 68 65 69 66 70 74 71 67 72 73 73 68 74 69 75 70 76
REMARK SMILES IDX 71 77 72 78 51 79 52 80 60 81 53 82 59 83 54 84 55 85 56 86
REMARK SMILES IDX 57 87 58 88
REMARK H PARENT 5 11 79 44 49 55
REMARK Flexibility Score: inf
ROOT
ATOM      1  C   UNL A   1      32.030  29.713  27.191  1.00  0.00     0.274 C 
ENDROOT
BRANCH   1   2
ATOM      2  O   UNL A   1      31.755  28.798  26.129  1.00  0.00    -0.460 OA
BRANCH   2   3
ATOM      3  C   UNL A   1      31.326  27.569  26.518  1.00  0.00     0.331 C 
ATOM      4  O   UNL A   1      31.176  27.277  27.685  1.00  0.00    -0.249 OA
BRANCH   3   5
ATOM      5  C   UNL A   1      31.205  26.553  25.366  1.00  0.00     0.136 C 
ATOM      6  C   UNL A   1      29.763  26.088  25.089  1.00  0.00     0.047 C 
BRANCH   5   7
ATOM      7  C   UNL A   1      31.967  25.294  25.946  1.00  0.00     0.037 C 
ATOM      8  C   UNL A   1      31.074  24.102  26.389  1.00  0.00     0.007 C 
ENDBRANCH   5   7
BRANCH   5   9
ATOM      9  N   UNL A   1      31.840  27.064  24.084  1.00  0.00    -0.322 N 
ATOM     10  C   UNL A   1      33.097  26.668  23.647  1.00  0.00     0.318 C 
ATOM     11  H   UNL A   1      31.334  27.706  23.535  1.00  0.00     0.166 HD
ATOM     12  O   UNL A   1      34.057  27.360  23.992  1.00  0.00    -0.249 OA
BRANCH  10  13
ATOM     13  N   UNL A   1      33.209  25.675  22.673  1.00  0.00    -0.324 N 
ATOM     14  C   UNL A   1      32.770  25.911  21.311  1.00  0.00     0.149 C 
BRANCH  13  15
ATOM     15  C   UNL A   1      34.167  24.541  22.913  1.00  0.00     0.156 C 
BRANCH  15  16
ATOM     16  C   UNL A   1      33.640  23.165  23.377  1.00  0.00    -0.028 A 
ATOM     17  C   UNL A   1      32.719  22.415  22.636  1.00  0.00     0.005 A 
ATOM     18  C   UNL A   1      34.061  22.612  24.613  1.00  0.00     0.009 A 
ATOM     19  C   UNL A   1      32.179  21.222  23.150  1.00  0.00     0.001 A 
ATOM     20  C   UNL A   1      33.424  21.498  25.196  1.00  0.00    -0.051 A 
ATOM     21  C   UNL A   1      32.503  20.783  24.435  1.00  0.00     0.003 A 
ATOM     22  C   UNL A   1      33.693  21.118  26.628  1.00  0.00     0.044 C 
ENDBRANCH  15  16
ENDBRANCH  13  15
ENDBRANCH  10  13
ENDBRANCH   5   9
ENDBRANCH   3   5
ENDBRANCH   2   3
ENDBRANCH   1   2
BRANCH   1  23
ATOM     23  C   UNL A   1      33.068  30.726  26.755  1.00  0.00     0.275 C 
BRANCH  23  24
ATOM     24  O   UNL A   1      34.334  30.519  27.455  1.00  0.00    -0.458 OA
BRANCH  24  25
ATOM     25  C   UNL A   1      35.264  29.538  27.583  1.00  0.00     0.338 C 
ATOM     26  O   UNL A   1      35.096  28.434  27.083  1.00  0.00    -0.246 OA
BRANCH  25  27
ATOM     27  C   UNL A   1      36.517  29.925  28.212  1.00  0.00     0.060 A 
ATOM     28  C   UNL A   1      36.815  29.323  29.436  1.00  0.00     0.016 A 
ATOM     29  C   UNL A   1      37.490  30.336  27.336  1.00  0.00     0.016 A 
ATOM     30  C   UNL A   1      38.080  28.791  29.609  1.00  0.00     0.010 A 
ATOM     31  C   UNL A   1      38.633  29.601  27.376  1.00  0.00     0.010 A 
ATOM     32  C   UNL A   1      38.931  28.816  28.504  1.00  0.00    -0.014 A 
BRANCH  32  33
ATOM     33  C   UNL A   1      40.288  28.285  28.506  1.00  0.00     0.031 A 
ATOM     34  C   UNL A   1      40.512  26.819  28.345  1.00  0.00     0.074 A 
ATOM     35  C   UNL A   1      41.137  29.317  28.739  1.00  0.00     0.049 A 
ATOM     36  N   UNL A   1      41.133  26.047  29.175  1.00  0.00    -0.248 NA
ATOM     37  C   UNL A   1      39.953  26.041  27.223  1.00  0.00     0.031 C 
ATOM     38  C   UNL A   1      42.561  29.431  28.916  1.00  0.00     0.029 A 
ATOM     39  N   UNL A   1      40.683  30.602  29.122  1.00  0.00    -0.354 N 
ATOM     40  C   UNL A   1      41.369  24.859  28.486  1.00  0.00     0.074 A 
ATOM     41  C   UNL A   1      40.394  24.798  27.441  1.00  0.00     0.031 C 
ATOM     42  C   UNL A   1      42.780  30.478  29.750  1.00  0.00     0.029 A 
ATOM     43  C   UNL A   1      41.477  31.033  30.157  1.00  0.00     0.049 A 
ATOM     44  H   UNL A   1      39.934  31.097  28.720  1.00  0.00     0.167 HD
ATOM     45  C   UNL A   1      42.596  24.262  28.518  1.00  0.00     0.031 A 
ATOM     46  C   UNL A   1      40.895  31.006  31.397  1.00  0.00     0.031 A 
ATOM     47  C   UNL A   1      43.506  25.125  29.254  1.00  0.00     0.049 A 
ATOM     48  C   UNL A   1      41.585  29.927  32.185  1.00  0.00     0.074 A 
ATOM     49  C   UNL A   1      44.353  26.126  28.804  1.00  0.00     0.029 A 
ATOM     50  N   UNL A   1      43.258  25.377  30.595  1.00  0.00    -0.354 N 
ATOM     51  N   UNL A   1      41.898  28.746  31.717  1.00  0.00    -0.248 NA
ATOM     52  C   UNL A   1      42.156  30.217  33.491  1.00  0.00     0.031 C 
ATOM     53  C   UNL A   1      44.523  27.046  29.868  1.00  0.00     0.029 A 
ATOM     54  C   UNL A   1      43.745  26.625  30.934  1.00  0.00     0.049 A 
ATOM     55  H   UNL A   1      42.805  24.758  31.212  1.00  0.00     0.167 HD
ATOM     56  C   UNL A   1      42.840  28.202  32.555  1.00  0.00     0.074 A 
ATOM     57  C   UNL A   1      42.928  29.137  33.668  1.00  0.00     0.031 C 
ATOM     58  C   UNL A   1      43.599  27.099  32.292  1.00  0.00     0.031 A 
BRANCH  45  59
ATOM     59  C   UNL A   1      43.047  23.205  27.530  1.00  0.00    -0.014 A 
ATOM     60  C   UNL A   1      42.388  21.958  27.497  1.00  0.00     0.010 A 
ATOM     61  C   UNL A   1      44.095  23.385  26.603  1.00  0.00     0.010 A 
ATOM     62  C   UNL A   1      42.773  20.927  26.629  1.00  0.00     0.020 A 
ATOM     63  C   UNL A   1      44.500  22.350  25.730  1.00  0.00     0.020 A 
ATOM     64  C   UNL A   1      43.833  21.125  25.752  1.00  0.00     0.054 A 
BRANCH  64  65
ATOM     65  S   UNL A   1      44.294  19.766  24.638  1.00  0.00     0.124 S 
ATOM     66  O   UNL A   1      45.501  19.237  25.271  1.00  0.00    -0.237 OA
ATOM     67  O   UNL A   1      43.123  18.896  24.702  1.00  0.00    -0.237 OA
ATOM     68  O   UNL A   1      44.510  20.425  23.353  1.00  0.00    -0.744 OA
ENDBRANCH  64  65
ENDBRANCH  45  59
BRANCH  46  69
ATOM     69  C   UNL A   1      39.432  31.405  31.526  1.00  0.00    -0.014 A 
ATOM     70  C   UNL A   1      38.670  30.881  32.606  1.00  0.00     0.010 A 
ATOM     71  C   UNL A   1      38.789  32.363  30.719  1.00  0.00     0.010 A 
ATOM     72  C   UNL A   1      37.396  31.367  32.941  1.00  0.00     0.020 A 
ATOM     73  C   UNL A   1      37.491  32.842  31.036  1.00  0.00     0.020 A 
ATOM     74  C   UNL A   1      36.817  32.363  32.164  1.00  0.00     0.054 A 
BRANCH  74  75
ATOM     75  S   UNL A   1      35.284  33.159  32.762  1.00  0.00     0.124 S 
ATOM     76  O   UNL A   1      35.457  34.538  32.313  1.00  0.00    -0.237 OA
ATOM     77  O   UNL A   1      34.243  32.408  32.060  1.00  0.00    -0.237 OA
ATOM     78  O   UNL A   1      35.347  32.955  34.206  1.00  0.00    -0.744 OA
ENDBRANCH  74  75
ENDBRANCH  46  69
BRANCH  58  79
ATOM     79  C   UNL A   1      44.406  26.385  33.333  1.00  0.00    -0.014 A 
ATOM     80  C   UNL A   1      43.816  25.583  34.316  1.00  0.00     0.010 A 
ATOM     81  C   UNL A   1      45.816  26.365  33.217  1.00  0.00     0.010 A 
ATOM     82  C   UNL A   1      44.603  24.870  35.216  1.00  0.00     0.020 A 
ATOM     83  C   UNL A   1      46.606  25.601  34.066  1.00  0.00     0.020 A 
ATOM     84  C   UNL A   1      45.992  24.889  35.087  1.00  0.00     0.054 A 
BRANCH  84  85
ATOM     85  S   UNL A   1      46.995  23.931  36.236  1.00  0.00     0.124 S 
ATOM     86  O   UNL A   1      48.111  23.527  35.383  1.00  0.00    -0.237 OA
ATOM     87  O   UNL A   1      47.321  24.904  37.276  1.00  0.00    -0.237 OA
ATOM     88  O   UNL A   1      46.101  22.855  36.655  1.00  0.00    -0.744 OA
ENDBRANCH  84  85
ENDBRANCH  58  79
ENDBRANCH  32  33
ENDBRANCH  25  27
ENDBRANCH  24  25
ENDBRANCH  23  24
ENDBRANCH   1  23
TORSDOF 19
ENDMDL
MODEL 2
REMARK VINA RESULT:     -10.4      1.875      2.674
REMARK SMILES CC[C@](C)(NC(=O)N(C)Cc1cccc(C)c1)C(=O)OCCOC(=O)c1ccc(-c2c3nc(c(-c4ccc(S(=O)(=O)[O-])cc4)c4ccc([nH]4)c(-c4ccc(S(=O)(=O)[O-])cc4)c4nc(c(-c5ccc(S(=O)(=O)[O-])cc5)c5ccc2[nH]5)C=C4)C=C3)cc1
REMARK SMILES IDX 21 1 20 2 18 3 19 4 3 5 4 6 2 7 1 8 5 9 6 10 7 12 8 13 9 14
REMARK SMILES IDX 10 15 11 16 12 17 17 18 13 19 15 20 14 21 16 22 22 23 23 24
REMARK SMILES IDX 24 25 25 26 26 27 27 28 85 29 28 30 84 31 29 32 30 33 31 34
REMARK SMILES IDX 78 35 32 36 83 37 77 38 79 39 33 40 82 41 76 42 75 43 34 45
REMARK SMILES IDX 64 46 45 47 63 48 46 49 49 50 62 51 80 52 47 53 48 54 61 56
REMARK SMILES IDX 81 57 50 58 35 59 36 60 44 61 37 62 43 63 38 64 39 65 40 66
REMARK SMILES IDX 41 67 42 68 65 69 66 70 74 71 67 72 73 73 68 74 69 75 70 76
REMARK SMILES IDX 71 77 72 78 51 79 52 80 60 81 53 82 59 83 54 84 55 85 56 86
REMARK SMILES IDX 57 87 58 88
REMARK H PARENT 5 11 79 44 49 55
REMARK Flexibility Score: inf
ROOT
ATOM      1  C   UNL A   1      32.639  30.463  26.882  1.00  0.00     0.274 C 
ENDROOT
BRANCH   1   2
ATOM      2  O   UNL A   1      32.411  30.041  25.536  1.00  0.00    -0.460 OA
BRANCH   2   3
ATOM      3  C   UNL A   1      31.739  28.869  25.402  1.00  0.00     0.331 C 
ATOM      4  O   UNL A   1      31.283  28.273  26.354  1.00  0.00    -0.249 OA
BRANCH   3   5
ATOM      5  C   UNL A   1      31.752  28.298  23.970  1.00  0.00     0.136 C 
ATOM      6  C   UNL A   1      32.933  28.787  23.111  1.00  0.00     0.047 C 
BRANCH   5   7
ATOM      7  C   UNL A   1      30.454  28.945  23.339  1.00  0.00     0.037 C 
ATOM      8  C   UNL A   1      29.190  28.043  23.305  1.00  0.00     0.007 C 
ENDBRANCH   5   7
BRANCH   5   9
ATOM      9  N   UNL A   1      31.697  26.781  23.960  1.00  0.00    -0.322 N 
ATOM     10  C   UNL A   1      32.487  25.996  23.130  1.00  0.00     0.318 C 
ATOM     11  H   UNL A   1      31.071  26.330  24.573  1.00  0.00     0.166 HD
ATOM     12  O   UNL A   1      32.015  25.677  22.038  1.00  0.00    -0.249 OA
BRANCH  10  13
ATOM     13  N   UNL A   1      33.653  25.415  23.633  1.00  0.00    -0.324 N 
ATOM     14  C   UNL A   1      34.011  25.548  25.033  1.00  0.00     0.149 C 
BRANCH  13  15
ATOM     15  C   UNL A   1      34.296  24.306  22.849  1.00  0.00     0.156 C 
BRANCH  15  16
ATOM     16  C   UNL A   1      34.624  22.960  23.534  1.00  0.00    -0.028 A 
ATOM     17  C   UNL A   1      33.637  22.090  24.013  1.00  0.00     0.005 A 
ATOM     18  C   UNL A   1      35.971  22.562  23.731  1.00  0.00     0.009 A 
ATOM     19  C   UNL A   1      33.982  20.932  24.732  1.00  0.00     0.001 A 
ATOM     20  C   UNL A   1      36.323  21.484  24.568  1.00  0.00    -0.051 A 
ATOM     21  C   UNL A   1      35.314  20.647  25.037  1.00  0.00     0.003 A 
ATOM     22  C   UNL A   1      37.753  21.271  24.990  1.00  0.00     0.044 C 
ENDBRANCH  15  16
ENDBRANCH  13  15
ENDBRANCH  10  13
ENDBRANCH   5   9
ENDBRANCH   3   5
ENDBRANCH   2   3
ENDBRANCH   1   2
BRANCH   1  23
ATOM     23  C   UNL A   1      34.103  30.305  27.240  1.00  0.00     0.275 C 
BRANCH  23  24
ATOM     24  O   UNL A   1      34.501  31.262  28.269  1.00  0.00    -0.458 OA
BRANCH  24  25
ATOM     25  C   UNL A   1      35.324  32.337  28.379  1.00  0.00     0.338 C 
ATOM     26  O   UNL A   1      35.116  33.365  27.749  1.00  0.00    -0.246 OA
BRANCH  25  27
ATOM     27  C   UNL A   1      36.364  32.244  29.392  1.00  0.00     0.060 A 
ATOM     28  C   UNL A   1      36.427  31.052  30.115  1.00  0.00     0.016 A 
ATOM     29  C   UNL A   1      37.470  33.017  29.144  1.00  0.00     0.016 A 
ATOM     30  C   UNL A   1      37.661  30.445  30.262  1.00  0.00     0.010 A 
ATOM     31  C   UNL A   1      38.634  32.321  29.044  1.00  0.00     0.010 A 
ATOM     32  C   UNL A   1      38.736  31.029  29.590  1.00  0.00    -0.014 A 
BRANCH  32  33
ATOM     33  C   UNL A   1      40.098  30.512  29.621  1.00  0.00     0.031 A 
ATOM     34  C   UNL A   1      40.369  29.106  29.201  1.00  0.00     0.074 A 
ATOM     35  C   UNL A   1      40.897  31.481  30.133  1.00  0.00     0.049 A 
ATOM     36  N   UNL A   1      40.925  28.189  29.921  1.00  0.00    -0.248 NA
ATOM     37  C   UNL A   1      39.937  28.561  27.900  1.00  0.00     0.031 C 
ATOM     38  C   UNL A   1      42.295  31.563  30.468  1.00  0.00     0.029 A 
ATOM     39  N   UNL A   1      40.380  32.664  30.713  1.00  0.00    -0.354 N 
ATOM     40  C   UNL A   1      41.252  27.160  29.041  1.00  0.00     0.074 A 
ATOM     41  C   UNL A   1      40.383  27.302  27.914  1.00  0.00     0.031 C 
ATOM     42  C   UNL A   1      42.410  32.427  31.508  1.00  0.00     0.029 A 
ATOM     43  C   UNL A   1      41.062  32.887  31.884  1.00  0.00     0.049 A 
ATOM     44  H   UNL A   1      39.662  33.226  30.343  1.00  0.00     0.167 HD
ATOM     45  C   UNL A   1      42.484  26.572  29.077  1.00  0.00     0.031 A 
ATOM     46  C   UNL A   1      40.365  32.616  33.032  1.00  0.00     0.031 A 
ATOM     47  C   UNL A   1      43.299  27.277  30.052  1.00  0.00     0.049 A 
ATOM     48  C   UNL A   1      41.000  31.406  33.659  1.00  0.00     0.074 A 
ATOM     49  C   UNL A   1      44.162  28.349  29.891  1.00  0.00     0.029 A 
ATOM     50  N   UNL A   1      42.919  27.260  31.385  1.00  0.00    -0.354 N 
ATOM     51  N   UNL A   1      41.383  30.340  33.003  1.00  0.00    -0.248 NA
ATOM     52  C   UNL A   1      41.437  31.436  35.046  1.00  0.00     0.031 C 
ATOM     53  C   UNL A   1      44.210  29.044  31.125  1.00  0.00     0.029 A 
ATOM     54  C   UNL A   1      43.343  28.419  32.007  1.00  0.00     0.049 A 
ATOM     55  H   UNL A   1      42.422  26.531  31.823  1.00  0.00     0.167 HD
ATOM     56  C   UNL A   1      42.252  29.645  33.807  1.00  0.00     0.074 A 
ATOM     57  C   UNL A   1      42.213  30.344  35.085  1.00  0.00     0.031 C 
ATOM     58  C   UNL A   1      43.057  28.618  33.411  1.00  0.00     0.031 A 
BRANCH  45  59
ATOM     59  C   UNL A   1      43.050  25.730  27.951  1.00  0.00    -0.014 A 
ATOM     60  C   UNL A   1      42.777  24.346  27.911  1.00  0.00     0.010 A 
ATOM     61  C   UNL A   1      43.839  26.244  26.900  1.00  0.00     0.010 A 
ATOM     62  C   UNL A   1      43.292  23.507  26.915  1.00  0.00     0.020 A 
ATOM     63  C   UNL A   1      44.374  25.405  25.896  1.00  0.00     0.020 A 
ATOM     64  C   UNL A   1      44.096  24.039  25.914  1.00  0.00     0.054 A 
BRANCH  64  65
ATOM     65  S   UNL A   1      44.738  22.916  24.638  1.00  0.00     0.124 S 
ATOM     66  O   UNL A   1      45.263  21.806  25.432  1.00  0.00    -0.237 OA
ATOM     67  O   UNL A   1      43.543  22.613  23.854  1.00  0.00    -0.237 OA
ATOM     68  O   UNL A   1      45.749  23.712  23.948  1.00  0.00    -0.744 OA
ENDBRANCH  64  65
ENDBRANCH  45  59
BRANCH  46  69
ATOM     69  C   UNL A   1      38.887  32.977  33.092  1.00  0.00    -0.014 A 
ATOM     70  C   UNL A   1      38.482  34.281  32.695  1.00  0.00     0.010 A 
ATOM     71  C   UNL A   1      37.854  32.072  33.400  1.00  0.00     0.010 A 
ATOM     72  C   UNL A   1      37.137  34.629  32.495  1.00  0.00     0.020 A 
ATOM     73  C   UNL A   1      36.490  32.423  33.224  1.00  0.00     0.020 A 
ATOM     74  C   UNL A   1      36.142  33.689  32.742  1.00  0.00     0.054 A 
BRANCH  74  75
ATOM     75  S   UNL A   1      34.430  34.074  32.231  1.00  0.00     0.124 S 
ATOM     76  O   UNL A   1      34.623  34.615  30.888  1.00  0.00    -0.237 OA
ATOM     77  O   UNL A   1      33.784  32.763  32.281  1.00  0.00    -0.237 OA
ATOM     78  O   UNL A   1      33.992  35.034  33.239  1.00  0.00    -0.744 OA
ENDBRANCH  74  75
ENDBRANCH  46  69
BRANCH  58  79
ATOM     79  C   UNL A   1      43.777  27.716  34.366  1.00  0.00    -0.014 A 
ATOM     80  C   UNL A   1      45.132  27.880  34.673  1.00  0.00     0.010 A 
ATOM     81  C   UNL A   1      43.033  26.782  35.125  1.00  0.00     0.010 A 
ATOM     82  C   UNL A   1      45.746  27.073  35.625  1.00  0.00     0.020 A 
ATOM     83  C   UNL A   1      43.621  26.022  36.127  1.00  0.00     0.020 A 
ATOM     84  C   UNL A   1      44.987  26.146  36.342  1.00  0.00     0.054 A 
BRANCH  84  85
ATOM     85  S   UNL A   1      45.790  25.136  37.599  1.00  0.00     0.124 S 
ATOM     86  O   UNL A   1      44.664  24.357  38.109  1.00  0.00    -0.237 OA
ATOM     87  O   UNL A   1      46.778  24.383  36.831  1.00  0.00    -0.237 OA
ATOM     88  O   UNL A   1      46.346  26.120  38.524  1.00  0.00    -0.744 OA
ENDBRANCH  84  85
ENDBRANCH  58  79
ENDBRANCH  32  33
ENDBRANCH  25  27
ENDBRANCH  24  25
ENDBRANCH  23  24
ENDBRANCH   1  23
TORSDOF 19
ENDMDL
MODEL 3
REMARK VINA RESULT:     -10.1      1.697      2.562
REMARK SMILES CC[C@](C)(NC(=O)N(C)Cc1cccc(C)c1)C(=O)OCCOC(=O)c1ccc(-c2c3nc(c(-c4ccc(S(=O)(=O)[O-])cc4)c4ccc([nH]4)c(-c4ccc(S(=O)(=O)[O-])cc4)c4nc(c(-c5ccc(S(=O)(=O)[O-])cc5)c5ccc2[nH]5)C=C4)C=C3)cc1
REMARK SMILES IDX 21 1 20 2 18 3 19 4 3 5 4 6 2 7 1 8 5 9 6 10 7 12 8 13 9 14
REMARK SMILES IDX 10 15 11 16 12 17 17 18 13 19 15 20 14 21 16 22 22 23 23 24
REMARK SMILES IDX 24 25 25 26 26 27 27 28 85 29 28 30 84 31 29 32 30 33 31 34
REMARK SMILES IDX 78 35 32 36 83 37 77 38 79 39 33 40 82 41 76 42 75 43 34 45
REMARK SMILES IDX 64 46 45 47 63 48 46 49 49 50 62 51 80 52 47 53 48 54 61 56
REMARK SMILES IDX 81 57 50 58 35 59 36 60 44 61 37 62 43 63 38 64 39 65 40 66
REMARK SMILES IDX 41 67 42 68 65 69 66 70 74 71 67 72 73 73 68 74 69 75 70 76
REMARK SMILES IDX 71 77 72 78 51 79 52 80 60 81 53 82 59 83 54 84 55 85 56 86
REMARK SMILES IDX 57 87 58 88
REMARK H PARENT 5 11 79 44 49 55
REMARK Flexibility Score: inf
ROOT
ATOM      1  C   UNL A   1      33.922  30.096  27.471  1.00  0.00     0.274 C 
ENDROOT
BRANCH   1   2
ATOM      2  O   UNL A   1      33.930  29.696  26.099  1.00  0.00    -0.460 OA
BRANCH   2   3
ATOM      3  C   UNL A   1      32.718  29.364  25.585  1.00  0.00     0.331 C 
ATOM      4  O   UNL A   1      31.756  30.097  25.671  1.00  0.00    -0.249 OA
BRANCH   3   5
ATOM      5  C   UNL A   1      32.642  27.927  25.034  1.00  0.00     0.136 C 
ATOM      6  C   UNL A   1      33.667  27.626  23.924  1.00  0.00     0.047 C 
BRANCH   5   7
ATOM      7  C   UNL A   1      31.223  27.907  24.337  1.00  0.00     0.037 C 
ATOM      8  C   UNL A   1      31.199  27.445  22.854  1.00  0.00     0.007 C 
ENDBRANCH   5   7
BRANCH   5   9
ATOM      9  N   UNL A   1      32.752  26.886  26.136  1.00  0.00    -0.322 N 
ATOM     10  C   UNL A   1      31.921  25.777  26.220  1.00  0.00     0.318 C 
ATOM     11  H   UNL A   1      33.447  27.003  26.823  1.00  0.00     0.166 HD
ATOM     12  O   UNL A   1      30.899  25.889  26.900  1.00  0.00    -0.249 OA
BRANCH  10  13
ATOM     13  N   UNL A   1      32.367  24.542  25.747  1.00  0.00    -0.324 N 
ATOM     14  C   UNL A   1      31.860  23.301  26.301  1.00  0.00     0.149 C 
BRANCH  13  15
ATOM     15  C   UNL A   1      33.023  24.488  24.395  1.00  0.00     0.156 C 
BRANCH  15  16
ATOM     16  C   UNL A   1      34.485  24.007  24.261  1.00  0.00    -0.028 A 
ATOM     17  C   UNL A   1      34.920  23.177  23.221  1.00  0.00     0.005 A 
ATOM     18  C   UNL A   1      35.456  24.377  25.226  1.00  0.00     0.009 A 
ATOM     19  C   UNL A   1      36.232  22.670  23.201  1.00  0.00     0.001 A 
ATOM     20  C   UNL A   1      36.724  23.765  25.292  1.00  0.00    -0.051 A 
ATOM     21  C   UNL A   1      37.118  22.933  24.247  1.00  0.00     0.003 A 
ATOM     22  C   UNL A   1      37.613  23.960  26.492  1.00  0.00     0.044 C 
ENDBRANCH  15  16
ENDBRANCH  13  15
ENDBRANCH  10  13
ENDBRANCH   5   9
ENDBRANCH   3   5
ENDBRANCH   2   3
ENDBRANCH   1   2
BRANCH   1  23
ATOM     23  C   UNL A   1      34.851  31.274  27.679  1.00  0.00     0.275 C 
BRANCH  23  24
ATOM     24  O   UNL A   1      36.184  30.832  28.081  1.00  0.00    -0.458 OA
BRANCH  24  25
ATOM     25  C   UNL A   1      36.886  29.670  28.129  1.00  0.00     0.338 C 
ATOM     26  O   UNL A   1      36.581  28.713  27.430  1.00  0.00    -0.246 OA
BRANCH  25  27
ATOM     27  C   UNL A   1      38.095  29.688  28.938  1.00  0.00     0.060 A 
ATOM     28  C   UNL A   1      38.176  28.744  29.963  1.00  0.00     0.016 A 
ATOM     29  C   UNL A   1      39.203  30.175  28.292  1.00  0.00     0.016 A 
ATOM     30  C   UNL A   1      39.341  28.007  30.078  1.00  0.00     0.010 A 
ATOM     31  C   UNL A   1      40.240  29.298  28.213  1.00  0.00     0.010 A 
ATOM     32  C   UNL A   1      40.312  28.204  29.095  1.00  0.00    -0.014 A 
BRANCH  32  33
ATOM     33  C   UNL A   1      41.587  27.502  29.054  1.00  0.00     0.031 A 
ATOM     34  C   UNL A   1      41.632  26.066  28.650  1.00  0.00     0.074 A 
ATOM     35  C   UNL A   1      42.546  28.356  29.491  1.00  0.00     0.049 A 
ATOM     36  N   UNL A   1      42.101  25.090  29.357  1.00  0.00    -0.248 NA
ATOM     37  C   UNL A   1      41.045  25.568  27.392  1.00  0.00     0.031 C 
ATOM     38  C   UNL A   1      43.960  28.246  29.736  1.00  0.00     0.029 A 
ATOM     39  N   UNL A   1      42.238  29.609  30.074  1.00  0.00    -0.354 N 
ATOM     40  C   UNL A   1      42.223  24.013  28.482  1.00  0.00     0.074 A 
ATOM     41  C   UNL A   1      41.311  24.258  27.409  1.00  0.00     0.031 C 
ATOM     42  C   UNL A   1      44.262  29.100  30.746  1.00  0.00     0.029 A 
ATOM     43  C   UNL A   1      43.018  29.751  31.195  1.00  0.00     0.049 A 
ATOM     44  H   UNL A   1      41.582  30.261  29.736  1.00  0.00     0.167 HD
ATOM     45  C   UNL A   1      43.361  23.258  28.455  1.00  0.00     0.031 A 
ATOM     46  C   UNL A   1      42.366  29.597  32.390  1.00  0.00     0.031 A 
ATOM     47  C   UNL A   1      44.328  23.855  29.361  1.00  0.00     0.049 A 
ATOM     48  C   UNL A   1      42.866  28.319  33.005  1.00  0.00     0.074 A 
ATOM     49  C   UNL A   1      45.320  24.793  29.121  1.00  0.00     0.029 A 
ATOM     50  N   UNL A   1      44.037  23.912  30.715  1.00  0.00    -0.354 N 
ATOM     51  N   UNL A   1      43.053  27.201  32.352  1.00  0.00    -0.248 NA
ATOM     52  C   UNL A   1      43.392  28.308  34.361  1.00  0.00     0.031 C 
ATOM     53  C   UNL A   1      45.544  25.493  30.333  1.00  0.00     0.029 A 
ATOM     54  C   UNL A   1      44.658  25.009  31.282  1.00  0.00     0.049 A 
ATOM     55  H   UNL A   1      43.473  23.267  31.200  1.00  0.00     0.167 HD
ATOM     56  C   UNL A   1      43.867  26.403  33.117  1.00  0.00     0.074 A 
ATOM     57  C   UNL A   1      44.009  27.119  34.377  1.00  0.00     0.031 C 
ATOM     58  C   UNL A   1      44.494  25.266  32.696  1.00  0.00     0.031 A 
BRANCH  45  59
ATOM     59  C   UNL A   1      43.730  22.328  27.317  1.00  0.00    -0.014 A 
ATOM     60  C   UNL A   1      42.933  21.193  27.059  1.00  0.00     0.010 A 
ATOM     61  C   UNL A   1      44.833  22.528  26.459  1.00  0.00     0.010 A 
ATOM     62  C   UNL A   1      43.234  20.278  26.041  1.00  0.00     0.020 A 
ATOM     63  C   UNL A   1      45.154  21.607  25.437  1.00  0.00     0.020 A 
ATOM     64  C   UNL A   1      44.349  20.485  25.237  1.00  0.00     0.054 A 
BRANCH  64  65
ATOM     65  S   UNL A   1      44.699  19.279  23.924  1.00  0.00     0.124 S 
ATOM     66  O   UNL A   1      44.440  20.051  22.711  1.00  0.00    -0.237 OA
ATOM     67  O   UNL A   1      46.100  18.947  24.167  1.00  0.00    -0.237 OA
ATOM     68  O   UNL A   1      43.751  18.198  24.181  1.00  0.00    -0.744 OA
ENDBRANCH  64  65
ENDBRANCH  45  59
BRANCH  46  69
ATOM     69  C   UNL A   1      40.961  30.163  32.534  1.00  0.00    -0.014 A 
ATOM     70  C   UNL A   1      40.173  29.772  33.651  1.00  0.00     0.010 A 
ATOM     71  C   UNL A   1      40.408  31.155  31.701  1.00  0.00     0.010 A 
ATOM     72  C   UNL A   1      38.970  30.411  33.992  1.00  0.00     0.020 A 
ATOM     73  C   UNL A   1      39.181  31.790  32.025  1.00  0.00     0.020 A 
ATOM     74  C   UNL A   1      38.487  31.435  33.186  1.00  0.00     0.054 A 
BRANCH  74  75
ATOM     75  S   UNL A   1      37.068  32.421  33.783  1.00  0.00     0.124 S 
ATOM     76  O   UNL A   1      37.060  32.116  35.211  1.00  0.00    -0.237 OA
ATOM     77  O   UNL A   1      37.469  33.787  33.447  1.00  0.00    -0.237 OA
ATOM     78  O   UNL A   1      35.947  31.884  33.018  1.00  0.00    -0.744 OA
ENDBRANCH  74  75
ENDBRANCH  46  69
BRANCH  58  79
ATOM     79  C   UNL A   1      45.141  24.286  33.625  1.00  0.00    -0.014 A 
ATOM     80  C   UNL A   1      44.473  23.152  34.100  1.00  0.00     0.010 A 
ATOM     81  C   UNL A   1      46.525  24.402  33.893  1.00  0.00     0.010 A 
ATOM     82  C   UNL A   1      45.133  22.222  34.897  1.00  0.00     0.020 A 
ATOM     83  C   UNL A   1      47.208  23.443  34.629  1.00  0.00     0.020 A 
ATOM     84  C   UNL A   1      46.495  22.378  35.160  1.00  0.00     0.054 A 
BRANCH  84  85
ATOM     85  S   UNL A   1      47.343  21.144  36.163  1.00  0.00     0.124 S 
ATOM     86  O   UNL A   1      46.622  19.927  35.798  1.00  0.00    -0.237 OA
ATOM     87  O   UNL A   1      48.721  21.225  35.682  1.00  0.00    -0.237 OA
ATOM     88  O   UNL A   1      47.137  21.614  37.529  1.00  0.00    -0.744 OA
ENDBRANCH  84  85
ENDBRANCH  58  79
ENDBRANCH  32  33
ENDBRANCH  25  27
ENDBRANCH  24  25
ENDBRANCH  23  24
ENDBRANCH   1  23
TORSDOF 19
ENDMDL
