MODEL 1
REMARK VINA RESULT:     -11.0      0.000      0.000
REMARK SMILES O=C(Cc1ccn[nH]1)NC[C@H]1CCCC[C@H]1C(=O)OCCOC(=O)c1ccc(-c2c3nc(c(-c4ccc(S(=O)(=O)[O-])cc4)c4ccc([nH]4)c(-c4ccc(S(=O)(=O)[O-])cc4)c4nc(c(-c5ccc(S(=O)(=O)[O-])cc5)c5ccc2[nH]5)C=C4)C=C3)cc1
REMARK SMILES IDX 20 1 19 2 17 3 18 4 16 5 11 6 12 7 13 8 15 9 14 10 10 11
REMARK SMILES IDX 9 12 1 13 2 14 3 16 4 17 5 18 8 19 6 20 7 21 21 23 22 24
REMARK SMILES IDX 23 25 24 26 25 27 26 28 84 29 27 30 83 31 28 32 29 33 30 34
REMARK SMILES IDX 77 35 31 36 82 37 76 38 78 39 32 40 81 41 75 42 74 43 33 45
REMARK SMILES IDX 63 46 44 47 62 48 45 49 48 50 61 51 79 52 46 53 47 54 60 56
REMARK SMILES IDX 80 57 49 58 34 59 35 60 43 61 36 62 42 63 37 64 38 65 39 66
REMARK SMILES IDX 40 67 41 68 64 69 65 70 73 71 66 72 72 73 67 74 68 75 69 76
REMARK SMILES IDX 70 77 71 78 50 79 51 80 59 81 52 82 58 83 53 84 54 85 55 86
REMARK SMILES IDX 56 87 57 88
REMARK H PARENT 9 15 8 22 78 44 48 55
REMARK Flexibility Score: inf
ROOT
ATOM      1  C   UNL A   1      32.926  29.929  27.258  1.00  0.00     0.274 C 
ENDROOT
BRANCH   1   2
ATOM      2  O   UNL A   1      32.792  28.667  26.579  1.00  0.00    -0.462 OA
BRANCH   2   3
ATOM      3  C   UNL A   1      31.918  27.775  27.098  1.00  0.00     0.309 C 
ATOM      4  O   UNL A   1      31.117  28.023  27.991  1.00  0.00    -0.252 OA
BRANCH   3   5
ATOM      5  C   UNL A   1      32.029  26.391  26.474  1.00  0.00     0.104 C 
ATOM      6  C   UNL A   1      30.966  25.991  25.423  1.00  0.00     0.022 C 
ATOM      7  C   UNL A   1      31.153  24.498  25.074  1.00  0.00     0.006 C 
ATOM      8  C   UNL A   1      32.581  24.165  24.637  1.00  0.00     0.000 C 
ATOM      9  C   UNL A   1      33.455  26.110  26.000  1.00  0.00     0.016 C 
ATOM     10  C   UNL A   1      33.617  24.630  25.657  1.00  0.00     0.001 C 
BRANCH   6  11
ATOM     11  C   UNL A   1      30.968  26.840  24.132  1.00  0.00     0.120 C 
BRANCH  11  12
ATOM     12  N   UNL A   1      29.713  27.558  23.991  1.00  0.00    -0.355 N 
ATOM     13  O   UNL A   1      30.193  28.560  21.981  1.00  0.00    -0.275 OA
ATOM     14  C   UNL A   1      29.432  28.386  22.929  1.00  0.00     0.226 C 
ATOM     15  H   UNL A   1      29.030  27.448  24.691  1.00  0.00     0.163 HD
BRANCH  14  16
ATOM     16  C   UNL A   1      28.024  28.964  22.949  1.00  0.00     0.155 C 
BRANCH  16  17
ATOM     17  C   UNL A   1      27.990  30.307  22.290  1.00  0.00     0.044 A 
ATOM     18  C   UNL A   1      28.016  31.578  22.823  1.00  0.00     0.045 A 
ATOM     19  N   UNL A   1      27.934  30.484  20.930  1.00  0.00    -0.282 N 
ATOM     20  C   UNL A   1      27.944  32.439  21.713  1.00  0.00     0.135 A 
ATOM     21  N   UNL A   1      27.886  31.774  20.558  1.00  0.00    -0.184 NA
ATOM     22  H   UNL A   1      27.929  29.738  20.288  1.00  0.00     0.190 HD
ENDBRANCH  16  17
ENDBRANCH  14  16
ENDBRANCH  11  12
ENDBRANCH   6  11
ENDBRANCH   3   5
ENDBRANCH   2   3
ENDBRANCH   1   2
BRANCH   1  23
ATOM     23  C   UNL A   1      34.393  30.357  27.304  1.00  0.00     0.275 C 
BRANCH  23  24
ATOM     24  O   UNL A   1      35.133  29.552  28.240  1.00  0.00    -0.458 OA
BRANCH  24  25
ATOM     25  C   UNL A   1      35.973  30.227  29.058  1.00  0.00     0.338 C 
ATOM     26  O   UNL A   1      35.685  31.044  29.916  1.00  0.00    -0.246 OA
BRANCH  25  27
ATOM     27  C   UNL A   1      37.342  29.740  28.830  1.00  0.00     0.060 A 
ATOM     28  C   UNL A   1      38.098  29.329  29.929  1.00  0.00     0.016 A 
ATOM     29  C   UNL A   1      37.895  29.741  27.549  1.00  0.00     0.016 A 
ATOM     30  C   UNL A   1      39.418  28.919  29.757  1.00  0.00     0.010 A 
ATOM     31  C   UNL A   1      39.219  29.325  27.376  1.00  0.00     0.010 A 
ATOM     32  C   UNL A   1      39.992  28.919  28.480  1.00  0.00    -0.014 A 
BRANCH  32  33
ATOM     33  C   UNL A   1      41.414  28.539  28.303  1.00  0.00     0.031 A 
ATOM     34  C   UNL A   1      42.481  29.595  28.380  1.00  0.00     0.074 A 
ATOM     35  C   UNL A   1      41.746  27.254  28.082  1.00  0.00     0.049 A 
ATOM     36  N   UNL A   1      43.763  29.490  28.147  1.00  0.00    -0.248 NA
ATOM     37  C   UNL A   1      42.047  30.947  28.771  1.00  0.00     0.031 C 
ATOM     38  C   UNL A   1      40.805  26.133  28.034  1.00  0.00     0.029 A 
ATOM     39  N   UNL A   1      42.968  26.674  27.850  1.00  0.00    -0.354 N 
ATOM     40  C   UNL A   1      44.290  30.761  28.348  1.00  0.00     0.074 A 
ATOM     41  C   UNL A   1      43.185  31.625  28.705  1.00  0.00     0.031 C 
ATOM     42  C   UNL A   1      41.484  25.002  27.778  1.00  0.00     0.029 A 
ATOM     43  C   UNL A   1      42.898  25.324  27.600  1.00  0.00     0.049 A 
ATOM     44  H   UNL A   1      43.814  27.177  27.862  1.00  0.00     0.167 HD
ATOM     45  C   UNL A   1      45.578  31.168  28.247  1.00  0.00     0.031 A 
ATOM     46  C   UNL A   1      43.857  24.452  27.234  1.00  0.00     0.031 A 
ATOM     47  C   UNL A   1      46.672  30.307  27.883  1.00  0.00     0.049 A 
ATOM     48  C   UNL A   1      45.270  24.944  27.065  1.00  0.00     0.074 A 
ATOM     49  C   UNL A   1      48.008  30.630  27.730  1.00  0.00     0.029 A 
ATOM     50  N   UNL A   1      46.556  28.950  27.623  1.00  0.00    -0.354 N 
ATOM     51  N   UNL A   1      45.746  26.154  27.235  1.00  0.00    -0.248 NA
ATOM     52  C   UNL A   1      46.274  23.951  26.655  1.00  0.00     0.031 C 
ATOM     53  C   UNL A   1      48.696  29.475  27.343  1.00  0.00     0.029 A 
ATOM     54  C   UNL A   1      47.795  28.424  27.302  1.00  0.00     0.049 A 
ATOM     55  H   UNL A   1      45.717  28.437  27.661  1.00  0.00     0.167 HD
ATOM     56  C   UNL A   1      47.109  26.064  26.971  1.00  0.00     0.074 A 
ATOM     57  C   UNL A   1      47.382  24.679  26.648  1.00  0.00     0.031 C 
ATOM     58  C   UNL A   1      48.048  27.040  26.989  1.00  0.00     0.031 A 
BRANCH  45  59
ATOM     59  C   UNL A   1      45.870  32.619  28.510  1.00  0.00    -0.014 A 
ATOM     60  C   UNL A   1      46.231  33.063  29.794  1.00  0.00     0.010 A 
ATOM     61  C   UNL A   1      45.830  33.545  27.450  1.00  0.00     0.010 A 
ATOM     62  C   UNL A   1      46.520  34.412  30.021  1.00  0.00     0.020 A 
ATOM     63  C   UNL A   1      46.139  34.890  27.668  1.00  0.00     0.020 A 
ATOM     64  C   UNL A   1      46.469  35.317  28.956  1.00  0.00     0.054 A 
BRANCH  64  65
ATOM     65  S   UNL A   1      46.876  37.058  29.271  1.00  0.00     0.124 S 
ATOM     66  O   UNL A   1      48.208  37.166  28.681  1.00  0.00    -0.237 OA
ATOM     67  O   UNL A   1      45.815  37.769  28.561  1.00  0.00    -0.237 OA
ATOM     68  O   UNL A   1      46.828  37.167  30.726  1.00  0.00    -0.744 OA
ENDBRANCH  64  65
ENDBRANCH  45  59
BRANCH  46  69
ATOM     69  C   UNL A   1      43.507  23.033  26.953  1.00  0.00    -0.014 A 
ATOM     70  C   UNL A   1      42.770  22.274  27.878  1.00  0.00     0.010 A 
ATOM     71  C   UNL A   1      43.932  22.427  25.755  1.00  0.00     0.010 A 
ATOM     72  C   UNL A   1      42.484  20.930  27.623  1.00  0.00     0.020 A 
ATOM     73  C   UNL A   1      43.625  21.091  25.484  1.00  0.00     0.020 A 
ATOM     74  C   UNL A   1      42.917  20.346  26.428  1.00  0.00     0.054 A 
BRANCH  74  75
ATOM     75  S   UNL A   1      42.512  18.608  26.098  1.00  0.00     0.124 S 
ATOM     76  O   UNL A   1      43.441  18.281  25.021  1.00  0.00    -0.237 OA
ATOM     77  O   UNL A   1      42.781  17.967  27.384  1.00  0.00    -0.237 OA
ATOM     78  O   UNL A   1      41.101  18.655  25.718  1.00  0.00    -0.744 OA
ENDBRANCH  74  75
ENDBRANCH  46  69
BRANCH  58  79
ATOM     79  C   UNL A   1      49.467  26.639  26.689  1.00  0.00    -0.014 A 
ATOM     80  C   UNL A   1      49.971  26.679  25.378  1.00  0.00     0.010 A 
ATOM     81  C   UNL A   1      50.318  26.265  27.745  1.00  0.00     0.010 A 
ATOM     82  C   UNL A   1      51.298  26.324  25.123  1.00  0.00     0.020 A 
ATOM     83  C   UNL A   1      51.652  25.931  27.496  1.00  0.00     0.020 A 
ATOM     84  C   UNL A   1      52.130  25.949  26.183  1.00  0.00     0.054 A 
BRANCH  84  85
ATOM     85  S   UNL A   1      53.861  25.533  25.834  1.00  0.00     0.124 S 
ATOM     86  O   UNL A   1      53.726  24.542  24.770  1.00  0.00    -0.237 OA
ATOM     87  O   UNL A   1      54.426  26.818  25.428  1.00  0.00    -0.237 OA
ATOM     88  O   UNL A   1      54.356  25.017  27.108  1.00  0.00    -0.744 OA
ENDBRANCH  84  85
ENDBRANCH  58  79
ENDBRANCH  32  33
ENDBRANCH  25  27
ENDBRANCH  24  25
ENDBRANCH  23  24
ENDBRANCH   1  23
TORSDOF 18
ENDMDL
MODEL 2
REMARK VINA RESULT:     -10.8      2.427      3.152
REMARK SMILES O=C(Cc1ccn[nH]1)NC[C@H]1CCCC[C@H]1C(=O)OCCOC(=O)c1ccc(-c2c3nc(c(-c4ccc(S(=O)(=O)[O-])cc4)c4ccc([nH]4)c(-c4ccc(S(=O)(=O)[O-])cc4)c4nc(c(-c5ccc(S(=O)(=O)[O-])cc5)c5ccc2[nH]5)C=C4)C=C3)cc1
REMARK SMILES IDX 20 1 19 2 17 3 18 4 16 5 11 6 12 7 13 8 15 9 14 10 10 11
REMARK SMILES IDX 9 12 1 13 2 14 3 16 4 17 5 18 8 19 6 20 7 21 21 23 22 24
REMARK SMILES IDX 23 25 24 26 25 27 26 28 84 29 27 30 83 31 28 32 29 33 30 34
REMARK SMILES IDX 77 35 31 36 82 37 76 38 78 39 32 40 81 41 75 42 74 43 33 45
REMARK SMILES IDX 63 46 44 47 62 48 45 49 48 50 61 51 79 52 46 53 47 54 60 56
REMARK SMILES IDX 80 57 49 58 34 59 35 60 43 61 36 62 42 63 37 64 38 65 39 66
REMARK SMILES IDX 40 67 41 68 64 69 65 70 73 71 66 72 72 73 67 74 68 75 69 76
REMARK SMILES IDX 70 77 71 78 50 79 51 80 59 81 52 82 58 83 53 84 54 85 55 86
REMARK SMILES IDX 56 87 57 88
REMARK H PARENT 9 15 8 22 78 44 48 55
REMARK Flexibility Score: inf
ROOT
ATOM      1  C   UNL A   1      31.911  28.095  25.994  1.00  0.00     0.274 C 
ENDROOT
BRANCH   1   2
ATOM      2  O   UNL A   1      32.717  26.943  25.690  1.00  0.00    -0.462 OA
BRANCH   2   3
ATOM      3  C   UNL A   1      32.184  25.728  25.950  1.00  0.00     0.309 C 
ATOM      4  O   UNL A   1      31.431  25.483  26.885  1.00  0.00    -0.252 OA
BRANCH   3   5
ATOM      5  C   UNL A   1      32.625  24.654  24.966  1.00  0.00     0.104 C 
ATOM      6  C   UNL A   1      31.698  24.360  23.762  1.00  0.00     0.022 C 
ATOM      7  C   UNL A   1      32.235  23.119  23.015  1.00  0.00     0.006 C 
ATOM      8  C   UNL A   1      33.706  23.257  22.617  1.00  0.00     0.000 C 
ATOM      9  C   UNL A   1      34.083  24.850  24.547  1.00  0.00     0.016 C 
ATOM     10  C   UNL A   1      34.592  23.614  23.807  1.00  0.00     0.001 C 
BRANCH   6  11
ATOM     11  C   UNL A   1      31.513  25.533  22.774  1.00  0.00     0.120 C 
BRANCH  11  12
ATOM     12  N   UNL A   1      30.421  26.392  23.197  1.00  0.00    -0.355 N 
ATOM     13  O   UNL A   1      30.935  28.178  21.850  1.00  0.00    -0.275 OA
ATOM     14  C   UNL A   1      30.230  27.665  22.715  1.00  0.00     0.226 C 
ATOM     15  H   UNL A   1      29.786  26.044  23.865  1.00  0.00     0.163 HD
BRANCH  14  16
ATOM     16  C   UNL A   1      28.972  28.344  23.236  1.00  0.00     0.155 C 
BRANCH  16  17
ATOM     17  C   UNL A   1      28.773  29.674  22.580  1.00  0.00     0.044 A 
ATOM     18  C   UNL A   1      27.939  30.060  21.552  1.00  0.00     0.045 A 
ATOM     19  N   UNL A   1      29.447  30.811  22.948  1.00  0.00    -0.282 N 
ATOM     20  C   UNL A   1      28.206  31.429  21.364  1.00  0.00     0.135 A 
ATOM     21  N   UNL A   1      29.131  31.887  22.208  1.00  0.00    -0.184 NA
ATOM     22  H   UNL A   1      30.100  30.836  23.685  1.00  0.00     0.190 HD
ENDBRANCH  16  17
ENDBRANCH  14  16
ENDBRANCH  11  12
ENDBRANCH   6  11
ENDBRANCH   3   5
ENDBRANCH   2   3
ENDBRANCH   1   2
BRANCH   1  23
ATOM     23  C   UNL A   1      32.404  28.768  27.275  1.00  0.00     0.275 C 
BRANCH  23  24
ATOM     24  O   UNL A   1      33.838  28.893  27.270  1.00  0.00    -0.458 OA
BRANCH  24  25
ATOM     25  C   UNL A   1      34.328  30.045  27.783  1.00  0.00     0.338 C 
ATOM     26  O   UNL A   1      33.724  31.080  28.007  1.00  0.00    -0.246 OA
BRANCH  25  27
ATOM     27  C   UNL A   1      35.738  29.834  28.149  1.00  0.00     0.060 A 
ATOM     28  C   UNL A   1      36.713  29.961  27.158  1.00  0.00     0.016 A 
ATOM     29  C   UNL A   1      36.089  29.458  29.446  1.00  0.00     0.016 A 
ATOM     30  C   UNL A   1      38.050  29.710  27.456  1.00  0.00     0.010 A 
ATOM     31  C   UNL A   1      37.432  29.210  29.745  1.00  0.00     0.010 A 
ATOM     32  C   UNL A   1      38.420  29.325  28.750  1.00  0.00    -0.014 A 
BRANCH  32  33
ATOM     33  C   UNL A   1      39.834  29.000  29.053  1.00  0.00     0.031 A 
ATOM     34  C   UNL A   1      40.727  30.050  29.654  1.00  0.00     0.074 A 
ATOM     35  C   UNL A   1      40.313  27.768  28.799  1.00  0.00     0.049 A 
ATOM     36  N   UNL A   1      42.012  30.003  29.892  1.00  0.00    -0.248 NA
ATOM     37  C   UNL A   1      40.089  31.321  30.037  1.00  0.00     0.031 C 
ATOM     38  C   UNL A   1      39.532  26.652  28.263  1.00  0.00     0.029 A 
ATOM     39  N   UNL A   1      41.574  27.250  28.953  1.00  0.00    -0.354 N 
ATOM     40  C   UNL A   1      42.341  31.237  30.439  1.00  0.00     0.074 A 
ATOM     41  C   UNL A   1      41.124  32.020  30.481  1.00  0.00     0.031 C 
ATOM     42  C   UNL A   1      40.335  25.583  28.123  1.00  0.00     0.029 A 
ATOM     43  C   UNL A   1      41.693  25.952  28.517  1.00  0.00     0.049 A 
ATOM     44  H   UNL A   1      42.322  27.760  29.339  1.00  0.00     0.167 HD
ATOM     45  C   UNL A   1      43.548  31.676  30.869  1.00  0.00     0.031 A 
ATOM     46  C   UNL A   1      42.777  25.161  28.412  1.00  0.00     0.031 A 
ATOM     47  C   UNL A   1      44.757  30.898  30.816  1.00  0.00     0.049 A 
ATOM     48  C   UNL A   1      44.119  25.696  28.836  1.00  0.00     0.074 A 
ATOM     49  C   UNL A   1      46.034  31.263  31.205  1.00  0.00     0.029 A 
ATOM     50  N   UNL A   1      44.838  29.594  30.353  1.00  0.00    -0.354 N 
ATOM     51  N   UNL A   1      44.417  26.874  29.327  1.00  0.00    -0.248 NA
ATOM     52  C   UNL A   1      45.271  24.792  28.691  1.00  0.00     0.031 C 
ATOM     53  C   UNL A   1      46.894  30.191  30.944  1.00  0.00     0.029 A 
ATOM     54  C   UNL A   1      46.143  29.142  30.438  1.00  0.00     0.049 A 
ATOM     55  H   UNL A   1      44.078  29.067  30.014  1.00  0.00     0.167 HD
ATOM     56  C   UNL A   1      45.787  26.847  29.568  1.00  0.00     0.074 A 
ATOM     57  C   UNL A   1      46.254  25.531  29.186  1.00  0.00     0.031 C 
ATOM     58  C   UNL A   1      46.587  27.826  30.058  1.00  0.00     0.031 A 
BRANCH  45  59
ATOM     59  C   UNL A   1      43.625  33.077  31.412  1.00  0.00    -0.014 A 
ATOM     60  C   UNL A   1      43.498  33.326  32.790  1.00  0.00     0.010 A 
ATOM     61  C   UNL A   1      43.874  34.153  30.539  1.00  0.00     0.010 A 
ATOM     62  C   UNL A   1      43.591  34.631  33.283  1.00  0.00     0.020 A 
ATOM     63  C   UNL A   1      43.990  35.455  31.031  1.00  0.00     0.020 A 
ATOM     64  C   UNL A   1      43.834  35.688  32.399  1.00  0.00     0.054 A 
BRANCH  64  65
ATOM     65  S   UNL A   1      43.979  37.368  33.070  1.00  0.00     0.124 S 
ATOM     66  O   UNL A   1      45.308  37.337  33.674  1.00  0.00    -0.237 OA
ATOM     67  O   UNL A   1      43.852  38.202  31.877  1.00  0.00    -0.237 OA
ATOM     68  O   UNL A   1      42.868  37.462  34.012  1.00  0.00    -0.744 OA
ENDBRANCH  64  65
ENDBRANCH  45  59
BRANCH  46  69
ATOM     69  C   UNL A   1      42.652  23.793  27.836  1.00  0.00    -0.014 A 
ATOM     70  C   UNL A   1      42.878  23.563  26.468  1.00  0.00     0.010 A 
ATOM     71  C   UNL A   1      42.285  22.713  28.661  1.00  0.00     0.010 A 
ATOM     72  C   UNL A   1      42.716  22.283  25.930  1.00  0.00     0.020 A 
ATOM     73  C   UNL A   1      42.148  21.427  28.132  1.00  0.00     0.020 A 
ATOM     74  C   UNL A   1      42.348  21.223  26.765  1.00  0.00     0.054 A 
BRANCH  74  75
ATOM     75  S   UNL A   1      42.172  19.562  26.057  1.00  0.00     0.124 S 
ATOM     76  O   UNL A   1      40.751  19.526  25.723  1.00  0.00    -0.237 OA
ATOM     77  O   UNL A   1      43.089  19.601  24.920  1.00  0.00    -0.237 OA
ATOM     78  O   UNL A   1      42.582  18.682  27.149  1.00  0.00    -0.744 OA
ENDBRANCH  74  75
ENDBRANCH  46  69
BRANCH  58  79
ATOM     79  C   UNL A   1      48.044  27.498  30.244  1.00  0.00    -0.014 A 
ATOM     80  C   UNL A   1      49.006  27.907  29.305  1.00  0.00     0.010 A 
ATOM     81  C   UNL A   1      48.457  26.813  31.402  1.00  0.00     0.010 A 
ATOM     82  C   UNL A   1      50.356  27.612  29.507  1.00  0.00     0.020 A 
ATOM     83  C   UNL A   1      49.809  26.537  31.618  1.00  0.00     0.020 A 
ATOM     84  C   UNL A   1      50.750  26.926  30.662  1.00  0.00     0.054 A 
BRANCH  84  85
ATOM     85  S   UNL A   1      52.513  26.591  30.923  1.00  0.00     0.124 S 
ATOM     86  O   UNL A   1      52.988  27.865  31.455  1.00  0.00    -0.237 OA
ATOM     87  O   UNL A   1      52.494  25.482  31.873  1.00  0.00    -0.237 OA
ATOM     88  O   UNL A   1      53.002  26.251  29.589  1.00  0.00    -0.744 OA
ENDBRANCH  84  85
ENDBRANCH  58  79
ENDBRANCH  32  33
ENDBRANCH  25  27
ENDBRANCH  24  25
ENDBRANCH  23  24
ENDBRANCH   1  23
TORSDOF 18
ENDMDL
MODEL 3
REMARK VINA RESULT:     -10.6      5.380      9.554
REMARK SMILES O=C(Cc1ccn[nH]1)NC[C@H]1CCCC[C@H]1C(=O)OCCOC(=O)c1ccc(-c2c3nc(c(-c4ccc(S(=O)(=O)[O-])cc4)c4ccc([nH]4)c(-c4ccc(S(=O)(=O)[O-])cc4)c4nc(c(-c5ccc(S(=O)(=O)[O-])cc5)c5ccc2[nH]5)C=C4)C=C3)cc1
REMARK SMILES IDX 20 1 19 2 17 3 18 4 16 5 11 6 12 7 13 8 15 9 14 10 10 11
REMARK SMILES IDX 9 12 1 13 2 14 3 16 4 17 5 18 8 19 6 20 7 21 21 23 22 24
REMARK SMILES IDX 23 25 24 26 25 27 26 28 84 29 27 30 83 31 28 32 29 33 30 34
REMARK SMILES IDX 77 35 31 36 82 37 76 38 78 39 32 40 81 41 75 42 74 43 33 45
REMARK SMILES IDX 63 46 44 47 62 48 45 49 48 50 61 51 79 52 46 53 47 54 60 56
REMARK SMILES IDX 80 57 49 58 34 59 35 60 43 61 36 62 42 63 37 64 38 65 39 66
REMARK SMILES IDX 40 67 41 68 64 69 65 70 73 71 66 72 72 73 67 74 68 75 69 76
REMARK SMILES IDX 70 77 71 78 50 79 51 80 59 81 52 82 58 83 53 84 54 85 55 86
REMARK SMILES IDX 56 87 57 88
REMARK H PARENT 9 15 8 22 78 44 48 55
REMARK Flexibility Score: inf
ROOT
ATOM      1  C   UNL A   1      32.214  28.401  27.556  1.00  0.00     0.274 C 
ENDROOT
BRANCH   1   2
ATOM      2  O   UNL A   1      32.586  27.502  26.495  1.00  0.00    -0.462 OA
BRANCH   2   3
ATOM      3  C   UNL A   1      31.849  26.378  26.349  1.00  0.00     0.309 C 
ATOM      4  O   UNL A   1      30.735  26.208  26.830  1.00  0.00    -0.252 OA
BRANCH   3   5
ATOM      5  C   UNL A   1      32.546  25.303  25.528  1.00  0.00     0.104 C 
ATOM      6  C   UNL A   1      31.825  24.787  24.260  1.00  0.00     0.022 C 
ATOM      7  C   UNL A   1      32.609  23.580  23.700  1.00  0.00     0.006 C 
ATOM      8  C   UNL A   1      34.088  23.892  23.461  1.00  0.00     0.000 C 
ATOM      9  C   UNL A   1      34.007  25.669  25.261  1.00  0.00     0.016 C 
ATOM     10  C   UNL A   1      34.762  24.464  24.705  1.00  0.00     0.001 C 
BRANCH   6  11
ATOM     11  C   UNL A   1      31.614  25.841  23.150  1.00  0.00     0.120 C 
BRANCH  11  12
ATOM     12  N   UNL A   1      31.262  27.128  23.726  1.00  0.00    -0.355 N 
ATOM     13  O   UNL A   1      30.351  28.041  21.827  1.00  0.00    -0.275 OA
ATOM     14  C   UNL A   1      30.674  28.142  23.008  1.00  0.00     0.226 C 
ATOM     15  H   UNL A   1      31.454  27.281  24.680  1.00  0.00     0.163 HD
BRANCH  14  16
ATOM     16  C   UNL A   1      30.317  29.365  23.839  1.00  0.00     0.155 C 
BRANCH  16  17
ATOM     17  C   UNL A   1      29.390  30.269  23.088  1.00  0.00     0.044 A 
ATOM     18  C   UNL A   1      28.087  30.643  23.341  1.00  0.00     0.045 A 
ATOM     19  N   UNL A   1      29.739  30.926  21.935  1.00  0.00    -0.282 N 
ATOM     20  C   UNL A   1      27.742  31.496  22.277  1.00  0.00     0.135 A 
ATOM     21  N   UNL A   1      28.745  31.664  21.414  1.00  0.00    -0.184 NA
ATOM     22  H   UNL A   1      30.634  30.862  21.528  1.00  0.00     0.190 HD
ENDBRANCH  16  17
ENDBRANCH  14  16
ENDBRANCH  11  12
ENDBRANCH   6  11
ENDBRANCH   3   5
ENDBRANCH   2   3
ENDBRANCH   1   2
BRANCH   1  23
ATOM     23  C   UNL A   1      32.363  29.852  27.101  1.00  0.00     0.275 C 
BRANCH  23  24
ATOM     24  O   UNL A   1      33.749  30.192  26.914  1.00  0.00    -0.458 OA
BRANCH  24  25
ATOM     25  C   UNL A   1      34.180  31.285  27.586  1.00  0.00     0.338 C 
ATOM     26  O   UNL A   1      33.596  32.342  27.747  1.00  0.00    -0.246 OA
BRANCH  25  27
ATOM     27  C   UNL A   1      35.472  30.969  28.215  1.00  0.00     0.060 A 
ATOM     28  C   UNL A   1      35.596  29.774  28.926  1.00  0.00     0.016 A 
ATOM     29  C   UNL A   1      36.535  31.870  28.151  1.00  0.00     0.016 A 
ATOM     30  C   UNL A   1      36.785  29.471  29.584  1.00  0.00     0.010 A 
ATOM     31  C   UNL A   1      37.731  31.563  28.809  1.00  0.00     0.010 A 
ATOM     32  C   UNL A   1      37.861  30.366  29.536  1.00  0.00    -0.014 A 
BRANCH  32  33
ATOM     33  C   UNL A   1      39.107  30.073  30.284  1.00  0.00     0.031 A 
ATOM     34  C   UNL A   1      40.027  28.988  29.800  1.00  0.00     0.074 A 
ATOM     35  C   UNL A   1      39.414  30.781  31.387  1.00  0.00     0.049 A 
ATOM     36  N   UNL A   1      41.102  28.505  30.367  1.00  0.00    -0.248 NA
ATOM     37  C   UNL A   1      39.694  28.365  28.509  1.00  0.00     0.031 C 
ATOM     38  C   UNL A   1      38.624  31.889  31.928  1.00  0.00     0.029 A 
ATOM     39  N   UNL A   1      40.470  30.669  32.256  1.00  0.00    -0.354 N 
ATOM     40  C   UNL A   1      41.568  27.514  29.510  1.00  0.00     0.074 A 
ATOM     41  C   UNL A   1      40.648  27.451  28.395  1.00  0.00     0.031 C 
ATOM     42  C   UNL A   1      39.220  32.348  33.042  1.00  0.00     0.029 A 
ATOM     43  C   UNL A   1      40.405  31.540  33.317  1.00  0.00     0.049 A 
ATOM     44  H   UNL A   1      41.205  30.026  32.130  1.00  0.00     0.167 HD
ATOM     45  C   UNL A   1      42.664  26.729  29.643  1.00  0.00     0.031 A 
ATOM     46  C   UNL A   1      41.189  31.651  34.406  1.00  0.00     0.031 A 
ATOM     47  C   UNL A   1      43.572  26.789  30.759  1.00  0.00     0.049 A 
ATOM     48  C   UNL A   1      42.364  30.723  34.561  1.00  0.00     0.074 A 
ATOM     49  C   UNL A   1      44.697  26.019  30.996  1.00  0.00     0.029 A 
ATOM     50  N   UNL A   1      43.461  27.674  31.820  1.00  0.00    -0.354 N 
ATOM     51  N   UNL A   1      42.776  29.774  33.755  1.00  0.00    -0.248 NA
ATOM     52  C   UNL A   1      43.181  30.882  35.774  1.00  0.00     0.031 C 
ATOM     53  C   UNL A   1      45.248  26.416  32.219  1.00  0.00     0.029 A 
ATOM     54  C   UNL A   1      44.493  27.464  32.718  1.00  0.00     0.049 A 
ATOM     55  H   UNL A   1      42.754  28.351  31.920  1.00  0.00     0.167 HD
ATOM     56  C   UNL A   1      43.910  29.235  34.354  1.00  0.00     0.074 A 
ATOM     57  C   UNL A   1      44.130  29.976  35.579  1.00  0.00     0.031 C 
ATOM     58  C   UNL A   1      44.697  28.216  33.930  1.00  0.00     0.031 A 
BRANCH  45  59
ATOM     59  C   UNL A   1      42.929  25.718  28.562  1.00  0.00    -0.014 A 
ATOM     60  C   UNL A   1      43.696  26.051  27.432  1.00  0.00     0.010 A 
ATOM     61  C   UNL A   1      42.446  24.403  28.700  1.00  0.00     0.010 A 
ATOM     62  C   UNL A   1      43.952  25.095  26.443  1.00  0.00     0.020 A 
ATOM     63  C   UNL A   1      42.718  23.439  27.726  1.00  0.00     0.020 A 
ATOM     64  C   UNL A   1      43.458  23.796  26.597  1.00  0.00     0.054 A 
BRANCH  64  65
ATOM     65  S   UNL A   1      43.828  22.567  25.313  1.00  0.00     0.124 S 
ATOM     66  O   UNL A   1      44.149  23.416  24.169  1.00  0.00    -0.237 OA
ATOM     67  O   UNL A   1      44.954  21.833  25.886  1.00  0.00    -0.237 OA
ATOM     68  O   UNL A   1      42.588  21.805  25.195  1.00  0.00    -0.744 OA
ENDBRANCH  64  65
ENDBRANCH  45  59
BRANCH  46  69
ATOM     69  C   UNL A   1      40.863  32.647  35.463  1.00  0.00    -0.014 A 
ATOM     70  C   UNL A   1      41.389  33.949  35.415  1.00  0.00     0.010 A 
ATOM     71  C   UNL A   1      40.031  32.284  36.540  1.00  0.00     0.010 A 
ATOM     72  C   UNL A   1      41.110  34.863  36.435  1.00  0.00     0.020 A 
ATOM     73  C   UNL A   1      39.728  33.203  37.548  1.00  0.00     0.020 A 
ATOM     74  C   UNL A   1      40.284  34.483  37.498  1.00  0.00     0.054 A 
BRANCH  74  75
ATOM     75  S   UNL A   1      39.907  35.691  38.799  1.00  0.00     0.124 S 
ATOM     76  O   UNL A   1      38.845  35.016  39.538  1.00  0.00    -0.237 OA
ATOM     77  O   UNL A   1      41.185  35.817  39.497  1.00  0.00    -0.237 OA
ATOM     78  O   UNL A   1      39.495  36.877  38.051  1.00  0.00    -0.744 OA
ENDBRANCH  74  75
ENDBRANCH  46  69
BRANCH  58  79
ATOM     79  C   UNL A   1      45.890  27.867  34.777  1.00  0.00    -0.014 A 
ATOM     80  C   UNL A   1      45.804  26.894  35.788  1.00  0.00     0.010 A 
ATOM     81  C   UNL A   1      47.126  28.489  34.521  1.00  0.00     0.010 A 
ATOM     82  C   UNL A   1      46.930  26.569  36.549  1.00  0.00     0.020 A 
ATOM     83  C   UNL A   1      48.259  28.149  35.266  1.00  0.00     0.020 A 
ATOM     84  C   UNL A   1      48.150  27.200  36.285  1.00  0.00     0.054 A 
BRANCH  84  85
ATOM     85  S   UNL A   1      49.608  26.730  37.257  1.00  0.00     0.124 S 
ATOM     86  O   UNL A   1      50.205  25.690  36.424  1.00  0.00    -0.237 OA
ATOM     87  O   UNL A   1      50.359  27.981  37.337  1.00  0.00    -0.237 OA
ATOM     88  O   UNL A   1      49.043  26.268  38.523  1.00  0.00    -0.744 OA
ENDBRANCH  84  85
ENDBRANCH  58  79
ENDBRANCH  32  33
ENDBRANCH  25  27
ENDBRANCH  24  25
ENDBRANCH  23  24
ENDBRANCH   1  23
TORSDOF 18
ENDMDL
