MODEL 1
REMARK VINA RESULT:     -11.5      0.000      0.000
REMARK SMILES O=C(OCCOC(=O)C1(C/C=C/c2ccccc2)Cc2ccccc2C1)c1ccc(-c2c3nc(c(-c4ccc(S(=O)(=O)[O-])cc4)c4ccc([nH]4)c(-c4ccc(S(=O)(=O)[O-])cc4)c4nc(c(-c5ccc(S(=O)(=O)[O-])cc5)c5ccc2[nH]5)C=C4)C=C3)cc1
REMARK SMILES IDX 4 1 3 2 2 3 1 4 27 5 28 6 86 7 29 8 85 9 30 10 31 11 32 12
REMARK SMILES IDX 79 13 33 14 84 15 78 16 80 17 34 18 83 19 77 20 76 21 35 23
REMARK SMILES IDX 65 24 46 25 64 26 47 27 50 28 63 29 81 30 48 31 49 32 62 34
REMARK SMILES IDX 82 35 51 36 36 37 37 38 45 39 38 40 44 41 39 42 40 43 41 44
REMARK SMILES IDX 42 45 43 46 66 47 67 48 75 49 68 50 74 51 69 52 70 53 71 54
REMARK SMILES IDX 72 55 73 56 52 57 53 58 61 59 54 60 60 61 55 62 56 63 57 64
REMARK SMILES IDX 58 65 59 66 5 67 6 68 7 69 8 70 9 71 19 72 26 73 20 74 25 75
REMARK SMILES IDX 21 76 24 77 22 78 23 79 10 80 11 81 12 82 13 83 14 84 18 85
REMARK SMILES IDX 15 86 17 87 16 88
REMARK H PARENT 80 22 50 33
REMARK Flexibility Score: inf
ROOT
ATOM      1  C   UNL A   1      33.005  29.400  25.906  1.00  0.00     0.275 C 
ENDROOT
BRANCH   1   2
ATOM      2  O   UNL A   1      33.925  29.187  26.977  1.00  0.00    -0.458 OA
BRANCH   2   3
ATOM      3  C   UNL A   1      34.321  30.248  27.700  1.00  0.00     0.338 C 
ATOM      4  O   UNL A   1      33.658  31.244  27.906  1.00  0.00    -0.246 OA
BRANCH   3   5
ATOM      5  C   UNL A   1      35.731  30.014  28.116  1.00  0.00     0.060 A 
ATOM      6  C   UNL A   1      36.045  29.564  29.408  1.00  0.00     0.016 A 
ATOM      7  C   UNL A   1      36.730  30.091  27.154  1.00  0.00     0.016 A 
ATOM      8  C   UNL A   1      37.334  29.143  29.717  1.00  0.00     0.010 A 
ATOM      9  C   UNL A   1      37.996  29.578  27.436  1.00  0.00     0.010 A 
ATOM     10  C   UNL A   1      38.314  29.109  28.723  1.00  0.00    -0.014 A 
BRANCH  10  11
ATOM     11  C   UNL A   1      39.701  28.689  29.045  1.00  0.00     0.031 A 
ATOM     12  C   UNL A   1      40.643  29.719  29.606  1.00  0.00     0.074 A 
ATOM     13  C   UNL A   1      40.118  27.425  28.817  1.00  0.00     0.049 A 
ATOM     14  N   UNL A   1      41.920  29.622  29.858  1.00  0.00    -0.248 NA
ATOM     15  C   UNL A   1      40.079  31.052  29.890  1.00  0.00     0.031 C 
ATOM     16  C   UNL A   1      39.303  26.335  28.270  1.00  0.00     0.029 A 
ATOM     17  N   UNL A   1      41.351  26.845  28.994  1.00  0.00    -0.354 N 
ATOM     18  C   UNL A   1      42.307  30.880  30.304  1.00  0.00     0.074 A 
ATOM     19  C   UNL A   1      41.161  31.750  30.190  1.00  0.00     0.031 C 
ATOM     20  C   UNL A   1      40.066  25.239  28.119  1.00  0.00     0.029 A 
ATOM     21  C   UNL A   1      41.424  25.546  28.541  1.00  0.00     0.049 A 
ATOM     22  H   UNL A   1      42.111  27.313  29.407  1.00  0.00     0.167 HD
ATOM     23  C   UNL A   1      43.489  31.260  30.840  1.00  0.00     0.031 A 
ATOM     24  C   UNL A   1      42.473  24.705  28.462  1.00  0.00     0.031 A 
ATOM     25  C   UNL A   1      44.580  30.356  31.055  1.00  0.00     0.049 A 
ATOM     26  C   UNL A   1      43.785  25.151  29.046  1.00  0.00     0.074 A 
ATOM     27  C   UNL A   1      45.761  30.578  31.734  1.00  0.00     0.029 A 
ATOM     28  N   UNL A   1      44.605  29.042  30.612  1.00  0.00    -0.354 N 
ATOM     29  N   UNL A   1      44.094  26.313  29.570  1.00  0.00    -0.248 NA
ATOM     30  C   UNL A   1      44.871  24.161  29.079  1.00  0.00     0.031 C 
ATOM     31  C   UNL A   1      46.514  29.401  31.684  1.00  0.00     0.029 A 
ATOM     32  C   UNL A   1      45.787  28.441  30.995  1.00  0.00     0.049 A 
ATOM     33  H   UNL A   1      43.886  28.603  30.101  1.00  0.00     0.167 HD
ATOM     34  C   UNL A   1      45.392  26.178  30.045  1.00  0.00     0.074 A 
ATOM     35  C   UNL A   1      45.812  24.826  29.736  1.00  0.00     0.031 C 
ATOM     36  C   UNL A   1      46.161  27.084  30.693  1.00  0.00     0.031 A 
BRANCH  23  37
ATOM     37  C   UNL A   1      43.618  32.688  31.294  1.00  0.00    -0.014 A 
ATOM     38  C   UNL A   1      44.116  33.676  30.422  1.00  0.00     0.010 A 
ATOM     39  C   UNL A   1      43.229  33.055  32.592  1.00  0.00     0.010 A 
ATOM     40  C   UNL A   1      44.272  34.992  30.856  1.00  0.00     0.020 A 
ATOM     41  C   UNL A   1      43.355  34.381  33.022  1.00  0.00     0.020 A 
ATOM     42  C   UNL A   1      43.893  35.337  32.156  1.00  0.00     0.054 A 
BRANCH  42  43
ATOM     43  S   UNL A   1      44.081  37.061  32.684  1.00  0.00     0.124 S 
ATOM     44  O   UNL A   1      43.003  37.195  33.660  1.00  0.00    -0.237 OA
ATOM     45  O   UNL A   1      45.433  37.082  33.238  1.00  0.00    -0.237 OA
ATOM     46  O   UNL A   1      43.906  37.823  31.451  1.00  0.00    -0.744 OA
ENDBRANCH  42  43
ENDBRANCH  23  37
BRANCH  24  47
ATOM     47  C   UNL A   1      42.336  23.369  27.819  1.00  0.00    -0.014 A 
ATOM     48  C   UNL A   1      41.921  22.245  28.554  1.00  0.00     0.010 A 
ATOM     49  C   UNL A   1      42.658  23.211  26.457  1.00  0.00     0.010 A 
ATOM     50  C   UNL A   1      41.868  20.982  27.951  1.00  0.00     0.020 A 
ATOM     51  C   UNL A   1      42.585  21.954  25.845  1.00  0.00     0.020 A 
ATOM     52  C   UNL A   1      42.207  20.844  26.602  1.00  0.00     0.054 A 
BRANCH  52  53
ATOM     53  S   UNL A   1      42.130  19.195  25.845  1.00  0.00     0.124 S 
ATOM     54  O   UNL A   1      43.011  19.349  24.691  1.00  0.00    -0.237 OA
ATOM     55  O   UNL A   1      42.631  18.334  26.913  1.00  0.00    -0.237 OA
ATOM     56  O   UNL A   1      40.713  19.027  25.531  1.00  0.00    -0.744 OA
ENDBRANCH  52  53
ENDBRANCH  24  47
BRANCH  36  57
ATOM     57  C   UNL A   1      47.511  26.628  31.161  1.00  0.00    -0.014 A 
ATOM     58  C   UNL A   1      47.678  26.068  32.437  1.00  0.00     0.010 A 
ATOM     59  C   UNL A   1      48.601  26.683  30.274  1.00  0.00     0.010 A 
ATOM     60  C   UNL A   1      48.924  25.577  32.825  1.00  0.00     0.020 A 
ATOM     61  C   UNL A   1      49.843  26.170  30.651  1.00  0.00     0.020 A 
ATOM     62  C   UNL A   1      49.997  25.627  31.928  1.00  0.00     0.054 A 
BRANCH  62  63
ATOM     63  S   UNL A   1      51.584  24.908  32.428  1.00  0.00     0.124 S 
ATOM     64  O   UNL A   1      51.357  23.484  32.196  1.00  0.00    -0.237 OA
ATOM     65  O   UNL A   1      52.530  25.550  31.519  1.00  0.00    -0.237 OA
ATOM     66  O   UNL A   1      51.713  25.299  33.830  1.00  0.00    -0.744 OA
ENDBRANCH  62  63
ENDBRANCH  36  57
ENDBRANCH  10  11
ENDBRANCH   3   5
ENDBRANCH   2   3
ENDBRANCH   1   2
BRANCH   1  67
ATOM     67  C   UNL A   1      32.451  28.242  25.045  1.00  0.00     0.274 C 
BRANCH  67  68
ATOM     68  O   UNL A   1      33.371  27.286  24.485  1.00  0.00    -0.462 OA
BRANCH  68  69
ATOM     69  C   UNL A   1      32.760  26.110  24.113  1.00  0.00     0.313 C 
ATOM     70  O   UNL A   1      31.692  26.065  23.508  1.00  0.00    -0.252 OA
BRANCH  69  71
ATOM     71  C   UNL A   1      33.510  24.851  24.545  1.00  0.00     0.079 C 
ATOM     72  C   UNL A   1      34.223  24.217  23.317  1.00  0.00     0.055 C 
ATOM     73  C   UNL A   1      34.684  25.209  25.505  1.00  0.00     0.055 C 
ATOM     74  C   UNL A   1      35.404  23.553  23.957  1.00  0.00    -0.044 A 
ATOM     75  C   UNL A   1      35.644  24.092  25.224  1.00  0.00    -0.044 A 
ATOM     76  C   UNL A   1      36.186  22.526  23.462  1.00  0.00     0.004 A 
ATOM     77  C   UNL A   1      36.636  23.581  26.042  1.00  0.00     0.004 A 
ATOM     78  C   UNL A   1      37.189  22.002  24.277  1.00  0.00     0.000 A 
ATOM     79  C   UNL A   1      37.403  22.517  25.564  1.00  0.00     0.000 A 
BRANCH  71  80
ATOM     80  C   UNL A   1      32.597  23.812  25.247  1.00  0.00     0.047 C 
BRANCH  80  81
ATOM     81  C   UNL A   1      32.394  22.501  24.533  1.00  0.00    -0.025 C 
ATOM     82  C   UNL A   1      32.740  21.340  25.113  1.00  0.00     0.004 C 
BRANCH  82  83
ATOM     83  C   UNL A   1      32.901  20.042  24.438  1.00  0.00    -0.026 A 
ATOM     84  C   UNL A   1      33.942  19.201  24.868  1.00  0.00     0.008 A 
ATOM     85  C   UNL A   1      32.137  19.643  23.337  1.00  0.00     0.008 A 
ATOM     86  C   UNL A   1      34.234  18.015  24.191  1.00  0.00     0.001 A 
ATOM     87  C   UNL A   1      32.427  18.454  22.660  1.00  0.00     0.001 A 
ATOM     88  C   UNL A   1      33.480  17.646  23.081  1.00  0.00     0.000 A 
ENDBRANCH  82  83
ENDBRANCH  80  81
ENDBRANCH  71  80
ENDBRANCH  69  71
ENDBRANCH  68  69
ENDBRANCH  67  68
ENDBRANCH   1  67
TORSDOF 17
ENDMDL
MODEL 2
REMARK VINA RESULT:     -11.4      2.868      9.694
REMARK SMILES O=C(OCCOC(=O)C1(C/C=C/c2ccccc2)Cc2ccccc2C1)c1ccc(-c2c3nc(c(-c4ccc(S(=O)(=O)[O-])cc4)c4ccc([nH]4)c(-c4ccc(S(=O)(=O)[O-])cc4)c4nc(c(-c5ccc(S(=O)(=O)[O-])cc5)c5ccc2[nH]5)C=C4)C=C3)cc1
REMARK SMILES IDX 4 1 3 2 2 3 1 4 27 5 28 6 86 7 29 8 85 9 30 10 31 11 32 12
REMARK SMILES IDX 79 13 33 14 84 15 78 16 80 17 34 18 83 19 77 20 76 21 35 23
REMARK SMILES IDX 65 24 46 25 64 26 47 27 50 28 63 29 81 30 48 31 49 32 62 34
REMARK SMILES IDX 82 35 51 36 36 37 37 38 45 39 38 40 44 41 39 42 40 43 41 44
REMARK SMILES IDX 42 45 43 46 66 47 67 48 75 49 68 50 74 51 69 52 70 53 71 54
REMARK SMILES IDX 72 55 73 56 52 57 53 58 61 59 54 60 60 61 55 62 56 63 57 64
REMARK SMILES IDX 58 65 59 66 5 67 6 68 7 69 8 70 9 71 19 72 26 73 20 74 25 75
REMARK SMILES IDX 21 76 24 77 22 78 23 79 10 80 11 81 12 82 13 83 14 84 18 85
REMARK SMILES IDX 15 86 17 87 16 88
REMARK H PARENT 80 22 50 33
REMARK Flexibility Score: inf
ROOT
ATOM      1  C   UNL A   1      37.030  23.187  24.495  1.00  0.00     0.275 C 
ENDROOT
BRANCH   1   2
ATOM      2  O   UNL A   1      37.459  23.261  25.855  1.00  0.00    -0.458 OA
BRANCH   2   3
ATOM      3  C   UNL A   1      38.742  22.978  26.136  1.00  0.00     0.338 C 
ATOM      4  O   UNL A   1      39.290  21.917  25.918  1.00  0.00    -0.246 OA
BRANCH   3   5
ATOM      5  C   UNL A   1      39.325  24.156  26.833  1.00  0.00     0.060 A 
ATOM      6  C   UNL A   1      40.063  25.125  26.135  1.00  0.00     0.016 A 
ATOM      7  C   UNL A   1      38.990  24.377  28.163  1.00  0.00     0.016 A 
ATOM      8  C   UNL A   1      40.416  26.323  26.747  1.00  0.00     0.010 A 
ATOM      9  C   UNL A   1      39.258  25.616  28.743  1.00  0.00     0.010 A 
ATOM     10  C   UNL A   1      39.983  26.597  28.045  1.00  0.00    -0.014 A 
BRANCH  10  11
ATOM     11  C   UNL A   1      40.374  27.861  28.720  1.00  0.00     0.031 A 
ATOM     12  C   UNL A   1      41.696  27.902  29.438  1.00  0.00     0.074 A 
ATOM     13  C   UNL A   1      39.558  28.937  28.716  1.00  0.00     0.049 A 
ATOM     14  N   UNL A   1      42.201  28.844  30.187  1.00  0.00    -0.248 NA
ATOM     15  C   UNL A   1      42.552  26.705  29.326  1.00  0.00     0.031 C 
ATOM     16  C   UNL A   1      38.248  29.021  28.062  1.00  0.00     0.029 A 
ATOM     17  N   UNL A   1      39.700  30.168  29.308  1.00  0.00    -0.354 N 
ATOM     18  C   UNL A   1      43.413  28.342  30.648  1.00  0.00     0.074 A 
ATOM     19  C   UNL A   1      43.520  26.979  30.184  1.00  0.00     0.031 C 
ATOM     20  C   UNL A   1      37.694  30.217  28.323  1.00  0.00     0.029 A 
ATOM     21  C   UNL A   1      38.595  30.980  29.173  1.00  0.00     0.049 A 
ATOM     22  H   UNL A   1      40.516  30.445  29.784  1.00  0.00     0.167 HD
ATOM     23  C   UNL A   1      44.389  28.983  31.328  1.00  0.00     0.031 A 
ATOM     24  C   UNL A   1      38.336  32.196  29.690  1.00  0.00     0.031 A 
ATOM     25  C   UNL A   1      44.319  30.371  31.681  1.00  0.00     0.049 A 
ATOM     26  C   UNL A   1      39.426  32.888  30.460  1.00  0.00     0.074 A 
ATOM     27  C   UNL A   1      45.304  31.173  32.220  1.00  0.00     0.029 A 
ATOM     28  N   UNL A   1      43.198  31.167  31.499  1.00  0.00    -0.354 N 
ATOM     29  N   UNL A   1      40.613  32.433  30.784  1.00  0.00    -0.248 NA
ATOM     30  C   UNL A   1      39.169  34.270  30.885  1.00  0.00     0.031 C 
ATOM     31  C   UNL A   1      44.771  32.455  32.386  1.00  0.00     0.029 A 
ATOM     32  C   UNL A   1      43.463  32.453  31.926  1.00  0.00     0.049 A 
ATOM     33  H   UNL A   1      42.342  30.861  31.122  1.00  0.00     0.167 HD
ATOM     34  C   UNL A   1      41.265  33.491  31.404  1.00  0.00     0.074 A 
ATOM     35  C   UNL A   1      40.337  34.603  31.418  1.00  0.00     0.031 C 
ATOM     36  C   UNL A   1      42.523  33.543  31.901  1.00  0.00     0.031 A 
BRANCH  23  37
ATOM     37  C   UNL A   1      45.634  28.205  31.655  1.00  0.00    -0.014 A 
ATOM     38  C   UNL A   1      46.710  28.158  30.748  1.00  0.00     0.010 A 
ATOM     39  C   UNL A   1      45.742  27.526  32.880  1.00  0.00     0.010 A 
ATOM     40  C   UNL A   1      47.848  27.404  31.035  1.00  0.00     0.020 A 
ATOM     41  C   UNL A   1      46.894  26.793  33.185  1.00  0.00     0.020 A 
ATOM     42  C   UNL A   1      47.932  26.723  32.252  1.00  0.00     0.054 A 
BRANCH  42  43
ATOM     43  S   UNL A   1      49.435  25.774  32.610  1.00  0.00     0.124 S 
ATOM     44  O   UNL A   1      48.888  24.463  32.950  1.00  0.00    -0.237 OA
ATOM     45  O   UNL A   1      50.165  25.839  31.346  1.00  0.00    -0.237 OA
ATOM     46  O   UNL A   1      50.049  26.501  33.718  1.00  0.00    -0.744 OA
ENDBRANCH  42  43
ENDBRANCH  23  37
BRANCH  24  47
ATOM     47  C   UNL A   1      37.006  32.840  29.500  1.00  0.00    -0.014 A 
ATOM     48  C   UNL A   1      36.658  33.450  28.283  1.00  0.00     0.010 A 
ATOM     49  C   UNL A   1      36.085  32.873  30.565  1.00  0.00     0.010 A 
ATOM     50  C   UNL A   1      35.434  34.114  28.146  1.00  0.00     0.020 A 
ATOM     51  C   UNL A   1      34.850  33.517  30.425  1.00  0.00     0.020 A 
ATOM     52  C   UNL A   1      34.541  34.150  29.220  1.00  0.00     0.054 A 
BRANCH  52  53
ATOM     53  S   UNL A   1      32.959  35.018  29.015  1.00  0.00     0.124 S 
ATOM     54  O   UNL A   1      33.393  36.340  28.575  1.00  0.00    -0.237 OA
ATOM     55  O   UNL A   1      32.282  34.206  28.006  1.00  0.00    -0.237 OA
ATOM     56  O   UNL A   1      32.363  34.966  30.349  1.00  0.00    -0.744 OA
ENDBRANCH  52  53
ENDBRANCH  24  47
BRANCH  36  57
ATOM     57  C   UNL A   1      42.989  34.858  32.450  1.00  0.00    -0.014 A 
ATOM     58  C   UNL A   1      43.665  35.779  31.635  1.00  0.00     0.010 A 
ATOM     59  C   UNL A   1      42.664  35.204  33.774  1.00  0.00     0.010 A 
ATOM     60  C   UNL A   1      44.021  37.029  32.141  1.00  0.00     0.020 A 
ATOM     61  C   UNL A   1      42.997  36.463  34.275  1.00  0.00     0.020 A 
ATOM     62  C   UNL A   1      43.680  37.365  33.457  1.00  0.00     0.054 A 
BRANCH  62  63
ATOM     63  S   UNL A   1      44.081  39.024  34.063  1.00  0.00     0.124 S 
ATOM     64  O   UNL A   1      44.182  38.804  35.503  1.00  0.00    -0.237 OA
ATOM     65  O   UNL A   1      45.338  39.323  33.382  1.00  0.00    -0.237 OA
ATOM     66  O   UNL A   1      42.941  39.833  33.634  1.00  0.00    -0.744 OA
ENDBRANCH  62  63
ENDBRANCH  36  57
ENDBRANCH  10  11
ENDBRANCH   3   5
ENDBRANCH   2   3
ENDBRANCH   1   2
BRANCH   1  67
ATOM     67  C   UNL A   1      35.551  22.963  24.102  1.00  0.00     0.274 C 
BRANCH  67  68
ATOM     68  O   UNL A   1      35.021  23.654  22.954  1.00  0.00    -0.462 OA
BRANCH  68  69
ATOM     69  C   UNL A   1      33.648  23.592  22.881  1.00  0.00     0.313 C 
ATOM     70  O   UNL A   1      33.040  22.671  22.343  1.00  0.00    -0.252 OA
BRANCH  69  71
ATOM     71  C   UNL A   1      32.934  24.790  23.504  1.00  0.00     0.079 C 
ATOM     72  C   UNL A   1      33.471  26.107  22.876  1.00  0.00     0.055 C 
ATOM     73  C   UNL A   1      31.423  24.793  23.122  1.00  0.00     0.055 C 
ATOM     74  C   UNL A   1      32.278  27.008  22.984  1.00  0.00    -0.044 A 
ATOM     75  C   UNL A   1      31.112  26.259  23.164  1.00  0.00    -0.044 A 
ATOM     76  C   UNL A   1      32.238  28.390  22.955  1.00  0.00     0.004 A 
ATOM     77  C   UNL A   1      29.891  26.876  23.371  1.00  0.00     0.004 A 
ATOM     78  C   UNL A   1      31.013  29.023  23.163  1.00  0.00     0.000 A 
ATOM     79  C   UNL A   1      29.850  28.272  23.383  1.00  0.00     0.000 A 
BRANCH  71  80
ATOM     80  C   UNL A   1      33.052  24.831  25.050  1.00  0.00     0.047 C 
BRANCH  80  81
ATOM     81  C   UNL A   1      33.548  26.117  25.656  1.00  0.00    -0.025 C 
ATOM     82  C   UNL A   1      32.741  26.878  26.415  1.00  0.00     0.004 C 
BRANCH  82  83
ATOM     83  C   UNL A   1      32.970  28.280  26.798  1.00  0.00    -0.026 A 
ATOM     84  C   UNL A   1      31.904  29.183  26.655  1.00  0.00     0.008 A 
ATOM     85  C   UNL A   1      34.213  28.777  27.205  1.00  0.00     0.008 A 
ATOM     86  C   UNL A   1      32.086  30.551  26.876  1.00  0.00     0.001 A 
ATOM     87  C   UNL A   1      34.395  30.145  27.429  1.00  0.00     0.001 A 
ATOM     88  C   UNL A   1      33.335  31.032  27.255  1.00  0.00     0.000 A 
ENDBRANCH  82  83
ENDBRANCH  80  81
ENDBRANCH  71  80
ENDBRANCH  69  71
ENDBRANCH  68  69
ENDBRANCH  67  68
ENDBRANCH   1  67
TORSDOF 17
ENDMDL
MODEL 3
REMARK VINA RESULT:     -11.4      3.746      6.984
REMARK SMILES O=C(OCCOC(=O)C1(C/C=C/c2ccccc2)Cc2ccccc2C1)c1ccc(-c2c3nc(c(-c4ccc(S(=O)(=O)[O-])cc4)c4ccc([nH]4)c(-c4ccc(S(=O)(=O)[O-])cc4)c4nc(c(-c5ccc(S(=O)(=O)[O-])cc5)c5ccc2[nH]5)C=C4)C=C3)cc1
REMARK SMILES IDX 4 1 3 2 2 3 1 4 27 5 28 6 86 7 29 8 85 9 30 10 31 11 32 12
REMARK SMILES IDX 79 13 33 14 84 15 78 16 80 17 34 18 83 19 77 20 76 21 35 23
REMARK SMILES IDX 65 24 46 25 64 26 47 27 50 28 63 29 81 30 48 31 49 32 62 34
REMARK SMILES IDX 82 35 51 36 36 37 37 38 45 39 38 40 44 41 39 42 40 43 41 44
REMARK SMILES IDX 42 45 43 46 66 47 67 48 75 49 68 50 74 51 69 52 70 53 71 54
REMARK SMILES IDX 72 55 73 56 52 57 53 58 61 59 54 60 60 61 55 62 56 63 57 64
REMARK SMILES IDX 58 65 59 66 5 67 6 68 7 69 8 70 9 71 19 72 26 73 20 74 25 75
REMARK SMILES IDX 21 76 24 77 22 78 23 79 10 80 11 81 12 82 13 83 14 84 18 85
REMARK SMILES IDX 15 86 17 87 16 88
REMARK H PARENT 80 22 50 33
REMARK Flexibility Score: inf
ROOT
ATOM      1  C   UNL A   1      33.845  32.537  27.825  1.00  0.00     0.275 C 
ENDROOT
BRANCH   1   2
ATOM      2  O   UNL A   1      34.035  31.263  28.440  1.00  0.00    -0.458 OA
BRANCH   2   3
ATOM      3  C   UNL A   1      34.528  30.260  27.694  1.00  0.00     0.338 C 
ATOM      4  O   UNL A   1      33.906  29.635  26.860  1.00  0.00    -0.246 OA
BRANCH   3   5
ATOM      5  C   UNL A   1      35.926  30.007  28.138  1.00  0.00     0.060 A 
ATOM      6  C   UNL A   1      36.200  29.402  29.375  1.00  0.00     0.016 A 
ATOM      7  C   UNL A   1      36.961  30.229  27.239  1.00  0.00     0.016 A 
ATOM      8  C   UNL A   1      37.487  28.976  29.685  1.00  0.00     0.010 A 
ATOM      9  C   UNL A   1      38.229  29.714  27.509  1.00  0.00     0.010 A 
ATOM     10  C   UNL A   1      38.507  29.092  28.739  1.00  0.00    -0.014 A 
BRANCH  10  11
ATOM     11  C   UNL A   1      39.891  28.666  29.066  1.00  0.00     0.031 A 
ATOM     12  C   UNL A   1      40.831  29.689  29.645  1.00  0.00     0.074 A 
ATOM     13  C   UNL A   1      40.309  27.405  28.826  1.00  0.00     0.049 A 
ATOM     14  N   UNL A   1      42.106  29.588  29.904  1.00  0.00    -0.248 NA
ATOM     15  C   UNL A   1      40.266  31.020  29.940  1.00  0.00     0.031 C 
ATOM     16  C   UNL A   1      39.497  26.322  28.261  1.00  0.00     0.029 A 
ATOM     17  N   UNL A   1      41.540  26.821  29.005  1.00  0.00    -0.354 N 
ATOM     18  C   UNL A   1      42.491  30.840  30.368  1.00  0.00     0.074 A 
ATOM     19  C   UNL A   1      41.347  31.712  30.255  1.00  0.00     0.031 C 
ATOM     20  C   UNL A   1      40.259  25.227  28.103  1.00  0.00     0.029 A 
ATOM     21  C   UNL A   1      41.614  25.527  28.537  1.00  0.00     0.049 A 
ATOM     22  H   UNL A   1      42.298  27.284  29.429  1.00  0.00     0.167 HD
ATOM     23  C   UNL A   1      43.670  31.213  30.915  1.00  0.00     0.031 A 
ATOM     24  C   UNL A   1      42.663  24.686  28.457  1.00  0.00     0.031 A 
ATOM     25  C   UNL A   1      44.758  30.305  31.128  1.00  0.00     0.049 A 
ATOM     26  C   UNL A   1      43.971  25.124  29.054  1.00  0.00     0.074 A 
ATOM     27  C   UNL A   1      45.935  30.518  31.818  1.00  0.00     0.029 A 
ATOM     28  N   UNL A   1      44.785  28.996  30.671  1.00  0.00    -0.354 N 
ATOM     29  N   UNL A   1      44.278  26.280  29.594  1.00  0.00    -0.248 NA
ATOM     30  C   UNL A   1      45.056  24.133  29.084  1.00  0.00     0.031 C 
ATOM     31  C   UNL A   1      46.687  29.340  31.759  1.00  0.00     0.029 A 
ATOM     32  C   UNL A   1      45.964  28.390  31.054  1.00  0.00     0.049 A 
ATOM     33  H   UNL A   1      44.069  28.564  30.150  1.00  0.00     0.167 HD
ATOM     34  C   UNL A   1      45.573  26.137  30.076  1.00  0.00     0.074 A 
ATOM     35  C   UNL A   1      45.993  24.788  29.755  1.00  0.00     0.031 C 
ATOM     36  C   UNL A   1      46.338  27.036  30.740  1.00  0.00     0.031 A 
BRANCH  23  37
ATOM     37  C   UNL A   1      43.798  32.636  31.387  1.00  0.00    -0.014 A 
ATOM     38  C   UNL A   1      43.982  33.683  30.464  1.00  0.00     0.010 A 
ATOM     39  C   UNL A   1      43.719  32.936  32.756  1.00  0.00     0.010 A 
ATOM     40  C   UNL A   1      44.139  34.997  30.903  1.00  0.00     0.020 A 
ATOM     41  C   UNL A   1      43.846  34.257  33.200  1.00  0.00     0.020 A 
ATOM     42  C   UNL A   1      44.074  35.276  32.271  1.00  0.00     0.054 A 
BRANCH  42  43
ATOM     43  S   UNL A   1      44.254  36.998  32.812  1.00  0.00     0.124 S 
ATOM     44  O   UNL A   1      45.518  36.952  33.541  1.00  0.00    -0.237 OA
ATOM     45  O   UNL A   1      44.285  37.730  31.548  1.00  0.00    -0.237 OA
ATOM     46  O   UNL A   1      43.068  37.229  33.632  1.00  0.00    -0.744 OA
ENDBRANCH  42  43
ENDBRANCH  23  37
BRANCH  24  47
ATOM     47  C   UNL A   1      42.528  23.357  27.797  1.00  0.00    -0.014 A 
ATOM     48  C   UNL A   1      41.800  22.316  28.397  1.00  0.00     0.010 A 
ATOM     49  C   UNL A   1      43.168  23.119  26.566  1.00  0.00     0.010 A 
ATOM     50  C   UNL A   1      41.745  21.052  27.799  1.00  0.00     0.020 A 
ATOM     51  C   UNL A   1      43.097  21.862  25.953  1.00  0.00     0.020 A 
ATOM     52  C   UNL A   1      42.400  20.831  26.585  1.00  0.00     0.054 A 
BRANCH  52  53
ATOM     53  S   UNL A   1      42.313  19.181  25.830  1.00  0.00     0.124 S 
ATOM     54  O   UNL A   1      43.121  19.355  24.626  1.00  0.00    -0.237 OA
ATOM     55  O   UNL A   1      42.895  18.330  26.865  1.00  0.00    -0.237 OA
ATOM     56  O   UNL A   1      40.883  18.983  25.601  1.00  0.00    -0.744 OA
ENDBRANCH  52  53
ENDBRANCH  24  47
BRANCH  36  57
ATOM     57  C   UNL A   1      47.684  26.572  31.211  1.00  0.00    -0.014 A 
ATOM     58  C   UNL A   1      48.830  26.774  30.426  1.00  0.00     0.010 A 
ATOM     59  C   UNL A   1      47.807  26.009  32.494  1.00  0.00     0.010 A 
ATOM     60  C   UNL A   1      50.084  26.408  30.915  1.00  0.00     0.020 A 
ATOM     61  C   UNL A   1      49.063  25.665  32.996  1.00  0.00     0.020 A 
ATOM     62  C   UNL A   1      50.193  25.860  32.199  1.00  0.00     0.054 A 
BRANCH  62  63
ATOM     63  S   UNL A   1      51.841  25.469  32.842  1.00  0.00     0.124 S 
ATOM     64  O   UNL A   1      51.649  25.627  34.281  1.00  0.00    -0.237 OA
ATOM     65  O   UNL A   1      52.051  24.099  32.382  1.00  0.00    -0.237 OA
ATOM     66  O   UNL A   1      52.702  26.470  32.214  1.00  0.00    -0.744 OA
ENDBRANCH  62  63
ENDBRANCH  36  57
ENDBRANCH  10  11
ENDBRANCH   3   5
ENDBRANCH   2   3
ENDBRANCH   1   2
BRANCH   1  67
ATOM     67  C   UNL A   1      34.010  33.865  28.599  1.00  0.00     0.274 C 
BRANCH  67  68
ATOM     68  O   UNL A   1      35.158  34.039  29.452  1.00  0.00    -0.462 OA
BRANCH  68  69
ATOM     69  C   UNL A   1      34.848  33.945  30.789  1.00  0.00     0.313 C 
ATOM     70  O   UNL A   1      33.720  34.136  31.238  1.00  0.00    -0.252 OA
BRANCH  69  71
ATOM     71  C   UNL A   1      36.039  33.611  31.686  1.00  0.00     0.079 C 
ATOM     72  C   UNL A   1      37.364  33.831  30.904  1.00  0.00     0.055 C 
ATOM     73  C   UNL A   1      36.140  34.620  32.869  1.00  0.00     0.055 C 
ATOM     74  C   UNL A   1      38.314  34.191  32.005  1.00  0.00    -0.044 A 
ATOM     75  C   UNL A   1      37.614  34.604  33.142  1.00  0.00    -0.044 A 
ATOM     76  C   UNL A   1      39.695  34.127  32.005  1.00  0.00     0.004 A 
ATOM     77  C   UNL A   1      38.277  34.912  34.317  1.00  0.00     0.004 A 
ATOM     78  C   UNL A   1      40.374  34.433  33.184  1.00  0.00     0.000 A 
ATOM     79  C   UNL A   1      39.670  34.809  34.336  1.00  0.00     0.000 A 
BRANCH  71  80
ATOM     80  C   UNL A   1      35.976  32.174  32.267  1.00  0.00     0.047 C 
BRANCH  80  81
ATOM     81  C   UNL A   1      37.214  31.329  32.114  1.00  0.00    -0.025 C 
ATOM     82  C   UNL A   1      37.810  30.781  33.186  1.00  0.00     0.004 C 
BRANCH  82  83
ATOM     83  C   UNL A   1      39.169  30.218  33.236  1.00  0.00    -0.026 A 
ATOM     84  C   UNL A   1      39.343  28.882  32.836  1.00  0.00     0.008 A 
ATOM     85  C   UNL A   1      40.274  30.909  33.745  1.00  0.00     0.008 A 
ATOM     86  C   UNL A   1      40.577  28.245  32.979  1.00  0.00     0.001 A 
ATOM     87  C   UNL A   1      41.511  30.272  33.885  1.00  0.00     0.001 A 
ATOM     88  C   UNL A   1      41.660  28.938  33.511  1.00  0.00     0.000 A 
ENDBRANCH  82  83
ENDBRANCH  80  81
ENDBRANCH  71  80
ENDBRANCH  69  71
ENDBRANCH  68  69
ENDBRANCH  67  68
ENDBRANCH   1  67
TORSDOF 17
ENDMDL
