MODEL 1
REMARK VINA RESULT:      -8.9      0.000      0.000
REMARK SMILES Cc1sc(C(=O)OCCOC(=O)c2ccc(-c3c4nc(c(-c5ccc(S(=O)(=O)[O-])cc5)c5ccc([nH]5)c(-c5ccc(S(=O)(=O)[O-])cc5)c5nc(c(-c6ccc(S(=O)(=O)[O-])cc6)c6ccc3[nH]6)C=C5)C=C4)cc2)cc1Br
REMARK SMILES IDX 10 1 9 2 8 3 7 4 5 5 6 6 4 7 1 8 2 9 3 10 74 11 73 12 75 13
REMARK SMILES IDX 11 14 12 15 13 16 14 17 72 18 15 19 71 20 16 21 17 22 18 23
REMARK SMILES IDX 65 24 19 25 70 26 64 27 66 28 20 29 69 30 63 31 62 32 21 34
REMARK SMILES IDX 51 35 32 36 50 37 33 38 36 39 49 40 67 41 34 42 35 43 48 45
REMARK SMILES IDX 68 46 37 47 22 48 23 49 31 50 24 51 30 52 25 53 26 54 27 55
REMARK SMILES IDX 28 56 29 57 52 58 53 59 61 60 54 61 60 62 55 63 56 64 57 65
REMARK SMILES IDX 58 66 59 67 38 68 39 69 47 70 40 71 46 72 41 73 42 74 43 75
REMARK SMILES IDX 44 76 45 77
REMARK H PARENT 66 33 36 44
REMARK Flexibility Score: inf
ROOT
ATOM      1  O   UNL A   1      34.168  31.546  28.787  1.00  0.00    -0.458 OA
ENDROOT
BRANCH   1   2
ATOM      2  C   UNL A   1      34.625  32.878  28.489  1.00  0.00     0.275 C 
BRANCH   2   3
ATOM      3  C   UNL A   1      34.101  33.899  29.504  1.00  0.00     0.275 C 
BRANCH   3   4
ATOM      4  O   UNL A   1      35.039  34.118  30.575  1.00  0.00    -0.458 OA
BRANCH   4   5
ATOM      5  C   UNL A   1      34.985  33.226  31.612  1.00  0.00     0.348 C 
ATOM      6  O   UNL A   1      33.963  32.665  31.977  1.00  0.00    -0.245 OA
BRANCH   5   7
ATOM      7  C   UNL A   1      36.318  33.008  32.149  1.00  0.00     0.114 A 
ATOM      8  C   UNL A   1      39.713  34.199  33.716  1.00  0.00     0.057 C 
ATOM      9  C   UNL A   1      38.549  33.468  33.135  1.00  0.00     0.017 A 
ATOM     10  S   UNL A   1      37.442  34.310  32.135  1.00  0.00    -0.132 S 
ATOM     11  C   UNL A   1      38.162  32.157  33.275  1.00  0.00     0.032 A 
ATOM     12  C   UNL A   1      36.883  31.883  32.719  1.00  0.00     0.043 A 
ATOM     13  Br  UNL A   1      39.130  30.811  34.181  1.00  0.00    -0.050 Br
ENDBRANCH   5   7
ENDBRANCH   4   5
ENDBRANCH   3   4
ENDBRANCH   2   3
ENDBRANCH   1   2
BRANCH   1  14
ATOM     14  C   UNL A   1      34.461  30.615  27.849  1.00  0.00     0.338 C 
ATOM     15  O   UNL A   1      33.786  30.312  26.878  1.00  0.00    -0.246 OA
BRANCH  14  16
ATOM     16  C   UNL A   1      35.812  30.080  28.080  1.00  0.00     0.060 A 
ATOM     17  C   UNL A   1      36.113  29.639  29.365  1.00  0.00     0.016 A 
ATOM     18  C   UNL A   1      36.802  30.114  27.097  1.00  0.00     0.016 A 
ATOM     19  C   UNL A   1      37.406  29.248  29.694  1.00  0.00     0.010 A 
ATOM     20  C   UNL A   1      38.102  29.696  27.421  1.00  0.00     0.010 A 
ATOM     21  C   UNL A   1      38.419  29.277  28.727  1.00  0.00    -0.014 A 
BRANCH  21  22
ATOM     22  C   UNL A   1      39.808  28.911  29.112  1.00  0.00     0.031 A 
ATOM     23  C   UNL A   1      40.662  29.883  29.883  1.00  0.00     0.074 A 
ATOM     24  C   UNL A   1      40.289  27.686  28.817  1.00  0.00     0.049 A 
ATOM     25  N   UNL A   1      41.912  29.772  30.252  1.00  0.00    -0.248 NA
ATOM     26  C   UNL A   1      40.024  31.145  30.293  1.00  0.00     0.031 C 
ATOM     27  C   UNL A   1      39.547  26.629  28.127  1.00  0.00     0.029 A 
ATOM     28  N   UNL A   1      41.515  27.118  29.072  1.00  0.00    -0.354 N 
ATOM     29  C   UNL A   1      42.222  30.959  30.908  1.00  0.00     0.074 A 
ATOM     30  C   UNL A   1      41.031  31.781  30.877  1.00  0.00     0.031 C 
ATOM     31  C   UNL A   1      40.324  25.538  28.031  1.00  0.00     0.029 A 
ATOM     32  C   UNL A   1      41.637  25.834  28.596  1.00  0.00     0.049 A 
ATOM     33  H   UNL A   1      42.237  27.587  29.549  1.00  0.00     0.167 HD
ATOM     34  C   UNL A   1      43.390  31.329  31.486  1.00  0.00     0.031 A 
ATOM     35  C   UNL A   1      42.693  24.997  28.586  1.00  0.00     0.031 A 
ATOM     36  C   UNL A   1      44.570  30.502  31.531  1.00  0.00     0.049 A 
ATOM     37  C   UNL A   1      43.997  25.455  29.181  1.00  0.00     0.074 A 
ATOM     38  C   UNL A   1      45.801  30.790  32.094  1.00  0.00     0.029 A 
ATOM     39  N   UNL A   1      44.665  29.226  30.996  1.00  0.00    -0.354 N 
ATOM     40  N   UNL A   1      44.278  26.590  29.775  1.00  0.00    -0.248 NA
ATOM     41  C   UNL A   1      45.129  24.520  29.098  1.00  0.00     0.031 C 
ATOM     42  C   UNL A   1      46.655  29.707  31.860  1.00  0.00     0.029 A 
ATOM     43  C   UNL A   1      45.939  28.722  31.199  1.00  0.00     0.049 A 
ATOM     44  H   UNL A   1      43.934  28.749  30.540  1.00  0.00     0.167 HD
ATOM     45  C   UNL A   1      45.614  26.499  30.151  1.00  0.00     0.074 A 
ATOM     46  C   UNL A   1      46.078  25.191  29.736  1.00  0.00     0.031 C 
ATOM     47  C   UNL A   1      46.387  27.419  30.779  1.00  0.00     0.031 A 
BRANCH  34  48
ATOM     48  C   UNL A   1      43.469  32.707  32.087  1.00  0.00    -0.014 A 
ATOM     49  C   UNL A   1      43.643  33.849  31.284  1.00  0.00     0.010 A 
ATOM     50  C   UNL A   1      43.317  32.866  33.477  1.00  0.00     0.010 A 
ATOM     51  C   UNL A   1      43.698  35.119  31.865  1.00  0.00     0.020 A 
ATOM     52  C   UNL A   1      43.347  34.137  34.058  1.00  0.00     0.020 A 
ATOM     53  C   UNL A   1      43.553  35.255  33.249  1.00  0.00     0.054 A 
BRANCH  53  54
ATOM     54  S   UNL A   1      43.604  36.918  33.974  1.00  0.00     0.124 S 
ATOM     55  O   UNL A   1      44.753  36.819  34.871  1.00  0.00    -0.237 OA
ATOM     56  O   UNL A   1      43.794  37.772  32.805  1.00  0.00    -0.237 OA
ATOM     57  O   UNL A   1      42.308  37.050  34.634  1.00  0.00    -0.744 OA
ENDBRANCH  53  54
ENDBRANCH  34  48
BRANCH  35  58
ATOM     58  C   UNL A   1      42.575  23.655  27.950  1.00  0.00    -0.014 A 
ATOM     59  C   UNL A   1      43.119  23.410  26.678  1.00  0.00     0.010 A 
ATOM     60  C   UNL A   1      41.909  22.613  28.622  1.00  0.00     0.010 A 
ATOM     61  C   UNL A   1      42.985  22.152  26.082  1.00  0.00     0.020 A 
ATOM     62  C   UNL A   1      41.798  21.347  28.042  1.00  0.00     0.020 A 
ATOM     63  C   UNL A   1      42.325  21.128  26.769  1.00  0.00     0.054 A 
BRANCH  63  64
ATOM     64  S   UNL A   1      42.200  19.489  25.998  1.00  0.00     0.124 S 
ATOM     65  O   UNL A   1      43.065  19.636  24.833  1.00  0.00    -0.237 OA
ATOM     66  O   UNL A   1      42.697  18.605  27.049  1.00  0.00    -0.237 OA
ATOM     67  O   UNL A   1      40.774  19.358  25.708  1.00  0.00    -0.744 OA
ENDBRANCH  63  64
ENDBRANCH  35  58
BRANCH  47  68
ATOM     68  C   UNL A   1      47.809  27.031  31.087  1.00  0.00    -0.014 A 
ATOM     69  C   UNL A   1      48.131  26.309  32.249  1.00  0.00     0.010 A 
ATOM     70  C   UNL A   1      48.830  27.354  30.175  1.00  0.00     0.010 A 
ATOM     71  C   UNL A   1      49.455  25.943  32.510  1.00  0.00     0.020 A 
ATOM     72  C   UNL A   1      50.151  26.969  30.419  1.00  0.00     0.020 A 
ATOM     73  C   UNL A   1      50.456  26.277  31.592  1.00  0.00     0.054 A 
BRANCH  73  74
ATOM     74  S   UNL A   1      52.161  25.756  31.932  1.00  0.00     0.124 S 
ATOM     75  O   UNL A   1      51.985  24.351  32.289  1.00  0.00    -0.237 OA
ATOM     76  O   UNL A   1      52.832  26.001  30.657  1.00  0.00    -0.237 OA
ATOM     77  O   UNL A   1      52.578  26.631  33.026  1.00  0.00    -0.744 OA
ENDBRANCH  73  74
ENDBRANCH  47  68
ENDBRANCH  21  22
ENDBRANCH  14  16
ENDBRANCH   1  14
TORSDOF 14
ENDMDL
MODEL 2
REMARK VINA RESULT:      -8.7      2.833      9.076
REMARK SMILES Cc1sc(C(=O)OCCOC(=O)c2ccc(-c3c4nc(c(-c5ccc(S(=O)(=O)[O-])cc5)c5ccc([nH]5)c(-c5ccc(S(=O)(=O)[O-])cc5)c5nc(c(-c6ccc(S(=O)(=O)[O-])cc6)c6ccc3[nH]6)C=C5)C=C4)cc2)cc1Br
REMARK SMILES IDX 10 1 9 2 8 3 7 4 5 5 6 6 4 7 1 8 2 9 3 10 74 11 73 12 75 13
REMARK SMILES IDX 11 14 12 15 13 16 14 17 72 18 15 19 71 20 16 21 17 22 18 23
REMARK SMILES IDX 65 24 19 25 70 26 64 27 66 28 20 29 69 30 63 31 62 32 21 34
REMARK SMILES IDX 51 35 32 36 50 37 33 38 36 39 49 40 67 41 34 42 35 43 48 45
REMARK SMILES IDX 68 46 37 47 22 48 23 49 31 50 24 51 30 52 25 53 26 54 27 55
REMARK SMILES IDX 28 56 29 57 52 58 53 59 61 60 54 61 60 62 55 63 56 64 57 65
REMARK SMILES IDX 58 66 59 67 38 68 39 69 47 70 40 71 46 72 41 73 42 74 43 75
REMARK SMILES IDX 44 76 45 77
REMARK H PARENT 66 33 36 44
REMARK Flexibility Score: inf
ROOT
ATOM      1  O   UNL A   1      34.509  32.990  27.681  1.00  0.00    -0.458 OA
ENDROOT
BRANCH   1   2
ATOM      2  C   UNL A   1      33.199  33.555  27.874  1.00  0.00     0.275 C 
BRANCH   2   3
ATOM      3  C   UNL A   1      33.269  34.956  28.490  1.00  0.00     0.275 C 
BRANCH   3   4
ATOM      4  O   UNL A   1      32.514  35.040  29.714  1.00  0.00    -0.458 OA
BRANCH   4   5
ATOM      5  C   UNL A   1      33.041  35.842  30.690  1.00  0.00     0.348 C 
ATOM      6  O   UNL A   1      32.728  37.011  30.855  1.00  0.00    -0.245 OA
BRANCH   5   7
ATOM      7  C   UNL A   1      33.958  35.077  31.519  1.00  0.00     0.114 A 
ATOM      8  C   UNL A   1      35.663  34.130  34.924  1.00  0.00     0.057 C 
ATOM      9  C   UNL A   1      35.197  34.274  33.514  1.00  0.00     0.017 A 
ATOM     10  S   UNL A   1      34.495  35.751  33.006  1.00  0.00    -0.132 S 
ATOM     11  C   UNL A   1      35.212  33.373  32.476  1.00  0.00     0.032 A 
ATOM     12  C   UNL A   1      34.500  33.819  31.330  1.00  0.00     0.043 A 
ATOM     13  Br  UNL A   1      35.997  31.655  32.517  1.00  0.00    -0.050 Br
ENDBRANCH   5   7
ENDBRANCH   4   5
ENDBRANCH   3   4
ENDBRANCH   2   3
ENDBRANCH   1   2
BRANCH   1  14
ATOM     14  C   UNL A   1      34.579  31.644  27.803  1.00  0.00     0.338 C 
ATOM     15  O   UNL A   1      33.746  30.829  27.441  1.00  0.00    -0.246 OA
BRANCH  14  16
ATOM     16  C   UNL A   1      35.897  31.257  28.329  1.00  0.00     0.060 A 
ATOM     17  C   UNL A   1      36.015  29.986  28.884  1.00  0.00     0.016 A 
ATOM     18  C   UNL A   1      36.966  32.153  28.387  1.00  0.00     0.016 A 
ATOM     19  C   UNL A   1      37.189  29.599  29.523  1.00  0.00     0.010 A 
ATOM     20  C   UNL A   1      38.158  31.755  29.009  1.00  0.00     0.010 A 
ATOM     21  C   UNL A   1      38.274  30.482  29.598  1.00  0.00    -0.014 A 
BRANCH  21  22
ATOM     22  C   UNL A   1      39.499  30.071  30.336  1.00  0.00     0.031 A 
ATOM     23  C   UNL A   1      40.350  28.941  29.820  1.00  0.00     0.074 A 
ATOM     24  C   UNL A   1      39.878  30.745  31.441  1.00  0.00     0.049 A 
ATOM     25  N   UNL A   1      41.414  28.399  30.355  1.00  0.00    -0.248 NA
ATOM     26  C   UNL A   1      39.954  28.346  28.534  1.00  0.00     0.031 C 
ATOM     27  C   UNL A   1      39.175  31.895  32.014  1.00  0.00     0.029 A 
ATOM     28  N   UNL A   1      40.956  30.566  32.274  1.00  0.00    -0.354 N 
ATOM     29  C   UNL A   1      41.797  27.378  29.490  1.00  0.00     0.074 A 
ATOM     30  C   UNL A   1      40.843  27.370  28.401  1.00  0.00     0.031 C 
ATOM     31  C   UNL A   1      39.850  32.330  33.090  1.00  0.00     0.029 A 
ATOM     32  C   UNL A   1      40.996  31.456  33.321  1.00  0.00     0.049 A 
ATOM     33  H   UNL A   1      41.634  29.866  32.135  1.00  0.00     0.167 HD
ATOM     34  C   UNL A   1      42.847  26.528  29.593  1.00  0.00     0.031 A 
ATOM     35  C   UNL A   1      41.841  31.544  34.368  1.00  0.00     0.031 A 
ATOM     36  C   UNL A   1      43.804  26.548  30.669  1.00  0.00     0.049 A 
ATOM     37  C   UNL A   1      42.963  30.550  34.491  1.00  0.00     0.074 A 
ATOM     38  C   UNL A   1      44.901  25.727  30.860  1.00  0.00     0.029 A 
ATOM     39  N   UNL A   1      43.781  27.437  31.734  1.00  0.00    -0.354 N 
ATOM     40  N   UNL A   1      43.294  29.576  33.676  1.00  0.00    -0.248 NA
ATOM     41  C   UNL A   1      43.822  30.662  35.678  1.00  0.00     0.031 C 
ATOM     42  C   UNL A   1      45.516  26.088  32.063  1.00  0.00     0.029 A 
ATOM     43  C   UNL A   1      44.834  27.171  32.594  1.00  0.00     0.049 A 
ATOM     44  H   UNL A   1      43.115  28.151  31.859  1.00  0.00     0.167 HD
ATOM     45  C   UNL A   1      44.409  28.971  34.245  1.00  0.00     0.074 A 
ATOM     46  C   UNL A   1      44.709  29.700  35.460  1.00  0.00     0.031 C 
ATOM     47  C   UNL A   1      45.119  27.904  33.801  1.00  0.00     0.031 A 
BRANCH  34  48
ATOM     48  C   UNL A   1      42.998  25.471  28.530  1.00  0.00    -0.014 A 
ATOM     49  C   UNL A   1      43.867  25.648  27.439  1.00  0.00     0.010 A 
ATOM     50  C   UNL A   1      42.292  24.260  28.654  1.00  0.00     0.010 A 
ATOM     51  C   UNL A   1      44.001  24.647  26.473  1.00  0.00     0.020 A 
ATOM     52  C   UNL A   1      42.443  23.246  27.702  1.00  0.00     0.020 A 
ATOM     53  C   UNL A   1      43.285  23.453  26.609  1.00  0.00     0.054 A 
BRANCH  53  54
ATOM     54  S   UNL A   1      43.495  22.159  25.354  1.00  0.00     0.124 S 
ATOM     55  O   UNL A   1      43.335  22.915  24.114  1.00  0.00    -0.237 OA
ATOM     56  O   UNL A   1      44.845  21.670  25.620  1.00  0.00    -0.237 OA
ATOM     57  O   UNL A   1      42.424  21.211  25.648  1.00  0.00    -0.744 OA
ENDBRANCH  53  54
ENDBRANCH  34  48
BRANCH  35  58
ATOM     58  C   UNL A   1      41.629  32.587  35.410  1.00  0.00    -0.014 A 
ATOM     59  C   UNL A   1      42.251  33.844  35.310  1.00  0.00     0.010 A 
ATOM     60  C   UNL A   1      40.799  32.322  36.515  1.00  0.00     0.010 A 
ATOM     61  C   UNL A   1      42.061  34.808  36.305  1.00  0.00     0.020 A 
ATOM     62  C   UNL A   1      40.583  33.293  37.496  1.00  0.00     0.020 A 
ATOM     63  C   UNL A   1      41.227  34.526  37.392  1.00  0.00     0.054 A 
BRANCH  63  64
ATOM     64  S   UNL A   1      40.958  35.807  38.650  1.00  0.00     0.124 S 
ATOM     65  O   UNL A   1      42.324  36.145  39.034  1.00  0.00    -0.237 OA
ATOM     66  O   UNL A   1      40.236  36.836  37.905  1.00  0.00    -0.237 OA
ATOM     67  O   UNL A   1      40.170  35.120  39.671  1.00  0.00    -0.744 OA
ENDBRANCH  63  64
ENDBRANCH  35  58
BRANCH  47  68
ATOM     68  C   UNL A   1      46.310  27.479  34.618  1.00  0.00    -0.014 A 
ATOM     69  C   UNL A   1      47.574  28.061  34.417  1.00  0.00     0.010 A 
ATOM     70  C   UNL A   1      46.149  26.518  35.632  1.00  0.00     0.010 A 
ATOM     71  C   UNL A   1      48.665  27.665  35.197  1.00  0.00     0.020 A 
ATOM     72  C   UNL A   1      47.232  26.138  36.430  1.00  0.00     0.020 A 
ATOM     73  C   UNL A   1      48.486  26.705  36.198  1.00  0.00     0.054 A 
BRANCH  73  74
ATOM     74  S   UNL A   1      49.908  26.238  37.224  1.00  0.00     0.124 S 
ATOM     75  O   UNL A   1      49.872  24.780  37.147  1.00  0.00    -0.237 OA
ATOM     76  O   UNL A   1      51.027  26.876  36.534  1.00  0.00    -0.237 OA
ATOM     77  O   UNL A   1      49.589  26.802  38.534  1.00  0.00    -0.744 OA
ENDBRANCH  73  74
ENDBRANCH  47  68
ENDBRANCH  21  22
ENDBRANCH  14  16
ENDBRANCH   1  14
TORSDOF 14
ENDMDL
MODEL 3
REMARK VINA RESULT:      -8.6      2.443      3.203
REMARK SMILES Cc1sc(C(=O)OCCOC(=O)c2ccc(-c3c4nc(c(-c5ccc(S(=O)(=O)[O-])cc5)c5ccc([nH]5)c(-c5ccc(S(=O)(=O)[O-])cc5)c5nc(c(-c6ccc(S(=O)(=O)[O-])cc6)c6ccc3[nH]6)C=C5)C=C4)cc2)cc1Br
REMARK SMILES IDX 10 1 9 2 8 3 7 4 5 5 6 6 4 7 1 8 2 9 3 10 74 11 73 12 75 13
REMARK SMILES IDX 11 14 12 15 13 16 14 17 72 18 15 19 71 20 16 21 17 22 18 23
REMARK SMILES IDX 65 24 19 25 70 26 64 27 66 28 20 29 69 30 63 31 62 32 21 34
REMARK SMILES IDX 51 35 32 36 50 37 33 38 36 39 49 40 67 41 34 42 35 43 48 45
REMARK SMILES IDX 68 46 37 47 22 48 23 49 31 50 24 51 30 52 25 53 26 54 27 55
REMARK SMILES IDX 28 56 29 57 52 58 53 59 61 60 54 61 60 62 55 63 56 64 57 65
REMARK SMILES IDX 58 66 59 67 38 68 39 69 47 70 40 71 46 72 41 73 42 74 43 75
REMARK SMILES IDX 44 76 45 77
REMARK H PARENT 66 33 36 44
REMARK Flexibility Score: inf
ROOT
ATOM      1  O   UNL A   1      34.636  32.806  27.623  1.00  0.00    -0.458 OA
ENDROOT
BRANCH   1   2
ATOM      2  C   UNL A   1      33.321  33.353  27.828  1.00  0.00     0.275 C 
BRANCH   2   3
ATOM      3  C   UNL A   1      33.378  34.783  28.376  1.00  0.00     0.275 C 
BRANCH   3   4
ATOM      4  O   UNL A   1      32.528  34.949  29.526  1.00  0.00    -0.458 OA
BRANCH   4   5
ATOM      5  C   UNL A   1      33.004  35.774  30.510  1.00  0.00     0.348 C 
ATOM      6  O   UNL A   1      32.666  36.940  30.646  1.00  0.00    -0.245 OA
BRANCH   5   7
ATOM      7  C   UNL A   1      33.900  35.036  31.385  1.00  0.00     0.114 A 
ATOM      8  C   UNL A   1      35.527  34.204  34.858  1.00  0.00     0.057 C 
ATOM      9  C   UNL A   1      35.094  34.300  33.433  1.00  0.00     0.017 A 
ATOM     10  S   UNL A   1      34.406  35.760  32.860  1.00  0.00    -0.132 S 
ATOM     11  C   UNL A   1      35.130  33.364  32.427  1.00  0.00     0.032 A 
ATOM     12  C   UNL A   1      34.444  33.772  31.251  1.00  0.00     0.043 A 
ATOM     13  Br  UNL A   1      35.910  31.648  32.545  1.00  0.00    -0.050 Br
ENDBRANCH   5   7
ENDBRANCH   4   5
ENDBRANCH   3   4
ENDBRANCH   2   3
ENDBRANCH   1   2
BRANCH   1  14
ATOM     14  C   UNL A   1      34.707  31.455  27.641  1.00  0.00     0.338 C 
ATOM     15  O   UNL A   1      34.017  30.674  27.007  1.00  0.00    -0.246 OA
BRANCH  14  16
ATOM     16  C   UNL A   1      35.855  31.026  28.457  1.00  0.00     0.060 A 
ATOM     17  C   UNL A   1      36.964  31.866  28.489  1.00  0.00     0.016 A 
ATOM     18  C   UNL A   1      35.896  29.780  29.084  1.00  0.00     0.016 A 
ATOM     19  C   UNL A   1      38.135  31.466  29.124  1.00  0.00     0.010 A 
ATOM     20  C   UNL A   1      37.068  29.387  29.746  1.00  0.00     0.010 A 
ATOM     21  C   UNL A   1      38.203  30.219  29.757  1.00  0.00    -0.014 A 
BRANCH  21  22
ATOM     22  C   UNL A   1      39.482  29.785  30.382  1.00  0.00     0.031 A 
ATOM     23  C   UNL A   1      40.002  30.487  31.608  1.00  0.00     0.074 A 
ATOM     24  C   UNL A   1      40.153  28.729  29.880  1.00  0.00     0.049 A 
ATOM     25  N   UNL A   1      41.124  30.297  32.255  1.00  0.00    -0.248 NA
ATOM     26  C   UNL A   1      39.147  31.538  32.183  1.00  0.00     0.031 C 
ATOM     27  C   UNL A   1      39.729  27.924  28.731  1.00  0.00     0.029 A 
ATOM     28  N   UNL A   1      41.329  28.141  30.279  1.00  0.00    -0.354 N 
ATOM     29  C   UNL A   1      41.126  31.224  33.293  1.00  0.00     0.074 A 
ATOM     30  C   UNL A   1      39.899  31.984  33.182  1.00  0.00     0.031 C 
ATOM     31  C   UNL A   1      40.620  26.939  28.533  1.00  0.00     0.029 A 
ATOM     32  C   UNL A   1      41.707  27.076  29.497  1.00  0.00     0.049 A 
ATOM     33  H   UNL A   1      41.852  28.454  31.053  1.00  0.00     0.167 HD
ATOM     34  C   UNL A   1      42.064  31.423  34.251  1.00  0.00     0.031 A 
ATOM     35  C   UNL A   1      42.817  26.312  29.529  1.00  0.00     0.031 A 
ATOM     36  C   UNL A   1      43.277  30.655  34.369  1.00  0.00     0.049 A 
ATOM     37  C   UNL A   1      43.871  26.593  30.565  1.00  0.00     0.074 A 
ATOM     38  C   UNL A   1      44.288  30.782  35.306  1.00  0.00     0.029 A 
ATOM     39  N   UNL A   1      43.643  29.615  33.527  1.00  0.00    -0.354 N 
ATOM     40  N   UNL A   1      43.868  27.489  31.522  1.00  0.00    -0.248 NA
ATOM     41  C   UNL A   1      45.083  25.761  30.522  1.00  0.00     0.031 C 
ATOM     42  C   UNL A   1      45.286  29.850  35.005  1.00  0.00     0.029 A 
ATOM     43  C   UNL A   1      44.872  29.105  33.912  1.00  0.00     0.049 A 
ATOM     44  H   UNL A   1      43.108  29.288  32.768  1.00  0.00     0.167 HD
ATOM     45  C   UNL A   1      45.067  27.318  32.204  1.00  0.00     0.074 A 
ATOM     46  C   UNL A   1      45.761  26.220  31.564  1.00  0.00     0.031 C 
ATOM     47  C   UNL A   1      45.551  28.013  33.264  1.00  0.00     0.031 A 
BRANCH  34  48
ATOM     48  C   UNL A   1      41.836  32.543  35.231  1.00  0.00    -0.014 A 
ATOM     49  C   UNL A   1      42.249  33.858  34.951  1.00  0.00     0.010 A 
ATOM     50  C   UNL A   1      41.153  32.283  36.433  1.00  0.00     0.010 A 
ATOM     51  C   UNL A   1      42.015  34.884  35.871  1.00  0.00     0.020 A 
ATOM     52  C   UNL A   1      40.894  33.311  37.344  1.00  0.00     0.020 A 
ATOM     53  C   UNL A   1      41.341  34.603  37.064  1.00  0.00     0.054 A 
BRANCH  53  54
ATOM     54  S   UNL A   1      41.027  35.958  38.230  1.00  0.00     0.124 S 
ATOM     55  O   UNL A   1      40.462  35.245  39.373  1.00  0.00    -0.237 OA
ATOM     56  O   UNL A   1      42.360  36.517  38.437  1.00  0.00    -0.237 OA
ATOM     57  O   UNL A   1      40.095  36.824  37.513  1.00  0.00    -0.744 OA
ENDBRANCH  53  54
ENDBRANCH  34  48
BRANCH  35  58
ATOM     58  C   UNL A   1      43.011  25.236  28.516  1.00  0.00    -0.014 A 
ATOM     59  C   UNL A   1      43.707  25.488  27.322  1.00  0.00     0.010 A 
ATOM     60  C   UNL A   1      42.492  23.949  28.748  1.00  0.00     0.010 A 
ATOM     61  C   UNL A   1      43.866  24.475  26.370  1.00  0.00     0.020 A 
ATOM     62  C   UNL A   1      42.673  22.927  27.812  1.00  0.00     0.020 A 
ATOM     63  C   UNL A   1      43.348  23.201  26.622  1.00  0.00     0.054 A 
BRANCH  63  64
ATOM     64  S   UNL A   1      43.602  21.889  25.393  1.00  0.00     0.124 S 
ATOM     65  O   UNL A   1      42.562  20.932  25.754  1.00  0.00    -0.237 OA
ATOM     66  O   UNL A   1      43.403  22.595  24.129  1.00  0.00    -0.237 OA
ATOM     67  O   UNL A   1      44.973  21.450  25.643  1.00  0.00    -0.744 OA
ENDBRANCH  63  64
ENDBRANCH  35  58
BRANCH  47  68
ATOM     68  C   UNL A   1      46.883  27.584  33.819  1.00  0.00    -0.014 A 
ATOM     69  C   UNL A   1      48.081  28.166  33.367  1.00  0.00     0.010 A 
ATOM     70  C   UNL A   1      46.932  26.620  34.842  1.00  0.00     0.010 A 
ATOM     71  C   UNL A   1      49.308  27.768  33.907  1.00  0.00     0.020 A 
ATOM     72  C   UNL A   1      48.154  26.237  35.401  1.00  0.00     0.020 A 
ATOM     73  C   UNL A   1      49.336  26.805  34.920  1.00  0.00     0.054 A 
BRANCH  73  74
ATOM     74  S   UNL A   1      50.936  26.333  35.633  1.00  0.00     0.124 S 
ATOM     75  O   UNL A   1      51.808  27.406  35.162  1.00  0.00    -0.237 OA
ATOM     76  O   UNL A   1      50.661  26.332  37.069  1.00  0.00    -0.237 OA
ATOM     77  O   UNL A   1      51.197  25.017  35.055  1.00  0.00    -0.744 OA
ENDBRANCH  73  74
ENDBRANCH  47  68
ENDBRANCH  21  22
ENDBRANCH  14  16
ENDBRANCH   1  14
TORSDOF 14
ENDMDL
