MODEL 1
REMARK VINA RESULT:     -11.4      0.000      0.000
REMARK SMILES O=C(OCCOC(=O)[C@H]1CC2(CC[NH+](C(=O)c3cccc(O)c3)CC2)CN1C(=O)C1CC1)c1ccc(-c2c3nc(c(-c4ccc(S(=O)(=O)[O-])cc4)c4ccc([nH]4)c(-c4ccc(S(=O)(=O)[O-])cc4)c4nc(c(-c5ccc(S(=O)(=O)[O-])cc5)c5ccc2[nH]5)C=C4)C=C3)cc1
REMARK SMILES IDX 4 1 3 2 2 3 1 4 33 5 34 6 92 7 35 8 91 9 36 10 37 11 38 12
REMARK SMILES IDX 85 13 39 14 90 15 84 16 86 17 40 18 89 19 83 20 82 21 41 23
REMARK SMILES IDX 71 24 52 25 70 26 53 27 56 28 69 29 87 30 54 31 55 32 68 34
REMARK SMILES IDX 88 35 57 36 42 37 43 38 51 39 44 40 50 41 45 42 46 43 47 44
REMARK SMILES IDX 48 45 49 46 72 47 73 48 81 49 74 50 80 51 75 52 76 53 77 54
REMARK SMILES IDX 78 55 79 56 58 57 59 58 67 59 60 60 66 61 61 62 62 63 63 64
REMARK SMILES IDX 64 65 65 66 5 67 6 68 7 69 8 70 9 71 10 72 27 73 11 74 26 75
REMARK SMILES IDX 12 76 25 77 13 78 24 79 14 80 28 82 29 83 30 84 31 85 32 86
REMARK SMILES IDX 15 87 16 88 17 89 18 90 23 91 19 92 21 93 20 94 22 95
REMARK H PARENT 86 22 56 33 14 81 22 96
REMARK Flexibility Score: inf
ROOT
ATOM      1  C   UNL A   1      39.298  20.727  25.771  1.00  0.00     0.275 C 
ENDROOT
BRANCH   1   2
ATOM      2  O   UNL A   1      40.320  19.701  25.750  1.00  0.00    -0.458 OA
BRANCH   2   3
ATOM      3  C   UNL A   1      41.658  19.839  25.934  1.00  0.00     0.338 C 
ATOM      4  O   UNL A   1      42.406  18.871  25.851  1.00  0.00    -0.246 OA
BRANCH   3   5
ATOM      5  C   UNL A   1      42.220  21.127  26.406  1.00  0.00     0.060 A 
ATOM      6  C   UNL A   1      42.297  21.454  27.758  1.00  0.00     0.016 A 
ATOM      7  C   UNL A   1      42.614  22.069  25.443  1.00  0.00     0.016 A 
ATOM      8  C   UNL A   1      42.866  22.666  28.149  1.00  0.00     0.010 A 
ATOM      9  C   UNL A   1      43.188  23.284  25.833  1.00  0.00     0.010 A 
ATOM     10  C   UNL A   1      43.317  23.588  27.194  1.00  0.00    -0.014 A 
BRANCH  10  11
ATOM     11  C   UNL A   1      43.747  24.926  27.658  1.00  0.00     0.031 A 
ATOM     12  C   UNL A   1      45.214  25.249  27.648  1.00  0.00     0.074 A 
ATOM     13  C   UNL A   1      42.849  25.885  27.953  1.00  0.00     0.049 A 
ATOM     14  N   UNL A   1      45.791  26.415  27.762  1.00  0.00    -0.248 NA
ATOM     15  C   UNL A   1      46.146  24.131  27.418  1.00  0.00     0.031 C 
ATOM     16  C   UNL A   1      41.394  25.735  27.937  1.00  0.00     0.029 A 
ATOM     17  N   UNL A   1      43.039  27.188  28.333  1.00  0.00    -0.354 N 
ATOM     18  C   UNL A   1      47.133  26.191  27.490  1.00  0.00     0.074 A 
ATOM     19  C   UNL A   1      47.307  24.764  27.334  1.00  0.00     0.031 C 
ATOM     20  C   UNL A   1      40.827  26.877  28.372  1.00  0.00     0.029 A 
ATOM     21  C   UNL A   1      41.877  27.846  28.657  1.00  0.00     0.049 A 
ATOM     22  H   UNL A   1      43.927  27.614  28.370  1.00  0.00     0.167 HD
ATOM     23  C   UNL A   1      48.116  27.101  27.305  1.00  0.00     0.031 A 
ATOM     24  C   UNL A   1      41.693  29.091  29.134  1.00  0.00     0.031 A 
ATOM     25  C   UNL A   1      47.963  28.510  27.534  1.00  0.00     0.049 A 
ATOM     26  C   UNL A   1      42.860  30.033  29.193  1.00  0.00     0.074 A 
ATOM     27  C   UNL A   1      48.892  29.521  27.362  1.00  0.00     0.029 A 
ATOM     28  N   UNL A   1      46.810  29.104  28.022  1.00  0.00    -0.354 N 
ATOM     29  N   UNL A   1      44.109  29.819  28.860  1.00  0.00    -0.248 NA
ATOM     30  C   UNL A   1      42.570  31.407  29.625  1.00  0.00     0.031 C 
ATOM     31  C   UNL A   1      48.316  30.720  27.799  1.00  0.00     0.029 A 
ATOM     32  C   UNL A   1      47.014  30.460  28.195  1.00  0.00     0.049 A 
ATOM     33  H   UNL A   1      45.970  28.629  28.218  1.00  0.00     0.167 HD
ATOM     34  C   UNL A   1      44.744  31.048  28.990  1.00  0.00     0.074 A 
ATOM     35  C   UNL A   1      43.748  31.990  29.459  1.00  0.00     0.031 C 
ATOM     36  C   UNL A   1      46.027  31.376  28.700  1.00  0.00     0.031 A 
BRANCH  23  37
ATOM     37  C   UNL A   1      49.423  26.587  26.779  1.00  0.00    -0.014 A 
ATOM     38  C   UNL A   1      50.427  26.179  27.681  1.00  0.00     0.010 A 
ATOM     39  C   UNL A   1      49.651  26.480  25.399  1.00  0.00     0.010 A 
ATOM     40  C   UNL A   1      51.647  25.698  27.209  1.00  0.00     0.020 A 
ATOM     41  C   UNL A   1      50.868  25.981  24.923  1.00  0.00     0.020 A 
ATOM     42  C   UNL A   1      51.862  25.605  25.831  1.00  0.00     0.054 A 
BRANCH  42  43
ATOM     43  S   UNL A   1      53.449  24.951  25.247  1.00  0.00     0.124 S 
ATOM     44  O   UNL A   1      53.193  23.513  25.230  1.00  0.00    -0.237 OA
ATOM     45  O   UNL A   1      53.589  25.578  23.934  1.00  0.00    -0.237 OA
ATOM     46  O   UNL A   1      54.403  25.404  26.255  1.00  0.00    -0.744 OA
ENDBRANCH  42  43
ENDBRANCH  23  37
BRANCH  24  47
ATOM     47  C   UNL A   1      40.369  29.550  29.618  1.00  0.00    -0.014 A 
ATOM     48  C   UNL A   1      39.417  30.102  28.747  1.00  0.00     0.010 A 
ATOM     49  C   UNL A   1      40.122  29.548  31.002  1.00  0.00     0.010 A 
ATOM     50  C   UNL A   1      38.233  30.649  29.257  1.00  0.00     0.020 A 
ATOM     51  C   UNL A   1      38.955  30.119  31.513  1.00  0.00     0.020 A 
ATOM     52  C   UNL A   1      38.012  30.660  30.637  1.00  0.00     0.054 A 
BRANCH  52  53
ATOM     53  S   UNL A   1      36.450  31.318  31.287  1.00  0.00     0.124 S 
ATOM     54  O   UNL A   1      36.880  32.546  31.942  1.00  0.00    -0.237 OA
ATOM     55  O   UNL A   1      35.641  31.484  30.082  1.00  0.00    -0.237 OA
ATOM     56  O   UNL A   1      35.980  30.253  32.177  1.00  0.00    -0.744 OA
ENDBRANCH  52  53
ENDBRANCH  24  47
BRANCH  36  57
ATOM     57  C   UNL A   1      46.399  32.823  28.844  1.00  0.00    -0.014 A 
ATOM     58  C   UNL A   1      46.934  33.326  30.042  1.00  0.00     0.010 A 
ATOM     59  C   UNL A   1      46.193  33.694  27.759  1.00  0.00     0.010 A 
ATOM     60  C   UNL A   1      47.217  34.688  30.167  1.00  0.00     0.020 A 
ATOM     61  C   UNL A   1      46.498  35.050  27.872  1.00  0.00     0.020 A 
ATOM     62  C   UNL A   1      46.989  35.542  29.083  1.00  0.00     0.054 A 
BRANCH  62  63
ATOM     63  S   UNL A   1      47.372  37.306  29.259  1.00  0.00     0.124 S 
ATOM     64  O   UNL A   1      46.524  37.904  28.232  1.00  0.00    -0.237 OA
ATOM     65  O   UNL A   1      46.984  37.586  30.639  1.00  0.00    -0.237 OA
ATOM     66  O   UNL A   1      48.808  37.373  28.998  1.00  0.00    -0.744 OA
ENDBRANCH  62  63
ENDBRANCH  36  57
ENDBRANCH  10  11
ENDBRANCH   3   5
ENDBRANCH   2   3
ENDBRANCH   1   2
BRANCH   1  67
ATOM     67  C   UNL A   1      38.011  20.334  25.045  1.00  0.00     0.274 C 
BRANCH  67  68
ATOM     68  O   UNL A   1      36.905  21.111  25.518  1.00  0.00    -0.461 OA
BRANCH  68  69
ATOM     69  C   UNL A   1      36.418  22.055  24.645  1.00  0.00     0.328 C 
ATOM     70  O   UNL A   1      36.792  22.211  23.498  1.00  0.00    -0.250 OA
BRANCH  69  71
ATOM     71  C   UNL A   1      35.336  22.868  25.368  1.00  0.00     0.195 C 
ATOM     72  C   UNL A   1      35.226  24.244  24.701  1.00  0.00     0.046 C 
ATOM     73  N   UNL A   1      33.971  22.369  25.453  1.00  0.00    -0.328 N 
ATOM     74  C   UNL A   1      33.733  24.646  24.724  1.00  0.00     0.001 C 
ATOM     75  C   UNL A   1      33.035  23.474  25.424  1.00  0.00     0.128 C 
ATOM     76  C   UNL A   1      33.181  24.802  23.286  1.00  0.00     0.071 C 
ATOM     77  C   UNL A   1      33.494  25.952  25.523  1.00  0.00     0.071 C 
ATOM     78  C   UNL A   1      33.687  26.070  22.604  1.00  0.00     0.271 C 
ATOM     79  C   UNL A   1      33.923  27.209  24.768  1.00  0.00     0.271 C 
ATOM     80  N   UNL A   1      33.354  27.224  23.433  1.00  0.00    -0.267 N 
ATOM     81  H   UNL A   1      33.220  26.911  22.509  1.00  0.00     0.357 HD
BRANCH  73  82
ATOM     82  C   UNL A   1      33.519  21.197  26.040  1.00  0.00     0.226 C 
ATOM     83  O   UNL A   1      33.674  20.973  27.238  1.00  0.00    -0.275 OA
BRANCH  82  84
ATOM     84  C   UNL A   1      32.743  20.193  25.268  1.00  0.00     0.079 C 
ATOM     85  C   UNL A   1      32.618  20.045  23.782  1.00  0.00     0.014 C 
ATOM     86  C   UNL A   1      33.554  19.145  24.514  1.00  0.00     0.014 C 
ENDBRANCH  82  84
ENDBRANCH  73  82
BRANCH  80  87
ATOM     87  C   UNL A   1      32.557  28.294  23.043  1.00  0.00     0.344 C 
ATOM     88  O   UNL A   1      32.991  29.380  22.670  1.00  0.00    -0.226 OA
BRANCH  87  89
ATOM     89  C   UNL A   1      31.097  28.128  23.123  1.00  0.00     0.083 A 
ATOM     90  C   UNL A   1      30.265  29.054  22.487  1.00  0.00     0.018 A 
ATOM     91  C   UNL A   1      30.566  27.052  23.831  1.00  0.00     0.064 A 
ATOM     92  C   UNL A   1      28.882  28.906  22.582  1.00  0.00     0.005 A 
ATOM     93  C   UNL A   1      29.190  26.896  23.886  1.00  0.00     0.116 A 
ATOM     94  C   UNL A   1      28.344  27.823  23.284  1.00  0.00     0.046 A 
BRANCH  93  95
ATOM     95  O   UNL A   1      28.623  25.833  24.525  1.00  0.00    -0.508 OA
ATOM     96  H   UNL A   1      28.600  25.807  25.461  1.00  0.00     0.293 HD
ENDBRANCH  93  95
ENDBRANCH  87  89
ENDBRANCH  80  87
ENDBRANCH  69  71
ENDBRANCH  68  69
ENDBRANCH  67  68
ENDBRANCH   1  67
TORSDOF 19
ENDMDL
MODEL 2
REMARK VINA RESULT:     -11.3      6.162      8.051
REMARK SMILES O=C(OCCOC(=O)[C@H]1CC2(CC[NH+](C(=O)c3cccc(O)c3)CC2)CN1C(=O)C1CC1)c1ccc(-c2c3nc(c(-c4ccc(S(=O)(=O)[O-])cc4)c4ccc([nH]4)c(-c4ccc(S(=O)(=O)[O-])cc4)c4nc(c(-c5ccc(S(=O)(=O)[O-])cc5)c5ccc2[nH]5)C=C4)C=C3)cc1
REMARK SMILES IDX 4 1 3 2 2 3 1 4 33 5 34 6 92 7 35 8 91 9 36 10 37 11 38 12
REMARK SMILES IDX 85 13 39 14 90 15 84 16 86 17 40 18 89 19 83 20 82 21 41 23
REMARK SMILES IDX 71 24 52 25 70 26 53 27 56 28 69 29 87 30 54 31 55 32 68 34
REMARK SMILES IDX 88 35 57 36 42 37 43 38 51 39 44 40 50 41 45 42 46 43 47 44
REMARK SMILES IDX 48 45 49 46 72 47 73 48 81 49 74 50 80 51 75 52 76 53 77 54
REMARK SMILES IDX 78 55 79 56 58 57 59 58 67 59 60 60 66 61 61 62 62 63 63 64
REMARK SMILES IDX 64 65 65 66 5 67 6 68 7 69 8 70 9 71 10 72 27 73 11 74 26 75
REMARK SMILES IDX 12 76 25 77 13 78 24 79 14 80 28 82 29 83 30 84 31 85 32 86
REMARK SMILES IDX 15 87 16 88 17 89 18 90 23 91 19 92 21 93 20 94 22 95
REMARK H PARENT 86 22 56 33 14 81 22 96
REMARK Flexibility Score: inf
ROOT
ATOM      1  C   UNL A   1      38.178  24.285  26.417  1.00  0.00     0.275 C 
ENDROOT
BRANCH   1   2
ATOM      2  O   UNL A   1      39.544  24.479  26.857  1.00  0.00    -0.458 OA
BRANCH   2   3
ATOM      3  C   UNL A   1      40.241  25.641  26.957  1.00  0.00     0.338 C 
ATOM      4  O   UNL A   1      41.128  25.911  26.155  1.00  0.00    -0.246 OA
BRANCH   3   5
ATOM      5  C   UNL A   1      40.060  26.523  28.134  1.00  0.00     0.060 A 
ATOM      6  C   UNL A   1      40.820  27.675  28.324  1.00  0.00     0.016 A 
ATOM      7  C   UNL A   1      39.142  26.131  29.121  1.00  0.00     0.016 A 
ATOM      8  C   UNL A   1      40.587  28.489  29.433  1.00  0.00     0.010 A 
ATOM      9  C   UNL A   1      38.903  26.947  30.232  1.00  0.00     0.010 A 
ATOM     10  C   UNL A   1      39.629  28.134  30.392  1.00  0.00    -0.014 A 
BRANCH  10  11
ATOM     11  C   UNL A   1      39.546  28.937  31.633  1.00  0.00     0.031 A 
ATOM     12  C   UNL A   1      40.483  28.610  32.760  1.00  0.00     0.074 A 
ATOM     13  C   UNL A   1      38.753  30.023  31.711  1.00  0.00     0.049 A 
ATOM     14  N   UNL A   1      40.764  29.323  33.818  1.00  0.00    -0.248 NA
ATOM     15  C   UNL A   1      41.247  27.354  32.655  1.00  0.00     0.031 C 
ATOM     16  C   UNL A   1      37.844  30.500  30.669  1.00  0.00     0.029 A 
ATOM     17  N   UNL A   1      38.583  30.923  32.730  1.00  0.00    -0.354 N 
ATOM     18  C   UNL A   1      41.823  28.671  34.433  1.00  0.00     0.074 A 
ATOM     19  C   UNL A   1      42.049  27.441  33.708  1.00  0.00     0.031 C 
ATOM     20  C   UNL A   1      37.153  31.557  31.136  1.00  0.00     0.029 A 
ATOM     21  C   UNL A   1      37.599  31.852  32.491  1.00  0.00     0.049 A 
ATOM     22  H   UNL A   1      39.117  30.906  33.557  1.00  0.00     0.167 HD
ATOM     23  C   UNL A   1      42.591  29.100  35.459  1.00  0.00     0.031 A 
ATOM     24  C   UNL A   1      37.118  32.825  33.286  1.00  0.00     0.031 A 
ATOM     25  C   UNL A   1      42.322  30.282  36.229  1.00  0.00     0.049 A 
ATOM     26  C   UNL A   1      37.814  33.124  34.582  1.00  0.00     0.074 A 
ATOM     27  C   UNL A   1      43.047  30.813  37.281  1.00  0.00     0.029 A 
ATOM     28  N   UNL A   1      41.217  31.098  36.050  1.00  0.00    -0.354 N 
ATOM     29  N   UNL A   1      38.861  32.538  35.109  1.00  0.00    -0.248 NA
ATOM     30  C   UNL A   1      37.300  34.265  35.353  1.00  0.00     0.031 C 
ATOM     31  C   UNL A   1      42.348  31.923  37.773  1.00  0.00     0.029 A 
ATOM     32  C   UNL A   1      41.217  32.107  36.995  1.00  0.00     0.049 A 
ATOM     33  H   UNL A   1      40.532  30.976  35.354  1.00  0.00     0.167 HD
ATOM     34  C   UNL A   1      39.167  33.276  36.245  1.00  0.00     0.074 A 
ATOM     35  C   UNL A   1      38.176  34.330  36.344  1.00  0.00     0.031 C 
ATOM     36  C   UNL A   1      40.204  33.123  37.104  1.00  0.00     0.031 A 
BRANCH  23  37
ATOM     37  C   UNL A   1      43.824  28.300  35.761  1.00  0.00    -0.014 A 
ATOM     38  C   UNL A   1      43.766  27.258  36.708  1.00  0.00     0.010 A 
ATOM     39  C   UNL A   1      45.030  28.558  35.093  1.00  0.00     0.010 A 
ATOM     40  C   UNL A   1      44.902  26.504  37.000  1.00  0.00     0.020 A 
ATOM     41  C   UNL A   1      46.167  27.792  35.371  1.00  0.00     0.020 A 
ATOM     42  C   UNL A   1      46.098  26.778  36.331  1.00  0.00     0.054 A 
BRANCH  42  43
ATOM     43  S   UNL A   1      47.553  25.765  36.712  1.00  0.00     0.124 S 
ATOM     44  O   UNL A   1      47.194  25.202  38.011  1.00  0.00    -0.237 OA
ATOM     45  O   UNL A   1      47.579  24.814  35.602  1.00  0.00    -0.237 OA
ATOM     46  O   UNL A   1      48.650  26.728  36.731  1.00  0.00    -0.744 OA
ENDBRANCH  42  43
ENDBRANCH  23  37
BRANCH  24  47
ATOM     47  C   UNL A   1      35.906  33.599  32.922  1.00  0.00    -0.014 A 
ATOM     48  C   UNL A   1      35.994  34.860  32.313  1.00  0.00     0.010 A 
ATOM     49  C   UNL A   1      34.651  33.106  33.317  1.00  0.00     0.010 A 
ATOM     50  C   UNL A   1      34.837  35.621  32.107  1.00  0.00     0.020 A 
ATOM     51  C   UNL A   1      33.501  33.876  33.137  1.00  0.00     0.020 A 
ATOM     52  C   UNL A   1      33.597  35.128  32.526  1.00  0.00     0.054 A 
BRANCH  52  53
ATOM     53  S   UNL A   1      32.096  36.094  32.203  1.00  0.00     0.124 S 
ATOM     54  O   UNL A   1      32.252  36.450  30.799  1.00  0.00    -0.237 OA
ATOM     55  O   UNL A   1      31.027  35.146  32.509  1.00  0.00    -0.237 OA
ATOM     56  O   UNL A   1      32.197  37.203  33.154  1.00  0.00    -0.744 OA
ENDBRANCH  52  53
ENDBRANCH  24  47
BRANCH  36  57
ATOM     57  C   UNL A   1      40.333  34.148  38.193  1.00  0.00    -0.014 A 
ATOM     58  C   UNL A   1      41.047  35.341  37.994  1.00  0.00     0.010 A 
ATOM     59  C   UNL A   1      39.735  33.898  39.442  1.00  0.00     0.010 A 
ATOM     60  C   UNL A   1      41.200  36.251  39.044  1.00  0.00     0.020 A 
ATOM     61  C   UNL A   1      39.864  34.816  40.484  1.00  0.00     0.020 A 
ATOM     62  C   UNL A   1      40.614  35.978  40.284  1.00  0.00     0.054 A 
BRANCH  62  63
ATOM     63  S   UNL A   1      40.812  37.174  41.632  1.00  0.00     0.124 S 
ATOM     64  O   UNL A   1      39.440  37.629  41.838  1.00  0.00    -0.237 OA
ATOM     65  O   UNL A   1      41.374  36.361  42.707  1.00  0.00    -0.237 OA
ATOM     66  O   UNL A   1      41.722  38.172  41.074  1.00  0.00    -0.744 OA
ENDBRANCH  62  63
ENDBRANCH  36  57
ENDBRANCH  10  11
ENDBRANCH   3   5
ENDBRANCH   2   3
ENDBRANCH   1   2
BRANCH   1  67
ATOM     67  C   UNL A   1      37.916  22.911  25.798  1.00  0.00     0.274 C 
BRANCH  67  68
ATOM     68  O   UNL A   1      36.706  22.925  25.033  1.00  0.00    -0.461 OA
BRANCH  68  69
ATOM     69  C   UNL A   1      35.915  21.805  25.142  1.00  0.00     0.328 C 
ATOM     70  O   UNL A   1      36.291  20.660  24.979  1.00  0.00    -0.250 OA
BRANCH  69  71
ATOM     71  C   UNL A   1      34.491  22.254  25.497  1.00  0.00     0.195 C 
ATOM     72  C   UNL A   1      34.466  23.784  25.591  1.00  0.00     0.046 C 
ATOM     73  N   UNL A   1      33.370  21.901  24.638  1.00  0.00    -0.328 N 
ATOM     74  C   UNL A   1      33.100  24.254  25.038  1.00  0.00     0.001 C 
ATOM     75  C   UNL A   1      32.380  22.957  24.654  1.00  0.00     0.128 C 
ATOM     76  C   UNL A   1      33.289  25.142  23.783  1.00  0.00     0.071 C 
ATOM     77  C   UNL A   1      32.274  25.019  26.103  1.00  0.00     0.071 C 
ATOM     78  C   UNL A   1      33.820  26.530  24.129  1.00  0.00     0.271 C 
ATOM     79  C   UNL A   1      32.776  26.440  26.351  1.00  0.00     0.271 C 
ATOM     80  N   UNL A   1      32.926  27.157  25.097  1.00  0.00    -0.267 N 
ATOM     81  H   UNL A   1      33.312  27.348  24.211  1.00  0.00     0.357 HD
BRANCH  73  82
ATOM     82  C   UNL A   1      32.914  20.637  24.296  1.00  0.00     0.226 C 
ATOM     83  O   UNL A   1      32.395  20.410  23.205  1.00  0.00    -0.275 OA
BRANCH  82  84
ATOM     84  C   UNL A   1      33.116  19.471  25.194  1.00  0.00     0.079 C 
ATOM     85  C   UNL A   1      32.529  18.096  25.092  1.00  0.00     0.014 C 
ATOM     86  C   UNL A   1      33.928  18.313  24.626  1.00  0.00     0.014 C 
ENDBRANCH  82  84
ENDBRANCH  73  82
BRANCH  80  87
ATOM     87  C   UNL A   1      32.234  28.346  24.904  1.00  0.00     0.344 C 
ATOM     88  O   UNL A   1      32.638  29.448  25.265  1.00  0.00    -0.226 OA
BRANCH  87  89
ATOM     89  C   UNL A   1      30.911  28.276  24.262  1.00  0.00     0.083 A 
ATOM     90  C   UNL A   1      30.457  29.361  23.505  1.00  0.00     0.018 A 
ATOM     91  C   UNL A   1      30.133  27.132  24.418  1.00  0.00     0.064 A 
ATOM     92  C   UNL A   1      29.195  29.299  22.916  1.00  0.00     0.005 A 
ATOM     93  C   UNL A   1      28.896  27.070  23.795  1.00  0.00     0.116 A 
ATOM     94  C   UNL A   1      28.414  28.150  23.062  1.00  0.00     0.046 A 
BRANCH  93  95
ATOM     95  O   UNL A   1      28.118  25.953  23.877  1.00  0.00    -0.508 OA
ATOM     96  H   UNL A   1      27.514  25.751  23.189  1.00  0.00     0.293 HD
ENDBRANCH  93  95
ENDBRANCH  87  89
ENDBRANCH  80  87
ENDBRANCH  69  71
ENDBRANCH  68  69
ENDBRANCH  67  68
ENDBRANCH   1  67
TORSDOF 19
ENDMDL
MODEL 3
REMARK VINA RESULT:     -11.3      3.193      4.563
REMARK SMILES O=C(OCCOC(=O)[C@H]1CC2(CC[NH+](C(=O)c3cccc(O)c3)CC2)CN1C(=O)C1CC1)c1ccc(-c2c3nc(c(-c4ccc(S(=O)(=O)[O-])cc4)c4ccc([nH]4)c(-c4ccc(S(=O)(=O)[O-])cc4)c4nc(c(-c5ccc(S(=O)(=O)[O-])cc5)c5ccc2[nH]5)C=C4)C=C3)cc1
REMARK SMILES IDX 4 1 3 2 2 3 1 4 33 5 34 6 92 7 35 8 91 9 36 10 37 11 38 12
REMARK SMILES IDX 85 13 39 14 90 15 84 16 86 17 40 18 89 19 83 20 82 21 41 23
REMARK SMILES IDX 71 24 52 25 70 26 53 27 56 28 69 29 87 30 54 31 55 32 68 34
REMARK SMILES IDX 88 35 57 36 42 37 43 38 51 39 44 40 50 41 45 42 46 43 47 44
REMARK SMILES IDX 48 45 49 46 72 47 73 48 81 49 74 50 80 51 75 52 76 53 77 54
REMARK SMILES IDX 78 55 79 56 58 57 59 58 67 59 60 60 66 61 61 62 62 63 63 64
REMARK SMILES IDX 64 65 65 66 5 67 6 68 7 69 8 70 9 71 10 72 27 73 11 74 26 75
REMARK SMILES IDX 12 76 25 77 13 78 24 79 14 80 28 82 29 83 30 84 31 85 32 86
REMARK SMILES IDX 15 87 16 88 17 89 18 90 23 91 19 92 21 93 20 94 22 95
REMARK H PARENT 86 22 56 33 14 81 22 96
REMARK Flexibility Score: inf
ROOT
ATOM      1  C   UNL A   1      37.681  21.528  25.082  1.00  0.00     0.275 C 
ENDROOT
BRANCH   1   2
ATOM      2  O   UNL A   1      38.180  22.429  26.099  1.00  0.00    -0.458 OA
BRANCH   2   3
ATOM      3  C   UNL A   1      39.448  22.883  26.277  1.00  0.00     0.338 C 
ATOM      4  O   UNL A   1      40.410  22.157  26.052  1.00  0.00    -0.246 OA
BRANCH   3   5
ATOM      5  C   UNL A   1      39.690  24.202  26.907  1.00  0.00     0.060 A 
ATOM      6  C   UNL A   1      40.519  25.161  26.329  1.00  0.00     0.016 A 
ATOM      7  C   UNL A   1      39.120  24.450  28.165  1.00  0.00     0.016 A 
ATOM      8  C   UNL A   1      40.687  26.400  26.947  1.00  0.00     0.010 A 
ATOM      9  C   UNL A   1      39.283  25.693  28.785  1.00  0.00     0.010 A 
ATOM     10  C   UNL A   1      40.071  26.677  28.176  1.00  0.00    -0.014 A 
BRANCH  10  11
ATOM     11  C   UNL A   1      40.424  27.936  28.870  1.00  0.00     0.031 A 
ATOM     12  C   UNL A   1      41.788  28.054  29.488  1.00  0.00     0.074 A 
ATOM     13  C   UNL A   1      39.606  29.005  28.837  1.00  0.00     0.049 A 
ATOM     14  N   UNL A   1      42.398  29.127  29.913  1.00  0.00    -0.248 NA
ATOM     15  C   UNL A   1      42.591  26.822  29.583  1.00  0.00     0.031 C 
ATOM     16  C   UNL A   1      38.284  29.056  28.212  1.00  0.00     0.029 A 
ATOM     17  N   UNL A   1      39.773  30.263  29.354  1.00  0.00    -0.354 N 
ATOM     18  C   UNL A   1      43.694  28.725  30.203  1.00  0.00     0.074 A 
ATOM     19  C   UNL A   1      43.747  27.290  30.031  1.00  0.00     0.031 C 
ATOM     20  C   UNL A   1      37.727  30.258  28.456  1.00  0.00     0.029 A 
ATOM     21  C   UNL A   1      38.668  31.069  29.217  1.00  0.00     0.049 A 
ATOM     22  H   UNL A   1      40.607  30.562  29.783  1.00  0.00     0.167 HD
ATOM     23  C   UNL A   1      44.764  29.494  30.505  1.00  0.00     0.031 A 
ATOM     24  C   UNL A   1      38.451  32.320  29.663  1.00  0.00     0.031 A 
ATOM     25  C   UNL A   1      44.698  30.907  30.750  1.00  0.00     0.049 A 
ATOM     26  C   UNL A   1      39.590  33.092  30.265  1.00  0.00     0.074 A 
ATOM     27  C   UNL A   1      45.727  31.783  31.049  1.00  0.00     0.029 A 
ATOM     28  N   UNL A   1      43.527  31.646  30.762  1.00  0.00    -0.354 N 
ATOM     29  N   UNL A   1      40.828  32.712  30.462  1.00  0.00    -0.248 NA
ATOM     30  C   UNL A   1      39.311  34.486  30.636  1.00  0.00     0.031 C 
ATOM     31  C   UNL A   1      45.168  33.043  31.294  1.00  0.00     0.029 A 
ATOM     32  C   UNL A   1      43.799  32.959  31.099  1.00  0.00     0.049 A 
ATOM     33  H   UNL A   1      42.632  31.289  30.560  1.00  0.00     0.167 HD
ATOM     34  C   UNL A   1      41.492  33.840  30.928  1.00  0.00     0.074 A 
ATOM     35  C   UNL A   1      40.510  34.904  31.012  1.00  0.00     0.031 C 
ATOM     36  C   UNL A   1      42.807  33.994  31.217  1.00  0.00     0.031 A 
BRANCH  23  37
ATOM     37  C   UNL A   1      46.101  28.813  30.528  1.00  0.00    -0.014 A 
ATOM     38  C   UNL A   1      46.866  28.735  29.347  1.00  0.00     0.010 A 
ATOM     39  C   UNL A   1      46.613  28.275  31.718  1.00  0.00     0.010 A 
ATOM     40  C   UNL A   1      48.111  28.107  29.352  1.00  0.00     0.020 A 
ATOM     41  C   UNL A   1      47.870  27.659  31.730  1.00  0.00     0.020 A 
ATOM     42  C   UNL A   1      48.604  27.569  30.544  1.00  0.00     0.054 A 
BRANCH  42  43
ATOM     43  S   UNL A   1      50.237  26.781  30.525  1.00  0.00     0.124 S 
ATOM     44  O   UNL A   1      50.534  26.740  29.095  1.00  0.00    -0.237 OA
ATOM     45  O   UNL A   1      51.049  27.709  31.308  1.00  0.00    -0.237 OA
ATOM     46  O   UNL A   1      50.002  25.482  31.150  1.00  0.00    -0.744 OA
ENDBRANCH  42  43
ENDBRANCH  23  37
BRANCH  24  47
ATOM     47  C   UNL A   1      37.110  32.950  29.590  1.00  0.00    -0.014 A 
ATOM     48  C   UNL A   1      36.618  33.500  28.397  1.00  0.00     0.010 A 
ATOM     49  C   UNL A   1      36.378  33.109  30.780  1.00  0.00     0.010 A 
ATOM     50  C   UNL A   1      35.410  34.205  28.395  1.00  0.00     0.020 A 
ATOM     51  C   UNL A   1      35.187  33.837  30.784  1.00  0.00     0.020 A 
ATOM     52  C   UNL A   1      34.703  34.375  29.590  1.00  0.00     0.054 A 
BRANCH  52  53
ATOM     53  S   UNL A   1      33.108  35.241  29.570  1.00  0.00     0.124 S 
ATOM     54  O   UNL A   1      32.402  34.565  28.489  1.00  0.00    -0.237 OA
ATOM     55  O   UNL A   1      32.594  35.006  30.916  1.00  0.00    -0.237 OA
ATOM     56  O   UNL A   1      33.483  36.633  29.311  1.00  0.00    -0.744 OA
ENDBRANCH  52  53
ENDBRANCH  24  47
BRANCH  36  57
ATOM     57  C   UNL A   1      43.254  35.373  31.605  1.00  0.00    -0.014 A 
ATOM     58  C   UNL A   1      43.245  35.796  32.945  1.00  0.00     0.010 A 
ATOM     59  C   UNL A   1      43.676  36.263  30.600  1.00  0.00     0.010 A 
ATOM     60  C   UNL A   1      43.611  37.105  33.269  1.00  0.00     0.020 A 
ATOM     61  C   UNL A   1      44.067  37.562  30.925  1.00  0.00     0.020 A 
ATOM     62  C   UNL A   1      44.012  37.981  32.256  1.00  0.00     0.054 A 
BRANCH  62  63
ATOM     63  S   UNL A   1      44.494  39.673  32.697  1.00  0.00     0.124 S 
ATOM     64  O   UNL A   1      44.437  39.633  34.155  1.00  0.00    -0.237 OA
ATOM     65  O   UNL A   1      45.832  39.788  32.122  1.00  0.00    -0.237 OA
ATOM     66  O   UNL A   1      43.474  40.499  32.055  1.00  0.00    -0.744 OA
ENDBRANCH  62  63
ENDBRANCH  36  57
ENDBRANCH  10  11
ENDBRANCH   3   5
ENDBRANCH   2   3
ENDBRANCH   1   2
BRANCH   1  67
ATOM     67  C   UNL A   1      36.369  21.983  24.440  1.00  0.00     0.274 C 
BRANCH  67  68
ATOM     68  O   UNL A   1      35.666  22.879  25.309  1.00  0.00    -0.461 OA
BRANCH  68  69
ATOM     69  C   UNL A   1      34.699  22.309  26.103  1.00  0.00     0.328 C 
ATOM     70  O   UNL A   1      34.899  21.473  26.963  1.00  0.00    -0.250 OA
BRANCH  69  71
ATOM     71  C   UNL A   1      33.340  22.905  25.711  1.00  0.00     0.195 C 
ATOM     72  C   UNL A   1      33.318  24.384  26.114  1.00  0.00     0.046 C 
ATOM     73  N   UNL A   1      32.893  22.875  24.326  1.00  0.00    -0.328 N 
ATOM     74  C   UNL A   1      32.522  25.143  25.026  1.00  0.00     0.001 C 
ATOM     75  C   UNL A   1      32.104  24.053  24.032  1.00  0.00     0.128 C 
ATOM     76  C   UNL A   1      33.418  26.186  24.315  1.00  0.00     0.071 C 
ATOM     77  C   UNL A   1      31.263  25.838  25.604  1.00  0.00     0.071 C 
ATOM     78  C   UNL A   1      33.704  27.401  25.194  1.00  0.00     0.271 C 
ATOM     79  C   UNL A   1      31.582  27.105  26.396  1.00  0.00     0.271 C 
ATOM     80  N   UNL A   1      32.440  27.987  25.626  1.00  0.00    -0.267 N 
ATOM     81  H   UNL A   1      33.266  28.262  25.165  1.00  0.00     0.357 HD
BRANCH  73  82
ATOM     82  C   UNL A   1      32.671  21.770  23.518  1.00  0.00     0.226 C 
ATOM     83  O   UNL A   1      32.167  21.875  22.402  1.00  0.00    -0.275 OA
BRANCH  82  84
ATOM     84  C   UNL A   1      33.117  20.412  23.923  1.00  0.00     0.079 C 
ATOM     85  C   UNL A   1      32.505  19.486  24.929  1.00  0.00     0.014 C 
ATOM     86  C   UNL A   1      32.233  19.251  23.483  1.00  0.00     0.014 C 
ENDBRANCH  82  84
ENDBRANCH  73  82
BRANCH  80  87
ATOM     87  C   UNL A   1      32.019  29.284  25.357  1.00  0.00     0.344 C 
ATOM     88  O   UNL A   1      32.438  30.282  25.936  1.00  0.00    -0.226 OA
BRANCH  87  89
ATOM     89  C   UNL A   1      30.971  29.470  24.341  1.00  0.00     0.083 A 
ATOM     90  C   UNL A   1      30.847  28.539  23.304  1.00  0.00     0.018 A 
ATOM     91  C   UNL A   1      30.119  30.568  24.427  1.00  0.00     0.064 A 
ATOM     92  C   UNL A   1      29.867  28.729  22.332  1.00  0.00     0.005 A 
ATOM     93  C   UNL A   1      29.124  30.724  23.473  1.00  0.00     0.116 A 
ATOM     94  C   UNL A   1      29.004  29.825  22.417  1.00  0.00     0.046 A 
BRANCH  93  95
ATOM     95  O   UNL A   1      28.235  31.756  23.540  1.00  0.00    -0.508 OA
ATOM     96  H   UNL A   1      27.430  31.651  24.007  1.00  0.00     0.293 HD
ENDBRANCH  93  95
ENDBRANCH  87  89
ENDBRANCH  80  87
ENDBRANCH  69  71
ENDBRANCH  68  69
ENDBRANCH  67  68
ENDBRANCH   1  67
TORSDOF 19
ENDMDL
