MODEL 1
REMARK VINA RESULT:      -9.2      0.000      0.000
REMARK SMILES COCCCNC(=O)C[N@H+]1CC[C@H](C(=O)OCCOC(=O)c2ccc(-c3c4nc(c(-c5ccc(S(=O)(=O)[O-])cc5)c5ccc([nH]5)c(-c5ccc(S(=O)(=O)[O-])cc5)c5nc(c(-c6ccc(S(=O)(=O)[O-])cc6)c6ccc3[nH]6)C=C5)C=C4)cc2)[C@@H]1C
REMARK SMILES IDX 16 1 14 2 15 3 13 4 10 5 11 6 82 7 12 9 83 10 9 11 7 12 6 13
REMARK SMILES IDX 8 15 5 16 4 17 3 18 2 19 1 20 17 21 18 22 19 23 20 24 21 25
REMARK SMILES IDX 22 26 23 27 81 28 24 29 80 30 25 31 26 32 27 33 74 34 28 35
REMARK SMILES IDX 79 36 73 37 75 38 29 39 78 40 72 41 71 42 30 44 60 45 41 46
REMARK SMILES IDX 59 47 42 48 45 49 58 50 76 51 43 52 44 53 57 55 77 56 46 57
REMARK SMILES IDX 31 58 32 59 40 60 33 61 39 62 34 63 35 64 36 65 37 66 38 67
REMARK SMILES IDX 61 68 62 69 70 70 63 71 69 72 64 73 65 74 66 75 67 76 68 77
REMARK SMILES IDX 47 78 48 79 56 80 49 81 55 82 50 83 51 84 52 85 53 86 54 87
REMARK H PARENT 10 8 6 14 75 43 45 54
REMARK Flexibility Score: inf
ROOT
ATOM      1  O   UNL A   1      36.833  21.481  25.423  1.00  0.00    -0.462 OA
ENDROOT
BRANCH   1   2
ATOM      2  C   UNL A   1      36.173  22.019  24.346  1.00  0.00     0.315 C 
ATOM      3  O   UNL A   1      36.702  22.507  23.366  1.00  0.00    -0.252 OA
BRANCH   2   4
ATOM      4  C   UNL A   1      34.681  21.938  24.602  1.00  0.00     0.162 C 
ATOM      5  N   UNL A   1      33.527  22.835  26.533  1.00  0.00    -0.324 N 
ATOM      6  C   UNL A   1      33.664  21.407  26.763  1.00  0.00     0.264 C 
ATOM      7  C   UNL A   1      34.047  23.176  25.219  1.00  0.00     0.195 C 
ATOM      8  H   UNL A   1      34.105  23.276  27.248  1.00  0.00     0.348 HD
ATOM      9  C   UNL A   1      34.199  20.788  25.476  1.00  0.00     0.083 C 
ATOM     10  C   UNL A   1      34.852  24.456  25.337  1.00  0.00     0.076 C 
BRANCH   5  11
ATOM     11  C   UNL A   1      32.225  23.462  26.854  1.00  0.00     0.363 C 
BRANCH  11  12
ATOM     12  C   UNL A   1      31.073  23.084  25.898  1.00  0.00     0.275 C 
ATOM     13  N   UNL A   1      30.682  23.907  24.865  1.00  0.00    -0.351 N 
ATOM     14  H   UNL A   1      29.943  23.544  24.326  1.00  0.00     0.163 HD
ATOM     15  O   UNL A   1      30.478  22.008  26.010  1.00  0.00    -0.269 OA
BRANCH  13  16
ATOM     16  C   UNL A   1      31.156  25.218  24.417  1.00  0.00     0.118 C 
BRANCH  16  17
ATOM     17  C   UNL A   1      30.562  26.433  25.177  1.00  0.00     0.050 C 
BRANCH  17  18
ATOM     18  C   UNL A   1      30.966  27.820  24.700  1.00  0.00     0.161 C 
BRANCH  18  19
ATOM     19  O   UNL A   1      30.126  28.327  23.670  1.00  0.00    -0.385 OA
ATOM     20  C   UNL A   1      30.777  28.438  22.416  1.00  0.00     0.194 C 
ENDBRANCH  18  19
ENDBRANCH  17  18
ENDBRANCH  16  17
ENDBRANCH  13  16
ENDBRANCH  11  12
ENDBRANCH   5  11
ENDBRANCH   2   4
ENDBRANCH   1   2
BRANCH   1  21
ATOM     21  C   UNL A   1      37.785  20.430  25.155  1.00  0.00     0.274 C 
BRANCH  21  22
ATOM     22  C   UNL A   1      39.218  20.925  25.365  1.00  0.00     0.275 C 
BRANCH  22  23
ATOM     23  O   UNL A   1      39.939  19.978  26.173  1.00  0.00    -0.458 OA
BRANCH  23  24
ATOM     24  C   UNL A   1      41.292  20.031  26.081  1.00  0.00     0.338 C 
ATOM     25  O   UNL A   1      42.014  19.122  25.694  1.00  0.00    -0.246 OA
BRANCH  24  26
ATOM     26  C   UNL A   1      41.792  21.413  26.344  1.00  0.00     0.060 A 
ATOM     27  C   UNL A   1      42.942  21.892  25.714  1.00  0.00     0.016 A 
ATOM     28  C   UNL A   1      41.256  22.142  27.409  1.00  0.00     0.016 A 
ATOM     29  C   UNL A   1      43.654  22.948  26.284  1.00  0.00     0.010 A 
ATOM     30  C   UNL A   1      41.872  23.330  27.835  1.00  0.00     0.010 A 
ATOM     31  C   UNL A   1      43.104  23.741  27.301  1.00  0.00    -0.014 A 
BRANCH  31  32
ATOM     32  C   UNL A   1      43.764  25.012  27.751  1.00  0.00     0.031 A 
ATOM     33  C   UNL A   1      42.963  26.162  28.325  1.00  0.00     0.074 A 
ATOM     34  C   UNL A   1      45.095  25.182  27.573  1.00  0.00     0.049 A 
ATOM     35  N   UNL A   1      43.289  27.429  28.428  1.00  0.00    -0.248 NA
ATOM     36  C   UNL A   1      41.617  25.855  28.836  1.00  0.00     0.031 C 
ATOM     37  C   UNL A   1      46.041  24.168  27.099  1.00  0.00     0.029 A 
ATOM     38  N   UNL A   1      45.887  26.294  27.754  1.00  0.00    -0.354 N 
ATOM     39  C   UNL A   1      42.171  28.080  28.946  1.00  0.00     0.074 A 
ATOM     40  C   UNL A   1      41.157  27.064  29.144  1.00  0.00     0.031 C 
ATOM     41  C   UNL A   1      47.274  24.680  27.065  1.00  0.00     0.029 A 
ATOM     42  C   UNL A   1      47.191  26.100  27.354  1.00  0.00     0.049 A 
ATOM     43  H   UNL A   1      45.556  27.141  28.130  1.00  0.00     0.167 HD
ATOM     44  C   UNL A   1      42.004  29.401  29.212  1.00  0.00     0.031 A 
ATOM     45  C   UNL A   1      48.202  26.962  27.135  1.00  0.00     0.031 A 
ATOM     46  C   UNL A   1      43.035  30.398  29.041  1.00  0.00     0.049 A 
ATOM     47  C   UNL A   1      47.968  28.426  27.334  1.00  0.00     0.074 A 
ATOM     48  C   UNL A   1      42.967  31.759  29.296  1.00  0.00     0.029 A 
ATOM     49  N   UNL A   1      44.320  30.146  28.587  1.00  0.00    -0.354 N 
ATOM     50  N   UNL A   1      46.883  29.037  27.739  1.00  0.00    -0.248 NA
ATOM     51  C   UNL A   1      49.094  29.316  27.030  1.00  0.00     0.031 C 
ATOM     52  C   UNL A   1      44.189  32.337  28.937  1.00  0.00     0.029 A 
ATOM     53  C   UNL A   1      45.044  31.329  28.528  1.00  0.00     0.049 A 
ATOM     54  H   UNL A   1      44.668  29.260  28.340  1.00  0.00     0.167 HD
ATOM     55  C   UNL A   1      47.203  30.387  27.766  1.00  0.00     0.074 A 
ATOM     56  C   UNL A   1      48.587  30.499  27.351  1.00  0.00     0.031 C 
ATOM     57  C   UNL A   1      46.419  31.437  28.110  1.00  0.00     0.031 A 
BRANCH  44  58
ATOM     58  C   UNL A   1      40.641  29.875  29.668  1.00  0.00    -0.014 A 
ATOM     59  C   UNL A   1      39.625  30.216  28.758  1.00  0.00     0.010 A 
ATOM     60  C   UNL A   1      40.349  29.903  31.048  1.00  0.00     0.010 A 
ATOM     61  C   UNL A   1      38.364  30.614  29.217  1.00  0.00     0.020 A 
ATOM     62  C   UNL A   1      39.081  30.270  31.510  1.00  0.00     0.020 A 
ATOM     63  C   UNL A   1      38.100  30.641  30.591  1.00  0.00     0.054 A 
BRANCH  63  64
ATOM     64  S   UNL A   1      36.452  31.152  31.155  1.00  0.00     0.124 S 
ATOM     65  O   UNL A   1      35.671  31.062  29.923  1.00  0.00    -0.237 OA
ATOM     66  O   UNL A   1      36.136  30.151  32.171  1.00  0.00    -0.237 OA
ATOM     67  O   UNL A   1      36.660  32.506  31.661  1.00  0.00    -0.744 OA
ENDBRANCH  63  64
ENDBRANCH  44  58
BRANCH  45  68
ATOM     68  C   UNL A   1      49.501  26.447  26.622  1.00  0.00    -0.014 A 
ATOM     69  C   UNL A   1      49.843  26.606  25.269  1.00  0.00     0.010 A 
ATOM     70  C   UNL A   1      50.427  25.847  27.498  1.00  0.00     0.010 A 
ATOM     71  C   UNL A   1      51.084  26.171  24.801  1.00  0.00     0.020 A 
ATOM     72  C   UNL A   1      51.685  25.447  27.041  1.00  0.00     0.020 A 
ATOM     73  C   UNL A   1      52.000  25.603  25.692  1.00  0.00     0.054 A 
BRANCH  73  74
ATOM     74  S   UNL A   1      53.632  25.111  25.070  1.00  0.00     0.124 S 
ATOM     75  O   UNL A   1      54.525  25.920  25.894  1.00  0.00    -0.237 OA
ATOM     76  O   UNL A   1      53.651  23.675  25.337  1.00  0.00    -0.237 OA
ATOM     77  O   UNL A   1      53.583  25.474  23.655  1.00  0.00    -0.744 OA
ENDBRANCH  73  74
ENDBRANCH  45  68
BRANCH  57  78
ATOM     78  C   UNL A   1      47.061  32.799  28.105  1.00  0.00    -0.014 A 
ATOM     79  C   UNL A   1      47.077  33.599  26.948  1.00  0.00     0.010 A 
ATOM     80  C   UNL A   1      47.644  33.290  29.287  1.00  0.00     0.010 A 
ATOM     81  C   UNL A   1      47.697  34.852  26.966  1.00  0.00     0.020 A 
ATOM     82  C   UNL A   1      48.236  34.554  29.318  1.00  0.00     0.020 A 
ATOM     83  C   UNL A   1      48.271  35.321  28.152  1.00  0.00     0.054 A 
BRANCH  83  84
ATOM     84  S   UNL A   1      49.036  36.966  28.157  1.00  0.00     0.124 S 
ATOM     85  O   UNL A   1      48.498  37.557  26.935  1.00  0.00    -0.237 OA
ATOM     86  O   UNL A   1      48.541  37.543  29.406  1.00  0.00    -0.237 OA
ATOM     87  O   UNL A   1      50.469  36.683  28.134  1.00  0.00    -0.744 OA
ENDBRANCH  83  84
ENDBRANCH  57  78
ENDBRANCH  31  32
ENDBRANCH  24  26
ENDBRANCH  23  24
ENDBRANCH  22  23
ENDBRANCH  21  22
ENDBRANCH   1  21
TORSDOF 20
ENDMDL
MODEL 2
REMARK VINA RESULT:      -9.1      6.881     10.921
REMARK SMILES COCCCNC(=O)C[N@H+]1CC[C@H](C(=O)OCCOC(=O)c2ccc(-c3c4nc(c(-c5ccc(S(=O)(=O)[O-])cc5)c5ccc([nH]5)c(-c5ccc(S(=O)(=O)[O-])cc5)c5nc(c(-c6ccc(S(=O)(=O)[O-])cc6)c6ccc3[nH]6)C=C5)C=C4)cc2)[C@@H]1C
REMARK SMILES IDX 16 1 14 2 15 3 13 4 10 5 11 6 82 7 12 9 83 10 9 11 7 12 6 13
REMARK SMILES IDX 8 15 5 16 4 17 3 18 2 19 1 20 17 21 18 22 19 23 20 24 21 25
REMARK SMILES IDX 22 26 23 27 81 28 24 29 80 30 25 31 26 32 27 33 74 34 28 35
REMARK SMILES IDX 79 36 73 37 75 38 29 39 78 40 72 41 71 42 30 44 60 45 41 46
REMARK SMILES IDX 59 47 42 48 45 49 58 50 76 51 43 52 44 53 57 55 77 56 46 57
REMARK SMILES IDX 31 58 32 59 40 60 33 61 39 62 34 63 35 64 36 65 37 66 38 67
REMARK SMILES IDX 61 68 62 69 70 70 63 71 69 72 64 73 65 74 66 75 67 76 68 77
REMARK SMILES IDX 47 78 48 79 56 80 49 81 55 82 50 83 51 84 52 85 53 86 54 87
REMARK H PARENT 10 8 6 14 75 43 45 54
REMARK Flexibility Score: inf
ROOT
ATOM      1  O   UNL A   1      43.563  24.890  25.923  1.00  0.00    -0.462 OA
ENDROOT
BRANCH   1   2
ATOM      2  C   UNL A   1      44.270  24.217  26.887  1.00  0.00     0.315 C 
ATOM      3  O   UNL A   1      45.297  23.591  26.701  1.00  0.00    -0.252 OA
BRANCH   2   4
ATOM      4  C   UNL A   1      43.539  24.350  28.207  1.00  0.00     0.162 C 
ATOM      5  N   UNL A   1      44.563  24.313  30.402  1.00  0.00    -0.324 N 
ATOM      6  C   UNL A   1      43.989  22.995  30.193  1.00  0.00     0.264 C 
ATOM      7  C   UNL A   1      44.243  25.175  29.274  1.00  0.00     0.195 C 
ATOM      8  H   UNL A   1      45.571  24.162  30.434  1.00  0.00     0.348 HD
ATOM      9  C   UNL A   1      43.162  23.055  28.913  1.00  0.00     0.083 C 
ATOM     10  C   UNL A   1      45.481  25.975  28.914  1.00  0.00     0.076 C 
BRANCH   5  11
ATOM     11  C   UNL A   1      44.371  24.947  31.725  1.00  0.00     0.363 C 
BRANCH  11  12
ATOM     12  C   UNL A   1      45.645  25.030  32.593  1.00  0.00     0.275 C 
ATOM     13  N   UNL A   1      45.888  24.145  33.620  1.00  0.00    -0.351 N 
ATOM     14  H   UNL A   1      46.740  24.303  34.087  1.00  0.00     0.163 HD
ATOM     15  O   UNL A   1      46.511  25.882  32.374  1.00  0.00    -0.269 OA
BRANCH  13  16
ATOM     16  C   UNL A   1      45.122  23.015  34.148  1.00  0.00     0.118 C 
BRANCH  16  17
ATOM     17  C   UNL A   1      44.190  23.346  35.343  1.00  0.00     0.050 C 
BRANCH  17  18
ATOM     18  C   UNL A   1      42.720  23.590  35.035  1.00  0.00     0.161 C 
BRANCH  18  19
ATOM     19  O   UNL A   1      42.313  24.933  35.267  1.00  0.00    -0.385 OA
ATOM     20  C   UNL A   1      41.131  25.036  36.043  1.00  0.00     0.194 C 
ENDBRANCH  18  19
ENDBRANCH  17  18
ENDBRANCH  16  17
ENDBRANCH  13  16
ENDBRANCH  11  12
ENDBRANCH   5  11
ENDBRANCH   2   4
ENDBRANCH   1   2
BRANCH   1  21
ATOM     21  C   UNL A   1      44.062  26.183  25.521  1.00  0.00     0.274 C 
BRANCH  21  22
ATOM     22  C   UNL A   1      43.336  27.305  26.265  1.00  0.00     0.275 C 
BRANCH  22  23
ATOM     23  O   UNL A   1      42.075  27.570  25.623  1.00  0.00    -0.458 OA
BRANCH  23  24
ATOM     24  C   UNL A   1      40.996  26.949  26.161  1.00  0.00     0.338 C 
ATOM     25  O   UNL A   1      40.476  25.927  25.732  1.00  0.00    -0.246 OA
BRANCH  24  26
ATOM     26  C   UNL A   1      40.616  27.570  27.465  1.00  0.00     0.060 A 
ATOM     27  C   UNL A   1      40.962  28.891  27.758  1.00  0.00     0.016 A 
ATOM     28  C   UNL A   1      40.135  26.757  28.495  1.00  0.00     0.016 A 
ATOM     29  C   UNL A   1      41.033  29.309  29.087  1.00  0.00     0.010 A 
ATOM     30  C   UNL A   1      40.010  27.266  29.798  1.00  0.00     0.010 A 
ATOM     31  C   UNL A   1      40.488  28.545  30.127  1.00  0.00    -0.014 A 
BRANCH  31  32
ATOM     32  C   UNL A   1      40.353  29.093  31.519  1.00  0.00     0.031 A 
ATOM     33  C   UNL A   1      39.254  30.071  31.883  1.00  0.00     0.074 A 
ATOM     34  C   UNL A   1      41.271  28.778  32.461  1.00  0.00     0.049 A 
ATOM     35  N   UNL A   1      39.191  30.905  32.893  1.00  0.00    -0.248 NA
ATOM     36  C   UNL A   1      38.084  30.131  30.992  1.00  0.00     0.031 C 
ATOM     37  C   UNL A   1      42.359  27.806  32.319  1.00  0.00     0.029 A 
ATOM     38  N   UNL A   1      41.449  29.268  33.736  1.00  0.00    -0.354 N 
ATOM     39  C   UNL A   1      38.016  31.636  32.723  1.00  0.00     0.074 A 
ATOM     40  C   UNL A   1      37.393  31.140  31.513  1.00  0.00     0.031 C 
ATOM     41  C   UNL A   1      43.057  27.739  33.456  1.00  0.00     0.029 A 
ATOM     42  C   UNL A   1      42.577  28.774  34.353  1.00  0.00     0.049 A 
ATOM     43  H   UNL A   1      40.834  29.906  34.163  1.00  0.00     0.167 HD
ATOM     44  C   UNL A   1      37.518  32.637  33.495  1.00  0.00     0.031 A 
ATOM     45  C   UNL A   1      43.237  29.158  35.461  1.00  0.00     0.031 A 
ATOM     46  C   UNL A   1      38.133  33.099  34.717  1.00  0.00     0.049 A 
ATOM     47  C   UNL A   1      42.732  30.329  36.242  1.00  0.00     0.074 A 
ATOM     48  C   UNL A   1      37.698  34.097  35.576  1.00  0.00     0.029 A 
ATOM     49  N   UNL A   1      39.302  32.591  35.264  1.00  0.00    -0.354 N 
ATOM     50  N   UNL A   1      41.672  31.067  36.023  1.00  0.00    -0.248 NA
ATOM     51  C   UNL A   1      43.523  30.728  37.411  1.00  0.00     0.031 C 
ATOM     52  C   UNL A   1      38.635  34.234  36.605  1.00  0.00     0.029 A 
ATOM     53  C   UNL A   1      39.616  33.273  36.431  1.00  0.00     0.049 A 
ATOM     54  H   UNL A   1      39.831  31.856  34.880  1.00  0.00     0.167 HD
ATOM     55  C   UNL A   1      41.652  32.004  37.046  1.00  0.00     0.074 A 
ATOM     56  C   UNL A   1      42.797  31.729  37.890  1.00  0.00     0.031 C 
ATOM     57  C   UNL A   1      40.759  33.000  37.266  1.00  0.00     0.031 A 
BRANCH  44  58
ATOM     58  C   UNL A   1      36.270  33.352  33.025  1.00  0.00    -0.014 A 
ATOM     59  C   UNL A   1      35.024  33.169  33.650  1.00  0.00     0.010 A 
ATOM     60  C   UNL A   1      36.370  34.294  31.979  1.00  0.00     0.010 A 
ATOM     61  C   UNL A   1      33.899  33.878  33.212  1.00  0.00     0.020 A 
ATOM     62  C   UNL A   1      35.254  35.026  31.560  1.00  0.00     0.020 A 
ATOM     63  C   UNL A   1      34.020  34.800  32.168  1.00  0.00     0.054 A 
BRANCH  63  64
ATOM     64  S   UNL A   1      32.545  35.712  31.630  1.00  0.00     0.124 S 
ATOM     65  O   UNL A   1      31.510  35.144  32.490  1.00  0.00    -0.237 OA
ATOM     66  O   UNL A   1      32.904  37.099  31.913  1.00  0.00    -0.237 OA
ATOM     67  O   UNL A   1      32.427  35.378  30.212  1.00  0.00    -0.744 OA
ENDBRANCH  63  64
ENDBRANCH  44  58
BRANCH  45  68
ATOM     68  C   UNL A   1      44.498  28.461  35.839  1.00  0.00    -0.014 A 
ATOM     69  C   UNL A   1      45.732  28.913  35.348  1.00  0.00     0.010 A 
ATOM     70  C   UNL A   1      44.471  27.376  36.738  1.00  0.00     0.010 A 
ATOM     71  C   UNL A   1      46.919  28.292  35.746  1.00  0.00     0.020 A 
ATOM     72  C   UNL A   1      45.658  26.779  37.169  1.00  0.00     0.020 A 
ATOM     73  C   UNL A   1      46.874  27.235  36.660  1.00  0.00     0.054 A 
BRANCH  73  74
ATOM     74  S   UNL A   1      48.433  26.493  37.213  1.00  0.00     0.124 S 
ATOM     75  O   UNL A   1      49.390  27.561  36.940  1.00  0.00    -0.237 OA
ATOM     76  O   UNL A   1      48.171  26.222  38.624  1.00  0.00    -0.237 OA
ATOM     77  O   UNL A   1      48.565  25.304  36.373  1.00  0.00    -0.744 OA
ENDBRANCH  73  74
ENDBRANCH  45  68
BRANCH  57  78
ATOM     78  C   UNL A   1      40.957  33.832  38.504  1.00  0.00    -0.014 A 
ATOM     79  C   UNL A   1      41.795  34.962  38.503  1.00  0.00     0.010 A 
ATOM     80  C   UNL A   1      40.274  33.484  39.684  1.00  0.00     0.010 A 
ATOM     81  C   UNL A   1      41.976  35.706  39.673  1.00  0.00     0.020 A 
ATOM     82  C   UNL A   1      40.427  34.245  40.845  1.00  0.00     0.020 A 
ATOM     83  C   UNL A   1      41.289  35.343  40.836  1.00  0.00     0.054 A 
BRANCH  83  84
ATOM     84  S   UNL A   1      41.513  36.348  42.329  1.00  0.00     0.124 S 
ATOM     85  O   UNL A   1      41.915  35.348  43.313  1.00  0.00    -0.237 OA
ATOM     86  O   UNL A   1      42.556  37.290  41.926  1.00  0.00    -0.237 OA
ATOM     87  O   UNL A   1      40.196  36.943  42.548  1.00  0.00    -0.744 OA
ENDBRANCH  83  84
ENDBRANCH  57  78
ENDBRANCH  31  32
ENDBRANCH  24  26
ENDBRANCH  23  24
ENDBRANCH  22  23
ENDBRANCH  21  22
ENDBRANCH   1  21
TORSDOF 20
ENDMDL
MODEL 3
REMARK VINA RESULT:      -9.0      5.059      9.530
REMARK SMILES COCCCNC(=O)C[N@H+]1CC[C@H](C(=O)OCCOC(=O)c2ccc(-c3c4nc(c(-c5ccc(S(=O)(=O)[O-])cc5)c5ccc([nH]5)c(-c5ccc(S(=O)(=O)[O-])cc5)c5nc(c(-c6ccc(S(=O)(=O)[O-])cc6)c6ccc3[nH]6)C=C5)C=C4)cc2)[C@@H]1C
REMARK SMILES IDX 16 1 14 2 15 3 13 4 10 5 11 6 82 7 12 9 83 10 9 11 7 12 6 13
REMARK SMILES IDX 8 15 5 16 4 17 3 18 2 19 1 20 17 21 18 22 19 23 20 24 21 25
REMARK SMILES IDX 22 26 23 27 81 28 24 29 80 30 25 31 26 32 27 33 74 34 28 35
REMARK SMILES IDX 79 36 73 37 75 38 29 39 78 40 72 41 71 42 30 44 60 45 41 46
REMARK SMILES IDX 59 47 42 48 45 49 58 50 76 51 43 52 44 53 57 55 77 56 46 57
REMARK SMILES IDX 31 58 32 59 40 60 33 61 39 62 34 63 35 64 36 65 37 66 38 67
REMARK SMILES IDX 61 68 62 69 70 70 63 71 69 72 64 73 65 74 66 75 67 76 68 77
REMARK SMILES IDX 47 78 48 79 56 80 49 81 55 82 50 83 51 84 52 85 53 86 54 87
REMARK H PARENT 10 8 6 14 75 43 45 54
REMARK Flexibility Score: inf
ROOT
ATOM      1  O   UNL A   1      37.122  21.691  25.858  1.00  0.00    -0.462 OA
ENDROOT
BRANCH   1   2
ATOM      2  C   UNL A   1      36.757  23.011  25.775  1.00  0.00     0.315 C 
ATOM      3  O   UNL A   1      37.449  23.956  26.103  1.00  0.00    -0.252 OA
BRANCH   2   4
ATOM      4  C   UNL A   1      35.340  23.089  25.244  1.00  0.00     0.162 C 
ATOM      5  N   UNL A   1      34.593  24.476  23.404  1.00  0.00    -0.324 N 
ATOM      6  C   UNL A   1      34.197  25.161  24.623  1.00  0.00     0.264 C 
ATOM      7  C   UNL A   1      35.204  23.198  23.732  1.00  0.00     0.195 C 
ATOM      8  H   UNL A   1      35.292  25.082  22.974  1.00  0.00     0.348 HD
ATOM      9  C   UNL A   1      34.469  24.214  25.787  1.00  0.00     0.083 C 
ATOM     10  C   UNL A   1      36.422  23.006  22.850  1.00  0.00     0.076 C 
BRANCH   5  11
ATOM     11  C   UNL A   1      33.612  24.416  22.298  1.00  0.00     0.363 C 
BRANCH  11  12
ATOM     12  C   UNL A   1      32.185  24.871  22.674  1.00  0.00     0.275 C 
ATOM     13  N   UNL A   1      31.340  24.081  23.420  1.00  0.00    -0.351 N 
ATOM     14  H   UNL A   1      30.464  24.494  23.597  1.00  0.00     0.163 HD
ATOM     15  O   UNL A   1      31.763  25.982  22.340  1.00  0.00    -0.269 OA
BRANCH  13  16
ATOM     16  C   UNL A   1      31.495  22.746  24.000  1.00  0.00     0.118 C 
BRANCH  16  17
ATOM     17  C   UNL A   1      30.822  22.541  25.384  1.00  0.00     0.050 C 
BRANCH  17  18
ATOM     18  C   UNL A   1      30.654  23.769  26.266  1.00  0.00     0.161 C 
BRANCH  18  19
ATOM     19  O   UNL A   1      29.942  23.503  27.468  1.00  0.00    -0.385 OA
ATOM     20  C   UNL A   1      28.958  22.492  27.327  1.00  0.00     0.194 C 
ENDBRANCH  18  19
ENDBRANCH  17  18
ENDBRANCH  16  17
ENDBRANCH  13  16
ENDBRANCH  11  12
ENDBRANCH   5  11
ENDBRANCH   2   4
ENDBRANCH   1   2
BRANCH   1  21
ATOM     21  C   UNL A   1      38.400  21.323  25.299  1.00  0.00     0.274 C 
BRANCH  21  22
ATOM     22  C   UNL A   1      39.533  21.618  26.285  1.00  0.00     0.275 C 
BRANCH  22  23
ATOM     23  O   UNL A   1      40.645  20.744  26.014  1.00  0.00    -0.458 OA
BRANCH  23  24
ATOM     24  C   UNL A   1      41.865  21.336  25.971  1.00  0.00     0.338 C 
ATOM     25  O   UNL A   1      42.802  20.983  25.267  1.00  0.00    -0.246 OA
BRANCH  24  26
ATOM     26  C   UNL A   1      41.876  22.598  26.769  1.00  0.00     0.060 A 
ATOM     27  C   UNL A   1      42.232  23.814  26.183  1.00  0.00     0.016 A 
ATOM     28  C   UNL A   1      41.773  22.527  28.161  1.00  0.00     0.016 A 
ATOM     29  C   UNL A   1      42.689  24.861  26.984  1.00  0.00     0.010 A 
ATOM     30  C   UNL A   1      42.032  23.661  28.948  1.00  0.00     0.010 A 
ATOM     31  C   UNL A   1      42.527  24.844  28.376  1.00  0.00    -0.014 A 
BRANCH  31  32
ATOM     32  C   UNL A   1      42.800  26.060  29.214  1.00  0.00     0.031 A 
ATOM     33  C   UNL A   1      44.026  26.155  30.098  1.00  0.00     0.074 A 
ATOM     34  C   UNL A   1      41.900  27.070  29.253  1.00  0.00     0.049 A 
ATOM     35  N   UNL A   1      44.243  26.934  31.131  1.00  0.00    -0.248 NA
ATOM     36  C   UNL A   1      45.147  25.251  29.794  1.00  0.00     0.031 C 
ATOM     37  C   UNL A   1      40.696  27.189  28.424  1.00  0.00     0.029 A 
ATOM     38  N   UNL A   1      41.849  28.194  30.048  1.00  0.00    -0.354 N 
ATOM     39  C   UNL A   1      45.487  26.568  31.643  1.00  0.00     0.074 A 
ATOM     40  C   UNL A   1      45.982  25.500  30.798  1.00  0.00     0.031 C 
ATOM     41  C   UNL A   1      40.056  28.323  28.718  1.00  0.00     0.029 A 
ATOM     42  C   UNL A   1      40.703  28.935  29.864  1.00  0.00     0.049 A 
ATOM     43  H   UNL A   1      42.559  28.441  30.682  1.00  0.00     0.167 HD
ATOM     44  C   UNL A   1      46.143  27.066  32.723  1.00  0.00     0.031 A 
ATOM     45  C   UNL A   1      40.154  29.933  30.580  1.00  0.00     0.031 A 
ATOM     46  C   UNL A   1      45.653  28.155  33.535  1.00  0.00     0.049 A 
ATOM     47  C   UNL A   1      40.837  30.399  31.826  1.00  0.00     0.074 A 
ATOM     48  C   UNL A   1      46.250  28.739  34.642  1.00  0.00     0.029 A 
ATOM     49  N   UNL A   1      44.461  28.833  33.327  1.00  0.00    -0.354 N 
ATOM     50  N   UNL A   1      41.966  29.986  32.347  1.00  0.00    -0.248 NA
ATOM     51  C   UNL A   1      40.163  31.455  32.589  1.00  0.00     0.031 C 
ATOM     52  C   UNL A   1      45.391  29.726  35.138  1.00  0.00     0.029 A 
ATOM     53  C   UNL A   1      44.293  29.809  34.300  1.00  0.00     0.049 A 
ATOM     54  H   UNL A   1      43.827  28.648  32.598  1.00  0.00     0.167 HD
ATOM     55  C   UNL A   1      42.153  30.754  33.488  1.00  0.00     0.074 A 
ATOM     56  C   UNL A   1      41.028  31.663  33.571  1.00  0.00     0.031 C 
ATOM     57  C   UNL A   1      43.170  30.709  34.382  1.00  0.00     0.031 A 
BRANCH  44  58
ATOM     58  C   UNL A   1      47.442  26.412  33.139  1.00  0.00    -0.014 A 
ATOM     59  C   UNL A   1      48.691  26.889  32.704  1.00  0.00     0.010 A 
ATOM     60  C   UNL A   1      47.410  25.340  34.054  1.00  0.00     0.010 A 
ATOM     61  C   UNL A   1      49.875  26.282  33.141  1.00  0.00     0.020 A 
ATOM     62  C   UNL A   1      48.591  24.750  34.517  1.00  0.00     0.020 A 
ATOM     63  C   UNL A   1      49.817  25.214  34.042  1.00  0.00     0.054 A 
BRANCH  63  64
ATOM     64  S   UNL A   1      51.370  24.454  34.598  1.00  0.00     0.124 S 
ATOM     65  O   UNL A   1      51.720  25.290  35.744  1.00  0.00    -0.237 OA
ATOM     66  O   UNL A   1      50.961  23.089  34.920  1.00  0.00    -0.237 OA
ATOM     67  O   UNL A   1      52.254  24.581  33.443  1.00  0.00    -0.744 OA
ENDBRANCH  63  64
ENDBRANCH  44  58
BRANCH  45  68
ATOM     68  C   UNL A   1      38.839  30.494  30.163  1.00  0.00    -0.014 A 
ATOM     69  C   UNL A   1      38.762  31.778  29.601  1.00  0.00     0.010 A 
ATOM     70  C   UNL A   1      37.666  29.721  30.273  1.00  0.00     0.010 A 
ATOM     71  C   UNL A   1      37.536  32.282  29.161  1.00  0.00     0.020 A 
ATOM     72  C   UNL A   1      36.446  30.206  29.797  1.00  0.00     0.020 A 
ATOM     73  C   UNL A   1      36.388  31.489  29.254  1.00  0.00     0.054 A 
BRANCH  73  74
ATOM     74  S   UNL A   1      34.823  32.141  28.610  1.00  0.00     0.124 S 
ATOM     75  O   UNL A   1      35.284  33.145  27.656  1.00  0.00    -0.237 OA
ATOM     76  O   UNL A   1      34.202  30.953  28.030  1.00  0.00    -0.237 OA
ATOM     77  O   UNL A   1      34.154  32.665  29.799  1.00  0.00    -0.744 OA
ENDBRANCH  73  74
ENDBRANCH  45  68
BRANCH  57  78
ATOM     78  C   UNL A   1      43.140  31.715  35.501  1.00  0.00    -0.014 A 
ATOM     79  C   UNL A   1      42.541  31.419  36.739  1.00  0.00     0.010 A 
ATOM     80  C   UNL A   1      43.738  32.974  35.312  1.00  0.00     0.010 A 
ATOM     81  C   UNL A   1      42.510  32.378  37.755  1.00  0.00     0.020 A 
ATOM     82  C   UNL A   1      43.738  33.924  36.336  1.00  0.00     0.020 A 
ATOM     83  C   UNL A   1      43.110  33.624  37.547  1.00  0.00     0.054 A 
BRANCH  83  84
ATOM     84  S   UNL A   1      43.088  34.838  38.894  1.00  0.00     0.124 S 
ATOM     85  O   UNL A   1      42.265  35.905  38.331  1.00  0.00    -0.237 OA
ATOM     86  O   UNL A   1      42.480  34.086  39.991  1.00  0.00    -0.237 OA
ATOM     87  O   UNL A   1      44.498  35.173  39.083  1.00  0.00    -0.744 OA
ENDBRANCH  83  84
ENDBRANCH  57  78
ENDBRANCH  31  32
ENDBRANCH  24  26
ENDBRANCH  23  24
ENDBRANCH  22  23
ENDBRANCH  21  22
ENDBRANCH   1  21
TORSDOF 20
ENDMDL
