MODEL 1
REMARK VINA RESULT:      -9.8      0.000      0.000
REMARK SMILES O=C(OCCOC(=O)c1ccc2nc(C3CCCCC3)[nH]c2c1)c1ccc(-c2c3nc(c(-c4ccc(S(=O)(=O)[O-])cc4)c4ccc([nH]4)c(-c4ccc(S(=O)(=O)[O-])cc4)c4nc(c(-c5ccc(S(=O)(=O)[O-])cc5)c5ccc2[nH]5)C=C4)C=C3)cc1
REMARK SMILES IDX 4 1 3 2 2 3 1 4 24 5 25 6 83 7 26 8 82 9 27 10 28 11 29 12
REMARK SMILES IDX 76 13 30 14 81 15 75 16 77 17 31 18 80 19 74 20 73 21 32 23
REMARK SMILES IDX 62 24 43 25 61 26 44 27 47 28 60 29 78 30 45 31 46 32 59 34
REMARK SMILES IDX 79 35 48 36 33 37 34 38 42 39 35 40 41 41 36 42 37 43 38 44
REMARK SMILES IDX 39 45 40 46 63 47 64 48 72 49 65 50 71 51 66 52 67 53 68 54
REMARK SMILES IDX 69 55 70 56 49 57 50 58 58 59 51 60 57 61 52 62 53 63 54 64
REMARK SMILES IDX 55 65 56 66 5 67 6 68 7 69 8 70 9 71 10 72 23 73 11 74 22 75
REMARK SMILES IDX 12 76 21 77 13 78 14 79 15 81 16 82 20 83 17 84 19 85 18 86
REMARK H PARENT 77 22 47 33 21 80
REMARK Flexibility Score: inf
ROOT
ATOM      1  C   UNL A   1      34.539  33.234  28.745  1.00  0.00     0.275 C 
ENDROOT
BRANCH   1   2
ATOM      2  O   UNL A   1      34.057  31.890  28.572  1.00  0.00    -0.458 OA
BRANCH   2   3
ATOM      3  C   UNL A   1      34.613  30.833  27.933  1.00  0.00     0.338 C 
ATOM      4  O   UNL A   1      33.962  30.258  27.061  1.00  0.00    -0.246 OA
BRANCH   3   5
ATOM      5  C   UNL A   1      35.930  30.236  28.312  1.00  0.00     0.060 A 
ATOM      6  C   UNL A   1      36.269  29.736  29.570  1.00  0.00     0.016 A 
ATOM      7  C   UNL A   1      36.922  30.240  27.314  1.00  0.00     0.016 A 
ATOM      8  C   UNL A   1      37.535  29.188  29.806  1.00  0.00     0.010 A 
ATOM      9  C   UNL A   1      38.185  29.684  27.540  1.00  0.00     0.010 A 
ATOM     10  C   UNL A   1      38.501  29.165  28.798  1.00  0.00    -0.014 A 
BRANCH  10  11
ATOM     11  C   UNL A   1      39.887  28.759  29.124  1.00  0.00     0.031 A 
ATOM     12  C   UNL A   1      40.761  29.732  29.860  1.00  0.00     0.074 A 
ATOM     13  C   UNL A   1      40.334  27.526  28.821  1.00  0.00     0.049 A 
ATOM     14  N   UNL A   1      41.952  29.550  30.366  1.00  0.00    -0.248 NA
ATOM     15  C   UNL A   1      40.211  31.081  30.079  1.00  0.00     0.031 C 
ATOM     16  C   UNL A   1      39.560  26.493  28.139  1.00  0.00     0.029 A 
ATOM     17  N   UNL A   1      41.549  26.934  29.050  1.00  0.00    -0.354 N 
ATOM     18  C   UNL A   1      42.277  30.745  30.992  1.00  0.00     0.074 A 
ATOM     19  C   UNL A   1      41.192  31.669  30.746  1.00  0.00     0.031 C 
ATOM     20  C   UNL A   1      40.328  25.403  27.970  1.00  0.00     0.029 A 
ATOM     21  C   UNL A   1      41.641  25.655  28.551  1.00  0.00     0.049 A 
ATOM     22  H   UNL A   1      42.286  27.382  29.524  1.00  0.00     0.167 HD
ATOM     23  C   UNL A   1      43.367  31.037  31.738  1.00  0.00     0.031 A 
ATOM     24  C   UNL A   1      42.669  24.783  28.579  1.00  0.00     0.031 A 
ATOM     25  C   UNL A   1      44.457  30.127  31.947  1.00  0.00     0.049 A 
ATOM     26  C   UNL A   1      43.915  25.165  29.332  1.00  0.00     0.074 A 
ATOM     27  C   UNL A   1      45.610  30.313  32.685  1.00  0.00     0.029 A 
ATOM     28  N   UNL A   1      44.528  28.854  31.398  1.00  0.00    -0.354 N 
ATOM     29  N   UNL A   1      44.174  26.274  29.985  1.00  0.00    -0.248 NA
ATOM     30  C   UNL A   1      44.988  24.164  29.390  1.00  0.00     0.031 C 
ATOM     31  C   UNL A   1      46.399  29.164  32.549  1.00  0.00     0.029 A 
ATOM     32  C   UNL A   1      45.715  28.248  31.764  1.00  0.00     0.049 A 
ATOM     33  H   UNL A   1      43.835  28.444  30.831  1.00  0.00     0.167 HD
ATOM     34  C   UNL A   1      45.417  26.082  30.578  1.00  0.00     0.074 A 
ATOM     35  C   UNL A   1      45.860  24.755  30.197  1.00  0.00     0.031 C 
ATOM     36  C   UNL A   1      46.120  26.920  31.381  1.00  0.00     0.031 A 
BRANCH  23  37
ATOM     37  C   UNL A   1      43.411  32.406  32.358  1.00  0.00    -0.014 A 
ATOM     38  C   UNL A   1      42.802  32.649  33.604  1.00  0.00     0.010 A 
ATOM     39  C   UNL A   1      44.020  33.470  31.672  1.00  0.00     0.010 A 
ATOM     40  C   UNL A   1      42.751  33.944  34.126  1.00  0.00     0.020 A 
ATOM     41  C   UNL A   1      43.990  34.763  32.202  1.00  0.00     0.020 A 
ATOM     42  C   UNL A   1      43.333  34.996  33.412  1.00  0.00     0.054 A 
BRANCH  42  43
ATOM     43  S   UNL A   1      43.224  36.673  34.092  1.00  0.00     0.124 S 
ATOM     44  O   UNL A   1      44.355  36.697  35.017  1.00  0.00    -0.237 OA
ATOM     45  O   UNL A   1      43.367  37.514  32.906  1.00  0.00    -0.237 OA
ATOM     46  O   UNL A   1      41.906  36.706  34.721  1.00  0.00    -0.744 OA
ENDBRANCH  42  43
ENDBRANCH  23  37
BRANCH  24  47
ATOM     47  C   UNL A   1      42.543  23.454  27.920  1.00  0.00    -0.014 A 
ATOM     48  C   UNL A   1      42.059  22.342  28.630  1.00  0.00     0.010 A 
ATOM     49  C   UNL A   1      42.911  23.295  26.571  1.00  0.00     0.010 A 
ATOM     50  C   UNL A   1      41.969  21.089  28.013  1.00  0.00     0.020 A 
ATOM     51  C   UNL A   1      42.804  22.049  25.945  1.00  0.00     0.020 A 
ATOM     52  C   UNL A   1      42.344  20.949  26.673  1.00  0.00     0.054 A 
BRANCH  52  53
ATOM     53  S   UNL A   1      42.185  19.322  25.886  1.00  0.00     0.124 S 
ATOM     54  O   UNL A   1      42.717  18.432  26.914  1.00  0.00    -0.237 OA
ATOM     55  O   UNL A   1      40.747  19.225  25.649  1.00  0.00    -0.237 OA
ATOM     56  O   UNL A   1      43.001  19.443  24.679  1.00  0.00    -0.744 OA
ENDBRANCH  52  53
ENDBRANCH  24  47
BRANCH  36  57
ATOM     57  C   UNL A   1      47.411  26.400  31.950  1.00  0.00    -0.014 A 
ATOM     58  C   UNL A   1      47.448  25.722  33.179  1.00  0.00     0.010 A 
ATOM     59  C   UNL A   1      48.596  26.549  31.205  1.00  0.00     0.010 A 
ATOM     60  C   UNL A   1      48.658  25.224  33.670  1.00  0.00     0.020 A 
ATOM     61  C   UNL A   1      49.802  26.032  31.682  1.00  0.00     0.020 A 
ATOM     62  C   UNL A   1      49.827  25.385  32.919  1.00  0.00     0.054 A 
BRANCH  62  63
ATOM     63  S   UNL A   1      51.378  24.690  33.550  1.00  0.00     0.124 S 
ATOM     64  O   UNL A   1      52.223  24.704  32.359  1.00  0.00    -0.237 OA
ATOM     65  O   UNL A   1      51.753  25.635  34.599  1.00  0.00    -0.237 OA
ATOM     66  O   UNL A   1      50.992  23.362  34.026  1.00  0.00    -0.744 OA
ENDBRANCH  62  63
ENDBRANCH  36  57
ENDBRANCH  10  11
ENDBRANCH   3   5
ENDBRANCH   2   3
ENDBRANCH   1   2
BRANCH   1  67
ATOM     67  C   UNL A   1      34.493  33.755  30.181  1.00  0.00     0.275 C 
BRANCH  67  68
ATOM     68  O   UNL A   1      34.413  32.716  31.165  1.00  0.00    -0.458 OA
BRANCH  68  69
ATOM     69  C   UNL A   1      34.287  33.147  32.447  1.00  0.00     0.338 C 
ATOM     70  O   UNL A   1      33.305  33.664  32.954  1.00  0.00    -0.246 OA
BRANCH  69  71
ATOM     71  C   UNL A   1      35.496  32.775  33.209  1.00  0.00     0.062 A 
ATOM     72  C   UNL A   1      35.900  33.516  34.326  1.00  0.00     0.018 A 
ATOM     73  C   UNL A   1      36.235  31.673  32.749  1.00  0.00     0.044 A 
ATOM     74  C   UNL A   1      37.085  33.186  35.001  1.00  0.00     0.031 A 
ATOM     75  C   UNL A   1      37.448  31.425  33.395  1.00  0.00     0.066 A 
ATOM     76  C   UNL A   1      37.884  32.149  34.498  1.00  0.00     0.089 A 
ATOM     77  N   UNL A   1      38.469  30.545  33.144  1.00  0.00    -0.342 N 
ATOM     78  N   UNL A   1      39.107  31.698  34.922  1.00  0.00    -0.233 NA
ATOM     79  C   UNL A   1      39.454  30.744  34.082  1.00  0.00     0.110 A 
ATOM     80  H   UNL A   1      38.491  29.883  32.415  1.00  0.00     0.168 HD
BRANCH  79  81
ATOM     81  C   UNL A   1      40.722  29.942  34.134  1.00  0.00     0.055 C 
ATOM     82  C   UNL A   1      41.212  29.783  35.581  1.00  0.00     0.011 C 
ATOM     83  C   UNL A   1      40.572  28.578  33.444  1.00  0.00     0.011 C 
ATOM     84  C   UNL A   1      42.503  28.974  35.651  1.00  0.00     0.001 C 
ATOM     85  C   UNL A   1      41.865  27.764  33.529  1.00  0.00     0.001 C 
ATOM     86  C   UNL A   1      42.349  27.618  34.969  1.00  0.00     0.000 C 
ENDBRANCH  79  81
ENDBRANCH  69  71
ENDBRANCH  68  69
ENDBRANCH  67  68
ENDBRANCH   1  67
TORSDOF 15
ENDMDL
MODEL 2
REMARK VINA RESULT:      -9.5      2.960     11.082
REMARK SMILES O=C(OCCOC(=O)c1ccc2nc(C3CCCCC3)[nH]c2c1)c1ccc(-c2c3nc(c(-c4ccc(S(=O)(=O)[O-])cc4)c4ccc([nH]4)c(-c4ccc(S(=O)(=O)[O-])cc4)c4nc(c(-c5ccc(S(=O)(=O)[O-])cc5)c5ccc2[nH]5)C=C4)C=C3)cc1
REMARK SMILES IDX 4 1 3 2 2 3 1 4 24 5 25 6 83 7 26 8 82 9 27 10 28 11 29 12
REMARK SMILES IDX 76 13 30 14 81 15 75 16 77 17 31 18 80 19 74 20 73 21 32 23
REMARK SMILES IDX 62 24 43 25 61 26 44 27 47 28 60 29 78 30 45 31 46 32 59 34
REMARK SMILES IDX 79 35 48 36 33 37 34 38 42 39 35 40 41 41 36 42 37 43 38 44
REMARK SMILES IDX 39 45 40 46 63 47 64 48 72 49 65 50 71 51 66 52 67 53 68 54
REMARK SMILES IDX 69 55 70 56 49 57 50 58 58 59 51 60 57 61 52 62 53 63 54 64
REMARK SMILES IDX 55 65 56 66 5 67 6 68 7 69 8 70 9 71 10 72 23 73 11 74 22 75
REMARK SMILES IDX 12 76 21 77 13 78 14 79 15 81 16 82 20 83 17 84 19 85 18 86
REMARK H PARENT 77 22 47 33 21 80
REMARK Flexibility Score: inf
ROOT
ATOM      1  C   UNL A   1      40.854  20.805  26.124  1.00  0.00     0.275 C 
ENDROOT
BRANCH   1   2
ATOM      2  O   UNL A   1      39.921  21.616  26.859  1.00  0.00    -0.458 OA
BRANCH   2   3
ATOM      3  C   UNL A   1      39.259  22.739  26.494  1.00  0.00     0.338 C 
ATOM      4  O   UNL A   1      38.408  22.664  25.609  1.00  0.00    -0.246 OA
BRANCH   3   5
ATOM      5  C   UNL A   1      39.591  24.101  27.013  1.00  0.00     0.060 A 
ATOM      6  C   UNL A   1      40.449  25.020  26.409  1.00  0.00     0.016 A 
ATOM      7  C   UNL A   1      39.021  24.447  28.253  1.00  0.00     0.016 A 
ATOM      8  C   UNL A   1      40.678  26.275  26.985  1.00  0.00     0.010 A 
ATOM      9  C   UNL A   1      39.235  25.704  28.828  1.00  0.00     0.010 A 
ATOM     10  C   UNL A   1      40.079  26.622  28.199  1.00  0.00    -0.014 A 
BRANCH  10  11
ATOM     11  C   UNL A   1      40.482  27.872  28.880  1.00  0.00     0.031 A 
ATOM     12  C   UNL A   1      41.868  27.958  29.451  1.00  0.00     0.074 A 
ATOM     13  C   UNL A   1      39.649  28.927  28.936  1.00  0.00     0.049 A 
ATOM     14  N   UNL A   1      42.484  28.988  29.967  1.00  0.00    -0.248 NA
ATOM     15  C   UNL A   1      42.679  26.728  29.410  1.00  0.00     0.031 C 
ATOM     16  C   UNL A   1      38.297  28.964  28.386  1.00  0.00     0.029 A 
ATOM     17  N   UNL A   1      39.819  30.174  29.482  1.00  0.00    -0.354 N 
ATOM     18  C   UNL A   1      43.760  28.542  30.278  1.00  0.00     0.074 A 
ATOM     19  C   UNL A   1      43.813  27.133  29.959  1.00  0.00     0.031 C 
ATOM     20  C   UNL A   1      37.742  30.159  28.652  1.00  0.00     0.029 A 
ATOM     21  C   UNL A   1      38.710  30.979  29.373  1.00  0.00     0.049 A 
ATOM     22  H   UNL A   1      40.656  30.464  29.911  1.00  0.00     0.167 HD
ATOM     23  C   UNL A   1      44.809  29.251  30.755  1.00  0.00     0.031 A 
ATOM     24  C   UNL A   1      38.508  32.243  29.795  1.00  0.00     0.031 A 
ATOM     25  C   UNL A   1      44.738  30.641  31.105  1.00  0.00     0.049 A 
ATOM     26  C   UNL A   1      39.661  32.986  30.415  1.00  0.00     0.074 A 
ATOM     27  C   UNL A   1      45.736  31.463  31.594  1.00  0.00     0.029 A 
ATOM     28  N   UNL A   1      43.588  31.412  31.012  1.00  0.00    -0.354 N 
ATOM     29  N   UNL A   1      40.887  32.571  30.630  1.00  0.00    -0.248 NA
ATOM     30  C   UNL A   1      39.418  34.381  30.806  1.00  0.00     0.031 C 
ATOM     31  C   UNL A   1      45.177  32.724  31.835  1.00  0.00     0.029 A 
ATOM     32  C   UNL A   1      43.844  32.698  31.452  1.00  0.00     0.049 A 
ATOM     33  H   UNL A   1      42.718  31.092  30.681  1.00  0.00     0.167 HD
ATOM     34  C   UNL A   1      41.577  33.668  31.132  1.00  0.00     0.074 A 
ATOM     35  C   UNL A   1      40.628  34.762  31.195  1.00  0.00     0.031 C 
ATOM     36  C   UNL A   1      42.882  33.769  31.490  1.00  0.00     0.031 A 
BRANCH  23  37
ATOM     37  C   UNL A   1      46.103  28.505  30.926  1.00  0.00    -0.014 A 
ATOM     38  C   UNL A   1      47.046  28.456  29.882  1.00  0.00     0.010 A 
ATOM     39  C   UNL A   1      46.361  27.807  32.118  1.00  0.00     0.010 A 
ATOM     40  C   UNL A   1      48.197  27.674  30.004  1.00  0.00     0.020 A 
ATOM     41  C   UNL A   1      47.522  27.041  32.253  1.00  0.00     0.020 A 
ATOM     42  C   UNL A   1      48.420  26.959  31.186  1.00  0.00     0.054 A 
BRANCH  42  43
ATOM     43  S   UNL A   1      49.903  25.923  31.309  1.00  0.00     0.124 S 
ATOM     44  O   UNL A   1      49.585  25.078  32.458  1.00  0.00    -0.237 OA
ATOM     45  O   UNL A   1      49.930  25.240  30.018  1.00  0.00    -0.237 OA
ATOM     46  O   UNL A   1      50.980  26.886  31.524  1.00  0.00    -0.744 OA
ENDBRANCH  42  43
ENDBRANCH  23  37
BRANCH  24  47
ATOM     47  C   UNL A   1      37.185  32.897  29.600  1.00  0.00    -0.014 A 
ATOM     48  C   UNL A   1      36.848  33.489  28.370  1.00  0.00     0.010 A 
ATOM     49  C   UNL A   1      36.250  32.932  30.652  1.00  0.00     0.010 A 
ATOM     50  C   UNL A   1      35.614  34.126  28.203  1.00  0.00     0.020 A 
ATOM     51  C   UNL A   1      35.007  33.551  30.482  1.00  0.00     0.020 A 
ATOM     52  C   UNL A   1      34.701  34.155  29.261  1.00  0.00     0.054 A 
BRANCH  52  53
ATOM     53  S   UNL A   1      33.093  34.957  29.007  1.00  0.00     0.124 S 
ATOM     54  O   UNL A   1      32.533  34.954  30.355  1.00  0.00    -0.237 OA
ATOM     55  O   UNL A   1      33.473  36.268  28.484  1.00  0.00    -0.237 OA
ATOM     56  O   UNL A   1      32.421  34.084  28.047  1.00  0.00    -0.744 OA
ENDBRANCH  52  53
ENDBRANCH  24  47
BRANCH  36  57
ATOM     57  C   UNL A   1      43.371  35.123  31.921  1.00  0.00    -0.014 A 
ATOM     58  C   UNL A   1      43.822  36.069  30.986  1.00  0.00     0.010 A 
ATOM     59  C   UNL A   1      43.323  35.465  33.285  1.00  0.00     0.010 A 
ATOM     60  C   UNL A   1      44.245  37.331  31.414  1.00  0.00     0.020 A 
ATOM     61  C   UNL A   1      43.721  36.733  33.712  1.00  0.00     0.020 A 
ATOM     62  C   UNL A   1      44.194  37.653  32.774  1.00  0.00     0.054 A 
BRANCH  62  63
ATOM     63  S   UNL A   1      44.701  39.311  33.303  1.00  0.00     0.124 S 
ATOM     64  O   UNL A   1      46.027  39.059  33.860  1.00  0.00    -0.237 OA
ATOM     65  O   UNL A   1      44.676  40.071  32.055  1.00  0.00    -0.237 OA
ATOM     66  O   UNL A   1      43.677  39.692  34.275  1.00  0.00    -0.744 OA
ENDBRANCH  62  63
ENDBRANCH  36  57
ENDBRANCH  10  11
ENDBRANCH   3   5
ENDBRANCH   2   3
ENDBRANCH   1   2
BRANCH   1  67
ATOM     67  C   UNL A   1      42.301  21.296  26.157  1.00  0.00     0.275 C 
BRANCH  67  68
ATOM     68  O   UNL A   1      42.582  22.313  25.186  1.00  0.00    -0.458 OA
BRANCH  68  69
ATOM     69  C   UNL A   1      43.836  22.279  24.666  1.00  0.00     0.338 C 
ATOM     70  O   UNL A   1      44.276  21.475  23.862  1.00  0.00    -0.246 OA
BRANCH  69  71
ATOM     71  C   UNL A   1      44.586  23.469  25.120  1.00  0.00     0.062 A 
ATOM     72  C   UNL A   1      45.907  23.360  25.570  1.00  0.00     0.018 A 
ATOM     73  C   UNL A   1      43.910  24.700  25.109  1.00  0.00     0.044 A 
ATOM     74  C   UNL A   1      46.583  24.488  26.055  1.00  0.00     0.031 A 
ATOM     75  C   UNL A   1      44.586  25.784  25.674  1.00  0.00     0.066 A 
ATOM     76  C   UNL A   1      45.892  25.706  26.141  1.00  0.00     0.089 A 
ATOM     77  N   UNL A   1      44.204  27.071  25.951  1.00  0.00    -0.342 N 
ATOM     78  N   UNL A   1      46.298  26.913  26.648  1.00  0.00    -0.233 NA
ATOM     79  C   UNL A   1      45.262  27.719  26.544  1.00  0.00     0.110 A 
ATOM     80  H   UNL A   1      43.322  27.464  25.757  1.00  0.00     0.168 HD
BRANCH  79  81
ATOM     81  C   UNL A   1      45.218  29.158  26.968  1.00  0.00     0.055 C 
ATOM     82  C   UNL A   1      46.216  30.000  26.159  1.00  0.00     0.011 C 
ATOM     83  C   UNL A   1      43.801  29.743  26.887  1.00  0.00     0.011 C 
ATOM     84  C   UNL A   1      46.187  31.465  26.582  1.00  0.00     0.001 C 
ATOM     85  C   UNL A   1      43.779  31.216  27.299  1.00  0.00     0.001 C 
ATOM     86  C   UNL A   1      44.778  32.044  26.494  1.00  0.00     0.000 C 
ENDBRANCH  79  81
ENDBRANCH  69  71
ENDBRANCH  68  69
ENDBRANCH  67  68
ENDBRANCH   1  67
TORSDOF 15
ENDMDL
MODEL 3
REMARK VINA RESULT:      -9.3      1.240      8.476
REMARK SMILES O=C(OCCOC(=O)c1ccc2nc(C3CCCCC3)[nH]c2c1)c1ccc(-c2c3nc(c(-c4ccc(S(=O)(=O)[O-])cc4)c4ccc([nH]4)c(-c4ccc(S(=O)(=O)[O-])cc4)c4nc(c(-c5ccc(S(=O)(=O)[O-])cc5)c5ccc2[nH]5)C=C4)C=C3)cc1
REMARK SMILES IDX 4 1 3 2 2 3 1 4 24 5 25 6 83 7 26 8 82 9 27 10 28 11 29 12
REMARK SMILES IDX 76 13 30 14 81 15 75 16 77 17 31 18 80 19 74 20 73 21 32 23
REMARK SMILES IDX 62 24 43 25 61 26 44 27 47 28 60 29 78 30 45 31 46 32 59 34
REMARK SMILES IDX 79 35 48 36 33 37 34 38 42 39 35 40 41 41 36 42 37 43 38 44
REMARK SMILES IDX 39 45 40 46 63 47 64 48 72 49 65 50 71 51 66 52 67 53 68 54
REMARK SMILES IDX 69 55 70 56 49 57 50 58 58 59 51 60 57 61 52 62 53 63 54 64
REMARK SMILES IDX 55 65 56 66 5 67 6 68 7 69 8 70 9 71 10 72 23 73 11 74 22 75
REMARK SMILES IDX 12 76 21 77 13 78 14 79 15 81 16 82 20 83 17 84 19 85 18 86
REMARK H PARENT 77 22 47 33 21 80
REMARK Flexibility Score: inf
ROOT
ATOM      1  C   UNL A   1      34.073  33.010  28.027  1.00  0.00     0.275 C 
ENDROOT
BRANCH   1   2
ATOM      2  O   UNL A   1      33.826  31.620  28.303  1.00  0.00    -0.458 OA
BRANCH   2   3
ATOM      3  C   UNL A   1      34.446  30.510  27.838  1.00  0.00     0.338 C 
ATOM      4  O   UNL A   1      33.826  29.756  27.087  1.00  0.00    -0.246 OA
BRANCH   3   5
ATOM      5  C   UNL A   1      35.803  30.069  28.284  1.00  0.00     0.060 A 
ATOM      6  C   UNL A   1      36.159  29.707  29.584  1.00  0.00     0.016 A 
ATOM      7  C   UNL A   1      36.812  30.083  27.303  1.00  0.00     0.016 A 
ATOM      8  C   UNL A   1      37.464  29.301  29.883  1.00  0.00     0.010 A 
ATOM      9  C   UNL A   1      38.115  29.667  27.593  1.00  0.00     0.010 A 
ATOM     10  C   UNL A   1      38.450  29.285  28.893  1.00  0.00    -0.014 A 
BRANCH  10  11
ATOM     11  C   UNL A   1      39.859  29.036  29.272  1.00  0.00     0.031 A 
ATOM     12  C   UNL A   1      40.450  27.688  28.978  1.00  0.00     0.074 A 
ATOM     13  C   UNL A   1      40.611  30.013  29.813  1.00  0.00     0.049 A 
ATOM     14  N   UNL A   1      41.689  27.288  29.095  1.00  0.00    -0.248 NA
ATOM     15  C   UNL A   1      39.531  26.662  28.457  1.00  0.00     0.031 C 
ATOM     16  C   UNL A   1      40.149  31.366  30.109  1.00  0.00     0.029 A 
ATOM     17  N   UNL A   1      41.924  30.017  30.208  1.00  0.00    -0.354 N 
ATOM     18  C   UNL A   1      41.703  25.980  28.630  1.00  0.00     0.074 A 
ATOM     19  C   UNL A   1      40.342  25.629  28.294  1.00  0.00     0.031 C 
ATOM     20  C   UNL A   1      41.150  32.062  30.674  1.00  0.00     0.029 A 
ATOM     21  C   UNL A   1      42.330  31.210  30.759  1.00  0.00     0.049 A 
ATOM     22  H   UNL A   1      42.519  29.239  30.109  1.00  0.00     0.167 HD
ATOM     23  C   UNL A   1      42.762  25.156  28.464  1.00  0.00     0.031 A 
ATOM     24  C   UNL A   1      43.528  31.573  31.259  1.00  0.00     0.031 A 
ATOM     25  C   UNL A   1      44.106  25.500  28.835  1.00  0.00     0.049 A 
ATOM     26  C   UNL A   1      44.674  30.604  31.155  1.00  0.00     0.074 A 
ATOM     27  C   UNL A   1      45.258  24.747  28.711  1.00  0.00     0.029 A 
ATOM     28  N   UNL A   1      44.471  26.704  29.420  1.00  0.00    -0.354 N 
ATOM     29  N   UNL A   1      44.687  29.396  30.640  1.00  0.00    -0.248 NA
ATOM     30  C   UNL A   1      45.977  31.060  31.656  1.00  0.00     0.031 C 
ATOM     31  C   UNL A   1      46.315  25.482  29.260  1.00  0.00     0.029 A 
ATOM     32  C   UNL A   1      45.828  26.710  29.682  1.00  0.00     0.049 A 
ATOM     33  H   UNL A   1      43.854  27.445  29.620  1.00  0.00     0.167 HD
ATOM     34  C   UNL A   1      46.008  28.970  30.705  1.00  0.00     0.074 A 
ATOM     35  C   UNL A   1      46.763  30.046  31.318  1.00  0.00     0.031 C 
ATOM     36  C   UNL A   1      46.553  27.803  30.280  1.00  0.00     0.031 A 
BRANCH  23  37
ATOM     37  C   UNL A   1      42.478  23.807  27.864  1.00  0.00    -0.014 A 
ATOM     38  C   UNL A   1      42.162  22.709  28.686  1.00  0.00     0.010 A 
ATOM     39  C   UNL A   1      42.573  23.621  26.475  1.00  0.00     0.010 A 
ATOM     40  C   UNL A   1      42.004  21.435  28.136  1.00  0.00     0.020 A 
ATOM     41  C   UNL A   1      42.394  22.352  25.917  1.00  0.00     0.020 A 
ATOM     42  C   UNL A   1      42.137  21.263  26.754  1.00  0.00     0.054 A 
BRANCH  42  43
ATOM     43  S   UNL A   1      41.963  19.594  26.065  1.00  0.00     0.124 S 
ATOM     44  O   UNL A   1      40.543  19.558  25.722  1.00  0.00    -0.237 OA
ATOM     45  O   UNL A   1      42.881  19.615  24.929  1.00  0.00    -0.237 OA
ATOM     46  O   UNL A   1      42.359  18.722  27.167  1.00  0.00    -0.744 OA
ENDBRANCH  42  43
ENDBRANCH  23  37
BRANCH  24  47
ATOM     47  C   UNL A   1      43.714  32.926  31.853  1.00  0.00    -0.014 A 
ATOM     48  C   UNL A   1      44.030  34.030  31.042  1.00  0.00     0.010 A 
ATOM     49  C   UNL A   1      43.577  33.116  33.241  1.00  0.00     0.010 A 
ATOM     50  C   UNL A   1      44.230  35.293  31.610  1.00  0.00     0.020 A 
ATOM     51  C   UNL A   1      43.756  34.381  33.809  1.00  0.00     0.020 A 
ATOM     52  C   UNL A   1      44.094  35.461  32.992  1.00  0.00     0.054 A 
BRANCH  52  53
ATOM     53  S   UNL A   1      44.325  37.116  33.698  1.00  0.00     0.124 S 
ATOM     54  O   UNL A   1      42.968  37.466  34.107  1.00  0.00    -0.237 OA
ATOM     55  O   UNL A   1      45.268  36.866  34.787  1.00  0.00    -0.237 OA
ATOM     56  O   UNL A   1      44.865  37.893  32.584  1.00  0.00    -0.744 OA
ENDBRANCH  52  53
ENDBRANCH  24  47
BRANCH  36  57
ATOM     57  C   UNL A   1      48.043  27.656  30.406  1.00  0.00    -0.014 A 
ATOM     58  C   UNL A   1      48.908  28.072  29.381  1.00  0.00     0.010 A 
ATOM     59  C   UNL A   1      48.582  27.143  31.601  1.00  0.00     0.010 A 
ATOM     60  C   UNL A   1      50.292  27.949  29.537  1.00  0.00     0.020 A 
ATOM     61  C   UNL A   1      49.963  27.042  31.769  1.00  0.00     0.020 A 
ATOM     62  C   UNL A   1      50.809  27.433  30.730  1.00  0.00     0.054 A 
BRANCH  62  63
ATOM     63  S   UNL A   1      52.608  27.328  30.933  1.00  0.00     0.124 S 
ATOM     64  O   UNL A   1      53.088  27.865  29.663  1.00  0.00    -0.237 OA
ATOM     65  O   UNL A   1      52.851  28.167  32.103  1.00  0.00    -0.237 OA
ATOM     66  O   UNL A   1      52.849  25.900  31.138  1.00  0.00    -0.744 OA
ENDBRANCH  62  63
ENDBRANCH  36  57
ENDBRANCH  10  11
ENDBRANCH   3   5
ENDBRANCH   2   3
ENDBRANCH   1   2
BRANCH   1  67
ATOM     67  C   UNL A   1      34.059  33.924  29.252  1.00  0.00     0.275 C 
BRANCH  67  68
ATOM     68  O   UNL A   1      34.197  33.219  30.492  1.00  0.00    -0.458 OA
BRANCH  68  69
ATOM     69  C   UNL A   1      34.241  34.006  31.599  1.00  0.00     0.338 C 
ATOM     70  O   UNL A   1      33.409  34.826  31.950  1.00  0.00    -0.246 OA
BRANCH  69  71
ATOM     71  C   UNL A   1      35.411  33.632  32.419  1.00  0.00     0.062 A 
ATOM     72  C   UNL A   1      36.066  34.580  33.215  1.00  0.00     0.018 A 
ATOM     73  C   UNL A   1      35.854  32.301  32.341  1.00  0.00     0.044 A 
ATOM     74  C   UNL A   1      37.213  34.222  33.938  1.00  0.00     0.031 A 
ATOM     75  C   UNL A   1      37.043  32.003  33.011  1.00  0.00     0.066 A 
ATOM     76  C   UNL A   1      37.724  32.923  33.798  1.00  0.00     0.089 A 
ATOM     77  N   UNL A   1      37.826  30.879  33.050  1.00  0.00    -0.342 N 
ATOM     78  N   UNL A   1      38.858  32.364  34.326  1.00  0.00    -0.233 NA
ATOM     79  C   UNL A   1      38.915  31.137  33.849  1.00  0.00     0.110 A 
ATOM     80  H   UNL A   1      37.640  30.031  32.587  1.00  0.00     0.168 HD
BRANCH  79  81
ATOM     81  C   UNL A   1      39.984  30.125  34.144  1.00  0.00     0.055 C 
ATOM     82  C   UNL A   1      39.984  29.003  33.095  1.00  0.00     0.011 C 
ATOM     83  C   UNL A   1      41.372  30.771  34.269  1.00  0.00     0.011 C 
ATOM     84  C   UNL A   1      41.063  27.965  33.383  1.00  0.00     0.001 C 
ATOM     85  C   UNL A   1      42.453  29.723  34.545  1.00  0.00     0.001 C 
ATOM     86  C   UNL A   1      42.441  28.609  33.502  1.00  0.00     0.000 C 
ENDBRANCH  79  81
ENDBRANCH  69  71
ENDBRANCH  68  69
ENDBRANCH  67  68
ENDBRANCH   1  67
TORSDOF 15
ENDMDL
