MODEL 1
REMARK VINA RESULT:     -10.9      0.000      0.000
REMARK SMILES O=CN[C@@H](CCS[C@@H]1CCO[C@]2(CCOC2)C1)C(=O)OCCOC(=O)c1ccc(-c2c3nc(c(-c4ccc(S(=O)(=O)[O-])cc4)c4ccc([nH]4)c(-c4ccc(S(=O)(=O)[O-])cc4)c4nc(c(-c5ccc(S(=O)(=O)[O-])cc5)c5ccc2[nH]5)C=C4)C=C3)cc1
REMARK SMILES IDX 21 1 20 2 18 3 19 4 4 5 3 6 1 7 2 8 5 10 6 11 7 12 8 13 9 14
REMARK SMILES IDX 17 15 10 16 12 17 11 18 13 19 16 20 14 21 15 22 22 23 23 24
REMARK SMILES IDX 24 25 25 26 26 27 27 28 85 29 28 30 84 31 29 32 30 33 31 34
REMARK SMILES IDX 78 35 32 36 83 37 77 38 79 39 33 40 82 41 76 42 75 43 34 45
REMARK SMILES IDX 64 46 45 47 63 48 46 49 49 50 62 51 80 52 47 53 48 54 61 56
REMARK SMILES IDX 81 57 50 58 35 59 36 60 44 61 37 62 43 63 38 64 39 65 40 66
REMARK SMILES IDX 41 67 42 68 65 69 66 70 74 71 67 72 73 73 68 74 69 75 70 76
REMARK SMILES IDX 71 77 72 78 51 79 52 80 60 81 53 82 59 83 54 84 55 85 56 86
REMARK SMILES IDX 57 87 58 88
REMARK H PARENT 3 9 79 44 49 55
REMARK Flexibility Score: inf
ROOT
ATOM      1  C   UNL A   1      31.394  30.101  25.330  1.00  0.00     0.274 C 
ENDROOT
BRANCH   1   2
ATOM      2  O   UNL A   1      31.044  29.279  23.967  1.00  0.00    -0.461 OA
BRANCH   2   3
ATOM      3  C   UNL A   1      30.785  28.658  22.790  1.00  0.00     0.328 C 
ATOM      4  O   UNL A   1      30.361  29.364  21.865  1.00  0.00    -0.250 OA
BRANCH   3   5
ATOM      5  C   UNL A   1      30.846  27.068  22.492  1.00  0.00     0.192 C 
BRANCH   5   6
ATOM      6  N   UNL A   1      31.968  26.117  22.301  1.00  0.00    -0.345 N 
ATOM      7  O   UNL A   1      33.391  24.933  21.019  1.00  0.00    -0.279 OA
ATOM      8  C   UNL A   1      32.908  26.017  21.322  1.00  0.00     0.337 C 
ATOM      9  H   UNL A   1      32.047  25.437  23.008  1.00  0.00     0.164 HD
ENDBRANCH   5   6
BRANCH   5  10
ATOM     10  C   UNL A   1      30.218  26.533  23.741  1.00  0.00     0.048 C 
BRANCH  10  11
ATOM     11  C   UNL A   1      31.366  26.353  24.750  1.00  0.00     0.072 C 
BRANCH  11  12
ATOM     12  S   UNL A   1      31.152  25.240  26.405  1.00  0.00    -0.158 SA
BRANCH  12  13
ATOM     13  C   UNL A   1      32.400  23.498  26.533  1.00  0.00     0.052 C 
ATOM     14  C   UNL A   1      32.815  22.440  27.699  1.00  0.00     0.043 C 
ATOM     15  C   UNL A   1      33.220  23.275  25.236  1.00  0.00     0.052 C 
ATOM     16  C   UNL A   1      34.141  21.727  27.569  1.00  0.00     0.162 C 
ATOM     17  C   UNL A   1      34.565  22.533  25.396  1.00  0.00     0.095 C 
ATOM     18  O   UNL A   1      34.398  21.387  26.221  1.00  0.00    -0.372 OA
ATOM     19  C   UNL A   1      35.779  23.308  25.889  1.00  0.00     0.066 C 
ATOM     20  C   UNL A   1      35.033  22.129  23.999  1.00  0.00     0.195 C 
ATOM     21  C   UNL A   1      36.501  23.772  24.649  1.00  0.00     0.163 C 
ATOM     22  O   UNL A   1      35.800  23.242  23.525  1.00  0.00    -0.378 OA
ENDBRANCH  12  13
ENDBRANCH  11  12
ENDBRANCH  10  11
ENDBRANCH   5  10
ENDBRANCH   3   5
ENDBRANCH   2   3
ENDBRANCH   1   2
BRANCH   1  23
ATOM     23  C   UNL A   1      32.066  29.608  26.774  1.00  0.00     0.275 C 
BRANCH  23  24
ATOM     24  O   UNL A   1      33.535  29.543  27.007  1.00  0.00    -0.458 OA
BRANCH  24  25
ATOM     25  C   UNL A   1      34.191  30.530  27.741  1.00  0.00     0.338 C 
ATOM     26  O   UNL A   1      33.637  31.557  28.113  1.00  0.00    -0.246 OA
BRANCH  25  27
ATOM     27  C   UNL A   1      35.661  30.230  28.151  1.00  0.00     0.060 A 
ATOM     28  C   UNL A   1      36.716  30.385  27.265  1.00  0.00     0.016 A 
ATOM     29  C   UNL A   1      36.044  29.631  29.359  1.00  0.00     0.016 A 
ATOM     30  C   UNL A   1      38.038  29.946  27.475  1.00  0.00     0.010 A 
ATOM     31  C   UNL A   1      37.418  29.268  29.633  1.00  0.00     0.010 A 
ATOM     32  C   UNL A   1      38.455  29.420  28.685  1.00  0.00    -0.014 A 
BRANCH  32  33
ATOM     33  C   UNL A   1      39.910  29.018  28.878  1.00  0.00     0.031 A 
ATOM     34  C   UNL A   1      40.912  30.002  29.448  1.00  0.00     0.074 A 
ATOM     35  C   UNL A   1      40.383  27.761  28.656  1.00  0.00     0.049 A 
ATOM     36  N   UNL A   1      42.224  29.976  29.413  1.00  0.00    -0.248 NA
ATOM     37  C   UNL A   1      40.359  31.151  30.179  1.00  0.00     0.031 C 
ATOM     38  C   UNL A   1      39.590  26.580  28.301  1.00  0.00     0.029 A 
ATOM     39  N   UNL A   1      41.676  27.256  28.706  1.00  0.00    -0.354 N 
ATOM     40  C   UNL A   1      42.650  31.146  30.037  1.00  0.00     0.074 A 
ATOM     41  C   UNL A   1      41.455  31.837  30.478  1.00  0.00     0.031 C 
ATOM     42  C   UNL A   1      40.392  25.508  28.198  1.00  0.00     0.029 A 
ATOM     43  C   UNL A   1      41.780  25.929  28.333  1.00  0.00     0.049 A 
ATOM     44  H   UNL A   1      42.451  27.797  28.983  1.00  0.00     0.167 HD
ATOM     45  C   UNL A   1      43.913  31.617  30.205  1.00  0.00     0.031 A 
ATOM     46  C   UNL A   1      42.844  25.146  28.041  1.00  0.00     0.031 A 
ATOM     47  C   UNL A   1      45.112  30.913  29.820  1.00  0.00     0.049 A 
ATOM     48  C   UNL A   1      44.234  25.728  28.076  1.00  0.00     0.074 A 
ATOM     49  C   UNL A   1      46.426  31.350  29.881  1.00  0.00     0.029 A 
ATOM     50  N   UNL A   1      45.150  29.618  29.330  1.00  0.00    -0.354 N 
ATOM     51  N   UNL A   1      44.619  26.914  28.480  1.00  0.00    -0.248 NA
ATOM     52  C   UNL A   1      45.332  24.881  27.580  1.00  0.00     0.031 C 
ATOM     53  C   UNL A   1      47.253  30.339  29.378  1.00  0.00     0.029 A 
ATOM     54  C   UNL A   1      46.459  29.249  29.064  1.00  0.00     0.049 A 
ATOM     55  H   UNL A   1      44.362  29.044  29.193  1.00  0.00     0.167 HD
ATOM     56  C   UNL A   1      45.999  26.947  28.300  1.00  0.00     0.074 A 
ATOM     57  C   UNL A   1      46.389  25.660  27.768  1.00  0.00     0.031 C 
ATOM     58  C   UNL A   1      46.860  27.964  28.548  1.00  0.00     0.031 A 
BRANCH  45  59
ATOM     59  C   UNL A   1      44.068  33.022  30.731  1.00  0.00    -0.014 A 
ATOM     60  C   UNL A   1      44.208  33.307  32.100  1.00  0.00     0.010 A 
ATOM     61  C   UNL A   1      44.107  34.084  29.805  1.00  0.00     0.010 A 
ATOM     62  C   UNL A   1      44.332  34.632  32.535  1.00  0.00     0.020 A 
ATOM     63  C   UNL A   1      44.259  35.404  30.233  1.00  0.00     0.020 A 
ATOM     64  C   UNL A   1      44.347  35.672  31.598  1.00  0.00     0.054 A 
BRANCH  64  65
ATOM     65  S   UNL A   1      44.498  37.384  32.186  1.00  0.00     0.124 S 
ATOM     66  O   UNL A   1      43.699  37.353  33.409  1.00  0.00    -0.237 OA
ATOM     67  O   UNL A   1      45.937  37.533  32.379  1.00  0.00    -0.237 OA
ATOM     68  O   UNL A   1      43.933  38.177  31.097  1.00  0.00    -0.744 OA
ENDBRANCH  64  65
ENDBRANCH  45  59
BRANCH  46  69
ATOM     69  C   UNL A   1      42.643  23.745  27.545  1.00  0.00    -0.014 A 
ATOM     70  C   UNL A   1      42.466  23.468  26.177  1.00  0.00     0.010 A 
ATOM     71  C   UNL A   1      42.587  22.675  28.460  1.00  0.00     0.010 A 
ATOM     72  C   UNL A   1      42.241  22.156  25.738  1.00  0.00     0.020 A 
ATOM     73  C   UNL A   1      42.399  21.361  28.024  1.00  0.00     0.020 A 
ATOM     74  C   UNL A   1      42.215  21.109  26.664  1.00  0.00     0.054 A 
BRANCH  74  75
ATOM     75  S   UNL A   1      41.986  19.408  26.073  1.00  0.00     0.124 S 
ATOM     76  O   UNL A   1      42.799  19.393  24.861  1.00  0.00    -0.237 OA
ATOM     77  O   UNL A   1      42.497  18.613  27.189  1.00  0.00    -0.237 OA
ATOM     78  O   UNL A   1      40.543  19.311  25.862  1.00  0.00    -0.744 OA
ENDBRANCH  74  75
ENDBRANCH  46  69
BRANCH  58  79
ATOM     79  C   UNL A   1      48.327  27.728  28.300  1.00  0.00    -0.014 A 
ATOM     80  C   UNL A   1      49.147  27.122  29.269  1.00  0.00     0.010 A 
ATOM     81  C   UNL A   1      48.879  28.050  27.046  1.00  0.00     0.010 A 
ATOM     82  C   UNL A   1      50.492  26.854  28.992  1.00  0.00     0.020 A 
ATOM     83  C   UNL A   1      50.216  27.763  26.757  1.00  0.00     0.020 A 
ATOM     84  C   UNL A   1      51.017  27.173  27.736  1.00  0.00     0.054 A 
BRANCH  84  85
ATOM     85  S   UNL A   1      52.746  26.753  27.377  1.00  0.00     0.124 S 
ATOM     86  O   UNL A   1      53.069  27.680  26.298  1.00  0.00    -0.237 OA
ATOM     87  O   UNL A   1      53.412  27.016  28.651  1.00  0.00    -0.237 OA
ATOM     88  O   UNL A   1      52.689  25.344  26.992  1.00  0.00    -0.744 OA
ENDBRANCH  84  85
ENDBRANCH  58  79
ENDBRANCH  32  33
ENDBRANCH  25  27
ENDBRANCH  24  25
ENDBRANCH  23  24
ENDBRANCH   1  23
TORSDOF 19
ENDMDL
MODEL 2
REMARK VINA RESULT:     -10.7      3.809     10.033
REMARK SMILES O=CN[C@@H](CCS[C@@H]1CCO[C@]2(CCOC2)C1)C(=O)OCCOC(=O)c1ccc(-c2c3nc(c(-c4ccc(S(=O)(=O)[O-])cc4)c4ccc([nH]4)c(-c4ccc(S(=O)(=O)[O-])cc4)c4nc(c(-c5ccc(S(=O)(=O)[O-])cc5)c5ccc2[nH]5)C=C4)C=C3)cc1
REMARK SMILES IDX 21 1 20 2 18 3 19 4 4 5 3 6 1 7 2 8 5 10 6 11 7 12 8 13 9 14
REMARK SMILES IDX 17 15 10 16 12 17 11 18 13 19 16 20 14 21 15 22 22 23 23 24
REMARK SMILES IDX 24 25 25 26 26 27 27 28 85 29 28 30 84 31 29 32 30 33 31 34
REMARK SMILES IDX 78 35 32 36 83 37 77 38 79 39 33 40 82 41 76 42 75 43 34 45
REMARK SMILES IDX 64 46 45 47 63 48 46 49 49 50 62 51 80 52 47 53 48 54 61 56
REMARK SMILES IDX 81 57 50 58 35 59 36 60 44 61 37 62 43 63 38 64 39 65 40 66
REMARK SMILES IDX 41 67 42 68 65 69 66 70 74 71 67 72 73 73 68 74 69 75 70 76
REMARK SMILES IDX 71 77 72 78 51 79 52 80 60 81 53 82 59 83 54 84 55 85 56 86
REMARK SMILES IDX 57 87 58 88
REMARK H PARENT 3 9 79 44 49 55
REMARK Flexibility Score: inf
ROOT
ATOM      1  C   UNL A   1      35.613  23.311  23.340  1.00  0.00     0.274 C 
ENDROOT
BRANCH   1   2
ATOM      2  O   UNL A   1      34.144  22.606  23.342  1.00  0.00    -0.461 OA
BRANCH   2   3
ATOM      3  C   UNL A   1      32.903  22.063  23.411  1.00  0.00     0.328 C 
ATOM      4  O   UNL A   1      32.219  22.096  22.379  1.00  0.00    -0.250 OA
BRANCH   3   5
ATOM      5  C   UNL A   1      32.162  21.489  24.730  1.00  0.00     0.192 C 
BRANCH   5   6
ATOM      6  N   UNL A   1      32.252  20.202  25.461  1.00  0.00    -0.345 N 
ATOM      7  O   UNL A   1      32.195  17.954  25.569  1.00  0.00    -0.279 OA
ATOM      8  C   UNL A   1      32.664  18.968  25.065  1.00  0.00     0.337 C 
ATOM      9  H   UNL A   1      31.961  20.249  26.401  1.00  0.00     0.164 HD
ENDBRANCH   5   6
BRANCH   5  10
ATOM     10  C   UNL A   1      32.663  22.449  25.763  1.00  0.00     0.048 C 
BRANCH  10  11
ATOM     11  C   UNL A   1      31.437  22.847  26.605  1.00  0.00     0.072 C 
BRANCH  11  12
ATOM     12  S   UNL A   1      30.448  24.562  26.283  1.00  0.00    -0.158 SA
BRANCH  12  13
ATOM     13  C   UNL A   1      31.304  25.878  24.818  1.00  0.00     0.052 C 
ATOM     14  C   UNL A   1      32.042  25.702  23.378  1.00  0.00     0.043 C 
ATOM     15  C   UNL A   1      31.361  27.344  25.318  1.00  0.00     0.052 C 
ATOM     16  C   UNL A   1      33.011  26.777  22.943  1.00  0.00     0.162 C 
ATOM     17  C   UNL A   1      32.478  28.227  24.722  1.00  0.00     0.095 C 
ATOM     18  O   UNL A   1      32.538  28.057  23.311  1.00  0.00    -0.372 OA
ATOM     19  C   UNL A   1      33.889  28.106  25.280  1.00  0.00     0.066 C 
ATOM     20  C   UNL A   1      32.154  29.677  25.078  1.00  0.00     0.195 C 
ATOM     21  C   UNL A   1      34.001  29.169  26.345  1.00  0.00     0.163 C 
ATOM     22  O   UNL A   1      32.775  29.898  26.349  1.00  0.00    -0.378 OA
ENDBRANCH  12  13
ENDBRANCH  11  12
ENDBRANCH  10  11
ENDBRANCH   5  10
ENDBRANCH   3   5
ENDBRANCH   2   3
ENDBRANCH   1   2
BRANCH   1  23
ATOM     23  C   UNL A   1      37.059  22.851  24.031  1.00  0.00     0.275 C 
BRANCH  23  24
ATOM     24  O   UNL A   1      37.352  23.009  25.482  1.00  0.00    -0.458 OA
BRANCH  24  25
ATOM     25  C   UNL A   1      38.650  22.872  25.973  1.00  0.00     0.338 C 
ATOM     26  O   UNL A   1      39.339  21.883  25.754  1.00  0.00    -0.246 OA
BRANCH  25  27
ATOM     27  C   UNL A   1      39.230  24.086  26.753  1.00  0.00     0.060 A 
ATOM     28  C   UNL A   1      38.908  24.327  28.078  1.00  0.00     0.016 A 
ATOM     29  C   UNL A   1      39.977  25.121  26.173  1.00  0.00     0.016 A 
ATOM     30  C   UNL A   1      39.213  25.498  28.799  1.00  0.00     0.010 A 
ATOM     31  C   UNL A   1      40.387  26.285  26.929  1.00  0.00     0.010 A 
ATOM     32  C   UNL A   1      40.009  26.500  28.273  1.00  0.00    -0.014 A 
BRANCH  32  33
ATOM     33  C   UNL A   1      40.358  27.717  29.117  1.00  0.00     0.031 A 
ATOM     34  C   UNL A   1      41.674  27.784  29.866  1.00  0.00     0.074 A 
ATOM     35  C   UNL A   1      39.589  28.838  29.182  1.00  0.00     0.049 A 
ATOM     36  N   UNL A   1      42.035  28.563  30.859  1.00  0.00    -0.248 NA
ATOM     37  C   UNL A   1      42.733  26.870  29.413  1.00  0.00     0.031 C 
ATOM     38  C   UNL A   1      38.379  29.113  28.401  1.00  0.00     0.029 A 
ATOM     39  N   UNL A   1      39.721  29.986  29.953  1.00  0.00    -0.354 N 
ATOM     40  C   UNL A   1      43.326  28.173  31.208  1.00  0.00     0.074 A 
ATOM     41  C   UNL A   1      43.699  27.116  30.289  1.00  0.00     0.031 C 
ATOM     42  C   UNL A   1      37.909  30.333  28.704  1.00  0.00     0.029 A 
ATOM     43  C   UNL A   1      38.685  30.889  29.806  1.00  0.00     0.049 A 
ATOM     44  H   UNL A   1      40.486  30.142  30.553  1.00  0.00     0.167 HD
ATOM     45  C   UNL A   1      44.117  28.630  32.212  1.00  0.00     0.031 A 
ATOM     46  C   UNL A   1      38.328  31.988  30.510  1.00  0.00     0.031 A 
ATOM     47  C   UNL A   1      43.779  29.718  33.096  1.00  0.00     0.049 A 
ATOM     48  C   UNL A   1      39.126  32.393  31.722  1.00  0.00     0.074 A 
ATOM     49  C   UNL A   1      44.486  30.193  34.190  1.00  0.00     0.029 A 
ATOM     50  N   UNL A   1      42.655  30.519  32.977  1.00  0.00    -0.354 N 
ATOM     51  N   UNL A   1      40.250  31.890  32.172  1.00  0.00    -0.248 NA
ATOM     52  C   UNL A   1      38.588  33.488  32.548  1.00  0.00     0.031 C 
ATOM     53  C   UNL A   1      43.763  31.246  34.763  1.00  0.00     0.029 A 
ATOM     54  C   UNL A   1      42.638  31.467  33.987  1.00  0.00     0.049 A 
ATOM     55  H   UNL A   1      41.970  30.428  32.277  1.00  0.00     0.167 HD
ATOM     56  C   UNL A   1      40.558  32.617  33.319  1.00  0.00     0.074 A 
ATOM     57  C   UNL A   1      39.515  33.604  33.489  1.00  0.00     0.031 C 
ATOM     58  C   UNL A   1      41.612  32.466  34.157  1.00  0.00     0.031 A 
BRANCH  45  59
ATOM     59  C   UNL A   1      45.392  27.875  32.492  1.00  0.00    -0.014 A 
ATOM     60  C   UNL A   1      46.650  28.324  32.055  1.00  0.00     0.010 A 
ATOM     61  C   UNL A   1      45.317  26.690  33.251  1.00  0.00     0.010 A 
ATOM     62  C   UNL A   1      47.801  27.574  32.328  1.00  0.00     0.020 A 
ATOM     63  C   UNL A   1      46.466  25.954  33.550  1.00  0.00     0.020 A 
ATOM     64  C   UNL A   1      47.699  26.390  33.066  1.00  0.00     0.054 A 
BRANCH  64  65
ATOM     65  S   UNL A   1      49.203  25.428  33.400  1.00  0.00     0.124 S 
ATOM     66  O   UNL A   1      48.715  24.427  34.347  1.00  0.00    -0.237 OA
ATOM     67  O   UNL A   1      49.560  24.921  32.078  1.00  0.00    -0.237 OA
ATOM     68  O   UNL A   1      50.128  26.411  33.958  1.00  0.00    -0.744 OA
ENDBRANCH  64  65
ENDBRANCH  45  59
BRANCH  46  69
ATOM     69  C   UNL A   1      37.062  32.723  30.179  1.00  0.00    -0.014 A 
ATOM     70  C   UNL A   1      35.845  32.412  30.812  1.00  0.00     0.010 A 
ATOM     71  C   UNL A   1      37.068  33.723  29.186  1.00  0.00     0.010 A 
ATOM     72  C   UNL A   1      34.666  33.085  30.461  1.00  0.00     0.020 A 
ATOM     73  C   UNL A   1      35.903  34.422  28.859  1.00  0.00     0.020 A 
ATOM     74  C   UNL A   1      34.704  34.090  29.491  1.00  0.00     0.054 A 
BRANCH  74  75
ATOM     75  S   UNL A   1      33.181  34.996  29.093  1.00  0.00     0.124 S 
ATOM     76  O   UNL A   1      32.501  35.033  30.384  1.00  0.00    -0.237 OA
ATOM     77  O   UNL A   1      33.692  36.277  28.609  1.00  0.00    -0.237 OA
ATOM     78  O   UNL A   1      32.545  34.165  28.073  1.00  0.00    -0.744 OA
ENDBRANCH  74  75
ENDBRANCH  46  69
BRANCH  58  79
ATOM     79  C   UNL A   1      41.736  33.417  35.319  1.00  0.00    -0.014 A 
ATOM     80  C   UNL A   1      42.300  34.695  35.163  1.00  0.00     0.010 A 
ATOM     81  C   UNL A   1      41.209  33.052  36.573  1.00  0.00     0.010 A 
ATOM     82  C   UNL A   1      42.347  35.585  36.242  1.00  0.00     0.020 A 
ATOM     83  C   UNL A   1      41.233  33.947  37.647  1.00  0.00     0.020 A 
ATOM     84  C   UNL A   1      41.809  35.207  37.476  1.00  0.00     0.054 A 
BRANCH  84  85
ATOM     85  S   UNL A   1      41.818  36.404  38.841  1.00  0.00     0.124 S 
ATOM     86  O   UNL A   1      41.752  35.535  40.011  1.00  0.00    -0.237 OA
ATOM     87  O   UNL A   1      43.088  37.101  38.647  1.00  0.00    -0.237 OA
ATOM     88  O   UNL A   1      40.627  37.216  38.599  1.00  0.00    -0.744 OA
ENDBRANCH  84  85
ENDBRANCH  58  79
ENDBRANCH  32  33
ENDBRANCH  25  27
ENDBRANCH  24  25
ENDBRANCH  23  24
ENDBRANCH   1  23
TORSDOF 19
ENDMDL
MODEL 3
REMARK VINA RESULT:     -10.6      2.881      7.987
REMARK SMILES O=CN[C@@H](CCS[C@@H]1CCO[C@]2(CCOC2)C1)C(=O)OCCOC(=O)c1ccc(-c2c3nc(c(-c4ccc(S(=O)(=O)[O-])cc4)c4ccc([nH]4)c(-c4ccc(S(=O)(=O)[O-])cc4)c4nc(c(-c5ccc(S(=O)(=O)[O-])cc5)c5ccc2[nH]5)C=C4)C=C3)cc1
REMARK SMILES IDX 21 1 20 2 18 3 19 4 4 5 3 6 1 7 2 8 5 10 6 11 7 12 8 13 9 14
REMARK SMILES IDX 17 15 10 16 12 17 11 18 13 19 16 20 14 21 15 22 22 23 23 24
REMARK SMILES IDX 24 25 25 26 26 27 27 28 85 29 28 30 84 31 29 32 30 33 31 34
REMARK SMILES IDX 78 35 32 36 83 37 77 38 79 39 33 40 82 41 76 42 75 43 34 45
REMARK SMILES IDX 64 46 45 47 63 48 46 49 49 50 62 51 80 52 47 53 48 54 61 56
REMARK SMILES IDX 81 57 50 58 35 59 36 60 44 61 37 62 43 63 38 64 39 65 40 66
REMARK SMILES IDX 41 67 42 68 65 69 66 70 74 71 67 72 73 73 68 74 69 75 70 76
REMARK SMILES IDX 71 77 72 78 51 79 52 80 60 81 53 82 59 83 54 84 55 85 56 86
REMARK SMILES IDX 57 87 58 88
REMARK H PARENT 3 9 79 44 49 55
REMARK Flexibility Score: inf
ROOT
ATOM      1  C   UNL A   1      37.509  20.566  24.664  1.00  0.00     0.274 C 
ENDROOT
BRANCH   1   2
ATOM      2  O   UNL A   1      35.985  21.141  24.602  1.00  0.00    -0.461 OA
BRANCH   2   3
ATOM      3  C   UNL A   1      34.735  21.653  24.478  1.00  0.00     0.328 C 
ATOM      4  O   UNL A   1      34.606  22.869  24.670  1.00  0.00    -0.250 OA
BRANCH   3   5
ATOM      5  C   UNL A   1      33.363  20.829  24.231  1.00  0.00     0.192 C 
BRANCH   5   6
ATOM      6  N   UNL A   1      32.634  19.818  25.033  1.00  0.00    -0.345 N 
ATOM      7  O   UNL A   1      32.096  17.698  25.569  1.00  0.00    -0.279 OA
ATOM      8  C   UNL A   1      32.961  18.547  25.394  1.00  0.00     0.337 C 
ATOM      9  H   UNL A   1      31.756  20.118  25.363  1.00  0.00     0.164 HD
ENDBRANCH   5   6
BRANCH   5  10
ATOM     10  C   UNL A   1      32.374  21.952  24.205  1.00  0.00     0.048 C 
BRANCH  10  11
ATOM     11  C   UNL A   1      31.655  21.916  25.566  1.00  0.00     0.072 C 
BRANCH  11  12
ATOM     12  S   UNL A   1      31.159  23.597  26.542  1.00  0.00    -0.158 SA
BRANCH  12  13
ATOM     13  C   UNL A   1      30.929  25.353  25.328  1.00  0.00     0.052 C 
ATOM     14  C   UNL A   1      29.697  26.333  24.911  1.00  0.00     0.043 C 
ATOM     15  C   UNL A   1      32.221  25.690  24.542  1.00  0.00     0.052 C 
ATOM     16  C   UNL A   1      29.801  27.083  23.604  1.00  0.00     0.162 C 
ATOM     17  C   UNL A   1      32.034  26.448  23.211  1.00  0.00     0.095 C 
ATOM     18  O   UNL A   1      31.125  27.527  23.384  1.00  0.00    -0.372 OA
ATOM     19  C   UNL A   1      31.624  25.668  21.969  1.00  0.00     0.066 C 
ATOM     20  C   UNL A   1      33.408  26.964  22.782  1.00  0.00     0.195 C 
ATOM     21  C   UNL A   1      32.910  25.313  21.265  1.00  0.00     0.163 C 
ATOM     22  O   UNL A   1      33.977  25.907  22.001  1.00  0.00    -0.378 OA
ENDBRANCH  12  13
ENDBRANCH  11  12
ENDBRANCH  10  11
ENDBRANCH   5  10
ENDBRANCH   3   5
ENDBRANCH   2   3
ENDBRANCH   1   2
BRANCH   1  23
ATOM     23  C   UNL A   1      38.745  20.834  25.749  1.00  0.00     0.275 C 
BRANCH  23  24
ATOM     24  O   UNL A   1      39.671  19.761  26.208  1.00  0.00    -0.458 OA
BRANCH  24  25
ATOM     25  C   UNL A   1      41.053  19.904  26.090  1.00  0.00     0.338 C 
ATOM     26  O   UNL A   1      41.760  19.065  25.546  1.00  0.00    -0.246 OA
BRANCH  25  27
ATOM     27  C   UNL A   1      41.661  21.237  26.609  1.00  0.00     0.060 A 
ATOM     28  C   UNL A   1      41.844  22.332  25.780  1.00  0.00     0.016 A 
ATOM     29  C   UNL A   1      42.225  21.413  27.881  1.00  0.00     0.016 A 
ATOM     30  C   UNL A   1      42.568  23.497  26.102  1.00  0.00     0.010 A 
ATOM     31  C   UNL A   1      42.884  22.644  28.263  1.00  0.00     0.010 A 
ATOM     32  C   UNL A   1      43.070  23.724  27.371  1.00  0.00    -0.014 A 
BRANCH  32  33
ATOM     33  C   UNL A   1      43.793  25.026  27.682  1.00  0.00     0.031 A 
ATOM     34  C   UNL A   1      43.041  26.202  28.273  1.00  0.00     0.074 A 
ATOM     35  C   UNL A   1      45.137  25.196  27.550  1.00  0.00     0.049 A 
ATOM     36  N   UNL A   1      43.378  27.469  28.329  1.00  0.00    -0.248 NA
ATOM     37  C   UNL A   1      41.751  25.901  28.911  1.00  0.00     0.031 C 
ATOM     38  C   UNL A   1      46.116  24.163  27.197  1.00  0.00     0.029 A 
ATOM     39  N   UNL A   1      45.929  26.325  27.713  1.00  0.00    -0.354 N 
ATOM     40  C   UNL A   1      42.306  28.129  28.926  1.00  0.00     0.074 A 
ATOM     41  C   UNL A   1      41.327  27.111  29.252  1.00  0.00     0.031 C 
ATOM     42  C   UNL A   1      47.352  24.689  27.199  1.00  0.00     0.029 A 
ATOM     43  C   UNL A   1      47.263  26.128  27.409  1.00  0.00     0.049 A 
ATOM     44  H   UNL A   1      45.571  27.190  28.017  1.00  0.00     0.167 HD
ATOM     45  C   UNL A   1      42.138  29.456  29.159  1.00  0.00     0.031 A 
ATOM     46  C   UNL A   1      48.292  26.988  27.228  1.00  0.00     0.031 A 
ATOM     47  C   UNL A   1      43.127  30.470  28.890  1.00  0.00     0.049 A 
ATOM     48  C   UNL A   1      48.054  28.473  27.331  1.00  0.00     0.074 A 
ATOM     49  C   UNL A   1      43.011  31.846  29.020  1.00  0.00     0.029 A 
ATOM     50  N   UNL A   1      44.422  30.224  28.464  1.00  0.00    -0.354 N 
ATOM     51  N   UNL A   1      46.970  29.108  27.705  1.00  0.00    -0.248 NA
ATOM     52  C   UNL A   1      49.166  29.361  26.951  1.00  0.00     0.031 C 
ATOM     53  C   UNL A   1      44.218  32.433  28.622  1.00  0.00     0.029 A 
ATOM     54  C   UNL A   1      45.106  31.419  28.305  1.00  0.00     0.049 A 
ATOM     55  H   UNL A   1      44.801  29.330  28.299  1.00  0.00     0.167 HD
ATOM     56  C   UNL A   1      47.276  30.464  27.618  1.00  0.00     0.074 A 
ATOM     57  C   UNL A   1      48.649  30.562  27.174  1.00  0.00     0.031 C 
ATOM     58  C   UNL A   1      46.478  31.528  27.878  1.00  0.00     0.031 A 
BRANCH  45  59
ATOM     59  C   UNL A   1      40.780  29.914  29.628  1.00  0.00    -0.014 A 
ATOM     60  C   UNL A   1      40.534  30.324  30.950  1.00  0.00     0.010 A 
ATOM     61  C   UNL A   1      39.727  29.963  28.693  1.00  0.00     0.010 A 
ATOM     62  C   UNL A   1      39.249  30.724  31.338  1.00  0.00     0.020 A 
ATOM     63  C   UNL A   1      38.452  30.388  29.067  1.00  0.00     0.020 A 
ATOM     64  C   UNL A   1      38.215  30.745  30.395  1.00  0.00     0.054 A 
BRANCH  64  65
ATOM     65  S   UNL A   1      36.554  31.257  30.921  1.00  0.00     0.124 S 
ATOM     66  O   UNL A   1      36.858  32.215  31.982  1.00  0.00    -0.237 OA
ATOM     67  O   UNL A   1      35.991  31.827  29.701  1.00  0.00    -0.237 OA
ATOM     68  O   UNL A   1      35.932  30.013  31.369  1.00  0.00    -0.744 OA
ENDBRANCH  64  65
ENDBRANCH  45  59
BRANCH  46  69
ATOM     69  C   UNL A   1      49.633  26.484  26.784  1.00  0.00    -0.014 A 
ATOM     70  C   UNL A   1      50.620  26.103  27.712  1.00  0.00     0.010 A 
ATOM     71  C   UNL A   1      49.943  26.422  25.411  1.00  0.00     0.010 A 
ATOM     72  C   UNL A   1      51.880  25.671  27.276  1.00  0.00     0.020 A 
ATOM     73  C   UNL A   1      51.185  25.957  24.971  1.00  0.00     0.020 A 
ATOM     74  C   UNL A   1      52.153  25.595  25.907  1.00  0.00     0.054 A 
BRANCH  74  75
ATOM     75  S   UNL A   1      53.768  24.972  25.358  1.00  0.00     0.124 S 
ATOM     76  O   UNL A   1      53.544  23.530  25.324  1.00  0.00    -0.237 OA
ATOM     77  O   UNL A   1      53.932  25.620  24.059  1.00  0.00    -0.237 OA
ATOM     78  O   UNL A   1      54.685  25.439  26.397  1.00  0.00    -0.744 OA
ENDBRANCH  74  75
ENDBRANCH  46  69
BRANCH  58  79
ATOM     79  C   UNL A   1      47.070  32.907  27.743  1.00  0.00    -0.014 A 
ATOM     80  C   UNL A   1      47.753  33.520  28.808  1.00  0.00     0.010 A 
ATOM     81  C   UNL A   1      47.005  33.570  26.502  1.00  0.00     0.010 A 
ATOM     82  C   UNL A   1      48.349  34.774  28.638  1.00  0.00     0.020 A 
ATOM     83  C   UNL A   1      47.619  34.813  26.322  1.00  0.00     0.020 A 
ATOM     84  C   UNL A   1      48.282  35.411  27.395  1.00  0.00     0.054 A 
BRANCH  84  85
ATOM     85  S   UNL A   1      49.122  37.006  27.181  1.00  0.00     0.124 S 
ATOM     86  O   UNL A   1      50.019  37.036  28.331  1.00  0.00    -0.237 OA
ATOM     87  O   UNL A   1      49.773  36.854  25.881  1.00  0.00    -0.237 OA
ATOM     88  O   UNL A   1      48.033  37.980  27.213  1.00  0.00    -0.744 OA
ENDBRANCH  84  85
ENDBRANCH  58  79
ENDBRANCH  32  33
ENDBRANCH  25  27
ENDBRANCH  24  25
ENDBRANCH  23  24
ENDBRANCH   1  23
TORSDOF 19
ENDMDL
