MODEL 1
REMARK VINA RESULT:     -11.2      0.000      0.000
REMARK SMILES O=C(OCCOC(=O)[C@H]1CS[C@@H](c2cccc(OCc3ccc(Cl)cc3Cl)c2)[NH2+]1)c1ccc(-c2c3nc(c(-c4ccc(S(=O)(=O)[O-])cc4)c4ccc([nH]4)c(-c4ccc(S(=O)(=O)[O-])cc4)c4nc(c(-c5ccc(S(=O)(=O)[O-])cc5)c5ccc2[nH]5)C=C4)C=C3)cc1
REMARK SMILES IDX 5 1 4 2 3 3 2 4 1 5 30 6 31 7 89 8 32 9 88 10 33 11 34 12
REMARK SMILES IDX 35 13 82 14 36 15 87 16 81 17 83 18 37 19 86 20 80 21 79 22
REMARK SMILES IDX 38 24 68 25 49 26 67 27 50 28 53 29 66 30 84 31 51 32 52 33
REMARK SMILES IDX 65 35 85 36 54 37 39 38 40 39 48 40 41 41 47 42 42 43 43 44
REMARK SMILES IDX 44 45 45 46 46 47 69 48 70 49 78 50 71 51 77 52 72 53 73 54
REMARK SMILES IDX 74 55 75 56 76 57 55 58 56 59 64 60 57 61 63 62 58 63 59 64
REMARK SMILES IDX 60 65 61 66 62 67 6 68 7 69 8 70 9 71 10 72 29 73 11 74
REMARK SMILES IDX 12 75 13 78 14 79 28 80 15 81 17 82 16 83 18 84 19 85 20 86
REMARK SMILES IDX 21 87 26 88 22 89 25 90 27 91 23 92 24 93
REMARK H PARENT 83 23 53 34 29 76 29 77
REMARK Flexibility Score: inf
ROOT
ATOM      1  C   UNL A   1      42.125  19.554  26.801  1.00  0.00     0.274 C 
ENDROOT
BRANCH   1   2
ATOM      2  C   UNL A   1      43.012  18.588  25.995  1.00  0.00     0.275 C 
BRANCH   2   3
ATOM      3  O   UNL A   1      43.463  19.064  24.714  1.00  0.00    -0.458 OA
BRANCH   3   4
ATOM      4  C   UNL A   1      44.632  19.670  24.397  1.00  0.00     0.338 C 
ATOM      5  O   UNL A   1      45.569  18.972  23.981  1.00  0.00    -0.246 OA
BRANCH   4   6
ATOM      6  C   UNL A   1      44.903  21.103  24.712  1.00  0.00     0.060 A 
ATOM      7  C   UNL A   1      44.653  22.168  23.850  1.00  0.00     0.016 A 
ATOM      8  C   UNL A   1      45.332  21.410  26.010  1.00  0.00     0.016 A 
ATOM      9  C   UNL A   1      44.531  23.466  24.328  1.00  0.00     0.010 A 
ATOM     10  C   UNL A   1      45.281  22.736  26.473  1.00  0.00     0.010 A 
ATOM     11  C   UNL A   1      44.801  23.766  25.655  1.00  0.00    -0.014 A 
BRANCH  11  12
ATOM     12  C   UNL A   1      44.816  25.222  25.962  1.00  0.00     0.031 A 
ATOM     13  C   UNL A   1      46.488  25.828  25.739  1.00  0.00     0.074 A 
ATOM     14  C   UNL A   1      43.555  25.839  26.361  1.00  0.00     0.049 A 
ATOM     15  N   UNL A   1      46.974  27.055  25.899  1.00  0.00    -0.248 NA
ATOM     16  C   UNL A   1      47.637  24.930  25.460  1.00  0.00     0.031 C 
ATOM     17  C   UNL A   1      42.475  25.226  27.208  1.00  0.00     0.029 A 
ATOM     18  N   UNL A   1      43.084  27.212  26.456  1.00  0.00    -0.354 N 
ATOM     19  C   UNL A   1      48.352  27.109  25.972  1.00  0.00     0.074 A 
ATOM     20  C   UNL A   1      48.713  25.724  25.633  1.00  0.00     0.031 C 
ATOM     21  C   UNL A   1      41.766  26.200  27.877  1.00  0.00     0.029 A 
ATOM     22  C   UNL A   1      42.277  27.571  27.563  1.00  0.00     0.049 A 
ATOM     23  H   UNL A   1      43.318  27.876  25.766  1.00  0.00     0.167 HD
ATOM     24  C   UNL A   1      49.184  28.185  26.281  1.00  0.00     0.031 A 
ATOM     25  C   UNL A   1      42.082  28.774  28.280  1.00  0.00     0.031 A 
ATOM     26  C   UNL A   1      48.821  29.594  26.790  1.00  0.00     0.049 A 
ATOM     27  C   UNL A   1      43.011  30.228  28.322  1.00  0.00     0.074 A 
ATOM     28  C   UNL A   1      49.582  30.557  27.454  1.00  0.00     0.029 A 
ATOM     29  N   UNL A   1      47.636  30.344  26.549  1.00  0.00    -0.354 N 
ATOM     30  N   UNL A   1      43.900  30.762  27.499  1.00  0.00    -0.248 NA
ATOM     31  C   UNL A   1      42.919  31.107  29.519  1.00  0.00     0.031 C 
ATOM     32  C   UNL A   1      48.753  31.690  27.816  1.00  0.00     0.029 A 
ATOM     33  C   UNL A   1      47.423  31.494  27.392  1.00  0.00     0.049 A 
ATOM     34  H   UNL A   1      46.997  30.092  25.844  1.00  0.00     0.167 HD
ATOM     35  C   UNL A   1      44.682  31.800  28.110  1.00  0.00     0.074 A 
ATOM     36  C   UNL A   1      43.842  32.072  29.303  1.00  0.00     0.031 C 
ATOM     37  C   UNL A   1      46.054  32.231  27.972  1.00  0.00     0.031 A 
BRANCH  24  38
ATOM     38  C   UNL A   1      50.667  27.870  26.017  1.00  0.00    -0.014 A 
ATOM     39  C   UNL A   1      51.151  28.097  24.709  1.00  0.00     0.010 A 
ATOM     40  C   UNL A   1      51.573  27.341  26.960  1.00  0.00     0.010 A 
ATOM     41  C   UNL A   1      52.459  27.770  24.335  1.00  0.00     0.020 A 
ATOM     42  C   UNL A   1      52.908  27.038  26.597  1.00  0.00     0.020 A 
ATOM     43  C   UNL A   1      53.334  27.238  25.280  1.00  0.00     0.054 A 
BRANCH  43  44
ATOM     44  S   UNL A   1      55.029  26.842  24.745  1.00  0.00     0.124 S 
ATOM     45  O   UNL A   1      55.337  25.668  25.559  1.00  0.00    -0.237 OA
ATOM     46  O   UNL A   1      54.863  26.584  23.316  1.00  0.00    -0.237 OA
ATOM     47  O   UNL A   1      55.790  28.045  25.073  1.00  0.00    -0.744 OA
ENDBRANCH  43  44
ENDBRANCH  24  38
BRANCH  25  48
ATOM     48  C   UNL A   1      40.822  28.901  29.163  1.00  0.00    -0.014 A 
ATOM     49  C   UNL A   1      40.976  28.490  30.507  1.00  0.00     0.010 A 
ATOM     50  C   UNL A   1      39.545  29.381  28.795  1.00  0.00     0.010 A 
ATOM     51  C   UNL A   1      39.941  28.590  31.452  1.00  0.00     0.020 A 
ATOM     52  C   UNL A   1      38.497  29.502  29.749  1.00  0.00     0.020 A 
ATOM     53  C   UNL A   1      38.708  29.117  31.077  1.00  0.00     0.054 A 
BRANCH  53  54
ATOM     54  S   UNL A   1      37.443  29.356  32.372  1.00  0.00     0.124 S 
ATOM     55  O   UNL A   1      37.910  30.562  33.047  1.00  0.00    -0.237 OA
ATOM     56  O   UNL A   1      36.220  29.508  31.588  1.00  0.00    -0.237 OA
ATOM     57  O   UNL A   1      37.520  28.128  33.160  1.00  0.00    -0.744 OA
ENDBRANCH  53  54
ENDBRANCH  25  48
BRANCH  37  58
ATOM     58  C   UNL A   1      46.426  33.491  28.755  1.00  0.00    -0.014 A 
ATOM     59  C   UNL A   1      46.475  34.820  28.275  1.00  0.00     0.010 A 
ATOM     60  C   UNL A   1      46.621  33.277  30.129  1.00  0.00     0.010 A 
ATOM     61  C   UNL A   1      46.807  35.883  29.140  1.00  0.00     0.020 A 
ATOM     62  C   UNL A   1      46.917  34.328  30.996  1.00  0.00     0.020 A 
ATOM     63  C   UNL A   1      47.041  35.621  30.495  1.00  0.00     0.054 A 
BRANCH  63  64
ATOM     64  S   UNL A   1      47.500  36.972  31.619  1.00  0.00     0.124 S 
ATOM     65  O   UNL A   1      46.704  38.082  31.102  1.00  0.00    -0.237 OA
ATOM     66  O   UNL A   1      47.096  36.460  32.925  1.00  0.00    -0.237 OA
ATOM     67  O   UNL A   1      48.944  37.104  31.427  1.00  0.00    -0.744 OA
ENDBRANCH  63  64
ENDBRANCH  37  58
ENDBRANCH  11  12
ENDBRANCH   4   6
ENDBRANCH   3   4
ENDBRANCH   2   3
ENDBRANCH   1   2
BRANCH   1  68
ATOM     68  O   UNL A   1      41.466  20.590  26.033  1.00  0.00    -0.458 OA
BRANCH  68  69
ATOM     69  C   UNL A   1      40.406  21.187  26.639  1.00  0.00     0.365 C 
ATOM     70  O   UNL A   1      40.379  21.414  27.849  1.00  0.00    -0.245 OA
BRANCH  69  71
ATOM     71  C   UNL A   1      39.200  21.522  25.734  1.00  0.00     0.304 C 
ATOM     72  C   UNL A   1      38.609  20.180  25.297  1.00  0.00     0.153 C 
ATOM     73  N   UNL A   1      38.100  22.348  26.318  1.00  0.00    -0.319 N 
ATOM     74  S   UNL A   1      36.868  20.471  24.937  1.00  0.00    -0.087 SA
ATOM     75  C   UNL A   1      36.933  22.217  25.418  1.00  0.00     0.274 C 
ATOM     76  H   UNL A   1      38.390  23.324  26.378  1.00  0.00     0.348 HD
ATOM     77  H   UNL A   1      37.870  22.031  27.260  1.00  0.00     0.348 HD
BRANCH  75  78
ATOM     78  C   UNL A   1      35.598  22.746  25.957  1.00  0.00     0.024 A 
ATOM     79  C   UNL A   1      34.787  22.026  26.859  1.00  0.00     0.011 A 
ATOM     80  C   UNL A   1      35.098  23.985  25.497  1.00  0.00     0.057 A 
ATOM     81  C   UNL A   1      33.569  22.541  27.325  1.00  0.00     0.004 A 
ATOM     82  C   UNL A   1      33.837  24.461  25.904  1.00  0.00     0.120 A 
ATOM     83  C   UNL A   1      33.108  23.763  26.858  1.00  0.00     0.046 A 
BRANCH  82  84
ATOM     84  O   UNL A   1      33.173  25.557  25.435  1.00  0.00    -0.489 OA
BRANCH  84  85
ATOM     85  C   UNL A   1      31.866  25.862  25.896  1.00  0.00     0.267 C 
BRANCH  85  86
ATOM     86  C   UNL A   1      31.740  27.324  25.950  1.00  0.00     0.008 A 
ATOM     87  C   UNL A   1      31.856  27.937  27.157  1.00  0.00     0.010 A 
ATOM     88  C   UNL A   1      31.449  28.119  24.880  1.00  0.00     0.049 A 
ATOM     89  C   UNL A   1      31.813  29.298  27.189  1.00  0.00     0.021 A 
ATOM     90  C   UNL A   1      31.356  29.480  25.071  1.00  0.00     0.041 A 
ATOM     91  Cl  UNL A   1      31.176  27.558  23.281  1.00  0.00    -0.084 Cl
ATOM     92  C   UNL A   1      31.628  30.161  26.216  1.00  0.00     0.042 A 
ATOM     93  Cl  UNL A   1      31.750  31.892  26.752  1.00  0.00    -0.084 Cl
ENDBRANCH  85  86
ENDBRANCH  84  85
ENDBRANCH  82  84
ENDBRANCH  75  78
ENDBRANCH  69  71
ENDBRANCH  68  69
ENDBRANCH   1  68
TORSDOF 18
ENDMDL
MODEL 2
REMARK VINA RESULT:     -11.1      5.987      8.491
REMARK SMILES O=C(OCCOC(=O)[C@H]1CS[C@@H](c2cccc(OCc3ccc(Cl)cc3Cl)c2)[NH2+]1)c1ccc(-c2c3nc(c(-c4ccc(S(=O)(=O)[O-])cc4)c4ccc([nH]4)c(-c4ccc(S(=O)(=O)[O-])cc4)c4nc(c(-c5ccc(S(=O)(=O)[O-])cc5)c5ccc2[nH]5)C=C4)C=C3)cc1
REMARK SMILES IDX 5 1 4 2 3 3 2 4 1 5 30 6 31 7 89 8 32 9 88 10 33 11 34 12
REMARK SMILES IDX 35 13 82 14 36 15 87 16 81 17 83 18 37 19 86 20 80 21 79 22
REMARK SMILES IDX 38 24 68 25 49 26 67 27 50 28 53 29 66 30 84 31 51 32 52 33
REMARK SMILES IDX 65 35 85 36 54 37 39 38 40 39 48 40 41 41 47 42 42 43 43 44
REMARK SMILES IDX 44 45 45 46 46 47 69 48 70 49 78 50 71 51 77 52 72 53 73 54
REMARK SMILES IDX 74 55 75 56 76 57 55 58 56 59 64 60 57 61 63 62 58 63 59 64
REMARK SMILES IDX 60 65 61 66 62 67 6 68 7 69 8 70 9 71 10 72 29 73 11 74
REMARK SMILES IDX 12 75 13 78 14 79 28 80 15 81 17 82 16 83 18 84 19 85 20 86
REMARK SMILES IDX 21 87 26 88 22 89 25 90 27 91 23 92 24 93
REMARK H PARENT 83 23 53 34 29 76 29 77
REMARK Flexibility Score: inf
ROOT
ATOM      1  C   UNL A   1      45.082  21.220  24.657  1.00  0.00     0.274 C 
ENDROOT
BRANCH   1   2
ATOM      2  C   UNL A   1      44.940  22.701  24.263  1.00  0.00     0.275 C 
BRANCH   2   3
ATOM      3  O   UNL A   1      44.630  23.613  25.332  1.00  0.00    -0.458 OA
BRANCH   3   4
ATOM      4  C   UNL A   1      43.434  23.859  25.917  1.00  0.00     0.338 C 
ATOM      5  O   UNL A   1      42.410  23.393  25.395  1.00  0.00    -0.246 OA
BRANCH   4   6
ATOM      6  C   UNL A   1      43.276  24.824  27.044  1.00  0.00     0.060 A 
ATOM      7  C   UNL A   1      44.018  25.993  27.199  1.00  0.00     0.016 A 
ATOM      8  C   UNL A   1      42.231  24.598  27.948  1.00  0.00     0.016 A 
ATOM      9  C   UNL A   1      43.562  27.031  28.001  1.00  0.00     0.010 A 
ATOM     10  C   UNL A   1      41.816  25.622  28.815  1.00  0.00     0.010 A 
ATOM     11  C   UNL A   1      42.431  26.880  28.791  1.00  0.00    -0.014 A 
BRANCH  11  12
ATOM     12  C   UNL A   1      42.189  28.005  29.735  1.00  0.00     0.031 A 
ATOM     13  C   UNL A   1      43.206  27.750  31.188  1.00  0.00     0.074 A 
ATOM     14  C   UNL A   1      41.233  29.030  29.329  1.00  0.00     0.049 A 
ATOM     15  N   UNL A   1      43.320  28.492  32.285  1.00  0.00    -0.248 NA
ATOM     16  C   UNL A   1      43.999  26.514  31.407  1.00  0.00     0.031 C 
ATOM     17  C   UNL A   1      39.960  28.826  28.557  1.00  0.00     0.029 A 
ATOM     18  N   UNL A   1      40.938  30.379  29.788  1.00  0.00    -0.354 N 
ATOM     19  C   UNL A   1      43.929  27.844  33.342  1.00  0.00     0.074 A 
ATOM     20  C   UNL A   1      44.383  26.603  32.696  1.00  0.00     0.031 C 
ATOM     21  C   UNL A   1      39.042  29.809  28.859  1.00  0.00     0.029 A 
ATOM     22  C   UNL A   1      39.582  30.782  29.859  1.00  0.00     0.049 A 
ATOM     23  H   UNL A   1      41.663  30.997  30.040  1.00  0.00     0.167 HD
ATOM     24  C   UNL A   1      44.077  28.253  34.668  1.00  0.00     0.031 A 
ATOM     25  C   UNL A   1      38.877  31.693  30.680  1.00  0.00     0.031 A 
ATOM     26  C   UNL A   1      43.474  29.470  35.395  1.00  0.00     0.049 A 
ATOM     27  C   UNL A   1      39.311  32.438  32.175  1.00  0.00     0.074 A 
ATOM     28  C   UNL A   1      43.277  29.726  36.753  1.00  0.00     0.029 A 
ATOM     29  N   UNL A   1      43.116  30.736  34.854  1.00  0.00    -0.354 N 
ATOM     30  N   UNL A   1      40.470  32.662  32.775  1.00  0.00    -0.248 NA
ATOM     31  C   UNL A   1      38.233  32.902  33.089  1.00  0.00     0.031 C 
ATOM     32  C   UNL A   1      42.571  30.980  36.929  1.00  0.00     0.029 A 
ATOM     33  C   UNL A   1      42.290  31.578  35.685  1.00  0.00     0.049 A 
ATOM     34  H   UNL A   1      43.416  31.023  33.962  1.00  0.00     0.167 HD
ATOM     35  C   UNL A   1      40.331  32.985  34.167  1.00  0.00     0.074 A 
ATOM     36  C   UNL A   1      38.884  33.311  34.202  1.00  0.00     0.031 C 
ATOM     37  C   UNL A   1      41.126  32.709  35.341  1.00  0.00     0.031 A 
BRANCH  24  38
ATOM     38  C   UNL A   1      45.027  27.335  35.457  1.00  0.00    -0.014 A 
ATOM     39  C   UNL A   1      44.444  26.267  36.175  1.00  0.00     0.010 A 
ATOM     40  C   UNL A   1      46.426  27.490  35.551  1.00  0.00     0.010 A 
ATOM     41  C   UNL A   1      45.202  25.420  36.991  1.00  0.00     0.020 A 
ATOM     42  C   UNL A   1      47.204  26.616  36.349  1.00  0.00     0.020 A 
ATOM     43  C   UNL A   1      46.581  25.598  37.077  1.00  0.00     0.054 A 
BRANCH  43  44
ATOM     44  S   UNL A   1      47.523  24.460  38.142  1.00  0.00     0.124 S 
ATOM     45  O   UNL A   1      48.139  23.567  37.162  1.00  0.00    -0.237 OA
ATOM     46  O   UNL A   1      48.447  25.358  38.833  1.00  0.00    -0.237 OA
ATOM     47  O   UNL A   1      46.503  23.848  38.989  1.00  0.00    -0.744 OA
ENDBRANCH  43  44
ENDBRANCH  24  38
BRANCH  25  48
ATOM     48  C   UNL A   1      37.493  32.183  30.203  1.00  0.00    -0.014 A 
ATOM     49  C   UNL A   1      37.498  33.371  29.435  1.00  0.00     0.010 A 
ATOM     50  C   UNL A   1      36.232  31.589  30.433  1.00  0.00     0.010 A 
ATOM     51  C   UNL A   1      36.329  33.920  28.884  1.00  0.00     0.020 A 
ATOM     52  C   UNL A   1      35.045  32.130  29.864  1.00  0.00     0.020 A 
ATOM     53  C   UNL A   1      35.105  33.286  29.080  1.00  0.00     0.054 A 
BRANCH  53  54
ATOM     54  S   UNL A   1      33.638  33.960  28.227  1.00  0.00     0.124 S 
ATOM     55  O   UNL A   1      34.231  34.882  27.264  1.00  0.00    -0.237 OA
ATOM     56  O   UNL A   1      33.031  32.760  27.657  1.00  0.00    -0.237 OA
ATOM     57  O   UNL A   1      32.871  34.586  29.302  1.00  0.00    -0.744 OA
ENDBRANCH  53  54
ENDBRANCH  25  48
BRANCH  37  58
ATOM     58  C   UNL A   1      40.640  33.371  36.631  1.00  0.00    -0.014 A 
ATOM     59  C   UNL A   1      39.700  32.864  37.558  1.00  0.00     0.010 A 
ATOM     60  C   UNL A   1      41.311  34.561  36.954  1.00  0.00     0.010 A 
ATOM     61  C   UNL A   1      39.381  33.589  38.724  1.00  0.00     0.020 A 
ATOM     62  C   UNL A   1      41.024  35.266  38.122  1.00  0.00     0.020 A 
ATOM     63  C   UNL A   1      40.039  34.797  38.987  1.00  0.00     0.054 A 
BRANCH  63  64
ATOM     64  S   UNL A   1      39.619  35.760  40.468  1.00  0.00     0.124 S 
ATOM     65  O   UNL A   1      39.182  37.029  39.892  1.00  0.00    -0.237 OA
ATOM     66  O   UNL A   1      38.572  34.957  41.094  1.00  0.00    -0.237 OA
ATOM     67  O   UNL A   1      40.878  35.818  41.209  1.00  0.00    -0.744 OA
ENDBRANCH  63  64
ENDBRANCH  37  58
ENDBRANCH  11  12
ENDBRANCH   4   6
ENDBRANCH   3   4
ENDBRANCH   2   3
ENDBRANCH   1   2
BRANCH   1  68
ATOM     68  O   UNL A   1      43.929  20.386  24.391  1.00  0.00    -0.458 OA
BRANCH  68  69
ATOM     69  C   UNL A   1      43.648  19.452  25.338  1.00  0.00     0.365 C 
ATOM     70  O   UNL A   1      44.382  18.487  25.553  1.00  0.00    -0.245 OA
BRANCH  69  71
ATOM     71  C   UNL A   1      42.320  19.635  26.105  1.00  0.00     0.304 C 
ATOM     72  C   UNL A   1      42.689  20.255  27.454  1.00  0.00     0.153 C 
ATOM     73  N   UNL A   1      41.263  20.483  25.476  1.00  0.00    -0.319 N 
ATOM     74  S   UNL A   1      41.242  21.166  28.022  1.00  0.00    -0.087 SA
ATOM     75  C   UNL A   1      40.277  20.804  26.531  1.00  0.00     0.274 C 
ATOM     76  H   UNL A   1      40.812  19.974  24.716  1.00  0.00     0.348 HD
ATOM     77  H   UNL A   1      41.668  21.335  25.085  1.00  0.00     0.348 HD
BRANCH  75  78
ATOM     78  C   UNL A   1      39.254  21.895  26.194  1.00  0.00     0.024 A 
ATOM     79  C   UNL A   1      39.278  23.184  26.766  1.00  0.00     0.011 A 
ATOM     80  C   UNL A   1      38.183  21.607  25.317  1.00  0.00     0.057 A 
ATOM     81  C   UNL A   1      38.320  24.154  26.437  1.00  0.00     0.004 A 
ATOM     82  C   UNL A   1      37.178  22.555  25.052  1.00  0.00     0.120 A 
ATOM     83  C   UNL A   1      37.285  23.840  25.570  1.00  0.00     0.046 A 
BRANCH  82  84
ATOM     84  O   UNL A   1      36.023  22.368  24.349  1.00  0.00    -0.489 OA
BRANCH  84  85
ATOM     85  C   UNL A   1      34.781  22.237  25.022  1.00  0.00     0.267 C 
BRANCH  85  86
ATOM     86  C   UNL A   1      34.219  20.925  24.673  1.00  0.00     0.008 A 
ATOM     87  C   UNL A   1      35.005  19.826  24.825  1.00  0.00     0.010 A 
ATOM     88  C   UNL A   1      32.978  20.727  24.142  1.00  0.00     0.049 A 
ATOM     89  C   UNL A   1      34.454  18.608  24.571  1.00  0.00     0.021 A 
ATOM     90  C   UNL A   1      32.577  19.440  23.857  1.00  0.00     0.041 A 
ATOM     91  Cl  UNL A   1      31.850  21.970  23.784  1.00  0.00    -0.084 Cl
ATOM     92  C   UNL A   1      33.251  18.295  24.144  1.00  0.00     0.042 A 
ATOM     93  Cl  UNL A   1      32.959  16.505  24.050  1.00  0.00    -0.084 Cl
ENDBRANCH  85  86
ENDBRANCH  84  85
ENDBRANCH  82  84
ENDBRANCH  75  78
ENDBRANCH  69  71
ENDBRANCH  68  69
ENDBRANCH   1  68
TORSDOF 18
ENDMDL
MODEL 3
REMARK VINA RESULT:     -11.1      6.915      8.946
REMARK SMILES O=C(OCCOC(=O)[C@H]1CS[C@@H](c2cccc(OCc3ccc(Cl)cc3Cl)c2)[NH2+]1)c1ccc(-c2c3nc(c(-c4ccc(S(=O)(=O)[O-])cc4)c4ccc([nH]4)c(-c4ccc(S(=O)(=O)[O-])cc4)c4nc(c(-c5ccc(S(=O)(=O)[O-])cc5)c5ccc2[nH]5)C=C4)C=C3)cc1
REMARK SMILES IDX 5 1 4 2 3 3 2 4 1 5 30 6 31 7 89 8 32 9 88 10 33 11 34 12
REMARK SMILES IDX 35 13 82 14 36 15 87 16 81 17 83 18 37 19 86 20 80 21 79 22
REMARK SMILES IDX 38 24 68 25 49 26 67 27 50 28 53 29 66 30 84 31 51 32 52 33
REMARK SMILES IDX 65 35 85 36 54 37 39 38 40 39 48 40 41 41 47 42 42 43 43 44
REMARK SMILES IDX 44 45 45 46 46 47 69 48 70 49 78 50 71 51 77 52 72 53 73 54
REMARK SMILES IDX 74 55 75 56 76 57 55 58 56 59 64 60 57 61 63 62 58 63 59 64
REMARK SMILES IDX 60 65 61 66 62 67 6 68 7 69 8 70 9 71 10 72 29 73 11 74
REMARK SMILES IDX 12 75 13 78 14 79 28 80 15 81 17 82 16 83 18 84 19 85 20 86
REMARK SMILES IDX 21 87 26 88 22 89 25 90 27 91 23 92 24 93
REMARK H PARENT 83 23 53 34 29 76 29 77
REMARK Flexibility Score: inf
ROOT
ATOM      1  C   UNL A   1      38.405  22.594  25.971  1.00  0.00     0.274 C 
ENDROOT
BRANCH   1   2
ATOM      2  C   UNL A   1      38.509  23.998  26.592  1.00  0.00     0.275 C 
BRANCH   2   3
ATOM      3  O   UNL A   1      39.839  24.530  26.735  1.00  0.00    -0.458 OA
BRANCH   3   4
ATOM      4  C   UNL A   1      40.281  25.786  26.491  1.00  0.00     0.338 C 
ATOM      5  O   UNL A   1      40.966  25.988  25.478  1.00  0.00    -0.246 OA
BRANCH   4   6
ATOM      6  C   UNL A   1      40.147  26.890  27.486  1.00  0.00     0.060 A 
ATOM      7  C   UNL A   1      39.542  26.766  28.735  1.00  0.00     0.016 A 
ATOM      8  C   UNL A   1      40.776  28.106  27.191  1.00  0.00     0.016 A 
ATOM      9  C   UNL A   1      39.807  27.671  29.754  1.00  0.00     0.010 A 
ATOM     10  C   UNL A   1      40.979  29.058  28.205  1.00  0.00     0.010 A 
ATOM     11  C   UNL A   1      40.564  28.810  29.519  1.00  0.00    -0.014 A 
BRANCH  11  12
ATOM     12  C   UNL A   1      40.592  29.771  30.655  1.00  0.00     0.031 A 
ATOM     13  C   UNL A   1      41.918  29.297  31.763  1.00  0.00     0.074 A 
ATOM     14  C   UNL A   1      39.600  30.842  30.654  1.00  0.00     0.049 A 
ATOM     15  N   UNL A   1      42.315  29.858  32.901  1.00  0.00    -0.248 NA
ATOM     16  C   UNL A   1      42.700  28.047  31.591  1.00  0.00     0.031 C 
ATOM     17  C   UNL A   1      38.173  30.754  30.191  1.00  0.00     0.029 A 
ATOM     18  N   UNL A   1      39.467  32.100  31.373  1.00  0.00    -0.354 N 
ATOM     19  C   UNL A   1      43.138  29.056  33.667  1.00  0.00     0.074 A 
ATOM     20  C   UNL A   1      43.384  27.935  32.748  1.00  0.00     0.031 C 
ATOM     21  C   UNL A   1      37.386  31.672  30.853  1.00  0.00     0.029 A 
ATOM     22  C   UNL A   1      38.181  32.479  31.830  1.00  0.00     0.049 A 
ATOM     23  H   UNL A   1      40.251  32.675  31.535  1.00  0.00     0.167 HD
ATOM     24  C   UNL A   1      43.612  29.253  34.964  1.00  0.00     0.031 A 
ATOM     25  C   UNL A   1      37.722  33.245  32.927  1.00  0.00     0.031 A 
ATOM     26  C   UNL A   1      43.240  30.337  35.993  1.00  0.00     0.049 A 
ATOM     27  C   UNL A   1      38.526  33.749  34.369  1.00  0.00     0.074 A 
ATOM     28  C   UNL A   1      43.382  30.376  37.381  1.00  0.00     0.029 A 
ATOM     29  N   UNL A   1      42.804  31.670  35.757  1.00  0.00    -0.354 N 
ATOM     30  N   UNL A   1      39.801  33.883  34.699  1.00  0.00    -0.248 NA
ATOM     31  C   UNL A   1      37.713  34.058  35.576  1.00  0.00     0.031 C 
ATOM     32  C   UNL A   1      42.780  31.582  37.914  1.00  0.00     0.029 A 
ATOM     33  C   UNL A   1      42.229  32.366  36.881  1.00  0.00     0.049 A 
ATOM     34  H   UNL A   1      42.891  32.095  34.873  1.00  0.00     0.167 HD
ATOM     35  C   UNL A   1      40.010  33.982  36.116  1.00  0.00     0.074 A 
ATOM     36  C   UNL A   1      38.624  34.290  36.548  1.00  0.00     0.031 C 
ATOM     37  C   UNL A   1      41.053  33.530  37.007  1.00  0.00     0.031 A 
BRANCH  24  38
ATOM     38  C   UNL A   1      44.693  28.228  35.350  1.00  0.00    -0.014 A 
ATOM     39  C   UNL A   1      44.266  27.064  36.028  1.00  0.00     0.010 A 
ATOM     40  C   UNL A   1      46.077  28.369  35.115  1.00  0.00     0.010 A 
ATOM     41  C   UNL A   1      45.171  26.105  36.497  1.00  0.00     0.020 A 
ATOM     42  C   UNL A   1      46.995  27.386  35.557  1.00  0.00     0.020 A 
ATOM     43  C   UNL A   1      46.534  26.269  36.262  1.00  0.00     0.054 A 
BRANCH  43  44
ATOM     44  S   UNL A   1      47.667  24.986  36.882  1.00  0.00     0.124 S 
ATOM     45  O   UNL A   1      47.354  23.857  36.008  1.00  0.00    -0.237 OA
ATOM     46  O   UNL A   1      48.982  25.590  36.672  1.00  0.00    -0.237 OA
ATOM     47  O   UNL A   1      47.278  24.820  38.279  1.00  0.00    -0.744 OA
ENDBRANCH  43  44
ENDBRANCH  24  38
BRANCH  25  48
ATOM     48  C   UNL A   1      36.281  33.796  32.879  1.00  0.00    -0.014 A 
ATOM     49  C   UNL A   1      36.164  35.171  32.570  1.00  0.00     0.010 A 
ATOM     50  C   UNL A   1      35.073  33.097  33.099  1.00  0.00     0.010 A 
ATOM     51  C   UNL A   1      34.922  35.813  32.438  1.00  0.00     0.020 A 
ATOM     52  C   UNL A   1      33.811  33.735  32.950  1.00  0.00     0.020 A 
ATOM     53  C   UNL A   1      33.745  35.089  32.606  1.00  0.00     0.054 A 
BRANCH  53  54
ATOM     54  S   UNL A   1      32.159  35.935  32.286  1.00  0.00     0.124 S 
ATOM     55  O   UNL A   1      32.287  37.154  33.078  1.00  0.00    -0.237 OA
ATOM     56  O   UNL A   1      32.191  36.120  30.837  1.00  0.00    -0.237 OA
ATOM     57  O   UNL A   1      31.157  34.982  32.762  1.00  0.00    -0.744 OA
ENDBRANCH  53  54
ENDBRANCH  25  48
BRANCH  37  58
ATOM     58  C   UNL A   1      40.911  33.979  38.462  1.00  0.00    -0.014 A 
ATOM     59  C   UNL A   1      41.445  35.145  39.060  1.00  0.00     0.010 A 
ATOM     60  C   UNL A   1      40.050  33.178  39.229  1.00  0.00     0.010 A 
ATOM     61  C   UNL A   1      41.193  35.434  40.416  1.00  0.00     0.020 A 
ATOM     62  C   UNL A   1      39.771  33.476  40.562  1.00  0.00     0.020 A 
ATOM     63  C   UNL A   1      40.367  34.583  41.160  1.00  0.00     0.054 A 
BRANCH  63  64
ATOM     64  S   UNL A   1      40.056  34.922  42.918  1.00  0.00     0.124 S 
ATOM     65  O   UNL A   1      39.885  33.577  43.461  1.00  0.00    -0.237 OA
ATOM     66  O   UNL A   1      41.269  35.621  43.334  1.00  0.00    -0.237 OA
ATOM     67  O   UNL A   1      38.846  35.742  42.902  1.00  0.00    -0.744 OA
ENDBRANCH  63  64
ENDBRANCH  37  58
ENDBRANCH  11  12
ENDBRANCH   4   6
ENDBRANCH   3   4
ENDBRANCH   2   3
ENDBRANCH   1   2
BRANCH   1  68
ATOM     68  O   UNL A   1      37.625  22.502  24.754  1.00  0.00    -0.458 OA
BRANCH  68  69
ATOM     69  C   UNL A   1      36.740  21.472  24.700  1.00  0.00     0.365 C 
ATOM     70  O   UNL A   1      37.066  20.307  24.929  1.00  0.00    -0.245 OA
BRANCH  69  71
ATOM     71  C   UNL A   1      35.297  21.832  24.279  1.00  0.00     0.304 C 
ATOM     72  C   UNL A   1      34.403  20.723  24.837  1.00  0.00     0.153 C 
ATOM     73  N   UNL A   1      34.748  23.146  24.731  1.00  0.00    -0.319 N 
ATOM     74  S   UNL A   1      32.765  21.440  25.064  1.00  0.00    -0.087 SA
ATOM     75  C   UNL A   1      33.282  23.096  24.535  1.00  0.00     0.274 C 
ATOM     76  H   UNL A   1      35.150  23.902  24.178  1.00  0.00     0.348 HD
ATOM     77  H   UNL A   1      34.978  23.317  25.711  1.00  0.00     0.348 HD
BRANCH  75  78
ATOM     78  C   UNL A   1      32.471  24.220  25.189  1.00  0.00     0.024 A 
ATOM     79  C   UNL A   1      31.093  24.117  25.473  1.00  0.00     0.011 A 
ATOM     80  C   UNL A   1      33.091  25.457  25.477  1.00  0.00     0.057 A 
ATOM     81  C   UNL A   1      30.384  25.171  26.067  1.00  0.00     0.004 A 
ATOM     82  C   UNL A   1      32.359  26.539  25.998  1.00  0.00     0.120 A 
ATOM     83  C   UNL A   1      31.023  26.370  26.342  1.00  0.00     0.046 A 
BRANCH  82  84
ATOM     84  O   UNL A   1      32.790  27.821  26.186  1.00  0.00    -0.489 OA
BRANCH  84  85
ATOM     85  C   UNL A   1      34.172  28.102  26.339  1.00  0.00     0.267 C 
BRANCH  85  86
ATOM     86  C   UNL A   1      34.293  29.444  26.926  1.00  0.00     0.008 A 
ATOM     87  C   UNL A   1      33.218  30.273  26.864  1.00  0.00     0.010 A 
ATOM     88  C   UNL A   1      35.433  29.951  27.477  1.00  0.00     0.049 A 
ATOM     89  C   UNL A   1      33.312  31.486  27.476  1.00  0.00     0.021 A 
ATOM     90  C   UNL A   1      35.409  31.230  27.990  1.00  0.00     0.041 A 
ATOM     91  Cl  UNL A   1      36.931  29.120  27.584  1.00  0.00    -0.084 Cl
ATOM     92  C   UNL A   1      34.323  32.038  28.108  1.00  0.00     0.042 A 
ATOM     93  Cl  UNL A   1      33.922  33.651  28.841  1.00  0.00    -0.084 Cl
ENDBRANCH  85  86
ENDBRANCH  84  85
ENDBRANCH  82  84
ENDBRANCH  75  78
ENDBRANCH  69  71
ENDBRANCH  68  69
ENDBRANCH   1  68
TORSDOF 18
ENDMDL
