MODEL 1
REMARK VINA RESULT:      -9.5      0.000      0.000
REMARK SMILES [NH3+][C@@H]1C=C[C@H](C(=O)NC[C@H](O)C(=O)OCCOC(=O)c2ccc(-c3c4nc(c(-c5ccc(S(=O)(=O)[O-])cc5)c5ccc([nH]5)c(-c5ccc(S(=O)(=O)[O-])cc5)c5nc(c(-c6ccc(S(=O)(=O)[O-])cc6)c6ccc3[nH]6)C=C5)C=C4)cc2)C1
REMARK SMILES IDX 15 1 14 2 12 3 13 4 10 5 9 6 8 7 6 8 7 9 5 11 2 12 3 13
REMARK SMILES IDX 80 14 4 15 1 16 11 20 16 22 17 23 18 24 19 25 20 26 21 27
REMARK SMILES IDX 79 28 22 29 78 30 23 31 24 32 25 33 72 34 26 35 77 36 71 37
REMARK SMILES IDX 73 38 27 39 76 40 70 41 69 42 28 44 58 45 39 46 57 47 40 48
REMARK SMILES IDX 43 49 56 50 74 51 41 52 42 53 55 55 75 56 44 57 29 58 30 59
REMARK SMILES IDX 38 60 31 61 37 62 32 63 33 64 34 65 35 66 36 67 59 68 60 69
REMARK SMILES IDX 68 70 61 71 67 72 62 73 63 74 64 75 65 76 66 77 45 78 46 79
REMARK SMILES IDX 54 80 47 81 53 82 48 83 49 84 50 85 51 86 52 87
REMARK H PARENT 8 10 1 17 1 18 1 19 11 21 73 43 43 54
REMARK Flexibility Score: inf
ROOT
ATOM      1  C   UNL A   1      42.372  20.761  26.550  1.00  0.00     0.274 C 
ENDROOT
BRANCH   1   2
ATOM      2  O   UNL A   1      42.627  19.951  25.385  1.00  0.00    -0.460 OA
BRANCH   2   3
ATOM      3  C   UNL A   1      43.190  18.721  25.555  1.00  0.00     0.336 C 
ATOM      4  O   UNL A   1      42.574  17.690  25.782  1.00  0.00    -0.249 OA
BRANCH   3   5
ATOM      5  C   UNL A   1      44.721  18.806  25.437  1.00  0.00     0.243 C 
BRANCH   5   6
ATOM      6  C   UNL A   1      45.130  19.089  23.971  1.00  0.00     0.159 C 
BRANCH   6   7
ATOM      7  N   UNL A   1      44.631  20.356  23.455  1.00  0.00    -0.352 N 
ATOM      8  C   UNL A   1      44.904  21.650  23.758  1.00  0.00     0.227 C 
ATOM      9  O   UNL A   1      44.270  22.497  23.116  1.00  0.00    -0.274 OA
ATOM     10  H   UNL A   1      43.959  20.253  22.742  1.00  0.00     0.163 HD
BRANCH   8  11
ATOM     11  C   UNL A   1      46.021  22.063  24.735  1.00  0.00     0.107 C 
ATOM     12  C   UNL A   1      45.324  23.858  26.267  1.00  0.00     0.205 C 
ATOM     13  C   UNL A   1      46.144  24.391  25.146  1.00  0.00     0.033 C 
ATOM     14  C   UNL A   1      45.666  22.368  26.190  1.00  0.00     0.087 C 
ATOM     15  C   UNL A   1      46.558  23.415  24.325  1.00  0.00    -0.012 C 
BRANCH  12  16
ATOM     16  N   UNL A   1      43.921  24.165  26.055  1.00  0.00    -0.352 N 
ATOM     17  H   UNL A   1      43.487  24.407  26.946  1.00  0.00     0.345 HD
ATOM     18  H   UNL A   1      43.451  23.352  25.657  1.00  0.00     0.345 HD
ATOM     19  H   UNL A   1      43.839  24.953  25.411  1.00  0.00     0.345 HD
ENDBRANCH  12  16
ENDBRANCH   8  11
ENDBRANCH   6   7
ENDBRANCH   5   6
BRANCH   5  20
ATOM     20  O   UNL A   1      45.417  17.675  25.966  1.00  0.00    -0.380 OA
ATOM     21  H   UNL A   1      45.560  17.799  26.917  1.00  0.00     0.211 HD
ENDBRANCH   5  20
ENDBRANCH   3   5
ENDBRANCH   2   3
ENDBRANCH   1   2
BRANCH   1  22
ATOM     22  C   UNL A   1      40.886  20.669  26.910  1.00  0.00     0.275 C 
BRANCH  22  23
ATOM     23  O   UNL A   1      40.465  21.866  27.589  1.00  0.00    -0.458 OA
BRANCH  23  24
ATOM     24  C   UNL A   1      39.833  22.777  26.810  1.00  0.00     0.338 C 
ATOM     25  O   UNL A   1      38.824  22.613  26.144  1.00  0.00    -0.246 OA
BRANCH  24  26
ATOM     26  C   UNL A   1      40.379  24.106  27.125  1.00  0.00     0.060 A 
ATOM     27  C   UNL A   1      41.052  24.232  28.343  1.00  0.00     0.016 A 
ATOM     28  C   UNL A   1      40.265  25.194  26.258  1.00  0.00     0.016 A 
ATOM     29  C   UNL A   1      41.627  25.441  28.705  1.00  0.00     0.010 A 
ATOM     30  C   UNL A   1      40.830  26.417  26.628  1.00  0.00     0.010 A 
ATOM     31  C   UNL A   1      41.505  26.542  27.855  1.00  0.00    -0.014 A 
BRANCH  31  32
ATOM     32  C   UNL A   1      41.998  27.856  28.315  1.00  0.00     0.031 A 
ATOM     33  C   UNL A   1      43.470  28.135  28.245  1.00  0.00     0.074 A 
ATOM     34  C   UNL A   1      41.129  28.793  28.733  1.00  0.00     0.049 A 
ATOM     35  N   UNL A   1      44.130  29.179  28.667  1.00  0.00    -0.248 NA
ATOM     36  C   UNL A   1      44.307  27.102  27.612  1.00  0.00     0.031 C 
ATOM     37  C   UNL A   1      39.672  28.647  28.756  1.00  0.00     0.029 A 
ATOM     38  N   UNL A   1      41.347  30.057  29.212  1.00  0.00    -0.354 N 
ATOM     39  C   UNL A   1      45.464  28.921  28.373  1.00  0.00     0.074 A 
ATOM     40  C   UNL A   1      45.520  27.617  27.748  1.00  0.00     0.031 C 
ATOM     41  C   UNL A   1      39.128  29.782  29.228  1.00  0.00     0.029 A 
ATOM     42  C   UNL A   1      40.197  30.710  29.583  1.00  0.00     0.049 A 
ATOM     43  H   UNL A   1      42.243  30.460  29.283  1.00  0.00     0.167 HD
ATOM     44  C   UNL A   1      46.542  29.703  28.608  1.00  0.00     0.031 A 
ATOM     45  C   UNL A   1      40.033  31.910  30.172  1.00  0.00     0.031 A 
ATOM     46  C   UNL A   1      46.468  30.993  29.239  1.00  0.00     0.049 A 
ATOM     47  C   UNL A   1      41.255  32.725  30.498  1.00  0.00     0.074 A 
ATOM     48  C   UNL A   1      47.497  31.860  29.555  1.00  0.00     0.029 A 
ATOM     49  N   UNL A   1      45.289  31.603  29.644  1.00  0.00    -0.354 N 
ATOM     50  N   UNL A   1      42.516  32.452  30.255  1.00  0.00    -0.248 NA
ATOM     51  C   UNL A   1      41.035  34.006  31.183  1.00  0.00     0.031 C 
ATOM     52  C   UNL A   1      46.944  32.978  30.188  1.00  0.00     0.029 A 
ATOM     53  C   UNL A   1      45.565  32.829  30.220  1.00  0.00     0.049 A 
ATOM     54  H   UNL A   1      44.389  31.219  29.538  1.00  0.00     0.167 HD
ATOM     55  C   UNL A   1      43.239  33.537  30.737  1.00  0.00     0.074 A 
ATOM     56  C   UNL A   1      42.272  34.476  31.272  1.00  0.00     0.031 C 
ATOM     57  C   UNL A   1      44.579  33.742  30.740  1.00  0.00     0.031 A 
BRANCH  44  58
ATOM     58  C   UNL A   1      47.889  29.157  28.222  1.00  0.00    -0.014 A 
ATOM     59  C   UNL A   1      48.430  29.385  26.944  1.00  0.00     0.010 A 
ATOM     60  C   UNL A   1      48.629  28.412  29.158  1.00  0.00     0.010 A 
ATOM     61  C   UNL A   1      49.672  28.846  26.597  1.00  0.00     0.020 A 
ATOM     62  C   UNL A   1      49.882  27.892  28.822  1.00  0.00     0.020 A 
ATOM     63  C   UNL A   1      50.388  28.098  27.537  1.00  0.00     0.054 A 
BRANCH  63  64
ATOM     64  S   UNL A   1      52.002  27.420  27.065  1.00  0.00     0.124 S 
ATOM     65  O   UNL A   1      52.027  27.676  25.627  1.00  0.00    -0.237 OA
ATOM     66  O   UNL A   1      52.932  28.217  27.862  1.00  0.00    -0.237 OA
ATOM     67  O   UNL A   1      51.911  26.011  27.445  1.00  0.00    -0.744 OA
ENDBRANCH  63  64
ENDBRANCH  44  58
BRANCH  45  68
ATOM     68  C   UNL A   1      38.671  32.391  30.527  1.00  0.00    -0.014 A 
ATOM     69  C   UNL A   1      37.884  33.079  29.587  1.00  0.00     0.010 A 
ATOM     70  C   UNL A   1      38.151  32.163  31.815  1.00  0.00     0.010 A 
ATOM     71  C   UNL A   1      36.612  33.545  29.932  1.00  0.00     0.020 A 
ATOM     72  C   UNL A   1      36.868  32.604  32.155  1.00  0.00     0.020 A 
ATOM     73  C   UNL A   1      36.112  33.304  31.216  1.00  0.00     0.054 A 
BRANCH  73  74
ATOM     74  S   UNL A   1      34.442  33.878  31.631  1.00  0.00     0.124 S 
ATOM     75  O   UNL A   1      34.718  35.116  32.354  1.00  0.00    -0.237 OA
ATOM     76  O   UNL A   1      33.825  34.037  30.316  1.00  0.00    -0.237 OA
ATOM     77  O   UNL A   1      33.899  32.789  32.439  1.00  0.00    -0.744 OA
ENDBRANCH  73  74
ENDBRANCH  45  68
BRANCH  57  78
ATOM     78  C   UNL A   1      45.072  35.045  31.305  1.00  0.00    -0.014 A 
ATOM     79  C   UNL A   1      45.461  35.151  32.651  1.00  0.00     0.010 A 
ATOM     80  C   UNL A   1      45.199  36.161  30.458  1.00  0.00     0.010 A 
ATOM     81  C   UNL A   1      45.943  36.365  33.150  1.00  0.00     0.020 A 
ATOM     82  C   UNL A   1      45.703  37.368  30.946  1.00  0.00     0.020 A 
ATOM     83  C   UNL A   1      46.059  37.465  32.294  1.00  0.00     0.054 A 
BRANCH  83  84
ATOM     84  S   UNL A   1      46.731  39.017  32.950  1.00  0.00     0.124 S 
ATOM     85  O   UNL A   1      47.293  38.586  34.228  1.00  0.00    -0.237 OA
ATOM     86  O   UNL A   1      47.705  39.401  31.933  1.00  0.00    -0.237 OA
ATOM     87  O   UNL A   1      45.561  39.887  33.044  1.00  0.00    -0.744 OA
ENDBRANCH  83  84
ENDBRANCH  57  78
ENDBRANCH  31  32
ENDBRANCH  24  26
ENDBRANCH  23  24
ENDBRANCH  22  23
ENDBRANCH   1  22
TORSDOF 19
ENDMDL
MODEL 2
REMARK VINA RESULT:      -9.3      0.613      8.560
REMARK SMILES [NH3+][C@@H]1C=C[C@H](C(=O)NC[C@H](O)C(=O)OCCOC(=O)c2ccc(-c3c4nc(c(-c5ccc(S(=O)(=O)[O-])cc5)c5ccc([nH]5)c(-c5ccc(S(=O)(=O)[O-])cc5)c5nc(c(-c6ccc(S(=O)(=O)[O-])cc6)c6ccc3[nH]6)C=C5)C=C4)cc2)C1
REMARK SMILES IDX 15 1 14 2 12 3 13 4 10 5 9 6 8 7 6 8 7 9 5 11 2 12 3 13
REMARK SMILES IDX 80 14 4 15 1 16 11 20 16 22 17 23 18 24 19 25 20 26 21 27
REMARK SMILES IDX 79 28 22 29 78 30 23 31 24 32 25 33 72 34 26 35 77 36 71 37
REMARK SMILES IDX 73 38 27 39 76 40 70 41 69 42 28 44 58 45 39 46 57 47 40 48
REMARK SMILES IDX 43 49 56 50 74 51 41 52 42 53 55 55 75 56 44 57 29 58 30 59
REMARK SMILES IDX 38 60 31 61 37 62 32 63 33 64 34 65 35 66 36 67 59 68 60 69
REMARK SMILES IDX 68 70 61 71 67 72 62 73 63 74 64 75 65 76 66 77 45 78 46 79
REMARK SMILES IDX 54 80 47 81 53 82 48 83 49 84 50 85 51 86 52 87
REMARK H PARENT 8 10 1 17 1 18 1 19 11 21 73 43 43 54
REMARK Flexibility Score: inf
ROOT
ATOM      1  C   UNL A   1      41.879  20.327  26.691  1.00  0.00     0.274 C 
ENDROOT
BRANCH   1   2
ATOM      2  O   UNL A   1      42.809  20.047  25.626  1.00  0.00    -0.460 OA
BRANCH   2   3
ATOM      3  C   UNL A   1      43.323  18.789  25.521  1.00  0.00     0.336 C 
ATOM      4  O   UNL A   1      42.676  17.755  25.590  1.00  0.00    -0.249 OA
BRANCH   3   5
ATOM      5  C   UNL A   1      44.847  18.843  25.317  1.00  0.00     0.243 C 
BRANCH   5   6
ATOM      6  C   UNL A   1      45.179  19.092  23.826  1.00  0.00     0.159 C 
BRANCH   6   7
ATOM      7  N   UNL A   1      44.643  20.343  23.305  1.00  0.00    -0.352 N 
ATOM      8  C   UNL A   1      44.852  21.643  23.627  1.00  0.00     0.227 C 
ATOM      9  O   UNL A   1      44.204  22.469  22.973  1.00  0.00    -0.274 OA
ATOM     10  H   UNL A   1      43.999  20.218  22.570  1.00  0.00     0.163 HD
BRANCH   8  11
ATOM     11  C   UNL A   1      45.920  22.093  24.643  1.00  0.00     0.107 C 
ATOM     12  C   UNL A   1      45.009  23.580  26.379  1.00  0.00     0.205 C 
ATOM     13  C   UNL A   1      45.724  24.351  25.326  1.00  0.00     0.033 C 
ATOM     14  C   UNL A   1      45.554  22.173  26.125  1.00  0.00     0.087 C 
ATOM     15  C   UNL A   1      46.254  23.546  24.395  1.00  0.00    -0.012 C 
BRANCH  12  16
ATOM     16  N   UNL A   1      43.572  23.709  26.209  1.00  0.00    -0.352 N 
ATOM     17  H   UNL A   1      43.288  24.665  26.427  1.00  0.00     0.345 HD
ATOM     18  H   UNL A   1      43.097  23.061  26.836  1.00  0.00     0.345 HD
ATOM     19  H   UNL A   1      43.323  23.492  25.244  1.00  0.00     0.345 HD
ENDBRANCH  12  16
ENDBRANCH   8  11
ENDBRANCH   6   7
ENDBRANCH   5   6
BRANCH   5  20
ATOM     20  O   UNL A   1      45.551  17.709  25.828  1.00  0.00    -0.380 OA
ATOM     21  H   UNL A   1      44.979  16.927  25.788  1.00  0.00     0.211 HD
ENDBRANCH   5  20
ENDBRANCH   3   5
ENDBRANCH   2   3
ENDBRANCH   1   2
BRANCH   1  22
ATOM     22  C   UNL A   1      40.614  20.956  26.101  1.00  0.00     0.275 C 
BRANCH  22  23
ATOM     23  O   UNL A   1      40.011  21.848  27.057  1.00  0.00    -0.458 OA
BRANCH  23  24
ATOM     24  C   UNL A   1      39.374  22.918  26.523  1.00  0.00     0.338 C 
ATOM     25  O   UNL A   1      38.321  22.924  25.906  1.00  0.00    -0.246 OA
BRANCH  24  26
ATOM     26  C   UNL A   1      39.993  24.138  27.064  1.00  0.00     0.060 A 
ATOM     27  C   UNL A   1      40.052  25.241  26.208  1.00  0.00     0.016 A 
ATOM     28  C   UNL A   1      40.479  24.222  28.370  1.00  0.00     0.016 A 
ATOM     29  C   UNL A   1      40.587  26.442  26.647  1.00  0.00     0.010 A 
ATOM     30  C   UNL A   1      41.034  25.426  28.809  1.00  0.00     0.010 A 
ATOM     31  C   UNL A   1      41.095  26.534  27.945  1.00  0.00    -0.014 A 
BRANCH  31  32
ATOM     32  C   UNL A   1      41.789  27.772  28.353  1.00  0.00     0.031 A 
ATOM     33  C   UNL A   1      40.974  28.901  28.912  1.00  0.00     0.074 A 
ATOM     34  C   UNL A   1      43.128  27.851  28.272  1.00  0.00     0.049 A 
ATOM     35  N   UNL A   1      41.358  30.101  29.255  1.00  0.00    -0.248 NA
ATOM     36  C   UNL A   1      39.539  28.641  29.114  1.00  0.00     0.031 C 
ATOM     37  C   UNL A   1      44.015  26.776  27.823  1.00  0.00     0.029 A 
ATOM     38  N   UNL A   1      43.977  28.884  28.571  1.00  0.00    -0.354 N 
ATOM     39  C   UNL A   1      40.208  30.749  29.691  1.00  0.00     0.074 A 
ATOM     40  C   UNL A   1      39.112  29.813  29.560  1.00  0.00     0.031 C 
ATOM     41  C   UNL A   1      45.286  27.209  27.877  1.00  0.00     0.029 A 
ATOM     42  C   UNL A   1      45.297  28.601  28.316  1.00  0.00     0.049 A 
ATOM     43  H   UNL A   1      43.671  29.746  28.936  1.00  0.00     0.167 HD
ATOM     44  C   UNL A   1      40.083  32.012  30.158  1.00  0.00     0.031 A 
ATOM     45  C   UNL A   1      46.385  29.391  28.398  1.00  0.00     0.031 A 
ATOM     46  C   UNL A   1      41.183  32.931  30.274  1.00  0.00     0.049 A 
ATOM     47  C   UNL A   1      46.206  30.818  28.841  1.00  0.00     0.074 A 
ATOM     48  C   UNL A   1      41.168  34.245  30.705  1.00  0.00     0.029 A 
ATOM     49  N   UNL A   1      42.500  32.625  29.961  1.00  0.00    -0.354 N 
ATOM     50  N   UNL A   1      45.108  31.434  29.211  1.00  0.00    -0.248 NA
ATOM     51  C   UNL A   1      47.411  31.658  28.872  1.00  0.00     0.031 C 
ATOM     52  C   UNL A   1      42.471  34.746  30.613  1.00  0.00     0.029 A 
ATOM     53  C   UNL A   1      43.306  33.727  30.176  1.00  0.00     0.049 A 
ATOM     54  H   UNL A   1      42.813  31.751  29.634  1.00  0.00     0.167 HD
ATOM     55  C   UNL A   1      45.491  32.728  29.540  1.00  0.00     0.074 A 
ATOM     56  C   UNL A   1      46.925  32.801  29.339  1.00  0.00     0.031 C 
ATOM     57  C   UNL A   1      44.731  33.766  29.969  1.00  0.00     0.031 A 
BRANCH  44  58
ATOM     58  C   UNL A   1      38.702  32.479  30.528  1.00  0.00    -0.014 A 
ATOM     59  C   UNL A   1      38.199  32.310  31.831  1.00  0.00     0.010 A 
ATOM     60  C   UNL A   1      37.898  33.104  29.559  1.00  0.00     0.010 A 
ATOM     61  C   UNL A   1      36.903  32.726  32.146  1.00  0.00     0.020 A 
ATOM     62  C   UNL A   1      36.610  33.543  29.877  1.00  0.00     0.020 A 
ATOM     63  C   UNL A   1      36.114  33.336  31.166  1.00  0.00     0.054 A 
BRANCH  63  64
ATOM     64  S   UNL A   1      34.440  33.877  31.605  1.00  0.00     0.124 S 
ATOM     65  O   UNL A   1      33.832  34.070  30.291  1.00  0.00    -0.237 OA
ATOM     66  O   UNL A   1      33.928  32.747  32.375  1.00  0.00    -0.237 OA
ATOM     67  O   UNL A   1      34.662  35.101  32.373  1.00  0.00    -0.744 OA
ENDBRANCH  63  64
ENDBRANCH  44  58
BRANCH  45  68
ATOM     68  C   UNL A   1      47.724  28.866  28.017  1.00  0.00    -0.014 A 
ATOM     69  C   UNL A   1      48.172  28.937  26.687  1.00  0.00     0.010 A 
ATOM     70  C   UNL A   1      48.561  28.287  28.989  1.00  0.00     0.010 A 
ATOM     71  C   UNL A   1      49.423  28.425  26.331  1.00  0.00     0.020 A 
ATOM     72  C   UNL A   1      49.825  27.798  28.642  1.00  0.00     0.020 A 
ATOM     73  C   UNL A   1      50.242  27.858  27.313  1.00  0.00     0.054 A 
BRANCH  73  74
ATOM     74  S   UNL A   1      51.881  27.238  26.840  1.00  0.00     0.124 S 
ATOM     75  O   UNL A   1      51.783  25.825  27.190  1.00  0.00    -0.237 OA
ATOM     76  O   UNL A   1      51.932  27.535  25.411  1.00  0.00    -0.237 OA
ATOM     77  O   UNL A   1      52.793  28.027  27.665  1.00  0.00    -0.744 OA
ENDBRANCH  73  74
ENDBRANCH  45  68
BRANCH  57  78
ATOM     78  C   UNL A   1      45.442  35.052  30.284  1.00  0.00    -0.014 A 
ATOM     79  C   UNL A   1      45.597  36.053  29.310  1.00  0.00     0.010 A 
ATOM     80  C   UNL A   1      45.909  35.281  31.591  1.00  0.00     0.010 A 
ATOM     81  C   UNL A   1      46.237  37.253  29.632  1.00  0.00     0.020 A 
ATOM     82  C   UNL A   1      46.526  36.489  31.923  1.00  0.00     0.020 A 
ATOM     83  C   UNL A   1      46.698  37.462  30.936  1.00  0.00     0.054 A 
BRANCH  83  84
ATOM     84  S   UNL A   1      47.483  39.046  31.343  1.00  0.00     0.124 S 
ATOM     85  O   UNL A   1      48.888  38.665  31.458  1.00  0.00    -0.237 OA
ATOM     86  O   UNL A   1      47.150  39.875  30.188  1.00  0.00    -0.237 OA
ATOM     87  O   UNL A   1      46.838  39.439  32.593  1.00  0.00    -0.744 OA
ENDBRANCH  83  84
ENDBRANCH  57  78
ENDBRANCH  31  32
ENDBRANCH  24  26
ENDBRANCH  23  24
ENDBRANCH  22  23
ENDBRANCH   1  22
TORSDOF 19
ENDMDL
MODEL 3
REMARK VINA RESULT:      -9.1      5.326     11.555
REMARK SMILES [NH3+][C@@H]1C=C[C@H](C(=O)NC[C@H](O)C(=O)OCCOC(=O)c2ccc(-c3c4nc(c(-c5ccc(S(=O)(=O)[O-])cc5)c5ccc([nH]5)c(-c5ccc(S(=O)(=O)[O-])cc5)c5nc(c(-c6ccc(S(=O)(=O)[O-])cc6)c6ccc3[nH]6)C=C5)C=C4)cc2)C1
REMARK SMILES IDX 15 1 14 2 12 3 13 4 10 5 9 6 8 7 6 8 7 9 5 11 2 12 3 13
REMARK SMILES IDX 80 14 4 15 1 16 11 20 16 22 17 23 18 24 19 25 20 26 21 27
REMARK SMILES IDX 79 28 22 29 78 30 23 31 24 32 25 33 72 34 26 35 77 36 71 37
REMARK SMILES IDX 73 38 27 39 76 40 70 41 69 42 28 44 58 45 39 46 57 47 40 48
REMARK SMILES IDX 43 49 56 50 74 51 41 52 42 53 55 55 75 56 44 57 29 58 30 59
REMARK SMILES IDX 38 60 31 61 37 62 32 63 33 64 34 65 35 66 36 67 59 68 60 69
REMARK SMILES IDX 68 70 61 71 67 72 62 73 63 74 64 75 65 76 66 77 45 78 46 79
REMARK SMILES IDX 54 80 47 81 53 82 48 83 49 84 50 85 51 86 52 87
REMARK H PARENT 8 10 1 17 1 18 1 19 11 21 73 43 43 54
REMARK Flexibility Score: inf
ROOT
ATOM      1  C   UNL A   1      33.842  27.164  25.868  1.00  0.00     0.274 C 
ENDROOT
BRANCH   1   2
ATOM      2  O   UNL A   1      32.630  26.456  26.195  1.00  0.00    -0.460 OA
BRANCH   2   3
ATOM      3  C   UNL A   1      32.260  25.399  25.418  1.00  0.00     0.336 C 
ATOM      4  O   UNL A   1      33.026  24.586  24.923  1.00  0.00    -0.249 OA
BRANCH   3   5
ATOM      5  C   UNL A   1      30.733  25.373  25.232  1.00  0.00     0.243 C 
BRANCH   5   6
ATOM      6  C   UNL A   1      30.312  26.368  24.124  1.00  0.00     0.159 C 
BRANCH   6   7
ATOM      7  N   UNL A   1      30.589  27.761  24.448  1.00  0.00    -0.352 N 
ATOM      8  C   UNL A   1      30.291  28.931  23.830  1.00  0.00     0.227 C 
ATOM      9  O   UNL A   1      30.703  29.954  24.389  1.00  0.00    -0.274 OA
ATOM     10  H   UNL A   1      31.094  27.877  25.286  1.00  0.00     0.163 HD
BRANCH   8  11
ATOM     11  C   UNL A   1      29.386  29.013  22.585  1.00  0.00     0.107 C 
ATOM     12  C   UNL A   1      28.654  31.312  22.099  1.00  0.00     0.205 C 
ATOM     13  C   UNL A   1      27.587  30.538  22.789  1.00  0.00     0.033 C 
ATOM     14  C   UNL A   1      29.560  30.179  21.612  1.00  0.00     0.087 C 
ATOM     15  C   UNL A   1      27.965  29.274  23.027  1.00  0.00    -0.012 C 
BRANCH  12  16
ATOM     16  N   UNL A   1      29.286  32.234  23.024  1.00  0.00    -0.352 N 
ATOM     17  H   UNL A   1      28.805  32.199  23.923  1.00  0.00     0.345 HD
ATOM     18  H   UNL A   1      29.235  33.181  22.648  1.00  0.00     0.345 HD
ATOM     19  H   UNL A   1      30.264  31.972  23.151  1.00  0.00     0.345 HD
ENDBRANCH  12  16
ENDBRANCH   8  11
ENDBRANCH   6   7
ENDBRANCH   5   6
BRANCH   5  20
ATOM     20  O   UNL A   1      29.989  25.583  26.436  1.00  0.00    -0.380 OA
ATOM     21  H   UNL A   1      29.211  26.128  26.244  1.00  0.00     0.211 HD
ENDBRANCH   5  20
ENDBRANCH   3   5
ENDBRANCH   2   3
ENDBRANCH   1   2
BRANCH   1  22
ATOM     22  C   UNL A   1      33.643  28.657  26.145  1.00  0.00     0.275 C 
BRANCH  22  23
ATOM     23  O   UNL A   1      33.939  28.949  27.524  1.00  0.00    -0.458 OA
BRANCH  23  24
ATOM     24  C   UNL A   1      34.598  30.113  27.736  1.00  0.00     0.338 C 
ATOM     25  O   UNL A   1      34.123  31.235  27.802  1.00  0.00    -0.246 OA
BRANCH  24  26
ATOM     26  C   UNL A   1      35.961  29.792  28.186  1.00  0.00     0.060 A 
ATOM     27  C   UNL A   1      36.984  29.959  27.248  1.00  0.00     0.016 A 
ATOM     28  C   UNL A   1      36.248  29.366  29.484  1.00  0.00     0.016 A 
ATOM     29  C   UNL A   1      38.303  29.712  27.597  1.00  0.00     0.010 A 
ATOM     30  C   UNL A   1      37.574  29.101  29.833  1.00  0.00     0.010 A 
ATOM     31  C   UNL A   1      38.601  29.268  28.888  1.00  0.00    -0.014 A 
BRANCH  31  32
ATOM     32  C   UNL A   1      39.989  28.874  29.203  1.00  0.00     0.031 A 
ATOM     33  C   UNL A   1      40.869  29.856  29.918  1.00  0.00     0.074 A 
ATOM     34  C   UNL A   1      40.424  27.639  28.900  1.00  0.00     0.049 A 
ATOM     35  N   UNL A   1      42.135  29.758  30.221  1.00  0.00    -0.248 NA
ATOM     36  C   UNL A   1      40.236  31.114  30.352  1.00  0.00     0.031 C 
ATOM     37  C   UNL A   1      39.618  26.584  28.282  1.00  0.00     0.029 A 
ATOM     38  N   UNL A   1      41.653  27.062  29.078  1.00  0.00    -0.354 N 
ATOM     39  C   UNL A   1      42.459  30.949  30.861  1.00  0.00     0.074 A 
ATOM     40  C   UNL A   1      41.260  31.758  30.892  1.00  0.00     0.031 C 
ATOM     41  C   UNL A   1      40.378  25.486  28.132  1.00  0.00     0.029 A 
ATOM     42  C   UNL A   1      41.731  25.777  28.598  1.00  0.00     0.049 A 
ATOM     43  H   UNL A   1      42.409  27.522  29.510  1.00  0.00     0.167 HD
ATOM     44  C   UNL A   1      43.651  31.329  31.373  1.00  0.00     0.031 A 
ATOM     45  C   UNL A   1      42.787  24.944  28.516  1.00  0.00     0.031 A 
ATOM     46  C   UNL A   1      44.835  30.515  31.325  1.00  0.00     0.049 A 
ATOM     47  C   UNL A   1      44.122  25.423  29.017  1.00  0.00     0.074 A 
ATOM     48  C   UNL A   1      46.105  30.809  31.784  1.00  0.00     0.029 A 
ATOM     49  N   UNL A   1      44.888  29.236  30.788  1.00  0.00    -0.354 N 
ATOM     50  N   UNL A   1      44.427  26.568  29.581  1.00  0.00    -0.248 NA
ATOM     51  C   UNL A   1      45.256  24.502  28.866  1.00  0.00     0.031 C 
ATOM     52  C   UNL A   1      46.936  29.724  31.487  1.00  0.00     0.029 A 
ATOM     53  C   UNL A   1      46.171  28.732  30.891  1.00  0.00     0.049 A 
ATOM     54  H   UNL A   1      44.124  28.758  30.391  1.00  0.00     0.167 HD
ATOM     55  C   UNL A   1      45.784  26.498  29.873  1.00  0.00     0.074 A 
ATOM     56  C   UNL A   1      46.236  25.191  29.436  1.00  0.00     0.031 C 
ATOM     57  C   UNL A   1      46.587  27.426  30.448  1.00  0.00     0.031 A 
BRANCH  44  58
ATOM     58  C   UNL A   1      43.736  32.703  31.981  1.00  0.00    -0.014 A 
ATOM     59  C   UNL A   1      43.688  32.888  33.374  1.00  0.00     0.010 A 
ATOM     60  C   UNL A   1      43.876  33.824  31.144  1.00  0.00     0.010 A 
ATOM     61  C   UNL A   1      43.741  34.174  33.917  1.00  0.00     0.020 A 
ATOM     62  C   UNL A   1      43.954  35.110  31.685  1.00  0.00     0.020 A 
ATOM     63  C   UNL A   1      43.869  35.278  33.069  1.00  0.00     0.054 A 
BRANCH  63  64
ATOM     64  S   UNL A   1      43.948  36.936  33.800  1.00  0.00     0.124 S 
ATOM     65  O   UNL A   1      44.812  36.713  34.957  1.00  0.00    -0.237 OA
ATOM     66  O   UNL A   1      44.530  37.734  32.725  1.00  0.00    -0.237 OA
ATOM     67  O   UNL A   1      42.554  37.243  34.115  1.00  0.00    -0.744 OA
ENDBRANCH  63  64
ENDBRANCH  44  58
BRANCH  45  68
ATOM     68  C   UNL A   1      42.633  23.598  27.902  1.00  0.00    -0.014 A 
ATOM     69  C   UNL A   1      42.109  22.525  28.644  1.00  0.00     0.010 A 
ATOM     70  C   UNL A   1      43.014  23.380  26.565  1.00  0.00     0.010 A 
ATOM     71  C   UNL A   1      41.985  21.257  28.068  1.00  0.00     0.020 A 
ATOM     72  C   UNL A   1      42.867  22.120  25.977  1.00  0.00     0.020 A 
ATOM     73  C   UNL A   1      42.366  21.063  26.736  1.00  0.00     0.054 A 
BRANCH  73  74
ATOM     74  S   UNL A   1      42.156  19.421  25.993  1.00  0.00     0.124 S 
ATOM     75  O   UNL A   1      40.710  19.355  25.808  1.00  0.00    -0.237 OA
ATOM     76  O   UNL A   1      42.947  19.524  24.769  1.00  0.00    -0.237 OA
ATOM     77  O   UNL A   1      42.700  18.518  27.004  1.00  0.00    -0.744 OA
ENDBRANCH  73  74
ENDBRANCH  45  68
BRANCH  57  78
ATOM     78  C   UNL A   1      48.024  27.045  30.671  1.00  0.00    -0.014 A 
ATOM     79  C   UNL A   1      48.987  27.223  29.664  1.00  0.00     0.010 A 
ATOM     80  C   UNL A   1      48.422  26.555  31.929  1.00  0.00     0.010 A 
ATOM     81  C   UNL A   1      50.324  26.888  29.901  1.00  0.00     0.020 A 
ATOM     82  C   UNL A   1      49.760  26.244  32.178  1.00  0.00     0.020 A 
ATOM     83  C   UNL A   1      50.700  26.400  31.156  1.00  0.00     0.054 A 
BRANCH  83  84
ATOM     84  S   UNL A   1      52.447  26.017  31.457  1.00  0.00     0.124 S 
ATOM     85  O   UNL A   1      52.804  27.010  32.467  1.00  0.00    -0.237 OA
ATOM     86  O   UNL A   1      52.396  24.635  31.926  1.00  0.00    -0.237 OA
ATOM     87  O   UNL A   1      53.071  26.203  30.150  1.00  0.00    -0.744 OA
ENDBRANCH  83  84
ENDBRANCH  57  78
ENDBRANCH  31  32
ENDBRANCH  24  26
ENDBRANCH  23  24
ENDBRANCH  22  23
ENDBRANCH   1  22
TORSDOF 19
ENDMDL
