MODEL 1
REMARK VINA RESULT:      -9.7      0.000      0.000
REMARK SMILES O=C(OCCOC(=O)[C@@H]1CCc2[nH]ncc2C1)c1ccc(-c2c3nc(c(-c4ccc(S(=O)(=O)[O-])cc4)c4ccc([nH]4)c(-c4ccc(S(=O)(=O)[O-])cc4)c4nc(c(-c5ccc(S(=O)(=O)[O-])cc5)c5ccc2[nH]5)C=C4)C=C3)cc1
REMARK SMILES IDX 3 1 2 2 1 3 18 4 19 5 77 6 20 7 76 8 21 9 22 10 23 11 70 12
REMARK SMILES IDX 24 13 75 14 69 15 71 16 25 17 74 18 68 19 67 20 26 22 56 23
REMARK SMILES IDX 37 24 55 25 38 26 41 27 54 28 72 29 39 30 40 31 53 33 73 34
REMARK SMILES IDX 42 35 27 36 28 37 36 38 29 39 35 40 30 41 31 42 32 43 33 44
REMARK SMILES IDX 34 45 57 46 58 47 66 48 59 49 65 50 60 51 61 52 62 53 63 54
REMARK SMILES IDX 64 55 43 56 44 57 52 58 45 59 51 60 46 61 47 62 48 63 49 64
REMARK SMILES IDX 50 65 4 66 5 67 6 68 7 69 8 70 9 71 10 72 17 73 11 74 16 75
REMARK SMILES IDX 12 76 15 77 13 78 14 79
REMARK H PARENT 71 21 41 32 13 80
REMARK Flexibility Score: inf
ROOT
ATOM      1  O   UNL A   1      39.543  21.758  25.751  1.00  0.00    -0.458 OA
ENDROOT
BRANCH   1   2
ATOM      2  C   UNL A   1      38.837  22.836  26.159  1.00  0.00     0.338 C 
ATOM      3  O   UNL A   1      37.630  22.854  25.917  1.00  0.00    -0.246 OA
BRANCH   2   4
ATOM      4  C   UNL A   1      39.441  24.073  26.764  1.00  0.00     0.060 A 
ATOM      5  C   UNL A   1      40.176  25.064  26.104  1.00  0.00     0.016 A 
ATOM      6  C   UNL A   1      39.126  24.298  28.118  1.00  0.00     0.016 A 
ATOM      7  C   UNL A   1      40.478  26.284  26.720  1.00  0.00     0.010 A 
ATOM      8  C   UNL A   1      39.393  25.530  28.727  1.00  0.00     0.010 A 
ATOM      9  C   UNL A   1      40.054  26.544  28.020  1.00  0.00    -0.014 A 
BRANCH   9  10
ATOM     10  C   UNL A   1      40.431  27.810  28.693  1.00  0.00     0.031 A 
ATOM     11  C   UNL A   1      41.823  27.911  29.239  1.00  0.00     0.074 A 
ATOM     12  C   UNL A   1      39.572  28.846  28.794  1.00  0.00     0.049 A 
ATOM     13  N   UNL A   1      42.393  28.901  29.869  1.00  0.00    -0.248 NA
ATOM     14  C   UNL A   1      42.687  26.731  29.058  1.00  0.00     0.031 C 
ATOM     15  C   UNL A   1      38.205  28.867  28.274  1.00  0.00     0.029 A 
ATOM     16  N   UNL A   1      39.717  30.086  29.366  1.00  0.00    -0.354 N 
ATOM     17  C   UNL A   1      43.674  28.456  30.161  1.00  0.00     0.074 A 
ATOM     18  C   UNL A   1      43.768  27.082  29.729  1.00  0.00     0.031 C 
ATOM     19  C   UNL A   1      37.635  30.053  28.553  1.00  0.00     0.029 A 
ATOM     20  C   UNL A   1      38.592  30.878  29.284  1.00  0.00     0.049 A 
ATOM     21  H   UNL A   1      40.552  30.384  29.795  1.00  0.00     0.167 HD
ATOM     22  C   UNL A   1      44.709  29.147  30.687  1.00  0.00     0.031 A 
ATOM     23  C   UNL A   1      38.369  32.126  29.743  1.00  0.00     0.031 A 
ATOM     24  C   UNL A   1      44.609  30.513  31.104  1.00  0.00     0.049 A 
ATOM     25  C   UNL A   1      39.510  32.852  30.408  1.00  0.00     0.074 A 
ATOM     26  C   UNL A   1      45.589  31.325  31.641  1.00  0.00     0.029 A 
ATOM     27  N   UNL A   1      43.448  31.270  31.028  1.00  0.00    -0.354 N 
ATOM     28  N   UNL A   1      40.739  32.437  30.617  1.00  0.00    -0.248 NA
ATOM     29  C   UNL A   1      39.252  34.224  30.869  1.00  0.00     0.031 C 
ATOM     30  C   UNL A   1      45.005  32.560  31.936  1.00  0.00     0.029 A 
ATOM     31  C   UNL A   1      43.680  32.537  31.524  1.00  0.00     0.049 A 
ATOM     32  H   UNL A   1      42.587  30.950  30.672  1.00  0.00     0.167 HD
ATOM     33  C   UNL A   1      41.412  33.510  31.190  1.00  0.00     0.074 A 
ATOM     34  C   UNL A   1      40.455  34.595  31.288  1.00  0.00     0.031 C 
ATOM     35  C   UNL A   1      42.704  33.598  31.590  1.00  0.00     0.031 A 
BRANCH  22  36
ATOM     36  C   UNL A   1      46.008  28.406  30.824  1.00  0.00    -0.014 A 
ATOM     37  C   UNL A   1      46.956  28.419  29.782  1.00  0.00     0.010 A 
ATOM     38  C   UNL A   1      46.254  27.632  31.969  1.00  0.00     0.010 A 
ATOM     39  C   UNL A   1      48.094  27.616  29.853  1.00  0.00     0.020 A 
ATOM     40  C   UNL A   1      47.412  26.853  32.059  1.00  0.00     0.020 A 
ATOM     41  C   UNL A   1      48.311  26.833  30.991  1.00  0.00     0.054 A 
BRANCH  41  42
ATOM     42  S   UNL A   1      49.794  25.793  31.053  1.00  0.00     0.124 S 
ATOM     43  O   UNL A   1      49.806  25.205  29.715  1.00  0.00    -0.237 OA
ATOM     44  O   UNL A   1      50.853  26.762  31.321  1.00  0.00    -0.237 OA
ATOM     45  O   UNL A   1      49.517  24.858  32.141  1.00  0.00    -0.744 OA
ENDBRANCH  41  42
ENDBRANCH  22  36
BRANCH  23  46
ATOM     46  C   UNL A   1      37.039  32.787  29.569  1.00  0.00    -0.014 A 
ATOM     47  C   UNL A   1      36.712  33.445  28.368  1.00  0.00     0.010 A 
ATOM     48  C   UNL A   1      36.103  32.795  30.619  1.00  0.00     0.010 A 
ATOM     49  C   UNL A   1      35.493  34.120  28.232  1.00  0.00     0.020 A 
ATOM     50  C   UNL A   1      34.870  33.448  30.478  1.00  0.00     0.020 A 
ATOM     51  C   UNL A   1      34.579  34.117  29.288  1.00  0.00     0.054 A 
BRANCH  51  52
ATOM     52  S   UNL A   1      32.992  34.979  29.078  1.00  0.00     0.124 S 
ATOM     53  O   UNL A   1      32.325  34.151  28.080  1.00  0.00    -0.237 OA
ATOM     54  O   UNL A   1      32.430  34.928  30.425  1.00  0.00    -0.237 OA
ATOM     55  O   UNL A   1      33.386  36.312  28.626  1.00  0.00    -0.744 OA
ENDBRANCH  51  52
ENDBRANCH  23  46
BRANCH  35  56
ATOM     56  C   UNL A   1      43.178  34.922  32.120  1.00  0.00    -0.014 A 
ATOM     57  C   UNL A   1      43.777  35.874  31.278  1.00  0.00     0.010 A 
ATOM     58  C   UNL A   1      42.929  35.249  33.467  1.00  0.00     0.010 A 
ATOM     59  C   UNL A   1      44.134  37.126  31.779  1.00  0.00     0.020 A 
ATOM     60  C   UNL A   1      43.255  36.511  33.962  1.00  0.00     0.020 A 
ATOM     61  C   UNL A   1      43.865  37.439  33.116  1.00  0.00     0.054 A 
BRANCH  61  62
ATOM     62  S   UNL A   1      44.272  39.098  33.721  1.00  0.00     0.124 S 
ATOM     63  O   UNL A   1      44.707  38.824  35.088  1.00  0.00    -0.237 OA
ATOM     64  O   UNL A   1      45.322  39.525  32.800  1.00  0.00    -0.237 OA
ATOM     65  O   UNL A   1      43.012  39.830  33.602  1.00  0.00    -0.744 OA
ENDBRANCH  61  62
ENDBRANCH  35  56
ENDBRANCH   9  10
ENDBRANCH   2   4
ENDBRANCH   1   2
BRANCH   1  66
ATOM     66  C   UNL A   1      40.404  20.888  26.496  1.00  0.00     0.275 C 
BRANCH  66  67
ATOM     67  C   UNL A   1      41.875  21.321  26.520  1.00  0.00     0.274 C 
BRANCH  67  68
ATOM     68  O   UNL A   1      42.269  22.188  25.437  1.00  0.00    -0.462 OA
BRANCH  68  69
ATOM     69  C   UNL A   1      43.580  22.123  25.059  1.00  0.00     0.309 C 
ATOM     70  O   UNL A   1      44.108  21.126  24.574  1.00  0.00    -0.252 OA
BRANCH  69  71
ATOM     71  C   UNL A   1      44.346  23.414  25.313  1.00  0.00     0.104 C 
ATOM     72  C   UNL A   1      44.933  23.476  26.745  1.00  0.00     0.022 C 
ATOM     73  C   UNL A   1      43.453  24.622  25.015  1.00  0.00     0.054 C 
ATOM     74  C   UNL A   1      45.751  24.767  27.009  1.00  0.00     0.057 C 
ATOM     75  C   UNL A   1      44.067  25.892  25.460  1.00  0.00    -0.006 A 
ATOM     76  C   UNL A   1      45.074  25.934  26.392  1.00  0.00     0.038 A 
ATOM     77  C   UNL A   1      43.782  27.239  25.181  1.00  0.00     0.138 A 
ATOM     78  N   UNL A   1      45.315  27.253  26.639  1.00  0.00    -0.282 N 
ATOM     79  N   UNL A   1      44.565  28.071  25.873  1.00  0.00    -0.184 NA
ATOM     80  H   UNL A   1      45.967  27.573  27.304  1.00  0.00     0.190 HD
ENDBRANCH  69  71
ENDBRANCH  68  69
ENDBRANCH  67  68
ENDBRANCH  66  67
ENDBRANCH   1  66
TORSDOF 14
ENDMDL
MODEL 2
REMARK VINA RESULT:      -9.5      2.704     11.540
REMARK SMILES O=C(OCCOC(=O)[C@@H]1CCc2[nH]ncc2C1)c1ccc(-c2c3nc(c(-c4ccc(S(=O)(=O)[O-])cc4)c4ccc([nH]4)c(-c4ccc(S(=O)(=O)[O-])cc4)c4nc(c(-c5ccc(S(=O)(=O)[O-])cc5)c5ccc2[nH]5)C=C4)C=C3)cc1
REMARK SMILES IDX 3 1 2 2 1 3 18 4 19 5 77 6 20 7 76 8 21 9 22 10 23 11 70 12
REMARK SMILES IDX 24 13 75 14 69 15 71 16 25 17 74 18 68 19 67 20 26 22 56 23
REMARK SMILES IDX 37 24 55 25 38 26 41 27 54 28 72 29 39 30 40 31 53 33 73 34
REMARK SMILES IDX 42 35 27 36 28 37 36 38 29 39 35 40 30 41 31 42 32 43 33 44
REMARK SMILES IDX 34 45 57 46 58 47 66 48 59 49 65 50 60 51 61 52 62 53 63 54
REMARK SMILES IDX 64 55 43 56 44 57 52 58 45 59 51 60 46 61 47 62 48 63 49 64
REMARK SMILES IDX 50 65 4 66 5 67 6 68 7 69 8 70 9 71 10 72 17 73 11 74 16 75
REMARK SMILES IDX 12 76 15 77 13 78 14 79
REMARK H PARENT 71 21 41 32 13 80
REMARK Flexibility Score: inf
ROOT
ATOM      1  O   UNL A   1      33.797  31.613  27.449  1.00  0.00    -0.458 OA
ENDROOT
BRANCH   1   2
ATOM      2  C   UNL A   1      34.291  30.376  27.678  1.00  0.00     0.338 C 
ATOM      3  O   UNL A   1      33.514  29.425  27.591  1.00  0.00    -0.246 OA
BRANCH   2   4
ATOM      4  C   UNL A   1      35.685  30.091  28.166  1.00  0.00     0.060 A 
ATOM      5  C   UNL A   1      36.059  29.636  29.435  1.00  0.00     0.016 A 
ATOM      6  C   UNL A   1      36.697  30.189  27.191  1.00  0.00     0.016 A 
ATOM      7  C   UNL A   1      37.356  29.177  29.695  1.00  0.00     0.010 A 
ATOM      8  C   UNL A   1      37.984  29.698  27.435  1.00  0.00     0.010 A 
ATOM      9  C   UNL A   1      38.317  29.165  28.687  1.00  0.00    -0.014 A 
BRANCH   9  10
ATOM     10  C   UNL A   1      39.706  28.740  28.982  1.00  0.00     0.031 A 
ATOM     11  C   UNL A   1      40.594  29.724  29.680  1.00  0.00     0.074 A 
ATOM     12  C   UNL A   1      40.157  27.509  28.661  1.00  0.00     0.049 A 
ATOM     13  N   UNL A   1      41.841  29.599  30.044  1.00  0.00    -0.248 NA
ATOM     14  C   UNL A   1      39.997  31.033  30.004  1.00  0.00     0.031 C 
ATOM     15  C   UNL A   1      39.372  26.462  28.007  1.00  0.00     0.029 A 
ATOM     16  N   UNL A   1      41.386  26.922  28.842  1.00  0.00    -0.354 N 
ATOM     17  C   UNL A   1      42.171  30.812  30.631  1.00  0.00     0.074 A 
ATOM     18  C   UNL A   1      41.034  31.690  30.489  1.00  0.00     0.031 C 
ATOM     19  C   UNL A   1      40.134  25.367  27.836  1.00  0.00     0.029 A 
ATOM     20  C   UNL A   1      41.470  25.634  28.358  1.00  0.00     0.049 A 
ATOM     21  H   UNL A   1      42.139  27.381  29.280  1.00  0.00     0.167 HD
ATOM     22  C   UNL A   1      43.302  31.152  31.287  1.00  0.00     0.031 A 
ATOM     23  C   UNL A   1      42.508  24.774  28.347  1.00  0.00     0.031 A 
ATOM     24  C   UNL A   1      44.421  30.272  31.431  1.00  0.00     0.049 A 
ATOM     25  C   UNL A   1      43.794  25.203  29.008  1.00  0.00     0.074 A 
ATOM     26  C   UNL A   1      45.618  30.496  32.083  1.00  0.00     0.029 A 
ATOM     27  N   UNL A   1      44.477  28.988  30.906  1.00  0.00    -0.354 N 
ATOM     28  N   UNL A   1      44.067  26.334  29.617  1.00  0.00    -0.248 NA
ATOM     29  C   UNL A   1      44.899  24.234  29.013  1.00  0.00     0.031 C 
ATOM     30  C   UNL A   1      46.418  29.364  31.909  1.00  0.00     0.029 A 
ATOM     31  C   UNL A   1      45.696  28.411  31.204  1.00  0.00     0.049 A 
ATOM     32  H   UNL A   1      43.755  28.553  30.397  1.00  0.00     0.167 HD
ATOM     33  C   UNL A   1      45.357  26.196  30.118  1.00  0.00     0.074 A 
ATOM     34  C   UNL A   1      45.806  24.869  29.745  1.00  0.00     0.031 C 
ATOM     35  C   UNL A   1      46.100  27.078  30.829  1.00  0.00     0.031 A 
BRANCH  22  36
ATOM     36  C   UNL A   1      43.343  32.532  31.879  1.00  0.00    -0.014 A 
ATOM     37  C   UNL A   1      43.824  33.622  31.128  1.00  0.00     0.010 A 
ATOM     38  C   UNL A   1      42.969  32.731  33.218  1.00  0.00     0.010 A 
ATOM     39  C   UNL A   1      43.994  34.871  31.725  1.00  0.00     0.020 A 
ATOM     40  C   UNL A   1      43.106  33.989  33.810  1.00  0.00     0.020 A 
ATOM     41  C   UNL A   1      43.639  35.045  33.066  1.00  0.00     0.054 A 
BRANCH  41  42
ATOM     42  S   UNL A   1      43.880  36.675  33.819  1.00  0.00     0.124 S 
ATOM     43  O   UNL A   1      44.217  37.497  32.658  1.00  0.00    -0.237 OA
ATOM     44  O   UNL A   1      42.577  36.945  34.420  1.00  0.00    -0.237 OA
ATOM     45  O   UNL A   1      44.969  36.462  34.769  1.00  0.00    -0.744 OA
ENDBRANCH  41  42
ENDBRANCH  22  36
BRANCH  23  46
ATOM     46  C   UNL A   1      42.382  23.419  27.728  1.00  0.00    -0.014 A 
ATOM     47  C   UNL A   1      41.853  22.338  28.459  1.00  0.00     0.010 A 
ATOM     48  C   UNL A   1      42.825  23.190  26.412  1.00  0.00     0.010 A 
ATOM     49  C   UNL A   1      41.798  21.055  27.899  1.00  0.00     0.020 A 
ATOM     50  C   UNL A   1      42.748  21.913  25.840  1.00  0.00     0.020 A 
ATOM     51  C   UNL A   1      42.245  20.851  26.592  1.00  0.00     0.054 A 
BRANCH  51  52
ATOM     52  S   UNL A   1      42.139  19.182  25.880  1.00  0.00     0.124 S 
ATOM     53  O   UNL A   1      40.710  19.051  25.622  1.00  0.00    -0.237 OA
ATOM     54  O   UNL A   1      42.990  19.294  24.698  1.00  0.00    -0.237 OA
ATOM     55  O   UNL A   1      42.667  18.325  26.939  1.00  0.00    -0.744 OA
ENDBRANCH  51  52
ENDBRANCH  23  46
BRANCH  35  56
ATOM     56  C   UNL A   1      47.454  26.625  31.300  1.00  0.00    -0.014 A 
ATOM     57  C   UNL A   1      47.619  25.982  32.538  1.00  0.00     0.010 A 
ATOM     58  C   UNL A   1      48.559  26.761  30.439  1.00  0.00     0.010 A 
ATOM     59  C   UNL A   1      48.873  25.498  32.914  1.00  0.00     0.020 A 
ATOM     60  C   UNL A   1      49.806  26.250  30.799  1.00  0.00     0.020 A 
ATOM     61  C   UNL A   1      49.957  25.630  32.039  1.00  0.00     0.054 A 
BRANCH  61  62
ATOM     62  S   UNL A   1      51.556  24.928  32.522  1.00  0.00     0.124 S 
ATOM     63  O   UNL A   1      51.682  25.381  33.904  1.00  0.00    -0.237 OA
ATOM     64  O   UNL A   1      51.342  23.494  32.347  1.00  0.00    -0.237 OA
ATOM     65  O   UNL A   1      52.498  25.531  31.580  1.00  0.00    -0.744 OA
ENDBRANCH  61  62
ENDBRANCH  35  56
ENDBRANCH   9  10
ENDBRANCH   2   4
ENDBRANCH   1   2
BRANCH   1  66
ATOM     66  C   UNL A   1      33.696  32.740  28.328  1.00  0.00     0.275 C 
BRANCH  66  67
ATOM     67  C   UNL A   1      34.440  33.990  27.843  1.00  0.00     0.274 C 
BRANCH  67  68
ATOM     68  O   UNL A   1      34.624  35.013  28.842  1.00  0.00    -0.462 OA
BRANCH  68  69
ATOM     69  C   UNL A   1      33.495  35.448  29.475  1.00  0.00     0.309 C 
ATOM     70  O   UNL A   1      32.540  35.967  28.902  1.00  0.00    -0.252 OA
BRANCH  69  71
ATOM     71  C   UNL A   1      33.531  35.244  30.983  1.00  0.00     0.104 C 
ATOM     72  C   UNL A   1      33.699  36.578  31.752  1.00  0.00     0.022 C 
ATOM     73  C   UNL A   1      34.627  34.238  31.350  1.00  0.00     0.054 C 
ATOM     74  C   UNL A   1      33.700  36.393  33.292  1.00  0.00     0.057 C 
ATOM     75  C   UNL A   1      34.859  34.174  32.810  1.00  0.00    -0.006 A 
ATOM     76  C   UNL A   1      34.468  35.179  33.660  1.00  0.00     0.038 A 
ATOM     77  C   UNL A   1      35.535  33.255  33.629  1.00  0.00     0.138 A 
ATOM     78  N   UNL A   1      34.935  34.841  34.895  1.00  0.00    -0.282 N 
ATOM     79  N   UNL A   1      35.552  33.642  34.908  1.00  0.00    -0.184 NA
ATOM     80  H   UNL A   1      34.832  35.411  35.692  1.00  0.00     0.190 HD
ENDBRANCH  69  71
ENDBRANCH  68  69
ENDBRANCH  67  68
ENDBRANCH  66  67
ENDBRANCH   1  66
TORSDOF 14
ENDMDL
MODEL 3
REMARK VINA RESULT:      -9.4      3.597     11.538
REMARK SMILES O=C(OCCOC(=O)[C@@H]1CCc2[nH]ncc2C1)c1ccc(-c2c3nc(c(-c4ccc(S(=O)(=O)[O-])cc4)c4ccc([nH]4)c(-c4ccc(S(=O)(=O)[O-])cc4)c4nc(c(-c5ccc(S(=O)(=O)[O-])cc5)c5ccc2[nH]5)C=C4)C=C3)cc1
REMARK SMILES IDX 3 1 2 2 1 3 18 4 19 5 77 6 20 7 76 8 21 9 22 10 23 11 70 12
REMARK SMILES IDX 24 13 75 14 69 15 71 16 25 17 74 18 68 19 67 20 26 22 56 23
REMARK SMILES IDX 37 24 55 25 38 26 41 27 54 28 72 29 39 30 40 31 53 33 73 34
REMARK SMILES IDX 42 35 27 36 28 37 36 38 29 39 35 40 30 41 31 42 32 43 33 44
REMARK SMILES IDX 34 45 57 46 58 47 66 48 59 49 65 50 60 51 61 52 62 53 63 54
REMARK SMILES IDX 64 55 43 56 44 57 52 58 45 59 51 60 46 61 47 62 48 63 49 64
REMARK SMILES IDX 50 65 4 66 5 67 6 68 7 69 8 70 9 71 10 72 17 73 11 74 16 75
REMARK SMILES IDX 12 76 15 77 13 78 14 79
REMARK H PARENT 71 21 41 32 13 80
REMARK Flexibility Score: inf
ROOT
ATOM      1  O   UNL A   1      34.605  33.146  27.818  1.00  0.00    -0.458 OA
ENDROOT
BRANCH   1   2
ATOM      2  C   UNL A   1      34.925  31.832  27.845  1.00  0.00     0.338 C 
ATOM      3  O   UNL A   1      34.182  31.051  27.251  1.00  0.00    -0.246 OA
BRANCH   2   4
ATOM      4  C   UNL A   1      36.042  31.243  28.661  1.00  0.00     0.060 A 
ATOM      5  C   UNL A   1      36.074  29.980  29.261  1.00  0.00     0.016 A 
ATOM      6  C   UNL A   1      37.218  32.016  28.720  1.00  0.00     0.016 A 
ATOM      7  C   UNL A   1      37.259  29.449  29.788  1.00  0.00     0.010 A 
ATOM      8  C   UNL A   1      38.412  31.477  29.211  1.00  0.00     0.010 A 
ATOM      9  C   UNL A   1      38.445  30.176  29.730  1.00  0.00    -0.014 A 
BRANCH   9  10
ATOM     10  C   UNL A   1      39.683  29.639  30.346  1.00  0.00     0.031 A 
ATOM     11  C   UNL A   1      40.170  30.301  31.599  1.00  0.00     0.074 A 
ATOM     12  C   UNL A   1      40.338  28.582  29.822  1.00  0.00     0.049 A 
ATOM     13  N   UNL A   1      41.220  30.027  32.323  1.00  0.00    -0.248 NA
ATOM     14  C   UNL A   1      39.369  31.433  32.099  1.00  0.00     0.031 C 
ATOM     15  C   UNL A   1      39.938  27.845  28.624  1.00  0.00     0.029 A 
ATOM     16  N   UNL A   1      41.481  27.938  30.228  1.00  0.00    -0.354 N 
ATOM     17  C   UNL A   1      41.203  30.955  33.354  1.00  0.00     0.074 A 
ATOM     18  C   UNL A   1      40.102  31.856  33.111  1.00  0.00     0.031 C 
ATOM     19  C   UNL A   1      40.819  26.857  28.388  1.00  0.00     0.029 A 
ATOM     20  C   UNL A   1      41.858  26.893  29.412  1.00  0.00     0.049 A 
ATOM     21  H   UNL A   1      41.987  28.199  31.032  1.00  0.00     0.167 HD
ATOM     22  C   UNL A   1      41.996  31.019  34.446  1.00  0.00     0.031 A 
ATOM     23  C   UNL A   1      42.917  26.062  29.492  1.00  0.00     0.031 A 
ATOM     24  C   UNL A   1      43.080  30.114  34.683  1.00  0.00     0.049 A 
ATOM     25  C   UNL A   1      43.844  26.205  30.672  1.00  0.00     0.074 A 
ATOM     26  C   UNL A   1      43.948  30.070  35.756  1.00  0.00     0.029 A 
ATOM     27  N   UNL A   1      43.443  29.088  33.822  1.00  0.00    -0.354 N 
ATOM     28  N   UNL A   1      43.774  27.051  31.675  1.00  0.00    -0.248 NA
ATOM     29  C   UNL A   1      44.971  25.266  30.755  1.00  0.00     0.031 C 
ATOM     30  C   UNL A   1      44.869  29.047  35.519  1.00  0.00     0.029 A 
ATOM     31  C   UNL A   1      44.535  28.413  34.330  1.00  0.00     0.049 A 
ATOM     32  H   UNL A   1      42.989  28.874  32.974  1.00  0.00     0.167 HD
ATOM     33  C   UNL A   1      44.818  26.716  32.530  1.00  0.00     0.074 A 
ATOM     34  C   UNL A   1      45.500  25.586  31.928  1.00  0.00     0.031 C 
ATOM     35  C   UNL A   1      45.177  27.280  33.709  1.00  0.00     0.031 A 
BRANCH  22  36
ATOM     36  C   UNL A   1      41.690  32.110  35.432  1.00  0.00    -0.014 A 
ATOM     37  C   UNL A   1      40.790  31.887  36.493  1.00  0.00     0.010 A 
ATOM     38  C   UNL A   1      42.246  33.387  35.258  1.00  0.00     0.010 A 
ATOM     39  C   UNL A   1      40.399  32.941  37.320  1.00  0.00     0.020 A 
ATOM     40  C   UNL A   1      41.884  34.437  36.106  1.00  0.00     0.020 A 
ATOM     41  C   UNL A   1      40.945  34.211  37.116  1.00  0.00     0.054 A 
BRANCH  41  42
ATOM     42  S   UNL A   1      40.413  35.563  38.199  1.00  0.00     0.124 S 
ATOM     43  O   UNL A   1      39.570  34.862  39.166  1.00  0.00    -0.237 OA
ATOM     44  O   UNL A   1      41.679  36.069  38.724  1.00  0.00    -0.237 OA
ATOM     45  O   UNL A   1      39.706  36.472  37.300  1.00  0.00    -0.744 OA
ENDBRANCH  41  42
ENDBRANCH  22  36
BRANCH  23  46
ATOM     46  C   UNL A   1      43.150  25.006  28.459  1.00  0.00    -0.014 A 
ATOM     47  C   UNL A   1      43.884  25.288  27.292  1.00  0.00     0.010 A 
ATOM     48  C   UNL A   1      42.606  23.718  28.620  1.00  0.00     0.010 A 
ATOM     49  C   UNL A   1      44.044  24.317  26.296  1.00  0.00     0.020 A 
ATOM     50  C   UNL A   1      42.786  22.735  27.637  1.00  0.00     0.020 A 
ATOM     51  C   UNL A   1      43.494  23.045  26.475  1.00  0.00     0.054 A 
BRANCH  51  52
ATOM     52  S   UNL A   1      43.737  21.794  25.179  1.00  0.00     0.124 S 
ATOM     53  O   UNL A   1      42.664  20.848  25.463  1.00  0.00    -0.237 OA
ATOM     54  O   UNL A   1      43.586  22.579  23.956  1.00  0.00    -0.237 OA
ATOM     55  O   UNL A   1      45.090  21.303  25.431  1.00  0.00    -0.744 OA
ENDBRANCH  51  52
ENDBRANCH  23  46
BRANCH  35  56
ATOM     56  C   UNL A   1      46.322  26.658  34.456  1.00  0.00    -0.014 A 
ATOM     57  C   UNL A   1      47.639  27.121  34.294  1.00  0.00     0.010 A 
ATOM     58  C   UNL A   1      46.054  25.656  35.409  1.00  0.00     0.010 A 
ATOM     59  C   UNL A   1      48.671  26.579  35.061  1.00  0.00     0.020 A 
ATOM     60  C   UNL A   1      47.080  25.136  36.199  1.00  0.00     0.020 A 
ATOM     61  C   UNL A   1      48.384  25.595  36.012  1.00  0.00     0.054 A 
BRANCH  61  62
ATOM     62  S   UNL A   1      49.732  24.962  37.045  1.00  0.00     0.124 S 
ATOM     63  O   UNL A   1      49.124  24.960  38.372  1.00  0.00    -0.237 OA
ATOM     64  O   UNL A   1      49.984  23.644  36.467  1.00  0.00    -0.237 OA
ATOM     65  O   UNL A   1      50.804  25.936  36.851  1.00  0.00    -0.744 OA
ENDBRANCH  61  62
ENDBRANCH  35  56
ENDBRANCH   9  10
ENDBRANCH   2   4
ENDBRANCH   1   2
BRANCH   1  66
ATOM     66  C   UNL A   1      33.337  33.787  28.001  1.00  0.00     0.275 C 
BRANCH  66  67
ATOM     67  C   UNL A   1      33.355  34.950  29.000  1.00  0.00     0.274 C 
BRANCH  67  68
ATOM     68  O   UNL A   1      33.111  34.578  30.371  1.00  0.00    -0.462 OA
BRANCH  68  69
ATOM     69  C   UNL A   1      33.816  35.265  31.318  1.00  0.00     0.309 C 
ATOM     70  O   UNL A   1      33.601  36.436  31.622  1.00  0.00    -0.252 OA
BRANCH  69  71
ATOM     71  C   UNL A   1      34.923  34.442  31.961  1.00  0.00     0.104 C 
ATOM     72  C   UNL A   1      34.765  32.926  31.684  1.00  0.00     0.022 C 
ATOM     73  C   UNL A   1      34.990  34.737  33.463  1.00  0.00     0.054 C 
ATOM     74  C   UNL A   1      35.906  32.075  32.300  1.00  0.00     0.057 C 
ATOM     75  C   UNL A   1      35.889  33.803  34.175  1.00  0.00    -0.006 A 
ATOM     76  C   UNL A   1      36.254  32.589  33.647  1.00  0.00     0.038 A 
ATOM     77  C   UNL A   1      36.472  33.827  35.453  1.00  0.00     0.138 A 
ATOM     78  N   UNL A   1      36.986  31.956  34.608  1.00  0.00    -0.282 N 
ATOM     79  N   UNL A   1      37.170  32.716  35.706  1.00  0.00    -0.184 NA
ATOM     80  H   UNL A   1      37.341  31.043  34.510  1.00  0.00     0.190 HD
ENDBRANCH  69  71
ENDBRANCH  68  69
ENDBRANCH  67  68
ENDBRANCH  66  67
ENDBRANCH   1  66
TORSDOF 14
ENDMDL
