MODEL 1
REMARK VINA RESULT:     -10.6      0.000      0.000
REMARK SMILES Cc1cc(F)c([C@](C)(NC=O)C(=O)OCCOC(=O)c2ccc(-c3c4nc(c(-c5ccc(S(=O)(=O)[O-])cc5)c5ccc([nH]5)c(-c5ccc(S(=O)(=O)[O-])cc5)c5nc(c(-c6ccc(S(=O)(=O)[O-])cc6)c6ccc3[nH]6)C=C5)C=C4)cc2)cc1F
REMARK SMILES IDX 16 1 15 2 14 3 12 4 13 5 7 6 8 7 6 8 1 9 2 10 3 11 81 12
REMARK SMILES IDX 4 13 80 14 82 15 5 16 9 17 10 18 11 20 17 21 18 22 19 23
REMARK SMILES IDX 20 24 21 25 79 26 22 27 78 28 23 29 24 30 25 31 72 32 26 33
REMARK SMILES IDX 77 34 71 35 73 36 27 37 76 38 70 39 69 40 28 42 58 43 39 44
REMARK SMILES IDX 57 45 40 46 43 47 56 48 74 49 41 50 42 51 55 53 75 54 44 55
REMARK SMILES IDX 29 56 30 57 38 58 31 59 37 60 32 61 33 62 34 63 35 64 36 65
REMARK SMILES IDX 59 66 60 67 68 68 61 69 67 70 62 71 63 72 64 73 65 74 66 75
REMARK SMILES IDX 45 76 46 77 54 78 47 79 53 80 48 81 49 82 50 83 51 84 52 85
REMARK H PARENT 9 19 73 41 43 52
REMARK Flexibility Score: inf
ROOT
ATOM      1  C   UNL A   1      37.242  21.691  24.938  1.00  0.00     0.275 C 
ENDROOT
BRANCH   1   2
ATOM      2  C   UNL A   1      35.969  21.569  25.774  1.00  0.00     0.274 C 
BRANCH   2   3
ATOM      3  O   UNL A   1      34.938  22.464  25.311  1.00  0.00    -0.460 OA
BRANCH   3   4
ATOM      4  C   UNL A   1      34.030  22.868  26.241  1.00  0.00     0.336 C 
ATOM      5  O   UNL A   1      34.285  22.986  27.438  1.00  0.00    -0.249 OA
BRANCH   4   6
ATOM      6  C   UNL A   1      32.599  23.137  25.645  1.00  0.00     0.163 C 
ATOM      7  C   UNL A   1      32.144  21.856  24.913  1.00  0.00     0.053 C 
BRANCH   6   8
ATOM      8  C   UNL A   1      32.778  24.334  24.685  1.00  0.00     0.027 A 
ATOM      9  C   UNL A   1      33.835  27.661  22.107  1.00  0.00     0.047 C 
ATOM     10  C   UNL A   1      33.414  26.540  23.004  1.00  0.00    -0.012 A 
ATOM     11  C   UNL A   1      33.486  26.665  24.392  1.00  0.00     0.046 A 
ATOM     12  C   UNL A   1      33.024  25.311  22.469  1.00  0.00     0.126 A 
ATOM     13  C   UNL A   1      33.177  25.576  25.208  1.00  0.00     0.129 A 
ATOM     14  C   UNL A   1      32.702  24.226  23.286  1.00  0.00     0.049 A 
ATOM     15  F   UNL A   1      32.979  25.151  21.140  1.00  0.00    -0.207 F 
ATOM     16  F   UNL A   1      33.303  25.734  26.534  1.00  0.00    -0.207 F 
ENDBRANCH   6   8
BRANCH   6  17
ATOM     17  N   UNL A   1      31.560  23.474  26.635  1.00  0.00    -0.339 N 
ATOM     18  C   UNL A   1      30.361  22.844  26.786  1.00  0.00     0.338 C 
ATOM     19  H   UNL A   1      31.749  24.224  27.244  1.00  0.00     0.164 HD
ATOM     20  O   UNL A   1      29.492  23.272  27.533  1.00  0.00    -0.279 OA
ENDBRANCH   6  17
ENDBRANCH   4   6
ENDBRANCH   3   4
ENDBRANCH   2   3
ENDBRANCH   1   2
BRANCH   1  21
ATOM     21  O   UNL A   1      37.942  22.915  25.227  1.00  0.00    -0.458 OA
BRANCH  21  22
ATOM     22  C   UNL A   1      38.934  22.809  26.135  1.00  0.00     0.338 C 
ATOM     23  O   UNL A   1      39.620  21.825  26.374  1.00  0.00    -0.246 OA
BRANCH  22  24
ATOM     24  C   UNL A   1      39.186  24.118  26.746  1.00  0.00     0.060 A 
ATOM     25  C   UNL A   1      38.823  24.383  28.063  1.00  0.00     0.016 A 
ATOM     26  C   UNL A   1      39.925  25.044  26.014  1.00  0.00     0.016 A 
ATOM     27  C   UNL A   1      39.209  25.599  28.641  1.00  0.00     0.010 A 
ATOM     28  C   UNL A   1      40.371  26.216  26.610  1.00  0.00     0.010 A 
ATOM     29  C   UNL A   1      40.008  26.513  27.927  1.00  0.00    -0.014 A 
BRANCH  29  30
ATOM     30  C   UNL A   1      40.504  27.766  28.550  1.00  0.00     0.031 A 
ATOM     31  C   UNL A   1      41.943  27.890  28.974  1.00  0.00     0.074 A 
ATOM     32  C   UNL A   1      39.636  28.769  28.788  1.00  0.00     0.049 A 
ATOM     33  N   UNL A   1      42.545  28.907  29.535  1.00  0.00    -0.248 NA
ATOM     34  C   UNL A   1      42.814  26.719  28.770  1.00  0.00     0.031 C 
ATOM     35  C   UNL A   1      38.203  28.734  28.488  1.00  0.00     0.029 A 
ATOM     36  N   UNL A   1      39.830  30.017  29.327  1.00  0.00    -0.354 N 
ATOM     37  C   UNL A   1      43.858  28.500  29.749  1.00  0.00     0.074 A 
ATOM     38  C   UNL A   1      43.952  27.125  29.314  1.00  0.00     0.031 C 
ATOM     39  C   UNL A   1      37.661  29.924  28.790  1.00  0.00     0.029 A 
ATOM     40  C   UNL A   1      38.695  30.795  29.340  1.00  0.00     0.049 A 
ATOM     41  H   UNL A   1      40.699  30.326  29.673  1.00  0.00     0.167 HD
ATOM     42  C   UNL A   1      44.896  29.220  30.230  1.00  0.00     0.031 A 
ATOM     43  C   UNL A   1      38.509  32.070  29.734  1.00  0.00     0.031 A 
ATOM     44  C   UNL A   1      44.800  30.599  30.627  1.00  0.00     0.049 A 
ATOM     45  C   UNL A   1      39.680  32.854  30.253  1.00  0.00     0.074 A 
ATOM     46  C   UNL A   1      45.814  31.436  31.058  1.00  0.00     0.029 A 
ATOM     47  N   UNL A   1      43.632  31.344  30.630  1.00  0.00    -0.354 N 
ATOM     48  N   UNL A   1      40.928  32.473  30.380  1.00  0.00    -0.248 NA
ATOM     49  C   UNL A   1      39.425  34.238  30.678  1.00  0.00     0.031 C 
ATOM     50  C   UNL A   1      45.251  32.676  31.366  1.00  0.00     0.029 A 
ATOM     51  C   UNL A   1      43.896  32.627  31.076  1.00  0.00     0.049 A 
ATOM     52  H   UNL A   1      42.747  31.013  30.357  1.00  0.00     0.167 HD
ATOM     53  C   UNL A   1      41.610  33.570  30.890  1.00  0.00     0.074 A 
ATOM     54  C   UNL A   1      40.642  34.638  31.033  1.00  0.00     0.031 C 
ATOM     55  C   UNL A   1      42.921  33.679  31.213  1.00  0.00     0.031 A 
BRANCH  42  56
ATOM     56  C   UNL A   1      46.248  28.562  30.314  1.00  0.00    -0.014 A 
ATOM     57  C   UNL A   1      47.156  28.671  29.244  1.00  0.00     0.010 A 
ATOM     58  C   UNL A   1      46.565  27.724  31.398  1.00  0.00     0.010 A 
ATOM     59  C   UNL A   1      48.340  27.931  29.243  1.00  0.00     0.020 A 
ATOM     60  C   UNL A   1      47.760  27.001  31.412  1.00  0.00     0.020 A 
ATOM     61  C   UNL A   1      48.630  27.091  30.321  1.00  0.00     0.054 A 
BRANCH  61  62
ATOM     62  S   UNL A   1      50.154  26.108  30.290  1.00  0.00     0.124 S 
ATOM     63  O   UNL A   1      49.754  24.943  29.505  1.00  0.00    -0.237 OA
ATOM     64  O   UNL A   1      51.104  27.009  29.643  1.00  0.00    -0.237 OA
ATOM     65  O   UNL A   1      50.422  25.848  31.704  1.00  0.00    -0.744 OA
ENDBRANCH  61  62
ENDBRANCH  42  56
BRANCH  43  66
ATOM     66  C   UNL A   1      37.165  32.689  29.581  1.00  0.00    -0.014 A 
ATOM     67  C   UNL A   1      36.757  33.226  28.346  1.00  0.00     0.010 A 
ATOM     68  C   UNL A   1      36.321  32.821  30.697  1.00  0.00     0.010 A 
ATOM     69  C   UNL A   1      35.549  33.923  28.240  1.00  0.00     0.020 A 
ATOM     70  C   UNL A   1      35.101  33.497  30.590  1.00  0.00     0.020 A 
ATOM     71  C   UNL A   1      34.737  34.067  29.368  1.00  0.00     0.054 A 
BRANCH  71  72
ATOM     72  S   UNL A   1      33.193  35.010  29.225  1.00  0.00     0.124 S 
ATOM     73  O   UNL A   1      32.453  34.223  28.242  1.00  0.00    -0.237 OA
ATOM     74  O   UNL A   1      32.666  34.976  30.586  1.00  0.00    -0.237 OA
ATOM     75  O   UNL A   1      33.639  36.324  28.766  1.00  0.00    -0.744 OA
ENDBRANCH  71  72
ENDBRANCH  43  66
BRANCH  55  76
ATOM     76  C   UNL A   1      43.412  34.985  31.772  1.00  0.00    -0.014 A 
ATOM     77  C   UNL A   1      43.243  35.266  33.141  1.00  0.00     0.010 A 
ATOM     78  C   UNL A   1      43.875  35.995  30.912  1.00  0.00     0.010 A 
ATOM     79  C   UNL A   1      43.483  36.551  33.632  1.00  0.00     0.020 A 
ATOM     80  C   UNL A   1      44.137  37.276  31.404  1.00  0.00     0.020 A 
ATOM     81  C   UNL A   1      43.909  37.553  32.755  1.00  0.00     0.054 A 
BRANCH  81  82
ATOM     82  S   UNL A   1      44.144  39.233  33.396  1.00  0.00     0.124 S 
ATOM     83  O   UNL A   1      44.865  38.989  34.640  1.00  0.00    -0.237 OA
ATOM     84  O   UNL A   1      44.916  39.878  32.336  1.00  0.00    -0.237 OA
ATOM     85  O   UNL A   1      42.779  39.733  33.552  1.00  0.00    -0.744 OA
ENDBRANCH  81  82
ENDBRANCH  55  76
ENDBRANCH  29  30
ENDBRANCH  22  24
ENDBRANCH  21  22
ENDBRANCH   1  21
TORSDOF 16
ENDMDL
MODEL 2
REMARK VINA RESULT:     -10.4      3.442      5.666
REMARK SMILES Cc1cc(F)c([C@](C)(NC=O)C(=O)OCCOC(=O)c2ccc(-c3c4nc(c(-c5ccc(S(=O)(=O)[O-])cc5)c5ccc([nH]5)c(-c5ccc(S(=O)(=O)[O-])cc5)c5nc(c(-c6ccc(S(=O)(=O)[O-])cc6)c6ccc3[nH]6)C=C5)C=C4)cc2)cc1F
REMARK SMILES IDX 16 1 15 2 14 3 12 4 13 5 7 6 8 7 6 8 1 9 2 10 3 11 81 12
REMARK SMILES IDX 4 13 80 14 82 15 5 16 9 17 10 18 11 20 17 21 18 22 19 23
REMARK SMILES IDX 20 24 21 25 79 26 22 27 78 28 23 29 24 30 25 31 72 32 26 33
REMARK SMILES IDX 77 34 71 35 73 36 27 37 76 38 70 39 69 40 28 42 58 43 39 44
REMARK SMILES IDX 57 45 40 46 43 47 56 48 74 49 41 50 42 51 55 53 75 54 44 55
REMARK SMILES IDX 29 56 30 57 38 58 31 59 37 60 32 61 33 62 34 63 35 64 36 65
REMARK SMILES IDX 59 66 60 67 68 68 61 69 67 70 62 71 63 72 64 73 65 74 66 75
REMARK SMILES IDX 45 76 46 77 54 78 47 79 53 80 48 81 49 82 50 83 51 84 52 85
REMARK H PARENT 9 19 73 41 43 52
REMARK Flexibility Score: inf
ROOT
ATOM      1  C   UNL A   1      40.497  21.766  26.195  1.00  0.00     0.275 C 
ENDROOT
BRANCH   1   2
ATOM      2  C   UNL A   1      41.281  21.117  27.334  1.00  0.00     0.274 C 
BRANCH   2   3
ATOM      3  O   UNL A   1      42.701  21.329  27.194  1.00  0.00    -0.460 OA
BRANCH   3   4
ATOM      4  C   UNL A   1      43.118  22.624  27.178  1.00  0.00     0.336 C 
ATOM      5  O   UNL A   1      42.682  23.490  27.933  1.00  0.00    -0.249 OA
BRANCH   4   6
ATOM      6  C   UNL A   1      44.192  22.924  26.069  1.00  0.00     0.163 C 
ATOM      7  C   UNL A   1      45.444  22.075  26.380  1.00  0.00     0.053 C 
BRANCH   6   8
ATOM      8  C   UNL A   1      44.467  24.440  26.171  1.00  0.00     0.027 A 
ATOM      9  C   UNL A   1      45.686  28.605  26.125  1.00  0.00     0.047 C 
ATOM     10  C   UNL A   1      45.240  27.179  26.198  1.00  0.00    -0.012 A 
ATOM     11  C   UNL A   1      45.993  26.224  26.884  1.00  0.00     0.046 A 
ATOM     12  C   UNL A   1      44.106  26.754  25.503  1.00  0.00     0.126 A 
ATOM     13  C   UNL A   1      45.608  24.883  26.861  1.00  0.00     0.129 A 
ATOM     14  C   UNL A   1      43.714  25.414  25.492  1.00  0.00     0.049 A 
ATOM     15  F   UNL A   1      43.384  27.641  24.807  1.00  0.00    -0.207 F 
ATOM     16  F   UNL A   1      46.388  23.999  27.500  1.00  0.00    -0.207 F 
ENDBRANCH   6   8
BRANCH   6  17
ATOM     17  N   UNL A   1      43.775  22.608  24.690  1.00  0.00    -0.339 N 
ATOM     18  C   UNL A   1      44.604  22.389  23.631  1.00  0.00     0.338 C 
ATOM     19  H   UNL A   1      42.807  22.550  24.518  1.00  0.00     0.164 HD
ATOM     20  O   UNL A   1      44.182  22.275  22.489  1.00  0.00    -0.279 OA
ENDBRANCH   6  17
ENDBRANCH   4   6
ENDBRANCH   3   4
ENDBRANCH   2   3
ENDBRANCH   1   2
BRANCH   1  21
ATOM     21  O   UNL A   1      39.119  21.971  26.560  1.00  0.00    -0.458 OA
BRANCH  21  22
ATOM     22  C   UNL A   1      38.577  23.129  26.127  1.00  0.00     0.338 C 
ATOM     23  O   UNL A   1      37.607  23.267  25.395  1.00  0.00    -0.246 OA
BRANCH  22  24
ATOM     24  C   UNL A   1      39.248  24.260  26.774  1.00  0.00     0.060 A 
ATOM     25  C   UNL A   1      40.006  25.168  26.040  1.00  0.00     0.016 A 
ATOM     26  C   UNL A   1      38.992  24.481  28.126  1.00  0.00     0.016 A 
ATOM     27  C   UNL A   1      40.512  26.305  26.681  1.00  0.00     0.010 A 
ATOM     28  C   UNL A   1      39.430  25.646  28.743  1.00  0.00     0.010 A 
ATOM     29  C   UNL A   1      40.205  26.566  28.031  1.00  0.00    -0.014 A 
BRANCH  29  30
ATOM     30  C   UNL A   1      40.654  27.809  28.706  1.00  0.00     0.031 A 
ATOM     31  C   UNL A   1      42.066  27.936  29.211  1.00  0.00     0.074 A 
ATOM     32  C   UNL A   1      39.765  28.800  28.918  1.00  0.00     0.049 A 
ATOM     33  N   UNL A   1      42.628  28.945  29.826  1.00  0.00    -0.248 NA
ATOM     34  C   UNL A   1      42.958  26.777  29.030  1.00  0.00     0.031 C 
ATOM     35  C   UNL A   1      38.351  28.759  28.538  1.00  0.00     0.029 A 
ATOM     36  N   UNL A   1      39.917  30.037  29.492  1.00  0.00    -0.354 N 
ATOM     37  C   UNL A   1      43.930  28.545  30.103  1.00  0.00     0.074 A 
ATOM     38  C   UNL A   1      44.061  27.181  29.646  1.00  0.00     0.031 C 
ATOM     39  C   UNL A   1      37.782  29.938  28.835  1.00  0.00     0.029 A 
ATOM     40  C   UNL A   1      38.776  30.805  29.459  1.00  0.00     0.049 A 
ATOM     41  H   UNL A   1      40.763  30.345  29.892  1.00  0.00     0.167 HD
ATOM     42  C   UNL A   1      44.933  29.263  30.656  1.00  0.00     0.031 A 
ATOM     43  C   UNL A   1      38.556  32.070  29.869  1.00  0.00     0.031 A 
ATOM     44  C   UNL A   1      44.803  30.632  31.076  1.00  0.00     0.049 A 
ATOM     45  C   UNL A   1      39.690  32.853  30.469  1.00  0.00     0.074 A 
ATOM     46  C   UNL A   1      45.784  31.468  31.580  1.00  0.00     0.029 A 
ATOM     47  N   UNL A   1      43.630  31.368  31.031  1.00  0.00    -0.354 N 
ATOM     48  N   UNL A   1      40.933  32.478  30.655  1.00  0.00    -0.248 NA
ATOM     49  C   UNL A   1      39.399  34.224  30.908  1.00  0.00     0.031 C 
ATOM     50  C   UNL A   1      45.193  32.697  31.882  1.00  0.00     0.029 A 
ATOM     51  C   UNL A   1      43.857  32.643  31.517  1.00  0.00     0.049 A 
ATOM     52  H   UNL A   1      42.763  31.035  30.702  1.00  0.00     0.167 HD
ATOM     53  C   UNL A   1      41.575  33.571  31.226  1.00  0.00     0.074 A 
ATOM     54  C   UNL A   1      40.590  34.627  31.337  1.00  0.00     0.031 C 
ATOM     55  C   UNL A   1      42.865  33.683  31.623  1.00  0.00     0.031 A 
BRANCH  42  56
ATOM     56  C   UNL A   1      46.285  28.615  30.800  1.00  0.00    -0.014 A 
ATOM     57  C   UNL A   1      46.672  28.051  32.030  1.00  0.00     0.010 A 
ATOM     58  C   UNL A   1      47.224  28.687  29.755  1.00  0.00     0.010 A 
ATOM     59  C   UNL A   1      47.980  27.599  32.222  1.00  0.00     0.020 A 
ATOM     60  C   UNL A   1      48.525  28.214  29.934  1.00  0.00     0.020 A 
ATOM     61  C   UNL A   1      48.902  27.694  31.176  1.00  0.00     0.054 A 
BRANCH  61  62
ATOM     62  S   UNL A   1      50.607  27.137  31.448  1.00  0.00     0.124 S 
ATOM     63  O   UNL A   1      50.565  26.685  32.836  1.00  0.00    -0.237 OA
ATOM     64  O   UNL A   1      50.765  26.086  30.446  1.00  0.00    -0.237 OA
ATOM     65  O   UNL A   1      51.402  28.339  31.205  1.00  0.00    -0.744 OA
ENDBRANCH  61  62
ENDBRANCH  42  56
BRANCH  43  66
ATOM     66  C   UNL A   1      37.217  32.681  29.655  1.00  0.00    -0.014 A 
ATOM     67  C   UNL A   1      36.894  33.296  28.432  1.00  0.00     0.010 A 
ATOM     68  C   UNL A   1      36.289  32.726  30.710  1.00  0.00     0.010 A 
ATOM     69  C   UNL A   1      35.685  33.983  28.281  1.00  0.00     0.020 A 
ATOM     70  C   UNL A   1      35.068  33.392  30.555  1.00  0.00     0.020 A 
ATOM     71  C   UNL A   1      34.787  34.039  29.350  1.00  0.00     0.054 A 
BRANCH  71  72
ATOM     72  S   UNL A   1      33.242  34.970  29.153  1.00  0.00     0.124 S 
ATOM     73  O   UNL A   1      32.724  34.981  30.518  1.00  0.00    -0.237 OA
ATOM     74  O   UNL A   1      33.705  36.259  28.644  1.00  0.00    -0.237 OA
ATOM     75  O   UNL A   1      32.480  34.166  28.200  1.00  0.00    -0.744 OA
ENDBRANCH  71  72
ENDBRANCH  43  66
BRANCH  55  76
ATOM     76  C   UNL A   1      43.313  34.981  32.235  1.00  0.00    -0.014 A 
ATOM     77  C   UNL A   1      43.111  35.210  33.609  1.00  0.00     0.010 A 
ATOM     78  C   UNL A   1      43.766  36.031  31.419  1.00  0.00     0.010 A 
ATOM     79  C   UNL A   1      43.309  36.483  34.148  1.00  0.00     0.020 A 
ATOM     80  C   UNL A   1      43.986  37.300  31.959  1.00  0.00     0.020 A 
ATOM     81  C   UNL A   1      43.726  37.525  33.314  1.00  0.00     0.054 A 
BRANCH  81  82
ATOM     82  S   UNL A   1      43.906  39.187  34.016  1.00  0.00     0.124 S 
ATOM     83  O   UNL A   1      43.869  38.921  35.450  1.00  0.00    -0.237 OA
ATOM     84  O   UNL A   1      45.197  39.623  33.489  1.00  0.00    -0.237 OA
ATOM     85  O   UNL A   1      42.750  39.909  33.485  1.00  0.00    -0.744 OA
ENDBRANCH  81  82
ENDBRANCH  55  76
ENDBRANCH  29  30
ENDBRANCH  22  24
ENDBRANCH  21  22
ENDBRANCH   1  21
TORSDOF 16
ENDMDL
MODEL 3
REMARK VINA RESULT:     -10.4      3.023      9.580
REMARK SMILES Cc1cc(F)c([C@](C)(NC=O)C(=O)OCCOC(=O)c2ccc(-c3c4nc(c(-c5ccc(S(=O)(=O)[O-])cc5)c5ccc([nH]5)c(-c5ccc(S(=O)(=O)[O-])cc5)c5nc(c(-c6ccc(S(=O)(=O)[O-])cc6)c6ccc3[nH]6)C=C5)C=C4)cc2)cc1F
REMARK SMILES IDX 16 1 15 2 14 3 12 4 13 5 7 6 8 7 6 8 1 9 2 10 3 11 81 12
REMARK SMILES IDX 4 13 80 14 82 15 5 16 9 17 10 18 11 20 17 21 18 22 19 23
REMARK SMILES IDX 20 24 21 25 79 26 22 27 78 28 23 29 24 30 25 31 72 32 26 33
REMARK SMILES IDX 77 34 71 35 73 36 27 37 76 38 70 39 69 40 28 42 58 43 39 44
REMARK SMILES IDX 57 45 40 46 43 47 56 48 74 49 41 50 42 51 55 53 75 54 44 55
REMARK SMILES IDX 29 56 30 57 38 58 31 59 37 60 32 61 33 62 34 63 35 64 36 65
REMARK SMILES IDX 59 66 60 67 68 68 61 69 67 70 62 71 63 72 64 73 65 74 66 75
REMARK SMILES IDX 45 76 46 77 54 78 47 79 53 80 48 81 49 82 50 83 51 84 52 85
REMARK H PARENT 9 19 73 41 43 52
REMARK Flexibility Score: inf
ROOT
ATOM      1  C   UNL A   1      32.222  30.275  26.979  1.00  0.00     0.275 C 
ENDROOT
BRANCH   1   2
ATOM      2  C   UNL A   1      32.011  29.682  25.587  1.00  0.00     0.274 C 
BRANCH   2   3
ATOM      3  O   UNL A   1      31.441  28.359  25.650  1.00  0.00    -0.460 OA
BRANCH   3   4
ATOM      4  C   UNL A   1      32.274  27.329  25.336  1.00  0.00     0.336 C 
ATOM      5  O   UNL A   1      33.269  27.031  25.993  1.00  0.00    -0.249 OA
BRANCH   4   6
ATOM      6  C   UNL A   1      31.866  26.571  24.019  1.00  0.00     0.163 C 
ATOM      7  C   UNL A   1      30.395  26.924  23.708  1.00  0.00     0.053 C 
BRANCH   6   8
ATOM      8  C   UNL A   1      32.059  25.072  24.339  1.00  0.00     0.027 A 
ATOM      9  C   UNL A   1      32.126  20.775  24.941  1.00  0.00     0.047 C 
ATOM     10  C   UNL A   1      32.134  22.263  24.788  1.00  0.00    -0.012 A 
ATOM     11  C   UNL A   1      31.173  23.055  25.419  1.00  0.00     0.046 A 
ATOM     12  C   UNL A   1      33.048  22.884  23.936  1.00  0.00     0.126 A 
ATOM     13  C   UNL A   1      31.141  24.431  25.189  1.00  0.00     0.129 A 
ATOM     14  C   UNL A   1      33.025  24.263  23.717  1.00  0.00     0.049 A 
ATOM     15  F   UNL A   1      33.959  22.146  23.289  1.00  0.00    -0.207 F 
ATOM     16  F   UNL A   1      30.173  25.141  25.786  1.00  0.00    -0.207 F 
ENDBRANCH   6   8
BRANCH   6  17
ATOM     17  N   UNL A   1      32.664  26.910  22.827  1.00  0.00    -0.339 N 
ATOM     18  C   UNL A   1      33.670  27.827  22.769  1.00  0.00     0.338 C 
ATOM     19  H   UNL A   1      32.451  26.428  21.995  1.00  0.00     0.164 HD
ATOM     20  O   UNL A   1      34.189  28.156  21.711  1.00  0.00    -0.279 OA
ENDBRANCH   6  17
ENDBRANCH   4   6
ENDBRANCH   3   4
ENDBRANCH   2   3
ENDBRANCH   1   2
BRANCH   1  21
ATOM     21  O   UNL A   1      33.463  29.828  27.555  1.00  0.00    -0.458 OA
BRANCH  21  22
ATOM     22  C   UNL A   1      34.390  30.792  27.739  1.00  0.00     0.338 C 
ATOM     23  O   UNL A   1      34.208  32.001  27.775  1.00  0.00    -0.246 OA
BRANCH  22  24
ATOM     24  C   UNL A   1      35.689  30.178  28.032  1.00  0.00     0.060 A 
ATOM     25  C   UNL A   1      36.734  30.223  27.114  1.00  0.00     0.016 A 
ATOM     26  C   UNL A   1      35.891  29.667  29.313  1.00  0.00     0.016 A 
ATOM     27  C   UNL A   1      37.993  29.744  27.496  1.00  0.00     0.010 A 
ATOM     28  C   UNL A   1      37.157  29.261  29.715  1.00  0.00     0.010 A 
ATOM     29  C   UNL A   1      38.220  29.284  28.807  1.00  0.00    -0.014 A 
BRANCH  29  30
ATOM     30  C   UNL A   1      39.568  28.856  29.260  1.00  0.00     0.031 A 
ATOM     31  C   UNL A   1      40.405  29.760  30.124  1.00  0.00     0.074 A 
ATOM     32  C   UNL A   1      40.058  27.674  28.837  1.00  0.00     0.049 A 
ATOM     33  N   UNL A   1      41.603  29.550  30.608  1.00  0.00    -0.248 NA
ATOM     34  C   UNL A   1      39.845  31.078  30.470  1.00  0.00     0.031 C 
ATOM     35  C   UNL A   1      39.367  26.747  27.938  1.00  0.00     0.029 A 
ATOM     36  N   UNL A   1      41.246  27.043  29.113  1.00  0.00    -0.354 N 
ATOM     37  C   UNL A   1      41.936  30.703  31.311  1.00  0.00     0.074 A 
ATOM     38  C   UNL A   1      40.843  31.633  31.143  1.00  0.00     0.031 C 
ATOM     39  C   UNL A   1      40.115  25.643  27.785  1.00  0.00     0.029 A 
ATOM     40  C   UNL A   1      41.353  25.796  28.543  1.00  0.00     0.049 A 
ATOM     41  H   UNL A   1      41.954  27.445  29.666  1.00  0.00     0.167 HD
ATOM     42  C   UNL A   1      43.037  30.947  32.056  1.00  0.00     0.031 A 
ATOM     43  C   UNL A   1      42.329  24.870  28.630  1.00  0.00     0.031 A 
ATOM     44  C   UNL A   1      44.103  30.001  32.246  1.00  0.00     0.049 A 
ATOM     45  C   UNL A   1      43.537  25.159  29.475  1.00  0.00     0.074 A 
ATOM     46  C   UNL A   1      45.226  30.128  33.044  1.00  0.00     0.029 A 
ATOM     47  N   UNL A   1      44.174  28.754  31.645  1.00  0.00    -0.354 N 
ATOM     48  N   UNL A   1      43.799  26.227  30.190  1.00  0.00    -0.248 NA
ATOM     49  C   UNL A   1      44.578  24.123  29.533  1.00  0.00     0.031 C 
ATOM     50  C   UNL A   1      46.001  28.976  32.890  1.00  0.00     0.029 A 
ATOM     51  C   UNL A   1      45.333  28.110  32.039  1.00  0.00     0.049 A 
ATOM     52  H   UNL A   1      43.502  28.382  31.030  1.00  0.00     0.167 HD
ATOM     53  C   UNL A   1      45.030  25.989  30.790  1.00  0.00     0.074 A 
ATOM     54  C   UNL A   1      45.454  24.669  30.370  1.00  0.00     0.031 C 
ATOM     55  C   UNL A   1      45.742  26.795  31.611  1.00  0.00     0.031 A 
BRANCH  42  56
ATOM     56  C   UNL A   1      43.140  32.267  32.775  1.00  0.00    -0.014 A 
ATOM     57  C   UNL A   1      42.700  32.383  34.106  1.00  0.00     0.010 A 
ATOM     58  C   UNL A   1      43.546  33.423  32.085  1.00  0.00     0.010 A 
ATOM     59  C   UNL A   1      42.637  33.635  34.724  1.00  0.00     0.020 A 
ATOM     60  C   UNL A   1      43.508  34.673  32.706  1.00  0.00     0.020 A 
ATOM     61  C   UNL A   1      43.031  34.774  34.015  1.00  0.00     0.054 A 
BRANCH  61  62
ATOM     62  S   UNL A   1      42.910  36.397  34.816  1.00  0.00     0.124 S 
ATOM     63  O   UNL A   1      41.498  36.456  35.183  1.00  0.00    -0.237 OA
ATOM     64  O   UNL A   1      43.846  36.275  35.931  1.00  0.00    -0.237 OA
ATOM     65  O   UNL A   1      43.324  37.327  33.767  1.00  0.00    -0.744 OA
ENDBRANCH  61  62
ENDBRANCH  42  56
BRANCH  43  66
ATOM     66  C   UNL A   1      42.155  23.562  27.944  1.00  0.00    -0.014 A 
ATOM     67  C   UNL A   1      41.461  22.509  28.569  1.00  0.00     0.010 A 
ATOM     68  C   UNL A   1      42.759  23.337  26.695  1.00  0.00     0.010 A 
ATOM     69  C   UNL A   1      41.414  21.243  27.978  1.00  0.00     0.020 A 
ATOM     70  C   UNL A   1      42.693  22.079  26.089  1.00  0.00     0.020 A 
ATOM     71  C   UNL A   1      42.044  21.033  26.748  1.00  0.00     0.054 A 
BRANCH  71  72
ATOM     72  S   UNL A   1      42.009  19.373  26.015  1.00  0.00     0.124 S 
ATOM     73  O   UNL A   1      42.532  18.554  27.106  1.00  0.00    -0.237 OA
ATOM     74  O   UNL A   1      40.594  19.185  25.708  1.00  0.00    -0.237 OA
ATOM     75  O   UNL A   1      42.884  19.497  24.851  1.00  0.00    -0.744 OA
ENDBRANCH  71  72
ENDBRANCH  43  66
BRANCH  55  76
ATOM     76  C   UNL A   1      47.071  26.306  32.117  1.00  0.00    -0.014 A 
ATOM     77  C   UNL A   1      48.211  26.415  31.298  1.00  0.00     0.010 A 
ATOM     78  C   UNL A   1      47.150  25.583  33.319  1.00  0.00     0.010 A 
ATOM     79  C   UNL A   1      49.396  25.766  31.652  1.00  0.00     0.020 A 
ATOM     80  C   UNL A   1      48.340  24.953  33.686  1.00  0.00     0.020 A 
ATOM     81  C   UNL A   1      49.447  25.023  32.834  1.00  0.00     0.054 A 
BRANCH  81  82
ATOM     82  S   UNL A   1      50.970  24.127  33.240  1.00  0.00     0.124 S 
ATOM     83  O   UNL A   1      51.146  23.274  32.069  1.00  0.00    -0.237 OA
ATOM     84  O   UNL A   1      51.948  25.203  33.388  1.00  0.00    -0.237 OA
ATOM     85  O   UNL A   1      50.635  23.426  34.479  1.00  0.00    -0.744 OA
ENDBRANCH  81  82
ENDBRANCH  55  76
ENDBRANCH  29  30
ENDBRANCH  22  24
ENDBRANCH  21  22
ENDBRANCH   1  21
TORSDOF 16
ENDMDL
