MODEL 1
REMARK VINA RESULT:      -8.2      0.000      0.000
REMARK SMILES C=CCN(CC(=O)OCCOC(=O)c1ccc(-c2c3nc(c(-c4ccc(S(=O)(=O)[O-])cc4)c4ccc([nH]4)c(-c4ccc(S(=O)(=O)[O-])cc4)c4nc(c(-c5ccc(S(=O)(=O)[O-])cc5)c5ccc2[nH]5)C=C4)C=C3)cc1)C(=O)C[NH3+]
REMARK SMILES IDX 9 1 8 2 6 3 7 4 5 5 4 6 3 7 2 8 1 9 74 10 75 11 76 12 77 13
REMARK SMILES IDX 10 17 11 18 12 19 13 20 14 21 15 22 73 23 16 24 72 25 17 26
REMARK SMILES IDX 18 27 19 28 66 29 20 30 71 31 65 32 67 33 21 34 70 35 64 36
REMARK SMILES IDX 63 37 22 39 52 40 33 41 51 42 34 43 37 44 50 45 68 46 35 47
REMARK SMILES IDX 36 48 49 50 69 51 38 52 23 53 24 54 32 55 25 56 31 57 26 58
REMARK SMILES IDX 27 59 28 60 29 61 30 62 53 63 54 64 62 65 55 66 61 67 56 68
REMARK SMILES IDX 57 69 58 70 59 71 60 72 39 73 40 74 48 75 41 76 47 77 42 78
REMARK SMILES IDX 43 79 44 80 45 81 46 82
REMARK H PARENT 77 14 77 15 77 16 67 38 37 49
REMARK Flexibility Score: inf
ROOT
ATOM      1  C   UNL A   1      34.084  34.087  29.063  1.00  0.00     0.274 C 
ENDROOT
BRANCH   1   2
ATOM      2  O   UNL A   1      33.824  33.611  30.399  1.00  0.00    -0.461 OA
BRANCH   2   3
ATOM      3  C   UNL A   1      34.926  33.438  31.182  1.00  0.00     0.325 C 
ATOM      4  O   UNL A   1      35.484  32.360  31.366  1.00  0.00    -0.250 OA
BRANCH   3   5
ATOM      5  C   UNL A   1      35.497  34.748  31.719  1.00  0.00     0.242 C 
BRANCH   5   6
ATOM      6  N   UNL A   1      34.758  35.385  32.815  1.00  0.00    -0.323 N 
BRANCH   6   7
ATOM      7  C   UNL A   1      34.866  34.754  34.118  1.00  0.00     0.147 C 
BRANCH   7   8
ATOM      8  C   UNL A   1      36.321  34.462  34.359  1.00  0.00    -0.014 C 
ATOM      9  C   UNL A   1      36.772  33.346  34.947  1.00  0.00     0.006 C 
ENDBRANCH   7   8
ENDBRANCH   6   7
BRANCH   6  10
ATOM     10  C   UNL A   1      34.002  36.549  32.718  1.00  0.00     0.278 C 
ATOM     11  O   UNL A   1      34.155  37.490  33.505  1.00  0.00    -0.268 OA
BRANCH  10  12
ATOM     12  C   UNL A   1      32.963  36.676  31.599  1.00  0.00     0.360 C 
BRANCH  12  13
ATOM     13  N   UNL A   1      33.419  37.586  30.536  1.00  0.00    -0.350 N 
ATOM     14  H   UNL A   1      34.415  37.440  30.368  1.00  0.00     0.344 HD
ATOM     15  H   UNL A   1      33.260  38.551  30.823  1.00  0.00     0.344 HD
ATOM     16  H   UNL A   1      32.898  37.395  29.680  1.00  0.00     0.344 HD
ENDBRANCH  12  13
ENDBRANCH  10  12
ENDBRANCH   6  10
ENDBRANCH   5   6
ENDBRANCH   3   5
ENDBRANCH   2   3
ENDBRANCH   1   2
BRANCH   1  17
ATOM     17  C   UNL A   1      33.426  33.163  28.038  1.00  0.00     0.275 C 
BRANCH  17  18
ATOM     18  O   UNL A   1      34.443  32.479  27.285  1.00  0.00    -0.458 OA
BRANCH  18  19
ATOM     19  C   UNL A   1      34.524  31.143  27.480  1.00  0.00     0.338 C 
ATOM     20  O   UNL A   1      33.740  30.298  27.068  1.00  0.00    -0.246 OA
BRANCH  19  21
ATOM     21  C   UNL A   1      35.737  30.798  28.256  1.00  0.00     0.060 A 
ATOM     22  C   UNL A   1      36.927  31.514  28.106  1.00  0.00     0.016 A 
ATOM     23  C   UNL A   1      35.711  29.670  29.080  1.00  0.00     0.016 A 
ATOM     24  C   UNL A   1      38.098  31.065  28.720  1.00  0.00     0.010 A 
ATOM     25  C   UNL A   1      36.863  29.281  29.773  1.00  0.00     0.010 A 
ATOM     26  C   UNL A   1      38.077  29.960  29.586  1.00  0.00    -0.014 A 
BRANCH  26  27
ATOM     27  C   UNL A   1      39.307  29.542  30.318  1.00  0.00     0.031 A 
ATOM     28  C   UNL A   1      39.724  30.227  31.596  1.00  0.00     0.074 A 
ATOM     29  C   UNL A   1      40.074  28.550  29.822  1.00  0.00     0.049 A 
ATOM     30  N   UNL A   1      40.825  30.078  32.290  1.00  0.00    -0.248 NA
ATOM     31  C   UNL A   1      38.794  31.219  32.160  1.00  0.00     0.031 C 
ATOM     32  C   UNL A   1      39.797  27.792  28.599  1.00  0.00     0.029 A 
ATOM     33  N   UNL A   1      41.243  28.001  30.290  1.00  0.00    -0.354 N 
ATOM     34  C   UNL A   1      40.743  30.983  33.341  1.00  0.00     0.074 A 
ATOM     35  C   UNL A   1      39.484  31.682  33.195  1.00  0.00     0.031 C 
ATOM     36  C   UNL A   1      40.739  26.850  28.439  1.00  0.00     0.029 A 
ATOM     37  C   UNL A   1      41.728  26.984  29.501  1.00  0.00     0.049 A 
ATOM     38  H   UNL A   1      41.691  28.306  31.112  1.00  0.00     0.167 HD
ATOM     39  C   UNL A   1      41.637  31.217  34.335  1.00  0.00     0.031 A 
ATOM     40  C   UNL A   1      42.855  26.255  29.595  1.00  0.00     0.031 A 
ATOM     41  C   UNL A   1      42.878  30.507  34.504  1.00  0.00     0.049 A 
ATOM     42  C   UNL A   1      43.827  26.533  30.702  1.00  0.00     0.074 A 
ATOM     43  C   UNL A   1      43.830  30.663  35.497  1.00  0.00     0.029 A 
ATOM     44  N   UNL A   1      43.336  29.500  33.669  1.00  0.00    -0.354 N 
ATOM     45  N   UNL A   1      43.742  27.419  31.665  1.00  0.00    -0.248 NA
ATOM     46  C   UNL A   1      45.052  25.723  30.725  1.00  0.00     0.031 C 
ATOM     47  C   UNL A   1      44.882  29.773  35.243  1.00  0.00     0.029 A 
ATOM     48  C   UNL A   1      44.564  29.036  34.115  1.00  0.00     0.049 A 
ATOM     49  H   UNL A   1      42.860  29.165  32.875  1.00  0.00     0.167 HD
ATOM     50  C   UNL A   1      44.909  27.278  32.407  1.00  0.00     0.074 A 
ATOM     51  C   UNL A   1      45.665  26.201  31.799  1.00  0.00     0.031 C 
ATOM     52  C   UNL A   1      45.319  27.985  33.487  1.00  0.00     0.031 A 
BRANCH  39  53
ATOM     53  C   UNL A   1      41.318  32.318  35.313  1.00  0.00    -0.014 A 
ATOM     54  C   UNL A   1      41.777  33.630  35.109  1.00  0.00     0.010 A 
ATOM     55  C   UNL A   1      40.497  32.042  36.421  1.00  0.00     0.010 A 
ATOM     56  C   UNL A   1      41.444  34.643  36.014  1.00  0.00     0.020 A 
ATOM     57  C   UNL A   1      40.144  33.056  37.317  1.00  0.00     0.020 A 
ATOM     58  C   UNL A   1      40.632  34.348  37.115  1.00  0.00     0.054 A 
BRANCH  58  59
ATOM     59  S   UNL A   1      40.184  35.684  38.257  1.00  0.00     0.124 S 
ATOM     60  O   UNL A   1      39.089  35.079  39.011  1.00  0.00    -0.237 OA
ATOM     61  O   UNL A   1      41.420  35.897  39.008  1.00  0.00    -0.237 OA
ATOM     62  O   UNL A   1      39.802  36.781  37.372  1.00  0.00    -0.744 OA
ENDBRANCH  58  59
ENDBRANCH  39  53
BRANCH  40  63
ATOM     63  C   UNL A   1      43.137  25.208  28.577  1.00  0.00    -0.014 A 
ATOM     64  C   UNL A   1      42.609  23.914  28.724  1.00  0.00     0.010 A 
ATOM     65  C   UNL A   1      43.895  25.517  27.433  1.00  0.00     0.010 A 
ATOM     66  C   UNL A   1      42.834  22.946  27.742  1.00  0.00     0.020 A 
ATOM     67  C   UNL A   1      44.099  24.559  26.439  1.00  0.00     0.020 A 
ATOM     68  C   UNL A   1      43.573  23.276  26.603  1.00  0.00     0.054 A 
BRANCH  68  69
ATOM     69  S   UNL A   1      43.778  22.039  25.291  1.00  0.00     0.124 S 
ATOM     70  O   UNL A   1      43.672  22.855  24.086  1.00  0.00    -0.237 OA
ATOM     71  O   UNL A   1      45.103  21.490  25.569  1.00  0.00    -0.237 OA
ATOM     72  O   UNL A   1      42.670  21.115  25.524  1.00  0.00    -0.744 OA
ENDBRANCH  68  69
ENDBRANCH  40  63
BRANCH  52  73
ATOM     73  C   UNL A   1      46.651  27.607  34.073  1.00  0.00    -0.014 A 
ATOM     74  C   UNL A   1      46.747  26.605  35.056  1.00  0.00     0.010 A 
ATOM     75  C   UNL A   1      47.817  28.264  33.645  1.00  0.00     0.010 A 
ATOM     76  C   UNL A   1      47.980  26.301  35.636  1.00  0.00     0.020 A 
ATOM     77  C   UNL A   1      49.056  27.949  34.210  1.00  0.00     0.020 A 
ATOM     78  C   UNL A   1      49.126  26.984  35.218  1.00  0.00     0.054 A 
BRANCH  78  79
ATOM     79  S   UNL A   1      50.719  26.583  35.986  1.00  0.00     0.124 S 
ATOM     80  O   UNL A   1      50.327  26.301  37.364  1.00  0.00    -0.237 OA
ATOM     81  O   UNL A   1      51.172  25.429  35.213  1.00  0.00    -0.237 OA
ATOM     82  O   UNL A   1      51.507  27.799  35.797  1.00  0.00    -0.744 OA
ENDBRANCH  78  79
ENDBRANCH  52  73
ENDBRANCH  26  27
ENDBRANCH  19  21
ENDBRANCH  18  19
ENDBRANCH  17  18
ENDBRANCH   1  17
TORSDOF 20
ENDMDL
MODEL 2
REMARK VINA RESULT:      -7.8      5.776      7.036
REMARK SMILES C=CCN(CC(=O)OCCOC(=O)c1ccc(-c2c3nc(c(-c4ccc(S(=O)(=O)[O-])cc4)c4ccc([nH]4)c(-c4ccc(S(=O)(=O)[O-])cc4)c4nc(c(-c5ccc(S(=O)(=O)[O-])cc5)c5ccc2[nH]5)C=C4)C=C3)cc1)C(=O)C[NH3+]
REMARK SMILES IDX 9 1 8 2 6 3 7 4 5 5 4 6 3 7 2 8 1 9 74 10 75 11 76 12 77 13
REMARK SMILES IDX 10 17 11 18 12 19 13 20 14 21 15 22 73 23 16 24 72 25 17 26
REMARK SMILES IDX 18 27 19 28 66 29 20 30 71 31 65 32 67 33 21 34 70 35 64 36
REMARK SMILES IDX 63 37 22 39 52 40 33 41 51 42 34 43 37 44 50 45 68 46 35 47
REMARK SMILES IDX 36 48 49 50 69 51 38 52 23 53 24 54 32 55 25 56 31 57 26 58
REMARK SMILES IDX 27 59 28 60 29 61 30 62 53 63 54 64 62 65 55 66 61 67 56 68
REMARK SMILES IDX 57 69 58 70 59 71 60 72 39 73 40 74 48 75 41 76 47 77 42 78
REMARK SMILES IDX 43 79 44 80 45 81 46 82
REMARK H PARENT 77 14 77 15 77 16 67 38 37 49
REMARK Flexibility Score: inf
ROOT
ATOM      1  C   UNL A   1      35.064  31.602  27.904  1.00  0.00     0.274 C 
ENDROOT
BRANCH   1   2
ATOM      2  O   UNL A   1      34.284  32.047  29.033  1.00  0.00    -0.461 OA
BRANCH   2   3
ATOM      3  C   UNL A   1      34.826  33.072  29.749  1.00  0.00     0.325 C 
ATOM      4  O   UNL A   1      34.453  34.239  29.682  1.00  0.00    -0.250 OA
BRANCH   3   5
ATOM      5  C   UNL A   1      35.875  32.613  30.761  1.00  0.00     0.242 C 
BRANCH   5   6
ATOM      6  N   UNL A   1      36.855  33.617  31.189  1.00  0.00    -0.323 N 
BRANCH   6   7
ATOM      7  C   UNL A   1      37.820  34.042  30.191  1.00  0.00     0.147 C 
BRANCH   7   8
ATOM      8  C   UNL A   1      38.460  32.805  29.627  1.00  0.00    -0.014 C 
ATOM      9  C   UNL A   1      39.529  32.202  30.167  1.00  0.00     0.006 C 
ENDBRANCH   7   8
ENDBRANCH   6   7
BRANCH   6  10
ATOM     10  C   UNL A   1      36.913  34.215  32.444  1.00  0.00     0.278 C 
ATOM     11  O   UNL A   1      37.976  34.317  33.067  1.00  0.00    -0.268 OA
BRANCH  10  12
ATOM     12  C   UNL A   1      35.629  34.775  33.066  1.00  0.00     0.360 C 
BRANCH  12  13
ATOM     13  N   UNL A   1      35.052  35.850  32.243  1.00  0.00    -0.350 N 
ATOM     14  H   UNL A   1      34.061  35.952  32.463  1.00  0.00     0.344 HD
ATOM     15  H   UNL A   1      35.159  35.618  31.257  1.00  0.00     0.344 HD
ATOM     16  H   UNL A   1      35.536  36.726  32.442  1.00  0.00     0.344 HD
ENDBRANCH  12  13
ENDBRANCH  10  12
ENDBRANCH   6  10
ENDBRANCH   5   6
ENDBRANCH   3   5
ENDBRANCH   2   3
ENDBRANCH   1   2
BRANCH   1  17
ATOM     17  C   UNL A   1      35.082  30.075  27.848  1.00  0.00     0.275 C 
BRANCH  17  18
ATOM     18  O   UNL A   1      36.438  29.615  27.705  1.00  0.00    -0.458 OA
BRANCH  18  19
ATOM     19  C   UNL A   1      37.068  29.270  28.851  1.00  0.00     0.338 C 
ATOM     20  O   UNL A   1      36.552  29.137  29.953  1.00  0.00    -0.246 OA
BRANCH  19  21
ATOM     21  C   UNL A   1      38.509  29.032  28.608  1.00  0.00     0.060 A 
ATOM     22  C   UNL A   1      39.354  28.576  29.622  1.00  0.00     0.016 A 
ATOM     23  C   UNL A   1      39.045  29.364  27.362  1.00  0.00     0.016 A 
ATOM     24  C   UNL A   1      40.734  28.521  29.413  1.00  0.00     0.010 A 
ATOM     25  C   UNL A   1      40.416  29.213  27.124  1.00  0.00     0.010 A 
ATOM     26  C   UNL A   1      41.282  28.810  28.153  1.00  0.00    -0.014 A 
BRANCH  26  27
ATOM     27  C   UNL A   1      42.744  28.654  27.904  1.00  0.00     0.031 A 
ATOM     28  C   UNL A   1      43.709  29.775  28.200  1.00  0.00     0.074 A 
ATOM     29  C   UNL A   1      43.213  27.501  27.385  1.00  0.00     0.049 A 
ATOM     30  N   UNL A   1      44.987  29.856  27.926  1.00  0.00    -0.248 NA
ATOM     31  C   UNL A   1      43.167  30.965  28.875  1.00  0.00     0.031 C 
ATOM     32  C   UNL A   1      42.401  26.327  27.051  1.00  0.00     0.029 A 
ATOM     33  N   UNL A   1      44.491  27.121  27.053  1.00  0.00    -0.354 N 
ATOM     34  C   UNL A   1      45.393  31.116  28.352  1.00  0.00     0.074 A 
ATOM     35  C   UNL A   1      44.224  31.768  28.901  1.00  0.00     0.031 C 
ATOM     36  C   UNL A   1      43.203  25.347  26.608  1.00  0.00     0.029 A 
ATOM     37  C   UNL A   1      44.573  25.843  26.553  1.00  0.00     0.049 A 
ATOM     38  H   UNL A   1      45.274  27.708  27.164  1.00  0.00     0.167 HD
ATOM     39  C   UNL A   1      46.624  31.681  28.286  1.00  0.00     0.031 A 
ATOM     40  C   UNL A   1      45.621  25.149  26.072  1.00  0.00     0.031 A 
ATOM     41  C   UNL A   1      47.798  31.028  27.768  1.00  0.00     0.049 A 
ATOM     42  C   UNL A   1      46.971  25.796  26.009  1.00  0.00     0.074 A 
ATOM     43  C   UNL A   1      49.090  31.518  27.686  1.00  0.00     0.029 A 
ATOM     44  N   UNL A   1      47.828  29.741  27.252  1.00  0.00    -0.354 N 
ATOM     45  N   UNL A   1      47.322  27.002  26.387  1.00  0.00    -0.248 NA
ATOM     46  C   UNL A   1      48.063  24.993  25.442  1.00  0.00     0.031 C 
ATOM     47  C   UNL A   1      49.896  30.540  27.089  1.00  0.00     0.029 A 
ATOM     48  C   UNL A   1      49.113  29.427  26.837  1.00  0.00     0.049 A 
ATOM     49  H   UNL A   1      47.051  29.140  27.189  1.00  0.00     0.167 HD
ATOM     50  C   UNL A   1      48.676  27.106  26.095  1.00  0.00     0.074 A 
ATOM     51  C   UNL A   1      49.086  25.831  25.541  1.00  0.00     0.031 C 
ATOM     52  C   UNL A   1      49.503  28.167  26.262  1.00  0.00     0.031 A 
BRANCH  39  53
ATOM     53  C   UNL A   1      46.764  33.103  28.764  1.00  0.00    -0.014 A 
ATOM     54  C   UNL A   1      47.121  33.395  30.091  1.00  0.00     0.010 A 
ATOM     55  C   UNL A   1      46.593  34.158  27.850  1.00  0.00     0.010 A 
ATOM     56  C   UNL A   1      47.275  34.722  30.505  1.00  0.00     0.020 A 
ATOM     57  C   UNL A   1      46.767  35.486  28.254  1.00  0.00     0.020 A 
ATOM     58  C   UNL A   1      47.093  35.760  29.584  1.00  0.00     0.054 A 
BRANCH  58  59
ATOM     59  S   UNL A   1      47.331  37.472  30.134  1.00  0.00     0.124 S 
ATOM     60  O   UNL A   1      48.778  37.628  30.007  1.00  0.00    -0.237 OA
ATOM     61  O   UNL A   1      46.532  38.234  29.178  1.00  0.00    -0.237 OA
ATOM     62  O   UNL A   1      46.822  37.468  31.503  1.00  0.00    -0.744 OA
ENDBRANCH  58  59
ENDBRANCH  39  53
BRANCH  40  63
ATOM     63  C   UNL A   1      45.414  23.762  25.576  1.00  0.00    -0.014 A 
ATOM     64  C   UNL A   1      45.622  22.665  26.429  1.00  0.00     0.010 A 
ATOM     65  C   UNL A   1      44.964  23.538  24.263  1.00  0.00     0.010 A 
ATOM     66  C   UNL A   1      45.381  21.365  25.976  1.00  0.00     0.020 A 
ATOM     67  C   UNL A   1      44.697  22.243  23.816  1.00  0.00     0.020 A 
ATOM     68  C   UNL A   1      44.914  21.163  24.674  1.00  0.00     0.054 A 
BRANCH  68  69
ATOM     69  S   UNL A   1      44.514  19.479  24.128  1.00  0.00     0.124 S 
ATOM     70  O   UNL A   1      43.266  19.219  24.838  1.00  0.00    -0.237 OA
ATOM     71  O   UNL A   1      44.400  19.628  22.679  1.00  0.00    -0.237 OA
ATOM     72  O   UNL A   1      45.667  18.698  24.575  1.00  0.00    -0.744 OA
ENDBRANCH  68  69
ENDBRANCH  40  63
BRANCH  52  73
ATOM     73  C   UNL A   1      50.932  27.981  25.836  1.00  0.00    -0.014 A 
ATOM     74  C   UNL A   1      51.914  27.584  26.762  1.00  0.00     0.010 A 
ATOM     75  C   UNL A   1      51.301  28.215  24.500  1.00  0.00     0.010 A 
ATOM     76  C   UNL A   1      53.249  27.470  26.370  1.00  0.00     0.020 A 
ATOM     77  C   UNL A   1      52.633  28.084  24.100  1.00  0.00     0.020 A 
ATOM     78  C   UNL A   1      53.602  27.733  25.043  1.00  0.00     0.054 A 
BRANCH  78  79
ATOM     79  S   UNL A   1      55.342  27.588  24.551  1.00  0.00     0.124 S 
ATOM     80  O   UNL A   1      55.932  26.934  25.715  1.00  0.00    -0.237 OA
ATOM     81  O   UNL A   1      55.272  26.773  23.340  1.00  0.00    -0.237 OA
ATOM     82  O   UNL A   1      55.755  28.973  24.338  1.00  0.00    -0.744 OA
ENDBRANCH  78  79
ENDBRANCH  52  73
ENDBRANCH  26  27
ENDBRANCH  19  21
ENDBRANCH  18  19
ENDBRANCH  17  18
ENDBRANCH   1  17
TORSDOF 20
ENDMDL
MODEL 3
REMARK VINA RESULT:      -7.7      0.546      8.668
REMARK SMILES C=CCN(CC(=O)OCCOC(=O)c1ccc(-c2c3nc(c(-c4ccc(S(=O)(=O)[O-])cc4)c4ccc([nH]4)c(-c4ccc(S(=O)(=O)[O-])cc4)c4nc(c(-c5ccc(S(=O)(=O)[O-])cc5)c5ccc2[nH]5)C=C4)C=C3)cc1)C(=O)C[NH3+]
REMARK SMILES IDX 9 1 8 2 6 3 7 4 5 5 4 6 3 7 2 8 1 9 74 10 75 11 76 12 77 13
REMARK SMILES IDX 10 17 11 18 12 19 13 20 14 21 15 22 73 23 16 24 72 25 17 26
REMARK SMILES IDX 18 27 19 28 66 29 20 30 71 31 65 32 67 33 21 34 70 35 64 36
REMARK SMILES IDX 63 37 22 39 52 40 33 41 51 42 34 43 37 44 50 45 68 46 35 47
REMARK SMILES IDX 36 48 49 50 69 51 38 52 23 53 24 54 32 55 25 56 31 57 26 58
REMARK SMILES IDX 27 59 28 60 29 61 30 62 53 63 54 64 62 65 55 66 61 67 56 68
REMARK SMILES IDX 57 69 58 70 59 71 60 72 39 73 40 74 48 75 41 76 47 77 42 78
REMARK SMILES IDX 43 79 44 80 45 81 46 82
REMARK H PARENT 77 14 77 15 77 16 67 38 37 49
REMARK Flexibility Score: inf
ROOT
ATOM      1  C   UNL A   1      34.105  33.953  28.949  1.00  0.00     0.274 C 
ENDROOT
BRANCH   1   2
ATOM      2  O   UNL A   1      34.006  33.618  30.348  1.00  0.00    -0.461 OA
BRANCH   2   3
ATOM      3  C   UNL A   1      35.192  33.518  31.010  1.00  0.00     0.325 C 
ATOM      4  O   UNL A   1      35.901  32.516  31.018  1.00  0.00    -0.250 OA
BRANCH   3   5
ATOM      5  C   UNL A   1      35.640  34.831  31.649  1.00  0.00     0.242 C 
BRANCH   5   6
ATOM      6  N   UNL A   1      34.780  35.372  32.707  1.00  0.00    -0.323 N 
BRANCH   6   7
ATOM      7  C   UNL A   1      34.791  34.663  33.974  1.00  0.00     0.147 C 
BRANCH   7   8
ATOM      8  C   UNL A   1      36.228  34.422  34.342  1.00  0.00    -0.014 C 
ATOM      9  C   UNL A   1      36.679  33.284  34.890  1.00  0.00     0.006 C 
ENDBRANCH   7   8
ENDBRANCH   6   7
BRANCH   6  10
ATOM     10  C   UNL A   1      33.992  36.515  32.610  1.00  0.00     0.278 C 
ATOM     11  O   UNL A   1      34.163  37.487  33.355  1.00  0.00    -0.268 OA
BRANCH  10  12
ATOM     12  C   UNL A   1      32.893  36.578  31.543  1.00  0.00     0.360 C 
BRANCH  12  13
ATOM     13  N   UNL A   1      33.332  37.331  30.358  1.00  0.00    -0.350 N 
ATOM     14  H   UNL A   1      34.220  36.954  30.025  1.00  0.00     0.344 HD
ATOM     15  H   UNL A   1      33.449  38.314  30.602  1.00  0.00     0.344 HD
ATOM     16  H   UNL A   1      32.630  37.245  29.622  1.00  0.00     0.344 HD
ENDBRANCH  12  13
ENDBRANCH  10  12
ENDBRANCH   6  10
ENDBRANCH   5   6
ENDBRANCH   3   5
ENDBRANCH   2   3
ENDBRANCH   1   2
BRANCH   1  17
ATOM     17  C   UNL A   1      33.500  32.839  28.096  1.00  0.00     0.275 C 
BRANCH  17  18
ATOM     18  O   UNL A   1      34.547  32.150  27.392  1.00  0.00    -0.458 OA
BRANCH  18  19
ATOM     19  C   UNL A   1      34.606  30.812  27.581  1.00  0.00     0.338 C 
ATOM     20  O   UNL A   1      33.757  29.993  27.252  1.00  0.00    -0.246 OA
BRANCH  19  21
ATOM     21  C   UNL A   1      35.879  30.428  28.232  1.00  0.00     0.060 A 
ATOM     22  C   UNL A   1      35.911  29.523  29.295  1.00  0.00     0.016 A 
ATOM     23  C   UNL A   1      37.057  31.062  27.832  1.00  0.00     0.016 A 
ATOM     24  C   UNL A   1      37.098  29.308  29.998  1.00  0.00     0.010 A 
ATOM     25  C   UNL A   1      38.266  30.768  28.473  1.00  0.00     0.010 A 
ATOM     26  C   UNL A   1      38.299  29.903  29.579  1.00  0.00    -0.014 A 
BRANCH  26  27
ATOM     27  C   UNL A   1      39.584  29.594  30.269  1.00  0.00     0.031 A 
ATOM     28  C   UNL A   1      40.494  28.499  29.770  1.00  0.00     0.074 A 
ATOM     29  C   UNL A   1      39.932  30.289  31.372  1.00  0.00     0.049 A 
ATOM     30  N   UNL A   1      41.580  28.015  30.320  1.00  0.00    -0.248 NA
ATOM     31  C   UNL A   1      40.130  27.853  28.498  1.00  0.00     0.031 C 
ATOM     32  C   UNL A   1      39.157  31.378  31.971  1.00  0.00     0.029 A 
ATOM     33  N   UNL A   1      41.036  30.187  32.184  1.00  0.00    -0.354 N 
ATOM     34  C   UNL A   1      42.003  26.983  29.491  1.00  0.00     0.074 A 
ATOM     35  C   UNL A   1      41.056  26.907  28.400  1.00  0.00     0.031 C 
ATOM     36  C   UNL A   1      39.827  31.873  33.022  1.00  0.00     0.029 A 
ATOM     37  C   UNL A   1      41.041  31.090  33.221  1.00  0.00     0.049 A 
ATOM     38  H   UNL A   1      41.755  29.530  32.038  1.00  0.00     0.167 HD
ATOM     39  C   UNL A   1      43.079  26.168  29.628  1.00  0.00     0.031 A 
ATOM     40  C   UNL A   1      41.904  31.259  34.240  1.00  0.00     0.031 A 
ATOM     41  C   UNL A   1      44.042  26.256  30.695  1.00  0.00     0.049 A 
ATOM     42  C   UNL A   1      43.084  30.345  34.370  1.00  0.00     0.074 A 
ATOM     43  C   UNL A   1      45.175  25.486  30.897  1.00  0.00     0.029 A 
ATOM     44  N   UNL A   1      43.994  27.172  31.734  1.00  0.00    -0.354 N 
ATOM     45  N   UNL A   1      43.444  29.353  33.591  1.00  0.00    -0.248 NA
ATOM     46  C   UNL A   1      43.966  30.564  35.524  1.00  0.00     0.031 C 
ATOM     47  C   UNL A   1      45.794  25.914  32.078  1.00  0.00     0.029 A 
ATOM     48  C   UNL A   1      45.069  26.977  32.587  1.00  0.00     0.049 A 
ATOM     49  H   UNL A   1      43.298  27.859  31.849  1.00  0.00     0.167 HD
ATOM     50  C   UNL A   1      44.592  28.823  34.167  1.00  0.00     0.074 A 
ATOM     51  C   UNL A   1      44.884  29.625  35.339  1.00  0.00     0.031 C 
ATOM     52  C   UNL A   1      45.332  27.762  33.764  1.00  0.00     0.031 A 
BRANCH  39  53
ATOM     53  C   UNL A   1      43.260  25.076  28.606  1.00  0.00    -0.014 A 
ATOM     54  C   UNL A   1      42.658  23.817  28.768  1.00  0.00     0.010 A 
ATOM     55  C   UNL A   1      43.997  25.340  27.437  1.00  0.00     0.010 A 
ATOM     56  C   UNL A   1      42.815  22.829  27.791  1.00  0.00     0.020 A 
ATOM     57  C   UNL A   1      44.138  24.361  26.448  1.00  0.00     0.020 A 
ATOM     58  C   UNL A   1      43.559  23.106  26.639  1.00  0.00     0.054 A 
BRANCH  58  59
ATOM     59  S   UNL A   1      43.720  21.820  25.369  1.00  0.00     0.124 S 
ATOM     60  O   UNL A   1      43.504  22.583  24.142  1.00  0.00    -0.237 OA
ATOM     61  O   UNL A   1      45.083  21.333  25.572  1.00  0.00    -0.237 OA
ATOM     62  O   UNL A   1      42.666  20.868  25.706  1.00  0.00    -0.744 OA
ENDBRANCH  58  59
ENDBRANCH  39  53
BRANCH  40  63
ATOM     63  C   UNL A   1      41.651  32.328  35.243  1.00  0.00    -0.014 A 
ATOM     64  C   UNL A   1      42.471  33.468  35.287  1.00  0.00     0.010 A 
ATOM     65  C   UNL A   1      40.561  32.229  36.126  1.00  0.00     0.010 A 
ATOM     66  C   UNL A   1      42.202  34.494  36.197  1.00  0.00     0.020 A 
ATOM     67  C   UNL A   1      40.276  33.263  37.019  1.00  0.00     0.020 A 
ATOM     68  C   UNL A   1      41.103  34.387  37.053  1.00  0.00     0.054 A 
BRANCH  68  69
ATOM     69  S   UNL A   1      40.709  35.767  38.165  1.00  0.00     0.124 S 
ATOM     70  O   UNL A   1      40.286  35.070  39.375  1.00  0.00    -0.237 OA
ATOM     71  O   UNL A   1      41.981  36.480  38.257  1.00  0.00    -0.237 OA
ATOM     72  O   UNL A   1      39.655  36.485  37.450  1.00  0.00    -0.744 OA
ENDBRANCH  68  69
ENDBRANCH  40  63
BRANCH  52  73
ATOM     73  C   UNL A   1      46.527  27.414  34.608  1.00  0.00    -0.014 A 
ATOM     74  C   UNL A   1      46.460  26.378  35.557  1.00  0.00     0.010 A 
ATOM     75  C   UNL A   1      47.724  28.134  34.458  1.00  0.00     0.010 A 
ATOM     76  C   UNL A   1      47.556  26.101  36.377  1.00  0.00     0.020 A 
ATOM     77  C   UNL A   1      48.829  27.847  35.263  1.00  0.00     0.020 A 
ATOM     78  C   UNL A   1      48.731  26.846  36.233  1.00  0.00     0.054 A 
BRANCH  78  79
ATOM     79  S   UNL A   1      50.143  26.477  37.309  1.00  0.00     0.124 S 
ATOM     80  O   UNL A   1      50.177  27.651  38.177  1.00  0.00    -0.237 OA
ATOM     81  O   UNL A   1      49.744  25.229  37.955  1.00  0.00    -0.237 OA
ATOM     82  O   UNL A   1      51.263  26.358  36.377  1.00  0.00    -0.744 OA
ENDBRANCH  78  79
ENDBRANCH  52  73
ENDBRANCH  26  27
ENDBRANCH  19  21
ENDBRANCH  18  19
ENDBRANCH  17  18
ENDBRANCH   1  17
TORSDOF 20
ENDMDL
