MODEL 1
REMARK VINA RESULT:     -11.7      0.000      0.000
REMARK SMILES Cc1cc(C(=O)N2CC[NH2+]C[C@H]2C(=O)OCCOC(=O)c2ccc(-c3c4nc(c(-c5ccc(S(=O)(=O)[O-])cc5)c5ccc([nH]5)c(-c5ccc(S(=O)(=O)[O-])cc5)c5nc(c(-c6ccc(S(=O)(=O)[O-])cc6)c6ccc3[nH]6)C=C5)C=C4)cc2)sc1Br
REMARK SMILES IDX 17 1 16 2 15 3 13 4 14 5 12 6 7 7 8 8 9 9 11 10 10 11 5 14
REMARK SMILES IDX 6 15 4 16 1 17 2 18 3 19 82 20 81 21 83 22 18 23 19 24 20 25
REMARK SMILES IDX 21 26 22 27 80 28 23 29 79 30 24 31 25 32 26 33 73 34 27 35
REMARK SMILES IDX 78 36 72 37 74 38 28 39 77 40 71 41 70 42 29 44 59 45 40 46
REMARK SMILES IDX 58 47 41 48 44 49 57 50 75 51 42 52 43 53 56 55 76 56 45 57
REMARK SMILES IDX 30 58 31 59 39 60 32 61 38 62 33 63 34 64 35 65 36 66 37 67
REMARK SMILES IDX 60 68 61 69 69 70 62 71 68 72 63 73 64 74 65 75 66 76 67 77
REMARK SMILES IDX 46 78 47 79 55 80 48 81 54 82 49 83 50 84 51 85 52 86 53 87
REMARK H PARENT 10 12 10 13 74 43 44 54
REMARK Flexibility Score: inf
ROOT
ATOM      1  C   UNL A   1      32.746  30.124  26.492  1.00  0.00     0.275 C 
ENDROOT
BRANCH   1   2
ATOM      2  C   UNL A   1      32.239  28.847  27.157  1.00  0.00     0.274 C 
BRANCH   2   3
ATOM      3  O   UNL A   1      32.784  27.673  26.521  1.00  0.00    -0.460 OA
BRANCH   3   4
ATOM      4  C   UNL A   1      31.951  26.622  26.361  1.00  0.00     0.334 C 
ATOM      5  O   UNL A   1      30.836  26.568  26.880  1.00  0.00    -0.250 OA
BRANCH   4   6
ATOM      6  C   UNL A   1      32.498  25.466  25.480  1.00  0.00     0.251 C 
ATOM      7  N   UNL A   1      32.135  25.074  24.074  1.00  0.00    -0.314 N 
ATOM      8  C   UNL A   1      32.945  23.953  23.594  1.00  0.00     0.182 C 
ATOM      9  C   UNL A   1      34.433  24.301  23.616  1.00  0.00     0.282 C 
ATOM     10  C   UNL A   1      34.035  25.755  25.498  1.00  0.00     0.298 C 
ATOM     11  N   UNL A   1      34.899  24.684  24.957  1.00  0.00    -0.343 N 
ATOM     12  H   UNL A   1      35.861  25.022  24.898  1.00  0.00     0.346 HD
ATOM     13  H   UNL A   1      34.859  23.874  25.575  1.00  0.00     0.346 HD
BRANCH   7  14
ATOM     14  C   UNL A   1      30.802  24.984  23.631  1.00  0.00     0.265 C 
ATOM     15  O   UNL A   1      30.335  23.907  23.256  1.00  0.00    -0.268 OA
BRANCH  14  16
ATOM     16  C   UNL A   1      30.131  26.262  23.440  1.00  0.00     0.093 A 
ATOM     17  C   UNL A   1      27.059  28.414  23.394  1.00  0.00     0.046 C 
ATOM     18  C   UNL A   1      28.455  27.904  23.298  1.00  0.00    -0.025 A 
ATOM     19  C   UNL A   1      28.869  26.650  23.853  1.00  0.00     0.030 A 
ATOM     20  C   UNL A   1      29.522  28.504  22.663  1.00  0.00     0.074 A 
ATOM     21  S   UNL A   1      30.930  27.555  22.650  1.00  0.00    -0.123 S 
ATOM     22  Br  UNL A   1      29.456  30.192  21.845  1.00  0.00    -0.039 Br
ENDBRANCH  14  16
ENDBRANCH   7  14
ENDBRANCH   4   6
ENDBRANCH   3   4
ENDBRANCH   2   3
ENDBRANCH   1   2
BRANCH   1  23
ATOM     23  O   UNL A   1      34.168  30.259  26.586  1.00  0.00    -0.458 OA
BRANCH  23  24
ATOM     24  C   UNL A   1      34.566  31.156  27.513  1.00  0.00     0.338 C 
ATOM     25  O   UNL A   1      34.179  32.302  27.632  1.00  0.00    -0.246 OA
BRANCH  24  26
ATOM     26  C   UNL A   1      35.728  30.701  28.256  1.00  0.00     0.060 A 
ATOM     27  C   UNL A   1      36.623  31.694  28.687  1.00  0.00     0.016 A 
ATOM     28  C   UNL A   1      36.065  29.349  28.202  1.00  0.00     0.016 A 
ATOM     29  C   UNL A   1      37.925  31.338  28.941  1.00  0.00     0.010 A 
ATOM     30  C   UNL A   1      37.371  29.003  28.424  1.00  0.00     0.010 A 
ATOM     31  C   UNL A   1      38.290  30.008  28.741  1.00  0.00    -0.014 A 
BRANCH  31  32
ATOM     32  C   UNL A   1      39.664  29.634  28.974  1.00  0.00     0.031 A 
ATOM     33  C   UNL A   1      40.018  29.607  30.410  1.00  0.00     0.074 A 
ATOM     34  C   UNL A   1      40.435  29.150  27.987  1.00  0.00     0.049 A 
ATOM     35  N   UNL A   1      40.841  30.370  31.049  1.00  0.00    -0.248 NA
ATOM     36  C   UNL A   1      39.205  28.735  31.278  1.00  0.00     0.031 C 
ATOM     37  C   UNL A   1      40.029  28.813  26.619  1.00  0.00     0.029 A 
ATOM     38  N   UNL A   1      41.713  28.704  28.053  1.00  0.00    -0.354 N 
ATOM     39  C   UNL A   1      40.804  29.919  32.364  1.00  0.00     0.074 A 
ATOM     40  C   UNL A   1      39.623  29.108  32.485  1.00  0.00     0.031 C 
ATOM     41  C   UNL A   1      40.956  27.990  26.080  1.00  0.00     0.029 A 
ATOM     42  C   UNL A   1      42.063  27.855  27.014  1.00  0.00     0.049 A 
ATOM     43  H   UNL A   1      42.335  28.959  28.773  1.00  0.00     0.167 HD
ATOM     44  C   UNL A   1      41.895  29.980  33.176  1.00  0.00     0.031 A 
ATOM     45  C   UNL A   1      43.134  27.024  26.994  1.00  0.00     0.031 A 
ATOM     46  C   UNL A   1      42.907  30.855  32.648  1.00  0.00     0.049 A 
ATOM     47  C   UNL A   1      44.072  27.481  28.051  1.00  0.00     0.074 A 
ATOM     48  C   UNL A   1      42.966  32.195  32.326  1.00  0.00     0.029 A 
ATOM     49  N   UNL A   1      43.964  30.254  32.005  1.00  0.00    -0.354 N 
ATOM     50  N   UNL A   1      44.699  28.625  28.020  1.00  0.00    -0.248 NA
ATOM     51  C   UNL A   1      43.991  26.860  29.366  1.00  0.00     0.031 C 
ATOM     52  C   UNL A   1      43.793  32.264  31.168  1.00  0.00     0.029 A 
ATOM     53  C   UNL A   1      44.236  30.973  30.870  1.00  0.00     0.049 A 
ATOM     54  H   UNL A   1      44.443  29.448  32.307  1.00  0.00     0.167 HD
ATOM     55  C   UNL A   1      44.720  29.063  29.338  1.00  0.00     0.074 A 
ATOM     56  C   UNL A   1      44.378  27.885  30.130  1.00  0.00     0.031 C 
ATOM     57  C   UNL A   1      44.735  30.395  29.637  1.00  0.00     0.031 A 
BRANCH  44  58
ATOM     58  C   UNL A   1      42.207  28.916  34.203  1.00  0.00    -0.014 A 
ATOM     59  C   UNL A   1      42.731  27.684  33.765  1.00  0.00     0.010 A 
ATOM     60  C   UNL A   1      41.754  28.977  35.539  1.00  0.00     0.010 A 
ATOM     61  C   UNL A   1      42.729  26.559  34.599  1.00  0.00     0.020 A 
ATOM     62  C   UNL A   1      41.796  27.877  36.394  1.00  0.00     0.020 A 
ATOM     63  C   UNL A   1      42.246  26.662  35.905  1.00  0.00     0.054 A 
BRANCH  63  64
ATOM     64  S   UNL A   1      42.133  25.184  36.937  1.00  0.00     0.124 S 
ATOM     65  O   UNL A   1      42.029  24.128  35.934  1.00  0.00    -0.237 OA
ATOM     66  O   UNL A   1      43.387  25.231  37.684  1.00  0.00    -0.237 OA
ATOM     67  O   UNL A   1      40.930  25.414  37.733  1.00  0.00    -0.744 OA
ENDBRANCH  63  64
ENDBRANCH  44  58
BRANCH  45  68
ATOM     68  C   UNL A   1      43.220  25.679  26.370  1.00  0.00    -0.014 A 
ATOM     69  C   UNL A   1      44.006  25.468  25.223  1.00  0.00     0.010 A 
ATOM     70  C   UNL A   1      42.743  24.544  27.058  1.00  0.00     0.010 A 
ATOM     71  C   UNL A   1      44.351  24.169  24.815  1.00  0.00     0.020 A 
ATOM     72  C   UNL A   1      43.075  23.246  26.651  1.00  0.00     0.020 A 
ATOM     73  C   UNL A   1      43.899  23.066  25.545  1.00  0.00     0.054 A 
BRANCH  73  74
ATOM     74  S   UNL A   1      44.497  21.404  25.117  1.00  0.00     0.124 S 
ATOM     75  O   UNL A   1      45.832  21.392  25.709  1.00  0.00    -0.237 OA
ATOM     76  O   UNL A   1      43.514  20.537  25.759  1.00  0.00    -0.237 OA
ATOM     77  O   UNL A   1      44.469  21.394  23.655  1.00  0.00    -0.744 OA
ENDBRANCH  73  74
ENDBRANCH  45  68
BRANCH  57  78
ATOM     78  C   UNL A   1      45.065  31.372  28.533  1.00  0.00    -0.014 A 
ATOM     79  C   UNL A   1      44.120  31.855  27.607  1.00  0.00     0.010 A 
ATOM     80  C   UNL A   1      46.350  31.941  28.537  1.00  0.00     0.010 A 
ATOM     81  C   UNL A   1      44.461  32.868  26.698  1.00  0.00     0.020 A 
ATOM     82  C   UNL A   1      46.691  32.962  27.648  1.00  0.00     0.020 A 
ATOM     83  C   UNL A   1      45.748  33.416  26.726  1.00  0.00     0.054 A 
BRANCH  83  84
ATOM     84  S   UNL A   1      46.170  34.767  25.590  1.00  0.00     0.124 S 
ATOM     85  O   UNL A   1      45.836  35.954  26.372  1.00  0.00    -0.237 OA
ATOM     86  O   UNL A   1      47.593  34.554  25.344  1.00  0.00    -0.237 OA
ATOM     87  O   UNL A   1      45.308  34.530  24.432  1.00  0.00    -0.744 OA
ENDBRANCH  83  84
ENDBRANCH  57  78
ENDBRANCH  31  32
ENDBRANCH  24  26
ENDBRANCH  23  24
ENDBRANCH   1  23
TORSDOF 16
ENDMDL
MODEL 2
REMARK VINA RESULT:     -11.3      2.064      3.144
REMARK SMILES Cc1cc(C(=O)N2CC[NH2+]C[C@H]2C(=O)OCCOC(=O)c2ccc(-c3c4nc(c(-c5ccc(S(=O)(=O)[O-])cc5)c5ccc([nH]5)c(-c5ccc(S(=O)(=O)[O-])cc5)c5nc(c(-c6ccc(S(=O)(=O)[O-])cc6)c6ccc3[nH]6)C=C5)C=C4)cc2)sc1Br
REMARK SMILES IDX 17 1 16 2 15 3 13 4 14 5 12 6 7 7 8 8 9 9 11 10 10 11 5 14
REMARK SMILES IDX 6 15 4 16 1 17 2 18 3 19 82 20 81 21 83 22 18 23 19 24 20 25
REMARK SMILES IDX 21 26 22 27 80 28 23 29 79 30 24 31 25 32 26 33 73 34 27 35
REMARK SMILES IDX 78 36 72 37 74 38 28 39 77 40 71 41 70 42 29 44 59 45 40 46
REMARK SMILES IDX 58 47 41 48 44 49 57 50 75 51 42 52 43 53 56 55 76 56 45 57
REMARK SMILES IDX 30 58 31 59 39 60 32 61 38 62 33 63 34 64 35 65 36 66 37 67
REMARK SMILES IDX 60 68 61 69 69 70 62 71 68 72 63 73 64 74 65 75 66 76 67 77
REMARK SMILES IDX 46 78 47 79 55 80 48 81 54 82 49 83 50 84 51 85 52 86 53 87
REMARK H PARENT 10 12 10 13 74 43 44 54
REMARK Flexibility Score: inf
ROOT
ATOM      1  C   UNL A   1      32.665  30.695  26.747  1.00  0.00     0.275 C 
ENDROOT
BRANCH   1   2
ATOM      2  C   UNL A   1      32.429  29.900  25.466  1.00  0.00     0.274 C 
BRANCH   2   3
ATOM      3  O   UNL A   1      32.423  28.480  25.725  1.00  0.00    -0.460 OA
BRANCH   3   4
ATOM      4  C   UNL A   1      32.536  27.664  24.654  1.00  0.00     0.334 C 
ATOM      5  O   UNL A   1      33.179  27.966  23.649  1.00  0.00    -0.250 OA
BRANCH   4   6
ATOM      6  C   UNL A   1      31.786  26.309  24.767  1.00  0.00     0.251 C 
ATOM      7  N   UNL A   1      32.328  24.906  24.761  1.00  0.00    -0.314 N 
ATOM      8  C   UNL A   1      31.271  23.913  24.959  1.00  0.00     0.182 C 
ATOM      9  C   UNL A   1      30.551  24.133  26.288  1.00  0.00     0.282 C 
ATOM     10  C   UNL A   1      30.997  26.495  26.105  1.00  0.00     0.298 C 
ATOM     11  N   UNL A   1      29.964  25.477  26.392  1.00  0.00    -0.343 N 
ATOM     12  H   UNL A   1      29.603  25.618  27.336  1.00  0.00     0.346 HD
ATOM     13  H   UNL A   1      29.204  25.568  25.718  1.00  0.00     0.346 HD
BRANCH   7  14
ATOM     14  C   UNL A   1      33.292  24.468  23.834  1.00  0.00     0.265 C 
ATOM     15  O   UNL A   1      33.048  24.466  22.626  1.00  0.00    -0.268 OA
BRANCH  14  16
ATOM     16  C   UNL A   1      34.460  23.825  24.419  1.00  0.00     0.093 A 
ATOM     17  C   UNL A   1      37.762  23.941  26.193  1.00  0.00     0.046 C 
ATOM     18  C   UNL A   1      36.525  23.498  25.491  1.00  0.00    -0.025 A 
ATOM     19  C   UNL A   1      35.389  24.348  25.300  1.00  0.00     0.030 A 
ATOM     20  C   UNL A   1      36.289  22.272  24.907  1.00  0.00     0.074 A 
ATOM     21  S   UNL A   1      34.809  22.182  24.082  1.00  0.00    -0.123 S 
ATOM     22  Br  UNL A   1      37.483  20.823  24.964  1.00  0.00    -0.039 Br
ENDBRANCH  14  16
ENDBRANCH   7  14
ENDBRANCH   4   6
ENDBRANCH   3   4
ENDBRANCH   2   3
ENDBRANCH   1   2
BRANCH   1  23
ATOM     23  O   UNL A   1      33.796  30.218  27.485  1.00  0.00    -0.458 OA
BRANCH  23  24
ATOM     24  C   UNL A   1      34.671  31.189  27.823  1.00  0.00     0.338 C 
ATOM     25  O   UNL A   1      34.656  32.345  27.449  1.00  0.00    -0.246 OA
BRANCH  24  26
ATOM     26  C   UNL A   1      35.832  30.665  28.519  1.00  0.00     0.060 A 
ATOM     27  C   UNL A   1      36.674  31.609  29.129  1.00  0.00     0.016 A 
ATOM     28  C   UNL A   1      36.228  29.352  28.262  1.00  0.00     0.016 A 
ATOM     29  C   UNL A   1      37.983  31.267  29.364  1.00  0.00     0.010 A 
ATOM     30  C   UNL A   1      37.541  29.026  28.466  1.00  0.00     0.010 A 
ATOM     31  C   UNL A   1      38.409  30.001  28.966  1.00  0.00    -0.014 A 
BRANCH  31  32
ATOM     32  C   UNL A   1      39.791  29.647  29.179  1.00  0.00     0.031 A 
ATOM     33  C   UNL A   1      40.127  29.471  30.609  1.00  0.00     0.074 A 
ATOM     34  C   UNL A   1      40.591  29.302  28.157  1.00  0.00     0.049 A 
ATOM     35  N   UNL A   1      40.917  30.183  31.342  1.00  0.00    -0.248 NA
ATOM     36  C   UNL A   1      39.333  28.482  31.360  1.00  0.00     0.031 C 
ATOM     37  C   UNL A   1      40.214  29.108  26.754  1.00  0.00     0.029 A 
ATOM     38  N   UNL A   1      41.882  28.892  28.194  1.00  0.00    -0.354 N 
ATOM     39  C   UNL A   1      40.878  29.586  32.598  1.00  0.00     0.074 A 
ATOM     40  C   UNL A   1      39.722  28.730  32.608  1.00  0.00     0.031 C 
ATOM     41  C   UNL A   1      41.175  28.380  26.141  1.00  0.00     0.029 A 
ATOM     42  C   UNL A   1      42.274  28.177  27.073  1.00  0.00     0.049 A 
ATOM     43  H   UNL A   1      42.486  29.084  28.948  1.00  0.00     0.167 HD
ATOM     44  C   UNL A   1      41.955  29.590  33.430  1.00  0.00     0.031 A 
ATOM     45  C   UNL A   1      43.372  27.387  26.977  1.00  0.00     0.031 A 
ATOM     46  C   UNL A   1      42.944  30.550  33.020  1.00  0.00     0.049 A 
ATOM     47  C   UNL A   1      44.281  27.752  28.095  1.00  0.00     0.074 A 
ATOM     48  C   UNL A   1      42.962  31.920  32.850  1.00  0.00     0.029 A 
ATOM     49  N   UNL A   1      44.029  30.059  32.331  1.00  0.00    -0.354 N 
ATOM     50  N   UNL A   1      44.869  28.911  28.202  1.00  0.00    -0.248 NA
ATOM     51  C   UNL A   1      44.203  26.985  29.330  1.00  0.00     0.031 C 
ATOM     52  C   UNL A   1      43.802  32.144  31.722  1.00  0.00     0.029 A 
ATOM     53  C   UNL A   1      44.292  30.909  31.289  1.00  0.00     0.049 A 
ATOM     54  H   UNL A   1      44.530  29.240  32.550  1.00  0.00     0.167 HD
ATOM     55  C   UNL A   1      44.859  29.199  29.561  1.00  0.00     0.074 A 
ATOM     56  C   UNL A   1      44.546  27.930  30.211  1.00  0.00     0.031 C 
ATOM     57  C   UNL A   1      44.825  30.489  30.007  1.00  0.00     0.031 A 
BRANCH  44  58
ATOM     58  C   UNL A   1      42.290  28.428  34.336  1.00  0.00    -0.014 A 
ATOM     59  C   UNL A   1      42.572  28.685  35.692  1.00  0.00     0.010 A 
ATOM     60  C   UNL A   1      42.604  27.139  33.853  1.00  0.00     0.010 A 
ATOM     61  C   UNL A   1      43.204  27.726  36.494  1.00  0.00     0.020 A 
ATOM     62  C   UNL A   1      43.185  26.159  34.656  1.00  0.00     0.020 A 
ATOM     63  C   UNL A   1      43.519  26.474  35.963  1.00  0.00     0.054 A 
BRANCH  63  64
ATOM     64  S   UNL A   1      44.441  25.284  36.963  1.00  0.00     0.124 S 
ATOM     65  O   UNL A   1      44.094  24.021  36.318  1.00  0.00    -0.237 OA
ATOM     66  O   UNL A   1      45.820  25.731  36.784  1.00  0.00    -0.237 OA
ATOM     67  O   UNL A   1      43.899  25.473  38.306  1.00  0.00    -0.744 OA
ENDBRANCH  63  64
ENDBRANCH  44  58
BRANCH  45  68
ATOM     68  C   UNL A   1      43.511  26.124  26.209  1.00  0.00    -0.014 A 
ATOM     69  C   UNL A   1      44.658  25.878  25.432  1.00  0.00     0.010 A 
ATOM     70  C   UNL A   1      42.638  25.044  26.451  1.00  0.00     0.010 A 
ATOM     71  C   UNL A   1      44.949  24.585  24.966  1.00  0.00     0.020 A 
ATOM     72  C   UNL A   1      42.916  23.755  25.981  1.00  0.00     0.020 A 
ATOM     73  C   UNL A   1      44.085  23.527  25.262  1.00  0.00     0.054 A 
BRANCH  73  74
ATOM     74  S   UNL A   1      44.560  21.832  24.811  1.00  0.00     0.124 S 
ATOM     75  O   UNL A   1      43.454  21.046  25.349  1.00  0.00    -0.237 OA
ATOM     76  O   UNL A   1      44.637  21.900  23.355  1.00  0.00    -0.237 OA
ATOM     77  O   UNL A   1      45.842  21.643  25.489  1.00  0.00    -0.744 OA
ENDBRANCH  73  74
ENDBRANCH  45  68
BRANCH  57  78
ATOM     78  C   UNL A   1      45.137  31.594  29.024  1.00  0.00    -0.014 A 
ATOM     79  C   UNL A   1      46.437  32.080  28.780  1.00  0.00     0.010 A 
ATOM     80  C   UNL A   1      44.088  32.042  28.203  1.00  0.00     0.010 A 
ATOM     81  C   UNL A   1      46.672  33.006  27.752  1.00  0.00     0.020 A 
ATOM     82  C   UNL A   1      44.318  32.949  27.168  1.00  0.00     0.020 A 
ATOM     83  C   UNL A   1      45.609  33.435  26.951  1.00  0.00     0.054 A 
BRANCH  83  84
ATOM     84  S   UNL A   1      45.925  34.586  25.584  1.00  0.00     0.124 S 
ATOM     85  O   UNL A   1      45.559  35.874  26.164  1.00  0.00    -0.237 OA
ATOM     86  O   UNL A   1      47.349  34.395  25.319  1.00  0.00    -0.237 OA
ATOM     87  O   UNL A   1      45.039  34.114  24.520  1.00  0.00    -0.744 OA
ENDBRANCH  83  84
ENDBRANCH  57  78
ENDBRANCH  31  32
ENDBRANCH  24  26
ENDBRANCH  23  24
ENDBRANCH   1  23
TORSDOF 16
ENDMDL
MODEL 3
REMARK VINA RESULT:     -11.2      2.865      9.156
REMARK SMILES Cc1cc(C(=O)N2CC[NH2+]C[C@H]2C(=O)OCCOC(=O)c2ccc(-c3c4nc(c(-c5ccc(S(=O)(=O)[O-])cc5)c5ccc([nH]5)c(-c5ccc(S(=O)(=O)[O-])cc5)c5nc(c(-c6ccc(S(=O)(=O)[O-])cc6)c6ccc3[nH]6)C=C5)C=C4)cc2)sc1Br
REMARK SMILES IDX 17 1 16 2 15 3 13 4 14 5 12 6 7 7 8 8 9 9 11 10 10 11 5 14
REMARK SMILES IDX 6 15 4 16 1 17 2 18 3 19 82 20 81 21 83 22 18 23 19 24 20 25
REMARK SMILES IDX 21 26 22 27 80 28 23 29 79 30 24 31 25 32 26 33 73 34 27 35
REMARK SMILES IDX 78 36 72 37 74 38 28 39 77 40 71 41 70 42 29 44 59 45 40 46
REMARK SMILES IDX 58 47 41 48 44 49 57 50 75 51 42 52 43 53 56 55 76 56 45 57
REMARK SMILES IDX 30 58 31 59 39 60 32 61 38 62 33 63 34 64 35 65 36 66 37 67
REMARK SMILES IDX 60 68 61 69 69 70 62 71 68 72 63 73 64 74 65 75 66 76 67 77
REMARK SMILES IDX 46 78 47 79 55 80 48 81 54 82 49 83 50 84 51 85 52 86 53 87
REMARK H PARENT 10 12 10 13 74 43 44 54
REMARK Flexibility Score: inf
ROOT
ATOM      1  C   UNL A   1      37.656  21.369  24.946  1.00  0.00     0.275 C 
ENDROOT
BRANCH   1   2
ATOM      2  C   UNL A   1      36.924  22.209  23.904  1.00  0.00     0.274 C 
BRANCH   2   3
ATOM      3  O   UNL A   1      35.972  23.099  24.523  1.00  0.00    -0.460 OA
BRANCH   3   4
ATOM      4  C   UNL A   1      34.816  23.315  23.860  1.00  0.00     0.334 C 
ATOM      5  O   UNL A   1      34.751  23.373  22.632  1.00  0.00    -0.250 OA
BRANCH   4   6
ATOM      6  C   UNL A   1      33.559  23.498  24.754  1.00  0.00     0.251 C 
ATOM      7  N   UNL A   1      32.252  24.177  24.448  1.00  0.00    -0.314 N 
ATOM      8  C   UNL A   1      31.306  24.062  25.559  1.00  0.00     0.182 C 
ATOM      9  C   UNL A   1      31.011  22.599  25.883  1.00  0.00     0.282 C 
ATOM     10  C   UNL A   1      33.232  22.019  25.145  1.00  0.00     0.298 C 
ATOM     11  N   UNL A   1      32.227  21.841  26.215  1.00  0.00    -0.343 N 
ATOM     12  H   UNL A   1      31.997  20.851  26.303  1.00  0.00     0.346 HD
ATOM     13  H   UNL A   1      32.609  22.183  27.096  1.00  0.00     0.346 HD
BRANCH   7  14
ATOM     14  C   UNL A   1      32.178  25.436  23.824  1.00  0.00     0.265 C 
ATOM     15  O   UNL A   1      32.145  25.529  22.596  1.00  0.00    -0.268 OA
BRANCH  14  16
ATOM     16  C   UNL A   1      32.375  26.574  24.711  1.00  0.00     0.093 A 
ATOM     17  C   UNL A   1      31.572  30.052  25.862  1.00  0.00     0.046 C 
ATOM     18  C   UNL A   1      32.163  28.694  25.703  1.00  0.00    -0.025 A 
ATOM     19  C   UNL A   1      31.547  27.660  24.926  1.00  0.00     0.030 A 
ATOM     20  C   UNL A   1      33.355  28.235  26.220  1.00  0.00     0.074 A 
ATOM     21  S   UNL A   1      33.762  26.668  25.712  1.00  0.00    -0.123 S 
ATOM     22  Br  UNL A   1      34.473  29.232  27.352  1.00  0.00    -0.039 Br
ENDBRANCH  14  16
ENDBRANCH   7  14
ENDBRANCH   4   6
ENDBRANCH   3   4
ENDBRANCH   2   3
ENDBRANCH   1   2
BRANCH   1  23
ATOM     23  O   UNL A   1      37.981  22.119  26.121  1.00  0.00    -0.458 OA
BRANCH  23  24
ATOM     24  C   UNL A   1      39.280  22.031  26.477  1.00  0.00     0.338 C 
ATOM     25  O   UNL A   1      39.887  21.022  26.777  1.00  0.00    -0.246 OA
BRANCH  24  26
ATOM     26  C   UNL A   1      39.876  23.334  26.715  1.00  0.00     0.060 A 
ATOM     27  C   UNL A   1      41.102  23.346  27.399  1.00  0.00     0.016 A 
ATOM     28  C   UNL A   1      39.075  24.468  26.575  1.00  0.00     0.016 A 
ATOM     29  C   UNL A   1      41.467  24.487  28.072  1.00  0.00     0.010 A 
ATOM     30  C   UNL A   1      39.425  25.591  27.274  1.00  0.00     0.010 A 
ATOM     31  C   UNL A   1      40.588  25.568  28.051  1.00  0.00    -0.014 A 
BRANCH  31  32
ATOM     32  C   UNL A   1      40.950  26.757  28.782  1.00  0.00     0.031 A 
ATOM     33  C   UNL A   1      42.121  27.454  28.207  1.00  0.00     0.074 A 
ATOM     34  C   UNL A   1      40.149  27.265  29.734  1.00  0.00     0.049 A 
ATOM     35  N   UNL A   1      43.293  27.615  28.725  1.00  0.00    -0.248 NA
ATOM     36  C   UNL A   1      42.024  27.859  26.793  1.00  0.00     0.031 C 
ATOM     37  C   UNL A   1      38.800  26.820  30.097  1.00  0.00     0.029 A 
ATOM     38  N   UNL A   1      40.314  28.394  30.464  1.00  0.00    -0.354 N 
ATOM     39  C   UNL A   1      44.009  28.338  27.777  1.00  0.00     0.074 A 
ATOM     40  C   UNL A   1      43.277  28.234  26.544  1.00  0.00     0.031 C 
ATOM     41  C   UNL A   1      38.184  27.811  30.780  1.00  0.00     0.029 A 
ATOM     42  C   UNL A   1      39.136  28.888  31.003  1.00  0.00     0.049 A 
ATOM     43  H   UNL A   1      41.190  28.823  30.601  1.00  0.00     0.167 HD
ATOM     44  C   UNL A   1      44.979  29.225  28.130  1.00  0.00     0.031 A 
ATOM     45  C   UNL A   1      38.948  30.140  31.489  1.00  0.00     0.031 A 
ATOM     46  C   UNL A   1      45.393  29.049  29.497  1.00  0.00     0.049 A 
ATOM     47  C   UNL A   1      40.291  30.726  31.738  1.00  0.00     0.074 A 
ATOM     48  C   UNL A   1      45.954  28.016  30.220  1.00  0.00     0.029 A 
ATOM     49  N   UNL A   1      44.868  29.927  30.416  1.00  0.00    -0.354 N 
ATOM     50  N   UNL A   1      41.123  30.278  32.637  1.00  0.00    -0.248 NA
ATOM     51  C   UNL A   1      40.893  31.544  30.695  1.00  0.00     0.031 C 
ATOM     52  C   UNL A   1      45.366  28.105  31.514  1.00  0.00     0.029 A 
ATOM     53  C   UNL A   1      44.514  29.213  31.532  1.00  0.00     0.049 A 
ATOM     54  H   UNL A   1      44.764  30.899  30.294  1.00  0.00     0.167 HD
ATOM     55  C   UNL A   1      42.380  30.397  32.058  1.00  0.00     0.074 A 
ATOM     56  C   UNL A   1      42.186  31.288  30.919  1.00  0.00     0.031 C 
ATOM     57  C   UNL A   1      43.392  29.542  32.390  1.00  0.00     0.031 A 
BRANCH  44  58
ATOM     58  C   UNL A   1      45.221  30.512  27.377  1.00  0.00    -0.014 A 
ATOM     59  C   UNL A   1      46.525  30.801  26.929  1.00  0.00     0.010 A 
ATOM     60  C   UNL A   1      44.284  31.568  27.332  1.00  0.00     0.010 A 
ATOM     61  C   UNL A   1      46.884  32.095  26.530  1.00  0.00     0.020 A 
ATOM     62  C   UNL A   1      44.617  32.846  26.889  1.00  0.00     0.020 A 
ATOM     63  C   UNL A   1      45.928  33.112  26.528  1.00  0.00     0.054 A 
BRANCH  63  64
ATOM     64  S   UNL A   1      46.421  34.804  26.131  1.00  0.00     0.124 S 
ATOM     65  O   UNL A   1      45.165  35.377  25.656  1.00  0.00    -0.237 OA
ATOM     66  O   UNL A   1      46.899  35.298  27.420  1.00  0.00    -0.237 OA
ATOM     67  O   UNL A   1      47.456  34.629  25.115  1.00  0.00    -0.744 OA
ENDBRANCH  63  64
ENDBRANCH  44  58
BRANCH  45  68
ATOM     68  C   UNL A   1      37.715  30.962  31.413  1.00  0.00    -0.014 A 
ATOM     69  C   UNL A   1      36.858  31.077  32.523  1.00  0.00     0.010 A 
ATOM     70  C   UNL A   1      37.516  31.850  30.335  1.00  0.00     0.010 A 
ATOM     71  C   UNL A   1      35.879  32.084  32.576  1.00  0.00     0.020 A 
ATOM     72  C   UNL A   1      36.536  32.848  30.377  1.00  0.00     0.020 A 
ATOM     73  C   UNL A   1      35.738  32.976  31.510  1.00  0.00     0.054 A 
BRANCH  73  74
ATOM     74  S   UNL A   1      34.596  34.381  31.664  1.00  0.00     0.124 S 
ATOM     75  O   UNL A   1      35.412  35.370  32.363  1.00  0.00    -0.237 OA
ATOM     76  O   UNL A   1      34.283  34.691  30.272  1.00  0.00    -0.237 OA
ATOM     77  O   UNL A   1      33.483  33.836  32.440  1.00  0.00    -0.744 OA
ENDBRANCH  73  74
ENDBRANCH  45  68
BRANCH  57  78
ATOM     78  C   UNL A   1      43.230  28.688  33.626  1.00  0.00    -0.014 A 
ATOM     79  C   UNL A   1      43.578  29.115  34.923  1.00  0.00     0.010 A 
ATOM     80  C   UNL A   1      42.549  27.467  33.482  1.00  0.00     0.010 A 
ATOM     81  C   UNL A   1      43.268  28.327  36.042  1.00  0.00     0.020 A 
ATOM     82  C   UNL A   1      42.222  26.687  34.593  1.00  0.00     0.020 A 
ATOM     83  C   UNL A   1      42.590  27.116  35.869  1.00  0.00     0.054 A 
BRANCH  83  84
ATOM     84  S   UNL A   1      42.138  26.128  37.322  1.00  0.00     0.124 S 
ATOM     85  O   UNL A   1      43.190  26.464  38.275  1.00  0.00    -0.237 OA
ATOM     86  O   UNL A   1      40.805  26.625  37.653  1.00  0.00    -0.237 OA
ATOM     87  O   UNL A   1      42.169  24.751  36.829  1.00  0.00    -0.744 OA
ENDBRANCH  83  84
ENDBRANCH  57  78
ENDBRANCH  31  32
ENDBRANCH  24  26
ENDBRANCH  23  24
ENDBRANCH   1  23
TORSDOF 16
ENDMDL
