MODEL 1
REMARK VINA RESULT:     -11.4      0.000      0.000
REMARK SMILES Nc1oc2ccc(F)cc2c(=O)c1[C@@H]1[NH2+][C@H](C(=O)OCCOC(=O)c2ccc(-c3c4nc(c(-c5ccc(S(=O)(=O)[O-])cc5)c5ccc([nH]5)c(-c5ccc(S(=O)(=O)[O-])cc5)c5nc(c(-c6ccc(S(=O)(=O)[O-])cc6)c6ccc3[nH]6)C=C5)C=C4)cc2)CS1
REMARK SMILES IDX 21 1 20 2 19 3 17 4 18 5 16 6 14 7 15 8 86 9 85 12 13 13
REMARK SMILES IDX 2 14 3 15 4 16 11 17 5 18 10 19 12 20 6 21 9 22 7 23 8 24
REMARK SMILES IDX 1 25 22 28 23 29 24 30 25 31 26 32 84 33 27 34 83 35 28 36
REMARK SMILES IDX 29 37 30 38 77 39 31 40 82 41 76 42 78 43 32 44 81 45 75 46
REMARK SMILES IDX 74 47 33 49 63 50 44 51 62 52 45 53 48 54 61 55 79 56 46 57
REMARK SMILES IDX 47 58 60 60 80 61 49 62 34 63 35 64 43 65 36 66 42 67 37 68
REMARK SMILES IDX 38 69 39 70 40 71 41 72 64 73 65 74 73 75 66 76 72 77 67 78
REMARK SMILES IDX 68 79 69 80 70 81 71 82 50 83 51 84 59 85 52 86 58 87 53 88
REMARK SMILES IDX 54 89 55 90 56 91 57 92
REMARK H PARENT 15 10 15 11 1 26 1 27 78 48 48 59
REMARK Flexibility Score: inf
ROOT
ATOM      1  C   UNL A   1      32.722  29.915  26.540  1.00  0.00     0.275 C 
ENDROOT
BRANCH   1   2
ATOM      2  C   UNL A   1      33.230  29.370  25.204  1.00  0.00     0.274 C 
BRANCH   2   3
ATOM      3  O   UNL A   1      32.134  29.226  24.281  1.00  0.00    -0.458 OA
BRANCH   3   4
ATOM      4  C   UNL A   1      32.414  28.740  23.040  1.00  0.00     0.365 C 
ATOM      5  O   UNL A   1      33.542  28.682  22.559  1.00  0.00    -0.245 OA
BRANCH   4   6
ATOM      6  C   UNL A   1      31.182  28.150  22.329  1.00  0.00     0.304 C 
ATOM      7  C   UNL A   1      30.941  25.840  22.928  1.00  0.00     0.283 C 
ATOM      8  N   UNL A   1      31.338  26.756  21.858  1.00  0.00    -0.319 N 
ATOM      9  S   UNL A   1      29.553  26.616  23.796  1.00  0.00    -0.087 SA
ATOM     10  H   UNL A   1      30.746  26.603  21.041  1.00  0.00     0.348 HD
ATOM     11  H   UNL A   1      32.312  26.586  21.605  1.00  0.00     0.348 HD
ATOM     12  C   UNL A   1      29.918  28.279  23.175  1.00  0.00     0.153 C 
BRANCH   7  13
ATOM     13  C   UNL A   1      32.117  25.428  23.781  1.00  0.00     0.128 A 
ATOM     14  C   UNL A   1      32.412  25.749  25.061  1.00  0.00     0.205 A 
ATOM     15  O   UNL A   1      33.593  25.394  25.693  1.00  0.00    -0.440 OA
ATOM     16  C   UNL A   1      34.499  24.611  25.043  1.00  0.00     0.140 A 
ATOM     17  C   UNL A   1      33.076  24.545  23.052  1.00  0.00     0.205 A 
ATOM     18  C   UNL A   1      35.651  24.255  25.746  1.00  0.00     0.051 A 
ATOM     19  C   UNL A   1      34.298  24.146  23.753  1.00  0.00     0.068 A 
ATOM     20  O   UNL A   1      32.860  24.111  21.925  1.00  0.00    -0.288 OA
ATOM     21  C   UNL A   1      36.584  23.403  25.157  1.00  0.00     0.043 A 
ATOM     22  C   UNL A   1      35.229  23.294  23.153  1.00  0.00     0.055 A 
ATOM     23  C   UNL A   1      36.359  22.924  23.869  1.00  0.00     0.124 A 
ATOM     24  F   UNL A   1      37.245  22.085  23.318  1.00  0.00    -0.207 F 
BRANCH  14  25
ATOM     25  N   UNL A   1      31.620  26.489  25.886  1.00  0.00    -0.369 N 
ATOM     26  H   UNL A   1      31.722  26.416  26.863  1.00  0.00     0.159 HD
ATOM     27  H   UNL A   1      30.946  27.098  25.505  1.00  0.00     0.159 HD
ENDBRANCH  14  25
ENDBRANCH   7  13
ENDBRANCH   4   6
ENDBRANCH   3   4
ENDBRANCH   2   3
ENDBRANCH   1   2
BRANCH   1  28
ATOM     28  O   UNL A   1      33.637  29.587  27.601  1.00  0.00    -0.458 OA
BRANCH  28  29
ATOM     29  C   UNL A   1      34.370  30.625  28.067  1.00  0.00     0.338 C 
ATOM     30  O   UNL A   1      33.975  31.723  28.415  1.00  0.00    -0.246 OA
BRANCH  29  31
ATOM     31  C   UNL A   1      35.747  30.163  28.275  1.00  0.00     0.060 A 
ATOM     32  C   UNL A   1      36.698  30.239  27.260  1.00  0.00     0.016 A 
ATOM     33  C   UNL A   1      36.088  29.683  29.541  1.00  0.00     0.016 A 
ATOM     34  C   UNL A   1      38.002  29.819  27.528  1.00  0.00     0.010 A 
ATOM     35  C   UNL A   1      37.388  29.286  29.814  1.00  0.00     0.010 A 
ATOM     36  C   UNL A   1      38.353  29.346  28.806  1.00  0.00    -0.014 A 
BRANCH  36  37
ATOM     37  C   UNL A   1      39.747  28.975  29.120  1.00  0.00     0.031 A 
ATOM     38  C   UNL A   1      40.640  29.918  29.867  1.00  0.00     0.074 A 
ATOM     39  C   UNL A   1      40.202  27.787  28.683  1.00  0.00     0.049 A 
ATOM     40  N   UNL A   1      41.852  29.713  30.311  1.00  0.00    -0.248 NA
ATOM     41  C   UNL A   1      40.121  31.269  30.137  1.00  0.00     0.031 C 
ATOM     42  C   UNL A   1      39.431  26.841  27.873  1.00  0.00     0.029 A 
ATOM     43  N   UNL A   1      41.410  27.165  28.865  1.00  0.00    -0.354 N 
ATOM     44  C   UNL A   1      42.233  30.897  30.929  1.00  0.00     0.074 A 
ATOM     45  C   UNL A   1      41.151  31.839  30.749  1.00  0.00     0.031 C 
ATOM     46  C   UNL A   1      40.163  25.734  27.678  1.00  0.00     0.029 A 
ATOM     47  C   UNL A   1      41.459  25.901  28.329  1.00  0.00     0.049 A 
ATOM     48  H   UNL A   1      42.168  27.583  29.335  1.00  0.00     0.167 HD
ATOM     49  C   UNL A   1      43.372  31.155  31.612  1.00  0.00     0.031 A 
ATOM     50  C   UNL A   1      42.427  24.966  28.385  1.00  0.00     0.031 A 
ATOM     51  C   UNL A   1      44.435  30.198  31.776  1.00  0.00     0.049 A 
ATOM     52  C   UNL A   1      43.671  25.262  29.171  1.00  0.00     0.074 A 
ATOM     53  C   UNL A   1      45.611  30.335  32.492  1.00  0.00     0.029 A 
ATOM     54  N   UNL A   1      44.450  28.927  31.219  1.00  0.00    -0.354 N 
ATOM     55  N   UNL A   1      43.980  26.355  29.829  1.00  0.00    -0.248 NA
ATOM     56  C   UNL A   1      44.684  24.203  29.245  1.00  0.00     0.031 C 
ATOM     57  C   UNL A   1      46.359  29.168  32.325  1.00  0.00     0.029 A 
ATOM     58  C   UNL A   1      45.624  28.278  31.558  1.00  0.00     0.049 A 
ATOM     59  H   UNL A   1      43.733  28.545  30.664  1.00  0.00     0.167 HD
ATOM     60  C   UNL A   1      45.220  26.112  30.406  1.00  0.00     0.074 A 
ATOM     61  C   UNL A   1      45.595  24.761  30.035  1.00  0.00     0.031 C 
ATOM     62  C   UNL A   1      45.980  26.935  31.169  1.00  0.00     0.031 A 
BRANCH  49  63
ATOM     63  C   UNL A   1      43.522  32.502  32.269  1.00  0.00    -0.014 A 
ATOM     64  C   UNL A   1      42.985  32.730  33.549  1.00  0.00     0.010 A 
ATOM     65  C   UNL A   1      44.094  33.579  31.568  1.00  0.00     0.010 A 
ATOM     66  C   UNL A   1      42.993  34.013  34.104  1.00  0.00     0.020 A 
ATOM     67  C   UNL A   1      44.128  34.858  32.129  1.00  0.00     0.020 A 
ATOM     68  C   UNL A   1      43.555  35.071  33.386  1.00  0.00     0.054 A 
BRANCH  68  69
ATOM     69  S   UNL A   1      43.535  36.736  34.108  1.00  0.00     0.124 S 
ATOM     70  O   UNL A   1      42.261  36.748  34.820  1.00  0.00    -0.237 OA
ATOM     71  O   UNL A   1      44.729  36.735  34.951  1.00  0.00    -0.237 OA
ATOM     72  O   UNL A   1      43.609  37.614  32.943  1.00  0.00    -0.744 OA
ENDBRANCH  68  69
ENDBRANCH  49  63
BRANCH  50  73
ATOM     73  C   UNL A   1      42.185  23.645  27.746  1.00  0.00    -0.014 A 
ATOM     74  C   UNL A   1      41.562  22.608  28.465  1.00  0.00     0.010 A 
ATOM     75  C   UNL A   1      42.690  23.380  26.461  1.00  0.00     0.010 A 
ATOM     76  C   UNL A   1      41.499  21.316  27.934  1.00  0.00     0.020 A 
ATOM     77  C   UNL A   1      42.605  22.094  25.916  1.00  0.00     0.020 A 
ATOM     78  C   UNL A   1      42.038  21.065  26.670  1.00  0.00     0.054 A 
BRANCH  78  79
ATOM     79  S   UNL A   1      42.009  19.367  26.028  1.00  0.00     0.124 S 
ATOM     80  O   UNL A   1      40.585  19.171  25.768  1.00  0.00    -0.237 OA
ATOM     81  O   UNL A   1      42.858  19.458  24.842  1.00  0.00    -0.237 OA
ATOM     82  O   UNL A   1      42.560  18.579  27.125  1.00  0.00    -0.744 OA
ENDBRANCH  78  79
ENDBRANCH  50  73
BRANCH  62  83
ATOM     83  C   UNL A   1      47.307  26.418  31.655  1.00  0.00    -0.014 A 
ATOM     84  C   UNL A   1      48.452  26.573  30.851  1.00  0.00     0.010 A 
ATOM     85  C   UNL A   1      47.390  25.657  32.833  1.00  0.00     0.010 A 
ATOM     86  C   UNL A   1      49.649  25.946  31.199  1.00  0.00     0.020 A 
ATOM     87  C   UNL A   1      48.594  25.049  33.197  1.00  0.00     0.020 A 
ATOM     88  C   UNL A   1      49.708  25.175  32.364  1.00  0.00     0.054 A 
BRANCH  88  89
ATOM     89  S   UNL A   1      51.259  24.333  32.780  1.00  0.00     0.124 S 
ATOM     90  O   UNL A   1      51.473  24.752  34.162  1.00  0.00    -0.237 OA
ATOM     91  O   UNL A   1      50.921  22.924  32.594  1.00  0.00    -0.237 OA
ATOM     92  O   UNL A   1      52.210  24.870  31.810  1.00  0.00    -0.744 OA
ENDBRANCH  88  89
ENDBRANCH  62  83
ENDBRANCH  36  37
ENDBRANCH  29  31
ENDBRANCH  28  29
ENDBRANCH   1  28
TORSDOF 16
ENDMDL
MODEL 2
REMARK VINA RESULT:     -11.0      2.067      3.445
REMARK SMILES Nc1oc2ccc(F)cc2c(=O)c1[C@@H]1[NH2+][C@H](C(=O)OCCOC(=O)c2ccc(-c3c4nc(c(-c5ccc(S(=O)(=O)[O-])cc5)c5ccc([nH]5)c(-c5ccc(S(=O)(=O)[O-])cc5)c5nc(c(-c6ccc(S(=O)(=O)[O-])cc6)c6ccc3[nH]6)C=C5)C=C4)cc2)CS1
REMARK SMILES IDX 21 1 20 2 19 3 17 4 18 5 16 6 14 7 15 8 86 9 85 12 13 13
REMARK SMILES IDX 2 14 3 15 4 16 11 17 5 18 10 19 12 20 6 21 9 22 7 23 8 24
REMARK SMILES IDX 1 25 22 28 23 29 24 30 25 31 26 32 84 33 27 34 83 35 28 36
REMARK SMILES IDX 29 37 30 38 77 39 31 40 82 41 76 42 78 43 32 44 81 45 75 46
REMARK SMILES IDX 74 47 33 49 63 50 44 51 62 52 45 53 48 54 61 55 79 56 46 57
REMARK SMILES IDX 47 58 60 60 80 61 49 62 34 63 35 64 43 65 36 66 42 67 37 68
REMARK SMILES IDX 38 69 39 70 40 71 41 72 64 73 65 74 73 75 66 76 72 77 67 78
REMARK SMILES IDX 68 79 69 80 70 81 71 82 50 83 51 84 59 85 52 86 58 87 53 88
REMARK SMILES IDX 54 89 55 90 56 91 57 92
REMARK H PARENT 15 10 15 11 1 26 1 27 78 48 48 59
REMARK Flexibility Score: inf
ROOT
ATOM      1  C   UNL A   1      33.612  28.824  26.282  1.00  0.00     0.275 C 
ENDROOT
BRANCH   1   2
ATOM      2  C   UNL A   1      33.873  27.322  26.412  1.00  0.00     0.274 C 
BRANCH   2   3
ATOM      3  O   UNL A   1      32.816  26.579  25.778  1.00  0.00    -0.458 OA
BRANCH   3   4
ATOM      4  C   UNL A   1      31.714  26.290  26.523  1.00  0.00     0.365 C 
ATOM      5  O   UNL A   1      31.144  27.093  27.255  1.00  0.00    -0.245 OA
BRANCH   4   6
ATOM      6  C   UNL A   1      31.166  24.873  26.268  1.00  0.00     0.304 C 
ATOM      7  C   UNL A   1      30.328  24.729  24.024  1.00  0.00     0.283 C 
ATOM      8  N   UNL A   1      29.945  24.814  25.434  1.00  0.00    -0.319 N 
ATOM      9  S   UNL A   1      31.828  23.715  23.948  1.00  0.00    -0.087 SA
ATOM     10  H   UNL A   1      29.397  23.992  25.688  1.00  0.00     0.348 HD
ATOM     11  H   UNL A   1      29.384  25.653  25.587  1.00  0.00     0.348 HD
ATOM     12  C   UNL A   1      32.233  23.941  25.700  1.00  0.00     0.153 C 
BRANCH   7  13
ATOM     13  C   UNL A   1      30.410  26.093  23.382  1.00  0.00     0.128 A 
ATOM     14  C   UNL A   1      31.435  26.678  22.721  1.00  0.00     0.205 A 
ATOM     15  O   UNL A   1      31.418  27.991  22.277  1.00  0.00    -0.440 OA
ATOM     16  C   UNL A   1      30.291  28.741  22.429  1.00  0.00     0.140 A 
ATOM     17  C   UNL A   1      29.150  26.880  23.537  1.00  0.00     0.205 A 
ATOM     18  C   UNL A   1      30.321  30.043  21.926  1.00  0.00     0.051 A 
ATOM     19  C   UNL A   1      29.138  28.250  23.022  1.00  0.00     0.068 A 
ATOM     20  O   UNL A   1      28.127  26.413  24.028  1.00  0.00    -0.288 OA
ATOM     21  C   UNL A   1      29.177  30.837  21.994  1.00  0.00     0.043 A 
ATOM     22  C   UNL A   1      27.987  29.039  23.097  1.00  0.00     0.055 A 
ATOM     23  C   UNL A   1      28.019  30.324  22.572  1.00  0.00     0.124 A 
ATOM     24  F   UNL A   1      26.915  31.081  22.611  1.00  0.00    -0.207 F 
BRANCH  14  25
ATOM     25  N   UNL A   1      32.626  26.083  22.438  1.00  0.00    -0.369 N 
ATOM     26  H   UNL A   1      33.066  26.246  21.571  1.00  0.00     0.159 HD
ATOM     27  H   UNL A   1      33.049  25.489  23.100  1.00  0.00     0.159 HD
ENDBRANCH  14  25
ENDBRANCH   7  13
ENDBRANCH   4   6
ENDBRANCH   3   4
ENDBRANCH   2   3
ENDBRANCH   1   2
BRANCH   1  28
ATOM     28  O   UNL A   1      33.583  29.447  27.578  1.00  0.00    -0.458 OA
BRANCH  28  29
ATOM     29  C   UNL A   1      34.394  30.522  27.716  1.00  0.00     0.338 C 
ATOM     30  O   UNL A   1      34.078  31.698  27.745  1.00  0.00    -0.246 OA
BRANCH  29  31
ATOM     31  C   UNL A   1      35.747  30.046  28.018  1.00  0.00     0.060 A 
ATOM     32  C   UNL A   1      36.778  30.148  27.086  1.00  0.00     0.016 A 
ATOM     33  C   UNL A   1      35.984  29.524  29.291  1.00  0.00     0.016 A 
ATOM     34  C   UNL A   1      38.055  29.712  27.443  1.00  0.00     0.010 A 
ATOM     35  C   UNL A   1      37.257  29.110  29.655  1.00  0.00     0.010 A 
ATOM     36  C   UNL A   1      38.299  29.196  28.730  1.00  0.00    -0.014 A 
BRANCH  36  37
ATOM     37  C   UNL A   1      39.662  28.806  29.143  1.00  0.00     0.031 A 
ATOM     38  C   UNL A   1      40.496  29.720  29.990  1.00  0.00     0.074 A 
ATOM     39  C   UNL A   1      40.148  27.631  28.705  1.00  0.00     0.049 A 
ATOM     40  N   UNL A   1      41.667  29.493  30.523  1.00  0.00    -0.248 NA
ATOM     41  C   UNL A   1      39.961  31.064  30.262  1.00  0.00     0.031 C 
ATOM     42  C   UNL A   1      39.441  26.716  27.805  1.00  0.00     0.029 A 
ATOM     43  N   UNL A   1      41.335  26.996  28.963  1.00  0.00    -0.354 N 
ATOM     44  C   UNL A   1      42.001  30.654  31.209  1.00  0.00     0.074 A 
ATOM     45  C   UNL A   1      40.940  31.608  30.973  1.00  0.00     0.031 C 
ATOM     46  C   UNL A   1      40.183  25.612  27.633  1.00  0.00     0.029 A 
ATOM     47  C   UNL A   1      41.423  25.750  28.391  1.00  0.00     0.049 A 
ATOM     48  H   UNL A   1      42.053  27.394  29.506  1.00  0.00     0.167 HD
ATOM     49  C   UNL A   1      43.082  30.883  31.989  1.00  0.00     0.031 A 
ATOM     50  C   UNL A   1      42.380  24.808  28.494  1.00  0.00     0.031 A 
ATOM     51  C   UNL A   1      44.125  29.915  32.206  1.00  0.00     0.049 A 
ATOM     52  C   UNL A   1      43.557  25.071  29.388  1.00  0.00     0.074 A 
ATOM     53  C   UNL A   1      45.240  30.021  33.019  1.00  0.00     0.029 A 
ATOM     54  N   UNL A   1      44.181  28.662  31.611  1.00  0.00    -0.354 N 
ATOM     55  N   UNL A   1      43.816  26.140  30.103  1.00  0.00    -0.248 NA
ATOM     56  C   UNL A   1      44.558  24.004  29.508  1.00  0.00     0.031 C 
ATOM     57  C   UNL A   1      45.995  28.856  32.874  1.00  0.00     0.029 A 
ATOM     58  C   UNL A   1      45.322  27.996  32.021  1.00  0.00     0.049 A 
ATOM     59  H   UNL A   1      43.509  28.302  30.988  1.00  0.00     0.167 HD
ATOM     60  C   UNL A   1      45.005  25.871  30.770  1.00  0.00     0.074 A 
ATOM     61  C   UNL A   1      45.404  24.531  30.386  1.00  0.00     0.031 C 
ATOM     62  C   UNL A   1      45.703  26.663  31.619  1.00  0.00     0.031 A 
BRANCH  49  63
ATOM     63  C   UNL A   1      43.183  32.206  32.700  1.00  0.00    -0.014 A 
ATOM     64  C   UNL A   1      42.471  32.427  33.893  1.00  0.00     0.010 A 
ATOM     65  C   UNL A   1      43.893  33.275  32.123  1.00  0.00     0.010 A 
ATOM     66  C   UNL A   1      42.444  33.695  34.481  1.00  0.00     0.020 A 
ATOM     67  C   UNL A   1      43.890  34.538  32.720  1.00  0.00     0.020 A 
ATOM     68  C   UNL A   1      43.146  34.746  33.884  1.00  0.00     0.054 A 
BRANCH  68  69
ATOM     69  S   UNL A   1      43.081  36.393  34.644  1.00  0.00     0.124 S 
ATOM     70  O   UNL A   1      44.294  36.406  35.455  1.00  0.00    -0.237 OA
ATOM     71  O   UNL A   1      43.085  37.282  33.484  1.00  0.00    -0.237 OA
ATOM     72  O   UNL A   1      41.827  36.372  35.394  1.00  0.00    -0.744 OA
ENDBRANCH  68  69
ENDBRANCH  49  63
BRANCH  50  73
ATOM     73  C   UNL A   1      42.186  23.510  27.795  1.00  0.00    -0.014 A 
ATOM     74  C   UNL A   1      41.438  22.480  28.395  1.00  0.00     0.010 A 
ATOM     75  C   UNL A   1      42.853  23.254  26.584  1.00  0.00     0.010 A 
ATOM     76  C   UNL A   1      41.407  21.202  27.827  1.00  0.00     0.020 A 
ATOM     77  C   UNL A   1      42.803  21.984  26.000  1.00  0.00     0.020 A 
ATOM     78  C   UNL A   1      42.106  20.959  26.643  1.00  0.00     0.054 A 
BRANCH  78  79
ATOM     79  S   UNL A   1      42.111  19.278  25.960  1.00  0.00     0.124 S 
ATOM     80  O   UNL A   1      42.664  18.507  27.070  1.00  0.00    -0.237 OA
ATOM     81  O   UNL A   1      40.698  19.043  25.673  1.00  0.00    -0.237 OA
ATOM     82  O   UNL A   1      42.971  19.390  24.786  1.00  0.00    -0.744 OA
ENDBRANCH  78  79
ENDBRANCH  50  73
BRANCH  62  83
ATOM     83  C   UNL A   1      46.985  26.124  32.192  1.00  0.00    -0.014 A 
ATOM     84  C   UNL A   1      48.176  26.219  31.449  1.00  0.00     0.010 A 
ATOM     85  C   UNL A   1      46.980  25.399  33.396  1.00  0.00     0.010 A 
ATOM     86  C   UNL A   1      49.332  25.568  31.881  1.00  0.00     0.020 A 
ATOM     87  C   UNL A   1      48.142  24.767  33.845  1.00  0.00     0.020 A 
ATOM     88  C   UNL A   1      49.304  24.833  33.070  1.00  0.00     0.054 A 
BRANCH  88  89
ATOM     89  S   UNL A   1      50.803  23.959  33.597  1.00  0.00     0.124 S 
ATOM     90  O   UNL A   1      51.169  23.225  32.390  1.00  0.00    -0.237 OA
ATOM     91  O   UNL A   1      51.700  25.051  33.967  1.00  0.00    -0.237 OA
ATOM     92  O   UNL A   1      50.343  23.136  34.714  1.00  0.00    -0.744 OA
ENDBRANCH  88  89
ENDBRANCH  62  83
ENDBRANCH  36  37
ENDBRANCH  29  31
ENDBRANCH  28  29
ENDBRANCH   1  28
TORSDOF 16
ENDMDL
MODEL 3
REMARK VINA RESULT:     -10.9      3.069      9.242
REMARK SMILES Nc1oc2ccc(F)cc2c(=O)c1[C@@H]1[NH2+][C@H](C(=O)OCCOC(=O)c2ccc(-c3c4nc(c(-c5ccc(S(=O)(=O)[O-])cc5)c5ccc([nH]5)c(-c5ccc(S(=O)(=O)[O-])cc5)c5nc(c(-c6ccc(S(=O)(=O)[O-])cc6)c6ccc3[nH]6)C=C5)C=C4)cc2)CS1
REMARK SMILES IDX 21 1 20 2 19 3 17 4 18 5 16 6 14 7 15 8 86 9 85 12 13 13
REMARK SMILES IDX 2 14 3 15 4 16 11 17 5 18 10 19 12 20 6 21 9 22 7 23 8 24
REMARK SMILES IDX 1 25 22 28 23 29 24 30 25 31 26 32 84 33 27 34 83 35 28 36
REMARK SMILES IDX 29 37 30 38 77 39 31 40 82 41 76 42 78 43 32 44 81 45 75 46
REMARK SMILES IDX 74 47 33 49 63 50 44 51 62 52 45 53 48 54 61 55 79 56 46 57
REMARK SMILES IDX 47 58 60 60 80 61 49 62 34 63 35 64 43 65 36 66 42 67 37 68
REMARK SMILES IDX 38 69 39 70 40 71 41 72 64 73 65 74 73 75 66 76 72 77 67 78
REMARK SMILES IDX 68 79 69 80 70 81 71 82 50 83 51 84 59 85 52 86 58 87 53 88
REMARK SMILES IDX 54 89 55 90 56 91 57 92
REMARK H PARENT 15 10 15 11 1 26 1 27 78 48 48 59
REMARK Flexibility Score: inf
ROOT
ATOM      1  C   UNL A   1      36.966  21.916  25.202  1.00  0.00     0.275 C 
ENDROOT
BRANCH   1   2
ATOM      2  C   UNL A   1      35.801  22.210  24.255  1.00  0.00     0.274 C 
BRANCH   2   3
ATOM      3  O   UNL A   1      35.791  23.606  23.902  1.00  0.00    -0.458 OA
BRANCH   3   4
ATOM      4  C   UNL A   1      34.818  24.387  24.446  1.00  0.00     0.365 C 
ATOM      5  O   UNL A   1      34.742  24.667  25.639  1.00  0.00    -0.245 OA
BRANCH   4   6
ATOM      6  C   UNL A   1      33.873  24.997  23.393  1.00  0.00     0.304 C 
ATOM      7  C   UNL A   1      31.939  23.599  23.145  1.00  0.00     0.283 C 
ATOM      8  N   UNL A   1      33.193  24.015  22.518  1.00  0.00    -0.319 N 
ATOM      9  S   UNL A   1      31.265  25.055  23.989  1.00  0.00    -0.087 SA
ATOM     10  H   UNL A   1      32.996  24.443  21.613  1.00  0.00     0.348 HD
ATOM     11  H   UNL A   1      33.795  23.203  22.382  1.00  0.00     0.348 HD
ATOM     12  C   UNL A   1      32.848  25.938  24.019  1.00  0.00     0.153 C 
BRANCH   7  13
ATOM     13  C   UNL A   1      32.118  22.361  23.990  1.00  0.00     0.128 A 
ATOM     14  C   UNL A   1      32.165  22.230  25.336  1.00  0.00     0.205 A 
ATOM     15  O   UNL A   1      32.452  21.040  25.986  1.00  0.00    -0.440 OA
ATOM     16  C   UNL A   1      32.624  19.898  25.262  1.00  0.00     0.140 A 
ATOM     17  C   UNL A   1      32.272  21.122  23.170  1.00  0.00     0.205 A 
ATOM     18  C   UNL A   1      32.871  18.725  25.975  1.00  0.00     0.051 A 
ATOM     19  C   UNL A   1      32.531  19.867  23.879  1.00  0.00     0.068 A 
ATOM     20  O   UNL A   1      32.145  21.108  21.950  1.00  0.00    -0.288 OA
ATOM     21  C   UNL A   1      32.992  17.514  25.294  1.00  0.00     0.043 A 
ATOM     22  C   UNL A   1      32.653  18.659  23.187  1.00  0.00     0.055 A 
ATOM     23  C   UNL A   1      32.873  17.493  23.907  1.00  0.00     0.124 A 
ATOM     24  F   UNL A   1      32.963  16.324  23.260  1.00  0.00    -0.207 F 
BRANCH  14  25
ATOM     25  N   UNL A   1      31.982  23.242  26.228  1.00  0.00    -0.369 N 
ATOM     26  H   UNL A   1      31.492  23.077  27.067  1.00  0.00     0.159 HD
ATOM     27  H   UNL A   1      32.339  24.139  26.035  1.00  0.00     0.159 HD
ENDBRANCH  14  25
ENDBRANCH   7  13
ENDBRANCH   4   6
ENDBRANCH   3   4
ENDBRANCH   2   3
ENDBRANCH   1   2
BRANCH   1  28
ATOM     28  O   UNL A   1      37.765  23.094  25.404  1.00  0.00    -0.458 OA
BRANCH  28  29
ATOM     29  C   UNL A   1      38.900  22.902  26.116  1.00  0.00     0.338 C 
ATOM     30  O   UNL A   1      39.636  21.932  26.103  1.00  0.00    -0.246 OA
BRANCH  29  31
ATOM     31  C   UNL A   1      39.234  24.155  26.801  1.00  0.00     0.060 A 
ATOM     32  C   UNL A   1      38.820  24.400  28.109  1.00  0.00     0.016 A 
ATOM     33  C   UNL A   1      40.021  25.083  26.116  1.00  0.00     0.016 A 
ATOM     34  C   UNL A   1      39.199  25.594  28.723  1.00  0.00     0.010 A 
ATOM     35  C   UNL A   1      40.417  26.260  26.732  1.00  0.00     0.010 A 
ATOM     36  C   UNL A   1      40.003  26.526  28.039  1.00  0.00    -0.014 A 
BRANCH  36  37
ATOM     37  C   UNL A   1      40.474  27.755  28.709  1.00  0.00     0.031 A 
ATOM     38  C   UNL A   1      41.892  27.874  29.178  1.00  0.00     0.074 A 
ATOM     39  C   UNL A   1      39.587  28.744  28.920  1.00  0.00     0.049 A 
ATOM     40  N   UNL A   1      42.495  28.914  29.690  1.00  0.00    -0.248 NA
ATOM     41  C   UNL A   1      42.740  26.674  29.079  1.00  0.00     0.031 C 
ATOM     42  C   UNL A   1      38.164  28.681  28.576  1.00  0.00     0.029 A 
ATOM     43  N   UNL A   1      39.746  29.994  29.459  1.00  0.00    -0.354 N 
ATOM     44  C   UNL A   1      43.795  28.503  29.956  1.00  0.00     0.074 A 
ATOM     45  C   UNL A   1      43.879  27.102  29.609  1.00  0.00     0.031 C 
ATOM     46  C   UNL A   1      37.594  29.861  28.858  1.00  0.00     0.029 A 
ATOM     47  C   UNL A   1      38.602  30.754  29.421  1.00  0.00     0.049 A 
ATOM     48  H   UNL A   1      40.597  30.315  29.836  1.00  0.00     0.167 HD
ATOM     49  C   UNL A   1      44.829  29.244  30.417  1.00  0.00     0.031 A 
ATOM     50  C   UNL A   1      38.396  32.039  29.767  1.00  0.00     0.031 A 
ATOM     51  C   UNL A   1      44.718  30.638  30.757  1.00  0.00     0.049 A 
ATOM     52  C   UNL A   1      39.563  32.851  30.250  1.00  0.00     0.074 A 
ATOM     53  C   UNL A   1      45.713  31.500  31.184  1.00  0.00     0.029 A 
ATOM     54  N   UNL A   1      43.544  31.377  30.705  1.00  0.00    -0.354 N 
ATOM     55  N   UNL A   1      40.810  32.475  30.411  1.00  0.00    -0.248 NA
ATOM     56  C   UNL A   1      39.309  34.259  30.578  1.00  0.00     0.031 C 
ATOM     57  C   UNL A   1      45.131  32.743  31.440  1.00  0.00     0.029 A 
ATOM     58  C   UNL A   1      43.786  32.676  31.113  1.00  0.00     0.049 A 
ATOM     59  H   UNL A   1      42.669  31.027  30.421  1.00  0.00     0.167 HD
ATOM     60  C   UNL A   1      41.493  33.602  30.848  1.00  0.00     0.074 A 
ATOM     61  C   UNL A   1      40.525  34.679  30.907  1.00  0.00     0.031 C 
ATOM     62  C   UNL A   1      42.803  33.731  31.172  1.00  0.00     0.031 A 
BRANCH  49  63
ATOM     63  C   UNL A   1      46.178  28.587  30.548  1.00  0.00    -0.014 A 
ATOM     64  C   UNL A   1      46.556  27.977  31.758  1.00  0.00     0.010 A 
ATOM     65  C   UNL A   1      47.119  28.676  29.506  1.00  0.00     0.010 A 
ATOM     66  C   UNL A   1      47.856  27.494  31.934  1.00  0.00     0.020 A 
ATOM     67  C   UNL A   1      48.412  28.171  29.668  1.00  0.00     0.020 A 
ATOM     68  C   UNL A   1      48.779  27.603  30.891  1.00  0.00     0.054 A 
BRANCH  68  69
ATOM     69  S   UNL A   1      50.470  26.994  31.143  1.00  0.00     0.124 S 
ATOM     70  O   UNL A   1      50.746  26.317  29.880  1.00  0.00    -0.237 OA
ATOM     71  O   UNL A   1      51.222  28.225  31.378  1.00  0.00    -0.237 OA
ATOM     72  O   UNL A   1      50.346  26.121  32.308  1.00  0.00    -0.744 OA
ENDBRANCH  68  69
ENDBRANCH  49  63
BRANCH  50  73
ATOM     73  C   UNL A   1      37.045  32.627  29.569  1.00  0.00    -0.014 A 
ATOM     74  C   UNL A   1      36.662  33.128  28.310  1.00  0.00     0.010 A 
ATOM     75  C   UNL A   1      36.184  32.804  30.667  1.00  0.00     0.010 A 
ATOM     76  C   UNL A   1      35.469  33.843  28.165  1.00  0.00     0.020 A 
ATOM     77  C   UNL A   1      34.978  33.497  30.519  1.00  0.00     0.020 A 
ATOM     78  C   UNL A   1      34.645  34.038  29.276  1.00  0.00     0.054 A 
BRANCH  78  79
ATOM     79  S   UNL A   1      33.137  35.030  29.082  1.00  0.00     0.124 S 
ATOM     80  O   UNL A   1      32.423  34.287  28.047  1.00  0.00    -0.237 OA
ATOM     81  O   UNL A   1      32.544  34.976  30.417  1.00  0.00    -0.237 OA
ATOM     82  O   UNL A   1      33.639  36.340  28.679  1.00  0.00    -0.744 OA
ENDBRANCH  78  79
ENDBRANCH  50  73
BRANCH  62  83
ATOM     83  C   UNL A   1      43.283  35.078  31.640  1.00  0.00    -0.014 A 
ATOM     84  C   UNL A   1      43.195  35.415  33.003  1.00  0.00     0.010 A 
ATOM     85  C   UNL A   1      43.682  36.055  30.713  1.00  0.00     0.010 A 
ATOM     86  C   UNL A   1      43.464  36.717  33.428  1.00  0.00     0.020 A 
ATOM     87  C   UNL A   1      43.978  37.353  31.137  1.00  0.00     0.020 A 
ATOM     88  C   UNL A   1      43.841  37.682  32.489  1.00  0.00     0.054 A 
BRANCH  88  89
ATOM     89  S   UNL A   1      44.147  39.379  33.050  1.00  0.00     0.124 S 
ATOM     90  O   UNL A   1      44.400  39.189  34.475  1.00  0.00    -0.237 OA
ATOM     91  O   UNL A   1      45.305  39.778  32.253  1.00  0.00    -0.237 OA
ATOM     92  O   UNL A   1      42.906  40.077  32.722  1.00  0.00    -0.744 OA
ENDBRANCH  88  89
ENDBRANCH  62  83
ENDBRANCH  36  37
ENDBRANCH  29  31
ENDBRANCH  28  29
ENDBRANCH   1  28
TORSDOF 16
ENDMDL
