MODEL 1
REMARK VINA RESULT:     -11.8      0.000      0.000
REMARK SMILES Cc1ccc(S(=O)(=O)n2cc(C(=O)C(=O)N[C@H](Cc3c[nH]c4ccccc34)C(=O)NCC(=O)OCCOC(=O)c3ccc(-c4c5nc(c(-c6ccc(S(=O)(=O)[O-])cc6)c6ccc([nH]6)c(-c6ccc(S(=O)(=O)[O-])cc6)c6nc(c(-c7ccc(S(=O)(=O)[O-])cc7)c7ccc4[nH]7)C=C6)C=C5)cc3)c3ccccc32)cc1
REMARK SMILES IDX 32 1 33 2 31 3 30 4 28 5 29 6 17 8 16 9 14 10 15 11 12 13
REMARK SMILES IDX 13 14 11 15 9 16 10 17 105 18 100 19 104 20 101 21 103 22
REMARK SMILES IDX 102 23 6 24 7 25 8 26 5 27 1 28 2 29 3 30 107 31 4 32 106 33
REMARK SMILES IDX 18 34 19 35 20 36 27 37 21 38 22 39 26 40 23 42 25 43 24 44
REMARK SMILES IDX 34 45 35 46 36 47 37 48 38 49 39 50 40 51 41 52 99 53 42 54
REMARK SMILES IDX 98 55 43 56 44 57 45 58 92 59 46 60 97 61 91 62 93 63 47 64
REMARK SMILES IDX 96 65 90 66 89 67 48 69 78 70 59 71 77 72 60 73 63 74 76 75
REMARK SMILES IDX 94 76 61 77 62 78 75 80 95 81 64 82 49 83 50 84 58 85 51 86
REMARK SMILES IDX 57 87 52 88 53 89 54 90 55 91 56 92 79 93 80 94 88 95 81 96
REMARK SMILES IDX 87 97 82 98 83 99 84 100 85 101 86 102 65 103 66 104 74 105
REMARK SMILES IDX 67 106 73 107 68 108 69 109 70 110 71 111 72 112
REMARK H PARENT 30 7 16 12 21 41 93 68 63 79
REMARK Flexibility Score: inf
ROOT
ATOM      1  C   UNL A   1      38.083  28.757  32.321  1.00  0.00     0.325 C 
ATOM      2  O   UNL A   1      37.278  28.519  33.207  1.00  0.00    -0.250 OA
ENDROOT
BRANCH   1   3
ATOM      3  C   UNL A   1      37.850  29.707  31.050  1.00  0.00     0.238 C 
BRANCH   3   4
ATOM      4  N   UNL A   1      37.557  31.080  30.637  1.00  0.00    -0.343 N 
ATOM      5  C   UNL A   1      37.382  32.201  31.437  1.00  0.00     0.243 C 
ATOM      6  O   UNL A   1      37.693  33.283  30.913  1.00  0.00    -0.273 OA
ATOM      7  H   UNL A   1      37.471  31.228  29.668  1.00  0.00     0.164 HD
BRANCH   5   8
ATOM      8  C   UNL A   1      36.756  32.258  32.921  1.00  0.00     0.176 C 
BRANCH   8   9
ATOM      9  N   UNL A   1      37.490  31.570  34.276  1.00  0.00    -0.337 N 
ATOM     10  C   UNL A   1      38.020  31.749  35.638  1.00  0.00     0.293 C 
ATOM     11  O   UNL A   1      38.759  30.811  35.970  1.00  0.00    -0.265 OA
ATOM     12  H   UNL A   1      37.625  30.619  34.056  1.00  0.00     0.164 HD
BRANCH  10  13
ATOM     13  C   UNL A   1      37.690  32.969  36.861  1.00  0.00     0.252 C 
ATOM     14  O   UNL A   1      36.504  33.184  37.108  1.00  0.00    -0.283 OA
BRANCH  13  15
ATOM     15  C   UNL A   1      38.883  33.670  37.898  1.00  0.00     0.054 A 
ATOM     16  N   UNL A   1      39.864  36.367  36.867  1.00  0.00    -0.240 N 
ATOM     17  C   UNL A   1      39.162  34.719  36.452  1.00  0.00     0.117 A 
ATOM     18  C   UNL A   1      39.409  36.659  38.777  1.00  0.00     0.065 A 
ATOM     19  C   UNL A   1      39.066  34.942  39.555  1.00  0.00     0.012 A 
ATOM     20  C   UNL A   1      39.467  37.703  39.787  1.00  0.00     0.028 A 
ATOM     21  C   UNL A   1      39.626  34.866  40.901  1.00  0.00     0.011 A 
ATOM     22  C   UNL A   1      39.707  37.346  41.161  1.00  0.00     0.002 A 
ATOM     23  C   UNL A   1      39.844  36.030  41.669  1.00  0.00     0.001 A 
BRANCH  16  24
ATOM     24  S   UNL A   1      41.338  35.258  35.554  1.00  0.00     0.268 S 
ATOM     25  O   UNL A   1      42.332  35.052  36.608  1.00  0.00    -0.201 OA
ATOM     26  O   UNL A   1      41.785  36.182  34.514  1.00  0.00    -0.201 OA
BRANCH  24  27
ATOM     27  C   UNL A   1      41.832  33.605  34.287  1.00  0.00     0.088 A 
ATOM     28  C   UNL A   1      42.639  31.320  30.707  1.00  0.00     0.044 C 
ATOM     29  C   UNL A   1      42.245  31.694  32.106  1.00  0.00    -0.051 A 
ATOM     30  C   UNL A   1      43.255  31.923  32.982  1.00  0.00     0.005 A 
ATOM     31  C   UNL A   1      40.968  32.083  32.538  1.00  0.00     0.005 A 
ATOM     32  C   UNL A   1      43.011  32.803  34.056  1.00  0.00     0.022 A 
ATOM     33  C   UNL A   1      40.757  33.016  33.623  1.00  0.00     0.022 A 
ENDBRANCH  24  27
ENDBRANCH  16  24
ENDBRANCH  13  15
ENDBRANCH  10  13
ENDBRANCH   8   9
BRANCH   8  34
ATOM     34  C   UNL A   1      35.232  32.671  33.086  1.00  0.00     0.072 C 
BRANCH  34  35
ATOM     35  C   UNL A   1      34.766  34.088  32.941  1.00  0.00    -0.020 A 
ATOM     36  C   UNL A   1      34.753  35.052  33.939  1.00  0.00     0.087 A 
ATOM     37  C   UNL A   1      34.292  34.729  31.769  1.00  0.00     0.003 A 
ATOM     38  N   UNL A   1      34.048  36.131  33.483  1.00  0.00    -0.361 N 
ATOM     39  C   UNL A   1      33.777  35.970  32.148  1.00  0.00     0.046 A 
ATOM     40  C   UNL A   1      34.208  34.333  30.427  1.00  0.00     0.010 A 
ATOM     41  H   UNL A   1      33.775  36.904  34.029  1.00  0.00     0.166 HD
ATOM     42  C   UNL A   1      33.117  36.815  31.256  1.00  0.00     0.026 A 
ATOM     43  C   UNL A   1      33.601  35.189  29.509  1.00  0.00     0.001 A 
ATOM     44  C   UNL A   1      33.051  36.401  29.922  1.00  0.00     0.002 A 
ENDBRANCH  34  35
ENDBRANCH   8  34
ENDBRANCH   5   8
ENDBRANCH   3   4
ENDBRANCH   1   3
BRANCH   1  45
ATOM     45  O   UNL A   1      39.257  28.046  32.176  1.00  0.00    -0.461 OA
BRANCH  45  46
ATOM     46  C   UNL A   1      40.368  28.362  31.251  1.00  0.00     0.274 C 
BRANCH  46  47
ATOM     47  C   UNL A   1      40.334  27.806  29.792  1.00  0.00     0.275 C 
BRANCH  47  48
ATOM     48  O   UNL A   1      40.921  28.652  28.797  1.00  0.00    -0.458 OA
BRANCH  48  49
ATOM     49  C   UNL A   1      40.912  28.151  27.541  1.00  0.00     0.338 C 
ATOM     50  O   UNL A   1      40.267  28.539  26.583  1.00  0.00    -0.246 OA
BRANCH  49  51
ATOM     51  C   UNL A   1      42.215  27.482  27.431  1.00  0.00     0.060 A 
ATOM     52  C   UNL A   1      42.323  26.159  27.283  1.00  0.00     0.016 A 
ATOM     53  C   UNL A   1      43.349  28.236  27.003  1.00  0.00     0.016 A 
ATOM     54  C   UNL A   1      43.602  25.787  26.903  1.00  0.00     0.010 A 
ATOM     55  C   UNL A   1      44.648  27.798  26.654  1.00  0.00     0.010 A 
ATOM     56  C   UNL A   1      44.898  26.528  27.059  1.00  0.00    -0.014 A 
BRANCH  56  57
ATOM     57  C   UNL A   1      46.122  26.498  28.502  1.00  0.00     0.031 A 
ATOM     58  C   UNL A   1      47.527  25.880  27.700  1.00  0.00     0.074 A 
ATOM     59  C   UNL A   1      45.905  27.414  30.246  1.00  0.00     0.049 A 
ATOM     60  N   UNL A   1      48.742  26.016  28.115  1.00  0.00    -0.248 NA
ATOM     61  C   UNL A   1      47.561  25.201  26.414  1.00  0.00     0.031 C 
ATOM     62  C   UNL A   1      47.027  28.741  30.868  1.00  0.00     0.029 A 
ATOM     63  N   UNL A   1      44.887  28.087  31.020  1.00  0.00    -0.354 N 
ATOM     64  C   UNL A   1      49.616  25.852  27.057  1.00  0.00     0.074 A 
ATOM     65  C   UNL A   1      48.835  25.277  26.011  1.00  0.00     0.031 C 
ATOM     66  C   UNL A   1      46.455  29.769  31.469  1.00  0.00     0.029 A 
ATOM     67  C   UNL A   1      45.360  29.070  31.932  1.00  0.00     0.049 A 
ATOM     68  H   UNL A   1      43.929  27.878  30.923  1.00  0.00     0.167 HD
ATOM     69  C   UNL A   1      50.884  26.318  27.193  1.00  0.00     0.031 A 
ATOM     70  C   UNL A   1      45.643  28.579  33.148  1.00  0.00     0.031 A 
ATOM     71  C   UNL A   1      51.064  26.858  28.537  1.00  0.00     0.049 A 
ATOM     72  C   UNL A   1      47.455  28.111  33.373  1.00  0.00     0.074 A 
ATOM     73  C   UNL A   1      51.223  28.143  29.006  1.00  0.00     0.029 A 
ATOM     74  N   UNL A   1      50.796  26.054  29.635  1.00  0.00    -0.354 N 
ATOM     75  N   UNL A   1      48.316  27.680  32.423  1.00  0.00    -0.248 NA
ATOM     76  C   UNL A   1      48.300  27.939  34.619  1.00  0.00     0.031 C 
ATOM     77  C   UNL A   1      50.881  28.131  30.381  1.00  0.00     0.029 A 
ATOM     78  C   UNL A   1      50.603  26.830  30.764  1.00  0.00     0.049 A 
ATOM     79  H   UNL A   1      50.750  25.071  29.613  1.00  0.00     0.167 HD
ATOM     80  C   UNL A   1      49.444  26.976  32.866  1.00  0.00     0.074 A 
ATOM     81  C   UNL A   1      49.302  27.082  34.285  1.00  0.00     0.031 C 
ATOM     82  C   UNL A   1      50.293  26.230  32.056  1.00  0.00     0.031 A 
BRANCH  69  83
ATOM     83  C   UNL A   1      51.959  26.489  26.147  1.00  0.00    -0.014 A 
ATOM     84  C   UNL A   1      52.038  27.765  25.542  1.00  0.00     0.010 A 
ATOM     85  C   UNL A   1      52.841  25.508  25.654  1.00  0.00     0.010 A 
ATOM     86  C   UNL A   1      52.917  28.060  24.504  1.00  0.00     0.020 A 
ATOM     87  C   UNL A   1      53.760  25.803  24.619  1.00  0.00     0.020 A 
ATOM     88  C   UNL A   1      53.785  27.079  24.052  1.00  0.00     0.054 A 
BRANCH  88  89
ATOM     89  S   UNL A   1      54.943  27.541  22.739  1.00  0.00     0.124 S 
ATOM     90  O   UNL A   1      54.758  26.465  21.768  1.00  0.00    -0.237 OA
ATOM     91  O   UNL A   1      54.440  28.850  22.328  1.00  0.00    -0.237 OA
ATOM     92  O   UNL A   1      56.240  27.556  23.409  1.00  0.00    -0.744 OA
ENDBRANCH  88  89
ENDBRANCH  69  83
BRANCH  70  93
ATOM     93  C   UNL A   1      43.983  28.014  33.333  1.00  0.00    -0.014 A 
ATOM     94  C   UNL A   1      43.950  26.596  33.563  1.00  0.00     0.010 A 
ATOM     95  C   UNL A   1      42.870  28.658  33.978  1.00  0.00     0.010 A 
ATOM     96  C   UNL A   1      43.154  25.975  34.577  1.00  0.00     0.020 A 
ATOM     97  C   UNL A   1      42.074  28.049  35.020  1.00  0.00     0.020 A 
ATOM     98  C   UNL A   1      42.249  26.711  35.339  1.00  0.00     0.054 A 
BRANCH  98  99
ATOM     99  S   UNL A   1      41.390  25.918  36.754  1.00  0.00     0.124 S 
ATOM    100  O   UNL A   1      42.498  25.328  37.498  1.00  0.00    -0.237 OA
ATOM    101  O   UNL A   1      40.734  27.055  37.401  1.00  0.00    -0.237 OA
ATOM    102  O   UNL A   1      40.471  24.971  36.133  1.00  0.00    -0.744 OA
ENDBRANCH  98  99
ENDBRANCH  70  93
BRANCH  82 103
ATOM    103  C   UNL A   1      51.061  24.934  32.445  1.00  0.00    -0.014 A 
ATOM    104  C   UNL A   1      52.463  24.859  32.492  1.00  0.00     0.010 A 
ATOM    105  C   UNL A   1      50.383  23.775  32.926  1.00  0.00     0.010 A 
ATOM    106  C   UNL A   1      53.138  23.654  32.791  1.00  0.00     0.020 A 
ATOM    107  C   UNL A   1      51.042  22.583  33.278  1.00  0.00     0.020 A 
ATOM    108  C   UNL A   1      52.417  22.506  33.121  1.00  0.00     0.054 A 
BRANCH 108 109
ATOM    109  S   UNL A   1      53.265  20.903  33.199  1.00  0.00     0.124 S 
ATOM    110  O   UNL A   1      53.815  20.795  31.848  1.00  0.00    -0.237 OA
ATOM    111  O   UNL A   1      54.249  21.098  34.260  1.00  0.00    -0.237 OA
ATOM    112  O   UNL A   1      52.200  19.953  33.508  1.00  0.00    -0.744 OA
ENDBRANCH 108 109
ENDBRANCH  82 103
ENDBRANCH  56  57
ENDBRANCH  49  51
ENDBRANCH  48  49
ENDBRANCH  47  48
ENDBRANCH  46  47
ENDBRANCH  45  46
ENDBRANCH   1  45
TORSDOF 23
ENDMDL
MODEL 2
REMARK VINA RESULT:     -11.4      5.312     11.769
REMARK SMILES Cc1ccc(S(=O)(=O)n2cc(C(=O)C(=O)N[C@H](Cc3c[nH]c4ccccc34)C(=O)NCC(=O)OCCOC(=O)c3ccc(-c4c5nc(c(-c6ccc(S(=O)(=O)[O-])cc6)c6ccc([nH]6)c(-c6ccc(S(=O)(=O)[O-])cc6)c6nc(c(-c7ccc(S(=O)(=O)[O-])cc7)c7ccc4[nH]7)C=C6)C=C5)cc3)c3ccccc32)cc1
REMARK SMILES IDX 32 1 33 2 31 3 30 4 28 5 29 6 17 8 16 9 14 10 15 11 12 13
REMARK SMILES IDX 13 14 11 15 9 16 10 17 105 18 100 19 104 20 101 21 103 22
REMARK SMILES IDX 102 23 6 24 7 25 8 26 5 27 1 28 2 29 3 30 107 31 4 32 106 33
REMARK SMILES IDX 18 34 19 35 20 36 27 37 21 38 22 39 26 40 23 42 25 43 24 44
REMARK SMILES IDX 34 45 35 46 36 47 37 48 38 49 39 50 40 51 41 52 99 53 42 54
REMARK SMILES IDX 98 55 43 56 44 57 45 58 92 59 46 60 97 61 91 62 93 63 47 64
REMARK SMILES IDX 96 65 90 66 89 67 48 69 78 70 59 71 77 72 60 73 63 74 76 75
REMARK SMILES IDX 94 76 61 77 62 78 75 80 95 81 64 82 49 83 50 84 58 85 51 86
REMARK SMILES IDX 57 87 52 88 53 89 54 90 55 91 56 92 79 93 80 94 88 95 81 96
REMARK SMILES IDX 87 97 82 98 83 99 84 100 85 101 86 102 65 103 66 104 74 105
REMARK SMILES IDX 67 106 73 107 68 108 69 109 70 110 71 111 72 112
REMARK H PARENT 30 7 16 12 21 41 93 68 63 79
REMARK Flexibility Score: inf
ROOT
ATOM      1  C   UNL A   1      40.262  28.052  27.966  1.00  0.00     0.325 C 
ATOM      2  O   UNL A   1      40.085  28.523  26.854  1.00  0.00    -0.250 OA
ENDROOT
BRANCH   1   3
ATOM      3  C   UNL A   1      41.345  26.941  28.372  1.00  0.00     0.238 C 
BRANCH   3   4
ATOM      4  N   UNL A   1      42.291  26.534  29.413  1.00  0.00    -0.343 N 
ATOM      5  C   UNL A   1      43.327  25.615  29.322  1.00  0.00     0.243 C 
ATOM      6  O   UNL A   1      44.292  25.824  30.075  1.00  0.00    -0.273 OA
ATOM      7  H   UNL A   1      42.178  26.968  30.288  1.00  0.00     0.164 HD
BRANCH   5   8
ATOM      8  C   UNL A   1      43.378  24.282  28.417  1.00  0.00     0.176 C 
BRANCH   8   9
ATOM      9  N   UNL A   1      43.947  24.248  26.829  1.00  0.00    -0.337 N 
ATOM     10  C   UNL A   1      44.337  24.999  25.624  1.00  0.00     0.293 C 
ATOM     11  O   UNL A   1      44.375  24.270  24.621  1.00  0.00    -0.265 OA
ATOM     12  H   UNL A   1      44.077  23.296  26.610  1.00  0.00     0.164 HD
BRANCH  10  13
ATOM     13  C   UNL A   1      44.852  26.666  25.410  1.00  0.00     0.252 C 
ATOM     14  O   UNL A   1      43.957  27.506  25.332  1.00  0.00    -0.283 OA
BRANCH  13  15
ATOM     15  C   UNL A   1      46.483  27.220  25.568  1.00  0.00     0.054 A 
ATOM     16  N   UNL A   1      47.760  26.313  28.185  1.00  0.00    -0.240 N 
ATOM     17  C   UNL A   1      46.212  26.749  27.292  1.00  0.00     0.117 A 
ATOM     18  C   UNL A   1      49.064  25.844  26.764  1.00  0.00     0.065 A 
ATOM     19  C   UNL A   1      48.454  26.648  25.135  1.00  0.00     0.012 A 
ATOM     20  C   UNL A   1      50.399  25.288  26.619  1.00  0.00     0.028 A 
ATOM     21  C   UNL A   1      49.578  27.184  24.375  1.00  0.00     0.011 A 
ATOM     22  C   UNL A   1      51.244  25.745  25.547  1.00  0.00     0.002 A 
ATOM     23  C   UNL A   1      50.883  26.674  24.540  1.00  0.00     0.001 A 
BRANCH  16  24
ATOM     24  S   UNL A   1      46.820  28.109  29.193  1.00  0.00     0.268 S 
ATOM     25  O   UNL A   1      47.891  29.041  28.839  1.00  0.00    -0.201 OA
ATOM     26  O   UNL A   1      46.753  27.828  30.625  1.00  0.00    -0.201 OA
BRANCH  24  27
ATOM     27  C   UNL A   1      45.207  29.502  29.399  1.00  0.00     0.088 A 
ATOM     28  C   UNL A   1      41.226  31.047  30.075  1.00  0.00     0.044 C 
ATOM     29  C   UNL A   1      42.641  30.901  29.595  1.00  0.00    -0.051 A 
ATOM     30  C   UNL A   1      43.620  31.191  30.487  1.00  0.00     0.005 A 
ATOM     31  C   UNL A   1      43.062  30.254  28.423  1.00  0.00     0.005 A 
ATOM     32  C   UNL A   1      44.865  30.547  30.336  1.00  0.00     0.022 A 
ATOM     33  C   UNL A   1      44.333  29.573  28.315  1.00  0.00     0.022 A 
ENDBRANCH  24  27
ENDBRANCH  16  24
ENDBRANCH  13  15
ENDBRANCH  10  13
ENDBRANCH   8   9
BRANCH   8  34
ATOM     34  C   UNL A   1      42.554  23.011  28.892  1.00  0.00     0.072 C 
BRANCH  34  35
ATOM     35  C   UNL A   1      41.538  22.341  28.017  1.00  0.00    -0.020 A 
ATOM     36  C   UNL A   1      41.573  21.025  27.581  1.00  0.00     0.087 A 
ATOM     37  C   UNL A   1      40.338  22.895  27.504  1.00  0.00     0.003 A 
ATOM     38  N   UNL A   1      40.608  20.865  26.625  1.00  0.00    -0.361 N 
ATOM     39  C   UNL A   1      39.821  21.987  26.579  1.00  0.00     0.046 A 
ATOM     40  C   UNL A   1      39.680  24.115  27.709  1.00  0.00     0.010 A 
ATOM     41  H   UNL A   1      40.496  20.068  26.058  1.00  0.00     0.166 HD
ATOM     42  C   UNL A   1      38.703  22.269  25.793  1.00  0.00     0.026 A 
ATOM     43  C   UNL A   1      38.530  24.392  26.972  1.00  0.00     0.001 A 
ATOM     44  C   UNL A   1      38.061  23.490  26.018  1.00  0.00     0.002 A 
ENDBRANCH  34  35
ENDBRANCH   8  34
ENDBRANCH   5   8
ENDBRANCH   3   4
ENDBRANCH   1   3
BRANCH   1  45
ATOM     45  O   UNL A   1      39.381  28.260  29.008  1.00  0.00    -0.461 OA
BRANCH  45  46
ATOM     46  C   UNL A   1      38.170  29.110  28.980  1.00  0.00     0.274 C 
BRANCH  46  47
ATOM     47  C   UNL A   1      37.270  29.206  30.253  1.00  0.00     0.275 C 
BRANCH  47  48
ATOM     48  O   UNL A   1      37.478  30.365  31.067  1.00  0.00    -0.458 OA
BRANCH  48  49
ATOM     49  C   UNL A   1      36.676  31.416  30.782  1.00  0.00     0.338 C 
ATOM     50  O   UNL A   1      35.550  31.634  31.195  1.00  0.00    -0.246 OA
BRANCH  49  51
ATOM     51  C   UNL A   1      37.620  32.471  30.392  1.00  0.00     0.060 A 
ATOM     52  C   UNL A   1      37.820  32.806  29.114  1.00  0.00     0.016 A 
ATOM     53  C   UNL A   1      37.981  33.470  31.345  1.00  0.00     0.016 A 
ATOM     54  C   UNL A   1      38.509  34.002  28.998  1.00  0.00     0.010 A 
ATOM     55  C   UNL A   1      38.716  34.665  31.170  1.00  0.00     0.010 A 
ATOM     56  C   UNL A   1      39.391  34.696  29.995  1.00  0.00    -0.014 A 
BRANCH  56  57
ATOM     57  C   UNL A   1      41.255  34.510  30.270  1.00  0.00     0.031 A 
ATOM     58  C   UNL A   1      41.856  35.337  28.872  1.00  0.00     0.074 A 
ATOM     59  C   UNL A   1      42.144  33.967  31.956  1.00  0.00     0.049 A 
ATOM     60  N   UNL A   1      43.041  35.836  28.754  1.00  0.00    -0.248 NA
ATOM     61  C   UNL A   1      41.104  35.667  27.672  1.00  0.00     0.031 C 
ATOM     62  C   UNL A   1      43.307  35.040  32.907  1.00  0.00     0.029 A 
ATOM     63  N   UNL A   1      41.816  33.398  33.244  1.00  0.00    -0.354 N 
ATOM     64  C   UNL A   1      43.041  36.807  27.771  1.00  0.00     0.074 A 
ATOM     65  C   UNL A   1      41.813  36.628  27.067  1.00  0.00     0.031 C 
ATOM     66  C   UNL A   1      43.185  35.029  34.222  1.00  0.00     0.029 A 
ATOM     67  C   UNL A   1      42.695  33.743  34.307  1.00  0.00     0.049 A 
ATOM     68  H   UNL A   1      41.037  32.810  33.375  1.00  0.00     0.167 HD
ATOM     69  C   UNL A   1      44.064  37.699  27.749  1.00  0.00     0.031 A 
ATOM     70  C   UNL A   1      43.725  32.895  34.446  1.00  0.00     0.031 A 
ATOM     71  C   UNL A   1      45.027  37.364  28.794  1.00  0.00     0.049 A 
ATOM     72  C   UNL A   1      45.286  33.447  33.545  1.00  0.00     0.074 A 
ATOM     73  C   UNL A   1      45.359  37.980  29.980  1.00  0.00     0.029 A 
ATOM     74  N   UNL A   1      45.582  36.094  28.825  1.00  0.00    -0.354 N 
ATOM     75  N   UNL A   1      45.364  34.183  32.413  1.00  0.00    -0.248 NA
ATOM     76  C   UNL A   1      46.743  33.082  33.745  1.00  0.00     0.031 C 
ATOM     77  C   UNL A   1      45.982  37.004  30.797  1.00  0.00     0.029 A 
ATOM     78  C   UNL A   1      46.105  35.828  30.078  1.00  0.00     0.049 A 
ATOM     79  H   UNL A   1      45.602  35.470  28.064  1.00  0.00     0.167 HD
ATOM     80  C   UNL A   1      46.559  34.097  31.685  1.00  0.00     0.074 A 
ATOM     81  C   UNL A   1      47.353  33.277  32.545  1.00  0.00     0.031 C 
ATOM     82  C   UNL A   1      46.739  34.551  30.383  1.00  0.00     0.031 A 
BRANCH  69  83
ATOM     83  C   UNL A   1      44.203  38.978  26.960  1.00  0.00    -0.014 A 
ATOM     84  C   UNL A   1      45.450  39.183  26.326  1.00  0.00     0.010 A 
ATOM     85  C   UNL A   1      43.264  40.021  26.843  1.00  0.00     0.010 A 
ATOM     86  C   UNL A   1      45.767  40.347  25.632  1.00  0.00     0.020 A 
ATOM     87  C   UNL A   1      43.562  41.198  26.115  1.00  0.00     0.020 A 
ATOM     88  C   UNL A   1      44.816  41.349  25.518  1.00  0.00     0.054 A 
BRANCH  88  89
ATOM     89  S   UNL A   1      45.268  42.813  24.554  1.00  0.00     0.124 S 
ATOM     90  O   UNL A   1      46.637  43.068  24.998  1.00  0.00    -0.237 OA
ATOM     91  O   UNL A   1      45.134  42.334  23.180  1.00  0.00    -0.237 OA
ATOM     92  O   UNL A   1      44.287  43.815  24.962  1.00  0.00    -0.744 OA
ENDBRANCH  88  89
ENDBRANCH  69  83
BRANCH  70  93
ATOM     93  C   UNL A   1      42.615  31.548  34.697  1.00  0.00    -0.014 A 
ATOM     94  C   UNL A   1      42.926  30.460  33.811  1.00  0.00     0.010 A 
ATOM     95  C   UNL A   1      42.044  31.056  35.921  1.00  0.00     0.010 A 
ATOM     96  C   UNL A   1      43.003  29.094  34.228  1.00  0.00     0.020 A 
ATOM     97  C   UNL A   1      42.136  29.683  36.365  1.00  0.00     0.020 A 
ATOM     98  C   UNL A   1      42.652  28.711  35.522  1.00  0.00     0.054 A 
BRANCH  98  99
ATOM     99  S   UNL A   1      42.947  26.987  36.075  1.00  0.00     0.124 S 
ATOM    100  O   UNL A   1      41.748  26.301  35.606  1.00  0.00    -0.237 OA
ATOM    101  O   UNL A   1      44.184  26.639  35.376  1.00  0.00    -0.237 OA
ATOM    102  O   UNL A   1      43.089  27.093  37.523  1.00  0.00    -0.744 OA
ENDBRANCH  98  99
ENDBRANCH  70  93
BRANCH  82 103
ATOM    103  C   UNL A   1      47.666  33.935  29.295  1.00  0.00    -0.014 A 
ATOM    104  C   UNL A   1      47.374  32.733  28.630  1.00  0.00     0.010 A 
ATOM    105  C   UNL A   1      48.805  34.634  28.796  1.00  0.00     0.010 A 
ATOM    106  C   UNL A   1      48.261  32.164  27.689  1.00  0.00     0.020 A 
ATOM    107  C   UNL A   1      49.671  34.106  27.822  1.00  0.00     0.020 A 
ATOM    108  C   UNL A   1      49.437  32.829  27.339  1.00  0.00     0.054 A 
BRANCH 108 109
ATOM    109  S   UNL A   1      50.708  31.961  26.376  1.00  0.00     0.124 S 
ATOM    110  O   UNL A   1      51.845  31.992  27.294  1.00  0.00    -0.237 OA
ATOM    111  O   UNL A   1      50.118  30.643  26.157  1.00  0.00    -0.237 OA
ATOM    112  O   UNL A   1      50.863  32.777  25.175  1.00  0.00    -0.744 OA
ENDBRANCH 108 109
ENDBRANCH  82 103
ENDBRANCH  56  57
ENDBRANCH  49  51
ENDBRANCH  48  49
ENDBRANCH  47  48
ENDBRANCH  46  47
ENDBRANCH  45  46
ENDBRANCH   1  45
TORSDOF 23
ENDMDL
MODEL 3
REMARK VINA RESULT:     -11.2      5.747     10.943
REMARK SMILES Cc1ccc(S(=O)(=O)n2cc(C(=O)C(=O)N[C@H](Cc3c[nH]c4ccccc34)C(=O)NCC(=O)OCCOC(=O)c3ccc(-c4c5nc(c(-c6ccc(S(=O)(=O)[O-])cc6)c6ccc([nH]6)c(-c6ccc(S(=O)(=O)[O-])cc6)c6nc(c(-c7ccc(S(=O)(=O)[O-])cc7)c7ccc4[nH]7)C=C6)C=C5)cc3)c3ccccc32)cc1
REMARK SMILES IDX 32 1 33 2 31 3 30 4 28 5 29 6 17 8 16 9 14 10 15 11 12 13
REMARK SMILES IDX 13 14 11 15 9 16 10 17 105 18 100 19 104 20 101 21 103 22
REMARK SMILES IDX 102 23 6 24 7 25 8 26 5 27 1 28 2 29 3 30 107 31 4 32 106 33
REMARK SMILES IDX 18 34 19 35 20 36 27 37 21 38 22 39 26 40 23 42 25 43 24 44
REMARK SMILES IDX 34 45 35 46 36 47 37 48 38 49 39 50 40 51 41 52 99 53 42 54
REMARK SMILES IDX 98 55 43 56 44 57 45 58 92 59 46 60 97 61 91 62 93 63 47 64
REMARK SMILES IDX 96 65 90 66 89 67 48 69 78 70 59 71 77 72 60 73 63 74 76 75
REMARK SMILES IDX 94 76 61 77 62 78 75 80 95 81 64 82 49 83 50 84 58 85 51 86
REMARK SMILES IDX 57 87 52 88 53 89 54 90 55 91 56 92 79 93 80 94 88 95 81 96
REMARK SMILES IDX 87 97 82 98 83 99 84 100 85 101 86 102 65 103 66 104 74 105
REMARK SMILES IDX 67 106 73 107 68 108 69 109 70 110 71 111 72 112
REMARK H PARENT 30 7 16 12 21 41 93 68 63 79
REMARK Flexibility Score: inf
ROOT
ATOM      1  C   UNL A   1      35.937  33.836  31.315  1.00  0.00     0.325 C 
ATOM      2  O   UNL A   1      37.030  34.165  30.885  1.00  0.00    -0.250 OA
ENDROOT
BRANCH   1   3
ATOM      3  C   UNL A   1      34.755  33.137  30.485  1.00  0.00     0.238 C 
BRANCH   3   4
ATOM      4  N   UNL A   1      34.028  33.159  29.215  1.00  0.00    -0.343 N 
ATOM      5  C   UNL A   1      34.003  32.191  28.220  1.00  0.00     0.243 C 
ATOM      6  O   UNL A   1      32.960  32.143  27.549  1.00  0.00    -0.273 OA
ATOM      7  H   UNL A   1      33.487  33.962  29.044  1.00  0.00     0.164 HD
BRANCH   5   8
ATOM      8  C   UNL A   1      35.193  31.189  27.797  1.00  0.00     0.176 C 
BRANCH   8   9
ATOM      9  N   UNL A   1      34.944  29.705  27.034  1.00  0.00    -0.337 N 
ATOM     10  C   UNL A   1      33.992  28.681  26.573  1.00  0.00     0.293 C 
ATOM     11  O   UNL A   1      34.557  27.602  26.339  1.00  0.00    -0.265 OA
ATOM     12  H   UNL A   1      35.838  29.376  26.785  1.00  0.00     0.164 HD
BRANCH  10  13
ATOM     13  C   UNL A   1      32.276  28.772  26.201  1.00  0.00     0.252 C 
ATOM     14  O   UNL A   1      31.530  29.046  27.141  1.00  0.00    -0.283 OA
BRANCH  13  15
ATOM     15  C   UNL A   1      31.614  28.769  24.604  1.00  0.00     0.054 A 
ATOM     16  N   UNL A   1      29.500  26.602  24.237  1.00  0.00    -0.240 N 
ATOM     17  C   UNL A   1      31.017  27.144  25.124  1.00  0.00     0.117 A 
ATOM     18  C   UNL A   1      28.678  28.271  23.546  1.00  0.00     0.065 A 
ATOM     19  C   UNL A   1      30.054  29.603  23.478  1.00  0.00     0.012 A 
ATOM     20  C   UNL A   1      27.461  28.724  22.892  1.00  0.00     0.028 A 
ATOM     21  C   UNL A   1      29.924  30.414  22.271  1.00  0.00     0.011 A 
ATOM     22  C   UNL A   1      27.526  29.809  21.948  1.00  0.00     0.002 A 
ATOM     23  C   UNL A   1      28.684  30.554  21.613  1.00  0.00     0.001 A 
BRANCH  16  24
ATOM     24  S   UNL A   1      31.168  25.139  23.786  1.00  0.00     0.268 S 
ATOM     25  O   UNL A   1      31.513  25.720  22.488  1.00  0.00    -0.201 OA
ATOM     26  O   UNL A   1      30.573  23.808  23.682  1.00  0.00    -0.201 OA
BRANCH  24  27
ATOM     27  C   UNL A   1      33.053  24.248  24.277  1.00  0.00     0.088 A 
ATOM     28  C   UNL A   1      36.908  22.355  23.791  1.00  0.00     0.044 C 
ATOM     29  C   UNL A   1      35.595  22.797  24.368  1.00  0.00    -0.051 A 
ATOM     30  C   UNL A   1      35.540  24.062  24.856  1.00  0.00     0.005 A 
ATOM     31  C   UNL A   1      34.360  22.149  24.225  1.00  0.00     0.005 A 
ATOM     32  C   UNL A   1      34.292  24.717  24.853  1.00  0.00     0.022 A 
ATOM     33  C   UNL A   1      33.100  22.858  24.193  1.00  0.00     0.022 A 
ENDBRANCH  24  27
ENDBRANCH  16  24
ENDBRANCH  13  15
ENDBRANCH  10  13
ENDBRANCH   8   9
BRANCH   8  34
ATOM     34  C   UNL A   1      36.637  31.424  28.415  1.00  0.00     0.072 C 
BRANCH  34  35
ATOM     35  C   UNL A   1      37.552  30.290  28.767  1.00  0.00    -0.020 A 
ATOM     36  C   UNL A   1      38.476  29.691  27.923  1.00  0.00     0.087 A 
ATOM     37  C   UNL A   1      37.687  29.642  30.020  1.00  0.00     0.003 A 
ATOM     38  N   UNL A   1      38.942  28.559  28.532  1.00  0.00    -0.361 N 
ATOM     39  C   UNL A   1      38.495  28.521  29.828  1.00  0.00     0.046 A 
ATOM     40  C   UNL A   1      37.143  29.885  31.289  1.00  0.00     0.010 A 
ATOM     41  H   UNL A   1      39.510  27.877  28.106  1.00  0.00     0.166 HD
ATOM     42  C   UNL A   1      38.735  27.585  30.835  1.00  0.00     0.026 A 
ATOM     43  C   UNL A   1      37.417  28.991  32.322  1.00  0.00     0.001 A 
ATOM     44  C   UNL A   1      38.186  27.852  32.092  1.00  0.00     0.002 A 
ENDBRANCH  34  35
ENDBRANCH   8  34
ENDBRANCH   5   8
ENDBRANCH   3   4
ENDBRANCH   1   3
BRANCH   1  45
ATOM     45  O   UNL A   1      35.478  34.232  32.554  1.00  0.00    -0.461 OA
BRANCH  45  46
ATOM     46  C   UNL A   1      35.682  33.524  33.836  1.00  0.00     0.274 C 
BRANCH  46  47
ATOM     47  C   UNL A   1      36.882  32.535  33.984  1.00  0.00     0.275 C 
BRANCH  47  48
ATOM     48  O   UNL A   1      38.010  33.040  34.709  1.00  0.00    -0.458 OA
BRANCH  48  49
ATOM     49  C   UNL A   1      38.872  33.784  33.979  1.00  0.00     0.338 C 
ATOM     50  O   UNL A   1      39.267  34.914  34.208  1.00  0.00    -0.246 OA
BRANCH  49  51
ATOM     51  C   UNL A   1      39.652  32.780  33.243  1.00  0.00     0.060 A 
ATOM     52  C   UNL A   1      39.988  31.607  33.786  1.00  0.00     0.016 A 
ATOM     53  C   UNL A   1      39.661  32.815  31.816  1.00  0.00     0.016 A 
ATOM     54  C   UNL A   1      40.449  30.714  32.833  1.00  0.00     0.010 A 
ATOM     55  C   UNL A   1      40.177  31.878  30.891  1.00  0.00     0.010 A 
ATOM     56  C   UNL A   1      41.014  30.981  31.468  1.00  0.00    -0.014 A 
BRANCH  56  57
ATOM     57  C   UNL A   1      42.811  31.297  30.962  1.00  0.00     0.031 A 
ATOM     58  C   UNL A   1      43.287  29.695  30.505  1.00  0.00     0.074 A 
ATOM     59  C   UNL A   1      43.638  33.062  30.606  1.00  0.00     0.049 A 
ATOM     60  N   UNL A   1      44.279  29.406  29.731  1.00  0.00    -0.248 NA
ATOM     61  C   UNL A   1      42.601  28.459  30.845  1.00  0.00     0.031 C 
ATOM     62  C   UNL A   1      44.329  33.574  28.973  1.00  0.00     0.029 A 
ATOM     63  N   UNL A   1      43.358  34.469  30.786  1.00  0.00    -0.354 N 
ATOM     64  C   UNL A   1      44.098  28.145  29.195  1.00  0.00     0.074 A 
ATOM     65  C   UNL A   1      43.058  27.553  29.970  1.00  0.00     0.031 C 
ATOM     66  C   UNL A   1      44.078  34.810  28.583  1.00  0.00     0.029 A 
ATOM     67  C   UNL A   1      43.979  35.341  29.852  1.00  0.00     0.049 A 
ATOM     68  H   UNL A   1      42.775  34.800  31.508  1.00  0.00     0.167 HD
ATOM     69  C   UNL A   1      44.812  27.809  28.090  1.00  0.00     0.031 A 
ATOM     70  C   UNL A   1      45.192  35.764  30.239  1.00  0.00     0.031 A 
ATOM     71  C   UNL A   1      45.715  28.901  27.741  1.00  0.00     0.049 A 
ATOM     72  C   UNL A   1      46.609  34.720  29.563  1.00  0.00     0.074 A 
ATOM     73  C   UNL A   1      45.726  29.795  26.693  1.00  0.00     0.029 A 
ATOM     74  N   UNL A   1      46.612  29.372  28.688  1.00  0.00    -0.354 N 
ATOM     75  N   UNL A   1      46.586  33.402  29.261  1.00  0.00    -0.248 NA
ATOM     76  C   UNL A   1      48.079  35.029  29.368  1.00  0.00     0.031 C 
ATOM     77  C   UNL A   1      46.517  30.900  27.096  1.00  0.00     0.029 A 
ATOM     78  C   UNL A   1      47.055  30.637  28.344  1.00  0.00     0.049 A 
ATOM     79  H   UNL A   1      46.893  28.876  29.491  1.00  0.00     0.167 HD
ATOM     80  C   UNL A   1      47.824  32.745  29.208  1.00  0.00     0.074 A 
ATOM     81  C   UNL A   1      48.728  33.835  29.404  1.00  0.00     0.031 C 
ATOM     82  C   UNL A   1      47.999  31.366  29.182  1.00  0.00     0.031 A 
BRANCH  69  83
ATOM     83  C   UNL A   1      44.652  26.622  27.171  1.00  0.00    -0.014 A 
ATOM     84  C   UNL A   1      45.117  25.383  27.672  1.00  0.00     0.010 A 
ATOM     85  C   UNL A   1      44.162  26.617  25.851  1.00  0.00     0.010 A 
ATOM     86  C   UNL A   1      45.118  24.213  26.920  1.00  0.00     0.020 A 
ATOM     87  C   UNL A   1      44.131  25.427  25.085  1.00  0.00     0.020 A 
ATOM     88  C   UNL A   1      44.614  24.235  25.629  1.00  0.00     0.054 A 
BRANCH  88  89
ATOM     89  S   UNL A   1      44.590  22.668  24.723  1.00  0.00     0.124 S 
ATOM     90  O   UNL A   1      43.168  22.496  24.435  1.00  0.00    -0.237 OA
ATOM     91  O   UNL A   1      45.432  22.965  23.567  1.00  0.00    -0.237 OA
ATOM     92  O   UNL A   1      45.150  21.710  25.672  1.00  0.00    -0.744 OA
ENDBRANCH  88  89
ENDBRANCH  69  83
BRANCH  70  93
ATOM     93  C   UNL A   1      44.506  36.474  31.700  1.00  0.00    -0.014 A 
ATOM     94  C   UNL A   1      45.320  36.172  32.845  1.00  0.00     0.010 A 
ATOM     95  C   UNL A   1      43.840  37.737  31.871  1.00  0.00     0.010 A 
ATOM     96  C   UNL A   1      45.701  37.141  33.826  1.00  0.00     0.020 A 
ATOM     97  C   UNL A   1      44.231  38.734  32.843  1.00  0.00     0.020 A 
ATOM     98  C   UNL A   1      45.192  38.438  33.798  1.00  0.00     0.054 A 
BRANCH  98  99
ATOM     99  S   UNL A   1      45.850  39.702  34.953  1.00  0.00     0.124 S 
ATOM    100  O   UNL A   1      44.635  40.208  35.584  1.00  0.00    -0.237 OA
ATOM    101  O   UNL A   1      46.725  38.912  35.819  1.00  0.00    -0.237 OA
ATOM    102  O   UNL A   1      46.555  40.646  34.092  1.00  0.00    -0.744 OA
ENDBRANCH  98  99
ENDBRANCH  70  93
BRANCH  82 103
ATOM    103  C   UNL A   1      49.174  30.558  29.804  1.00  0.00    -0.014 A 
ATOM    104  C   UNL A   1      50.521  30.937  29.670  1.00  0.00     0.010 A 
ATOM    105  C   UNL A   1      48.947  29.456  30.680  1.00  0.00     0.010 A 
ATOM    106  C   UNL A   1      51.574  30.154  30.195  1.00  0.00     0.020 A 
ATOM    107  C   UNL A   1      49.983  28.696  31.253  1.00  0.00     0.020 A 
ATOM    108  C   UNL A   1      51.295  29.002  30.931  1.00  0.00     0.054 A 
BRANCH 108 109
ATOM    109  S   UNL A   1      52.636  27.846  31.332  1.00  0.00     0.124 S 
ATOM    110  O   UNL A   1      51.893  26.618  31.607  1.00  0.00    -0.237 OA
ATOM    111  O   UNL A   1      53.439  27.830  30.111  1.00  0.00    -0.237 OA
ATOM    112  O   UNL A   1      53.287  28.446  32.493  1.00  0.00    -0.744 OA
ENDBRANCH 108 109
ENDBRANCH  82 103
ENDBRANCH  56  57
ENDBRANCH  49  51
ENDBRANCH  48  49
ENDBRANCH  47  48
ENDBRANCH  46  47
ENDBRANCH  45  46
ENDBRANCH   1  45
TORSDOF 23
ENDMDL
