MODEL 1
REMARK VINA RESULT:     -10.5      0.000      0.000
REMARK SMILES O=C(OCCOC(=O)c1ccccc1[C@@H]1SCC(=O)N1NC(=S)Nc1ccccc1)c1ccc(-c2c3nc(c(-c4ccc(S(=O)(=O)[O-])cc4)c4ccc([nH]4)c(-c4ccc(S(=O)(=O)[O-])cc4)c4nc(c(-c5ccc(S(=O)(=O)[O-])cc5)c5ccc2[nH]5)C=C4)C=C3)cc1
REMARK SMILES IDX 5 1 4 2 3 3 2 4 1 5 31 6 32 7 90 8 33 9 89 10 34 11 35 12
REMARK SMILES IDX 36 13 83 14 37 15 88 16 82 17 84 18 38 19 87 20 81 21 80 22
REMARK SMILES IDX 39 24 69 25 50 26 68 27 51 28 54 29 67 30 85 31 52 32 53 33
REMARK SMILES IDX 66 35 86 36 55 37 40 38 41 39 49 40 42 41 48 42 43 43 44 44
REMARK SMILES IDX 45 45 46 46 47 47 70 48 71 49 79 50 72 51 78 52 73 53 74 54
REMARK SMILES IDX 75 55 76 56 77 57 56 58 57 59 65 60 58 61 64 62 59 63 60 64
REMARK SMILES IDX 61 65 62 66 63 67 6 68 7 69 8 70 9 71 10 72 14 73 11 74
REMARK SMILES IDX 13 75 12 76 15 77 16 78 20 79 17 80 18 81 19 82 21 83 22 85
REMARK SMILES IDX 23 86 24 87 25 89 26 90 30 91 27 92 29 93 28 94
REMARK H PARENT 84 23 54 34 21 84 24 88
REMARK Flexibility Score: inf
ROOT
ATOM      1  C   UNL A   1      33.458  29.037  27.280  1.00  0.00     0.275 C 
ENDROOT
BRANCH   1   2
ATOM      2  C   UNL A   1      34.946  29.299  27.113  1.00  0.00     0.275 C 
BRANCH   2   3
ATOM      3  O   UNL A   1      35.435  30.313  28.027  1.00  0.00    -0.458 OA
BRANCH   3   4
ATOM      4  C   UNL A   1      36.353  30.287  29.024  1.00  0.00     0.338 C 
ATOM      5  O   UNL A   1      35.964  30.574  30.158  1.00  0.00    -0.246 OA
BRANCH   4   6
ATOM      6  C   UNL A   1      37.801  29.897  28.882  1.00  0.00     0.060 A 
ATOM      7  C   UNL A   1      38.462  29.664  27.687  1.00  0.00     0.016 A 
ATOM      8  C   UNL A   1      38.556  29.716  30.067  1.00  0.00     0.016 A 
ATOM      9  C   UNL A   1      39.819  29.313  27.677  1.00  0.00     0.010 A 
ATOM     10  C   UNL A   1      39.933  29.392  30.053  1.00  0.00     0.010 A 
ATOM     11  C   UNL A   1      40.593  29.210  28.840  1.00  0.00    -0.014 A 
BRANCH  11  12
ATOM     12  C   UNL A   1      42.038  28.836  28.697  1.00  0.00     0.031 A 
ATOM     13  C   UNL A   1      42.381  27.450  28.276  1.00  0.00     0.074 A 
ATOM     14  C   UNL A   1      43.025  29.758  28.697  1.00  0.00     0.049 A 
ATOM     15  N   UNL A   1      43.530  26.993  27.862  1.00  0.00    -0.248 NA
ATOM     16  C   UNL A   1      41.294  26.465  28.313  1.00  0.00     0.031 C 
ATOM     17  C   UNL A   1      42.798  31.143  29.027  1.00  0.00     0.029 A 
ATOM     18  N   UNL A   1      44.354  29.740  28.330  1.00  0.00    -0.354 N 
ATOM     19  C   UNL A   1      43.302  25.666  27.552  1.00  0.00     0.074 A 
ATOM     20  C   UNL A   1      41.911  25.388  27.853  1.00  0.00     0.031 C 
ATOM     21  C   UNL A   1      43.880  31.879  28.731  1.00  0.00     0.029 A 
ATOM     22  C   UNL A   1      44.936  30.996  28.263  1.00  0.00     0.049 A 
ATOM     23  H   UNL A   1      44.845  28.910  28.133  1.00  0.00     0.167 HD
ATOM     24  C   UNL A   1      44.183  24.760  27.076  1.00  0.00     0.031 A 
ATOM     25  C   UNL A   1      46.163  31.407  27.868  1.00  0.00     0.031 A 
ATOM     26  C   UNL A   1      45.579  25.015  26.851  1.00  0.00     0.049 A 
ATOM     27  C   UNL A   1      47.149  30.345  27.462  1.00  0.00     0.074 A 
ATOM     28  C   UNL A   1      46.572  24.107  26.530  1.00  0.00     0.029 A 
ATOM     29  N   UNL A   1      46.184  26.260  26.927  1.00  0.00    -0.354 N 
ATOM     30  N   UNL A   1      46.930  29.071  27.245  1.00  0.00    -0.248 NA
ATOM     31  C   UNL A   1      48.550  30.756  27.291  1.00  0.00     0.031 C 
ATOM     32  C   UNL A   1      47.790  24.794  26.477  1.00  0.00     0.029 A 
ATOM     33  C   UNL A   1      47.546  26.139  26.700  1.00  0.00     0.049 A 
ATOM     34  H   UNL A   1      45.716  27.106  27.115  1.00  0.00     0.167 HD
ATOM     35  C   UNL A   1      48.166  28.526  26.929  1.00  0.00     0.074 A 
ATOM     36  C   UNL A   1      49.118  29.618  26.918  1.00  0.00     0.031 C 
ATOM     37  C   UNL A   1      48.488  27.229  26.703  1.00  0.00     0.031 A 
BRANCH  24  38
ATOM     38  C   UNL A   1      43.654  23.375  26.883  1.00  0.00    -0.014 A 
ATOM     39  C   UNL A   1      43.269  22.584  27.979  1.00  0.00     0.010 A 
ATOM     40  C   UNL A   1      43.577  22.851  25.581  1.00  0.00     0.010 A 
ATOM     41  C   UNL A   1      42.833  21.275  27.774  1.00  0.00     0.020 A 
ATOM     42  C   UNL A   1      43.121  21.551  25.372  1.00  0.00     0.020 A 
ATOM     43  C   UNL A   1      42.764  20.767  26.471  1.00  0.00     0.054 A 
BRANCH  43  44
ATOM     44  S   UNL A   1      42.177  19.071  26.231  1.00  0.00     0.124 S 
ATOM     45  O   UNL A   1      40.784  19.286  25.848  1.00  0.00    -0.237 OA
ATOM     46  O   UNL A   1      43.052  18.580  25.169  1.00  0.00    -0.237 OA
ATOM     47  O   UNL A   1      42.374  18.448  27.536  1.00  0.00    -0.744 OA
ENDBRANCH  43  44
ENDBRANCH  24  38
BRANCH  25  48
ATOM     48  C   UNL A   1      46.587  32.849  27.909  1.00  0.00    -0.014 A 
ATOM     49  C   UNL A   1      46.552  33.661  26.757  1.00  0.00     0.010 A 
ATOM     50  C   UNL A   1      47.132  33.396  29.087  1.00  0.00     0.010 A 
ATOM     51  C   UNL A   1      47.088  34.959  26.771  1.00  0.00     0.020 A 
ATOM     52  C   UNL A   1      47.625  34.706  29.119  1.00  0.00     0.020 A 
ATOM     53  C   UNL A   1      47.628  35.469  27.953  1.00  0.00     0.054 A 
BRANCH  53  54
ATOM     54  S   UNL A   1      48.339  37.143  27.960  1.00  0.00     0.124 S 
ATOM     55  O   UNL A   1      49.670  36.907  27.412  1.00  0.00    -0.237 OA
ATOM     56  O   UNL A   1      47.418  37.881  27.100  1.00  0.00    -0.237 OA
ATOM     57  O   UNL A   1      48.298  37.519  29.371  1.00  0.00    -0.744 OA
ENDBRANCH  53  54
ENDBRANCH  25  48
BRANCH  37  58
ATOM     58  C   UNL A   1      49.936  26.922  26.438  1.00  0.00    -0.014 A 
ATOM     59  C   UNL A   1      50.804  26.569  27.488  1.00  0.00     0.010 A 
ATOM     60  C   UNL A   1      50.425  26.947  25.121  1.00  0.00     0.010 A 
ATOM     61  C   UNL A   1      52.146  26.284  27.229  1.00  0.00     0.020 A 
ATOM     62  C   UNL A   1      51.760  26.633  24.854  1.00  0.00     0.020 A 
ATOM     63  C   UNL A   1      52.616  26.319  25.913  1.00  0.00     0.054 A 
BRANCH  63  64
ATOM     64  S   UNL A   1      54.354  25.909  25.597  1.00  0.00     0.124 S 
ATOM     65  O   UNL A   1      54.918  25.922  26.945  1.00  0.00    -0.237 OA
ATOM     66  O   UNL A   1      54.265  24.595  24.967  1.00  0.00    -0.237 OA
ATOM     67  O   UNL A   1      54.810  26.985  24.721  1.00  0.00    -0.744 OA
ENDBRANCH  63  64
ENDBRANCH  37  58
ENDBRANCH  11  12
ENDBRANCH   4   6
ENDBRANCH   3   4
ENDBRANCH   2   3
ENDBRANCH   1   2
BRANCH   1  68
ATOM     68  O   UNL A   1      33.123  27.866  26.527  1.00  0.00    -0.458 OA
BRANCH  68  69
ATOM     69  C   UNL A   1      31.815  27.604  26.403  1.00  0.00     0.338 C 
ATOM     70  O   UNL A   1      31.014  27.407  27.299  1.00  0.00    -0.246 OA
BRANCH  69  71
ATOM     71  C   UNL A   1      31.424  27.795  24.999  1.00  0.00     0.066 A 
ATOM     72  C   UNL A   1      31.004  29.120  24.733  1.00  0.00     0.016 A 
ATOM     73  C   UNL A   1      31.284  26.767  24.046  1.00  0.00     0.001 A 
ATOM     74  C   UNL A   1      30.377  29.444  23.539  1.00  0.00     0.001 A 
ATOM     75  C   UNL A   1      30.444  27.101  22.955  1.00  0.00     0.008 A 
ATOM     76  C   UNL A   1      30.046  28.418  22.672  1.00  0.00     0.000 A 
BRANCH  73  77
ATOM     77  C   UNL A   1      31.877  25.341  24.075  1.00  0.00     0.197 C 
ATOM     78  S   UNL A   1      30.625  24.131  23.591  1.00  0.00    -0.120 SA
ATOM     79  N   UNL A   1      32.456  24.862  25.345  1.00  0.00    -0.236 N 
ATOM     80  C   UNL A   1      30.632  23.319  25.198  1.00  0.00     0.174 C 
ATOM     81  C   UNL A   1      31.623  24.042  26.092  1.00  0.00     0.252 C 
ATOM     82  O   UNL A   1      31.631  23.922  27.314  1.00  0.00    -0.272 OA
BRANCH  79  83
ATOM     83  N   UNL A   1      33.917  24.778  25.438  1.00  0.00    -0.270 N 
ATOM     84  H   UNL A   1      34.345  25.561  25.853  1.00  0.00     0.191 HD
BRANCH  83  85
ATOM     85  C   UNL A   1      34.795  23.791  25.043  1.00  0.00     0.189 C 
ATOM     86  S   UNL A   1      35.170  23.582  23.424  1.00  0.00    -0.039 S 
BRANCH  85  87
ATOM     87  N   UNL A   1      35.415  22.980  25.925  1.00  0.00    -0.331 N 
ATOM     88  H   UNL A   1      34.855  22.364  26.451  1.00  0.00     0.169 HD
BRANCH  87  89
ATOM     89  C   UNL A   1      36.798  22.952  26.149  1.00  0.00     0.040 A 
ATOM     90  C   UNL A   1      37.495  21.780  25.851  1.00  0.00     0.026 A 
ATOM     91  C   UNL A   1      37.479  24.095  26.569  1.00  0.00     0.026 A 
ATOM     92  C   UNL A   1      38.887  21.808  25.817  1.00  0.00     0.002 A 
ATOM     93  C   UNL A   1      38.866  24.103  26.586  1.00  0.00     0.002 A 
ATOM     94  C   UNL A   1      39.570  22.974  26.170  1.00  0.00     0.000 A 
ENDBRANCH  87  89
ENDBRANCH  85  87
ENDBRANCH  83  85
ENDBRANCH  79  83
ENDBRANCH  73  77
ENDBRANCH  69  71
ENDBRANCH  68  69
ENDBRANCH   1  68
TORSDOF 19
ENDMDL
MODEL 2
REMARK VINA RESULT:     -10.5      1.299      7.993
REMARK SMILES O=C(OCCOC(=O)c1ccccc1[C@@H]1SCC(=O)N1NC(=S)Nc1ccccc1)c1ccc(-c2c3nc(c(-c4ccc(S(=O)(=O)[O-])cc4)c4ccc([nH]4)c(-c4ccc(S(=O)(=O)[O-])cc4)c4nc(c(-c5ccc(S(=O)(=O)[O-])cc5)c5ccc2[nH]5)C=C4)C=C3)cc1
REMARK SMILES IDX 5 1 4 2 3 3 2 4 1 5 31 6 32 7 90 8 33 9 89 10 34 11 35 12
REMARK SMILES IDX 36 13 83 14 37 15 88 16 82 17 84 18 38 19 87 20 81 21 80 22
REMARK SMILES IDX 39 24 69 25 50 26 68 27 51 28 54 29 67 30 85 31 52 32 53 33
REMARK SMILES IDX 66 35 86 36 55 37 40 38 41 39 49 40 42 41 48 42 43 43 44 44
REMARK SMILES IDX 45 45 46 46 47 47 70 48 71 49 79 50 72 51 78 52 73 53 74 54
REMARK SMILES IDX 75 55 76 56 77 57 56 58 57 59 65 60 58 61 64 62 59 63 60 64
REMARK SMILES IDX 61 65 62 66 63 67 6 68 7 69 8 70 9 71 10 72 14 73 11 74
REMARK SMILES IDX 13 75 12 76 15 77 16 78 20 79 17 80 18 81 19 82 21 83 22 85
REMARK SMILES IDX 23 86 24 87 25 89 26 90 30 91 27 92 29 93 28 94
REMARK H PARENT 84 23 54 34 21 84 24 88
REMARK Flexibility Score: inf
ROOT
ATOM      1  C   UNL A   1      33.755  28.962  27.541  1.00  0.00     0.275 C 
ENDROOT
BRANCH   1   2
ATOM      2  C   UNL A   1      35.257  29.178  27.455  1.00  0.00     0.275 C 
BRANCH   2   3
ATOM      3  O   UNL A   1      35.810  29.708  28.686  1.00  0.00    -0.458 OA
BRANCH   3   4
ATOM      4  C   UNL A   1      36.873  29.348  29.447  1.00  0.00     0.338 C 
ATOM      5  O   UNL A   1      36.652  29.056  30.624  1.00  0.00    -0.246 OA
BRANCH   4   6
ATOM      6  C   UNL A   1      38.298  29.229  28.975  1.00  0.00     0.060 A 
ATOM      7  C   UNL A   1      39.391  28.926  29.771  1.00  0.00     0.016 A 
ATOM      8  C   UNL A   1      38.564  29.479  27.606  1.00  0.00     0.016 A 
ATOM      9  C   UNL A   1      40.675  28.833  29.217  1.00  0.00     0.010 A 
ATOM     10  C   UNL A   1      39.857  29.354  27.045  1.00  0.00     0.010 A 
ATOM     11  C   UNL A   1      40.935  29.000  27.851  1.00  0.00    -0.014 A 
BRANCH  11  12
ATOM     12  C   UNL A   1      42.352  28.866  27.380  1.00  0.00     0.031 A 
ATOM     13  C   UNL A   1      43.344  29.897  27.790  1.00  0.00     0.074 A 
ATOM     14  C   UNL A   1      42.818  27.735  26.807  1.00  0.00     0.049 A 
ATOM     15  N   UNL A   1      44.644  29.847  27.702  1.00  0.00    -0.248 NA
ATOM     16  C   UNL A   1      42.806  31.126  28.383  1.00  0.00     0.031 C 
ATOM     17  C   UNL A   1      41.958  26.643  26.425  1.00  0.00     0.029 A 
ATOM     18  N   UNL A   1      44.079  27.246  26.536  1.00  0.00    -0.354 N 
ATOM     19  C   UNL A   1      45.092  31.028  28.262  1.00  0.00     0.074 A 
ATOM     20  C   UNL A   1      43.921  31.784  28.662  1.00  0.00     0.031 C 
ATOM     21  C   UNL A   1      42.686  25.564  26.097  1.00  0.00     0.029 A 
ATOM     22  C   UNL A   1      44.096  25.913  26.159  1.00  0.00     0.049 A 
ATOM     23  H   UNL A   1      44.893  27.795  26.604  1.00  0.00     0.167 HD
ATOM     24  C   UNL A   1      46.367  31.447  28.413  1.00  0.00     0.031 A 
ATOM     25  C   UNL A   1      45.110  25.057  25.897  1.00  0.00     0.031 A 
ATOM     26  C   UNL A   1      47.523  30.733  27.948  1.00  0.00     0.049 A 
ATOM     27  C   UNL A   1      46.510  25.607  25.960  1.00  0.00     0.074 A 
ATOM     28  C   UNL A   1      48.837  31.165  27.911  1.00  0.00     0.029 A 
ATOM     29  N   UNL A   1      47.512  29.444  27.435  1.00  0.00    -0.354 N 
ATOM     30  N   UNL A   1      46.910  26.764  26.428  1.00  0.00    -0.248 NA
ATOM     31  C   UNL A   1      47.590  24.765  25.424  1.00  0.00     0.031 C 
ATOM     32  C   UNL A   1      49.609  30.163  27.314  1.00  0.00     0.029 A 
ATOM     33  C   UNL A   1      48.789  29.080  27.040  1.00  0.00     0.049 A 
ATOM     34  H   UNL A   1      46.713  28.871  27.362  1.00  0.00     0.167 HD
ATOM     35  C   UNL A   1      48.282  26.797  26.227  1.00  0.00     0.074 A 
ATOM     36  C   UNL A   1      48.655  25.519  25.656  1.00  0.00     0.031 C 
ATOM     37  C   UNL A   1      49.150  27.811  26.462  1.00  0.00     0.031 A 
BRANCH  24  38
ATOM     38  C   UNL A   1      46.540  32.805  29.014  1.00  0.00    -0.014 A 
ATOM     39  C   UNL A   1      46.622  33.952  28.207  1.00  0.00     0.010 A 
ATOM     40  C   UNL A   1      46.659  32.921  30.410  1.00  0.00     0.010 A 
ATOM     41  C   UNL A   1      46.842  35.200  28.792  1.00  0.00     0.020 A 
ATOM     42  C   UNL A   1      46.857  34.168  30.997  1.00  0.00     0.020 A 
ATOM     43  C   UNL A   1      46.959  35.298  30.183  1.00  0.00     0.054 A 
BRANCH  43  44
ATOM     44  S   UNL A   1      47.227  36.932  30.918  1.00  0.00     0.124 S 
ATOM     45  O   UNL A   1      48.580  37.247  30.467  1.00  0.00    -0.237 OA
ATOM     46  O   UNL A   1      46.161  37.729  30.315  1.00  0.00    -0.237 OA
ATOM     47  O   UNL A   1      47.089  36.694  32.352  1.00  0.00    -0.744 OA
ENDBRANCH  43  44
ENDBRANCH  24  38
BRANCH  25  48
ATOM     48  C   UNL A   1      44.882  23.634  25.470  1.00  0.00    -0.014 A 
ATOM     49  C   UNL A   1      44.682  22.604  26.412  1.00  0.00     0.010 A 
ATOM     50  C   UNL A   1      44.965  23.279  24.109  1.00  0.00     0.010 A 
ATOM     51  C   UNL A   1      44.619  21.260  26.009  1.00  0.00     0.020 A 
ATOM     52  C   UNL A   1      44.855  21.944  23.698  1.00  0.00     0.020 A 
ATOM     53  C   UNL A   1      44.712  20.940  24.653  1.00  0.00     0.054 A 
BRANCH  53  54
ATOM     54  S   UNL A   1      44.648  19.197  24.141  1.00  0.00     0.124 S 
ATOM     55  O   UNL A   1      43.494  18.706  24.884  1.00  0.00    -0.237 OA
ATOM     56  O   UNL A   1      44.476  19.299  22.694  1.00  0.00    -0.237 OA
ATOM     57  O   UNL A   1      45.942  18.672  24.571  1.00  0.00    -0.744 OA
ENDBRANCH  53  54
ENDBRANCH  25  48
BRANCH  37  58
ATOM     58  C   UNL A   1      50.588  27.580  26.087  1.00  0.00    -0.014 A 
ATOM     59  C   UNL A   1      51.058  27.889  24.797  1.00  0.00     0.010 A 
ATOM     60  C   UNL A   1      51.488  27.085  27.046  1.00  0.00     0.010 A 
ATOM     61  C   UNL A   1      52.395  27.672  24.462  1.00  0.00     0.020 A 
ATOM     62  C   UNL A   1      52.834  26.895  26.723  1.00  0.00     0.020 A 
ATOM     63  C   UNL A   1      53.276  27.175  25.428  1.00  0.00     0.054 A 
BRANCH  63  64
ATOM     64  S   UNL A   1      55.016  26.935  24.979  1.00  0.00     0.124 S 
ATOM     65  O   UNL A   1      55.125  27.725  23.756  1.00  0.00    -0.237 OA
ATOM     66  O   UNL A   1      55.723  27.472  26.139  1.00  0.00    -0.237 OA
ATOM     67  O   UNL A   1      55.132  25.490  24.800  1.00  0.00    -0.744 OA
ENDBRANCH  63  64
ENDBRANCH  37  58
ENDBRANCH  11  12
ENDBRANCH   4   6
ENDBRANCH   3   4
ENDBRANCH   2   3
ENDBRANCH   1   2
BRANCH   1  68
ATOM     68  O   UNL A   1      33.393  27.958  26.586  1.00  0.00    -0.458 OA
BRANCH  68  69
ATOM     69  C   UNL A   1      32.092  27.641  26.534  1.00  0.00     0.338 C 
ATOM     70  O   UNL A   1      31.351  27.412  27.473  1.00  0.00    -0.246 OA
BRANCH  69  71
ATOM     71  C   UNL A   1      31.617  27.812  25.154  1.00  0.00     0.066 A 
ATOM     72  C   UNL A   1      31.134  29.120  24.910  1.00  0.00     0.016 A 
ATOM     73  C   UNL A   1      31.461  26.776  24.212  1.00  0.00     0.001 A 
ATOM     74  C   UNL A   1      30.430  29.416  23.752  1.00  0.00     0.001 A 
ATOM     75  C   UNL A   1      30.550  27.074  23.170  1.00  0.00     0.008 A 
ATOM     76  C   UNL A   1      30.089  28.375  22.907  1.00  0.00     0.000 A 
BRANCH  73  77
ATOM     77  C   UNL A   1      32.106  25.372  24.211  1.00  0.00     0.197 C 
ATOM     78  S   UNL A   1      30.930  24.142  23.604  1.00  0.00    -0.120 SA
ATOM     79  N   UNL A   1      32.633  24.855  25.489  1.00  0.00    -0.236 N 
ATOM     80  C   UNL A   1      30.881  23.256  25.171  1.00  0.00     0.174 C 
ATOM     81  C   UNL A   1      31.792  23.972  26.150  1.00  0.00     0.252 C 
ATOM     82  O   UNL A   1      31.738  23.795  27.365  1.00  0.00    -0.272 OA
BRANCH  79  83
ATOM     83  N   UNL A   1      34.089  24.820  25.660  1.00  0.00    -0.270 N 
ATOM     84  H   UNL A   1      34.474  25.638  26.051  1.00  0.00     0.191 HD
BRANCH  83  85
ATOM     85  C   UNL A   1      35.012  23.838  25.369  1.00  0.00     0.189 C 
ATOM     86  S   UNL A   1      35.243  23.328  23.790  1.00  0.00    -0.039 S 
BRANCH  85  87
ATOM     87  N   UNL A   1      35.789  23.272  26.316  1.00  0.00    -0.331 N 
ATOM     88  H   UNL A   1      35.343  22.911  27.116  1.00  0.00     0.169 HD
BRANCH  87  89
ATOM     89  C   UNL A   1      37.184  23.163  26.244  1.00  0.00     0.040 A 
ATOM     90  C   UNL A   1      37.956  24.268  26.609  1.00  0.00     0.026 A 
ATOM     91  C   UNL A   1      37.791  21.954  25.906  1.00  0.00     0.026 A 
ATOM     92  C   UNL A   1      39.326  24.107  26.793  1.00  0.00     0.002 A 
ATOM     93  C   UNL A   1      39.165  21.812  26.038  1.00  0.00     0.002 A 
ATOM     94  C   UNL A   1      39.927  22.875  26.522  1.00  0.00     0.000 A 
ENDBRANCH  87  89
ENDBRANCH  85  87
ENDBRANCH  83  85
ENDBRANCH  79  83
ENDBRANCH  73  77
ENDBRANCH  69  71
ENDBRANCH  68  69
ENDBRANCH   1  68
TORSDOF 19
ENDMDL
MODEL 3
REMARK VINA RESULT:     -10.5      4.223      9.708
REMARK SMILES O=C(OCCOC(=O)c1ccccc1[C@@H]1SCC(=O)N1NC(=S)Nc1ccccc1)c1ccc(-c2c3nc(c(-c4ccc(S(=O)(=O)[O-])cc4)c4ccc([nH]4)c(-c4ccc(S(=O)(=O)[O-])cc4)c4nc(c(-c5ccc(S(=O)(=O)[O-])cc5)c5ccc2[nH]5)C=C4)C=C3)cc1
REMARK SMILES IDX 5 1 4 2 3 3 2 4 1 5 31 6 32 7 90 8 33 9 89 10 34 11 35 12
REMARK SMILES IDX 36 13 83 14 37 15 88 16 82 17 84 18 38 19 87 20 81 21 80 22
REMARK SMILES IDX 39 24 69 25 50 26 68 27 51 28 54 29 67 30 85 31 52 32 53 33
REMARK SMILES IDX 66 35 86 36 55 37 40 38 41 39 49 40 42 41 48 42 43 43 44 44
REMARK SMILES IDX 45 45 46 46 47 47 70 48 71 49 79 50 72 51 78 52 73 53 74 54
REMARK SMILES IDX 75 55 76 56 77 57 56 58 57 59 65 60 58 61 64 62 59 63 60 64
REMARK SMILES IDX 61 65 62 66 63 67 6 68 7 69 8 70 9 71 10 72 14 73 11 74
REMARK SMILES IDX 13 75 12 76 15 77 16 78 20 79 17 80 18 81 19 82 21 83 22 85
REMARK SMILES IDX 23 86 24 87 25 89 26 90 30 91 27 92 29 93 28 94
REMARK H PARENT 84 23 54 34 21 84 24 88
REMARK Flexibility Score: inf
ROOT
ATOM      1  C   UNL A   1      32.746  27.332  26.764  1.00  0.00     0.275 C 
ENDROOT
BRANCH   1   2
ATOM      2  C   UNL A   1      32.517  28.559  27.631  1.00  0.00     0.275 C 
BRANCH   2   3
ATOM      3  O   UNL A   1      33.267  29.710  27.169  1.00  0.00    -0.458 OA
BRANCH   3   4
ATOM      4  C   UNL A   1      34.195  30.502  27.761  1.00  0.00     0.338 C 
ATOM      5  O   UNL A   1      33.834  31.625  28.119  1.00  0.00    -0.246 OA
BRANCH   4   6
ATOM      6  C   UNL A   1      35.620  30.120  28.064  1.00  0.00     0.060 A 
ATOM      7  C   UNL A   1      36.679  30.177  27.172  1.00  0.00     0.016 A 
ATOM      8  C   UNL A   1      35.911  29.624  29.359  1.00  0.00     0.016 A 
ATOM      9  C   UNL A   1      37.970  29.801  27.570  1.00  0.00     0.010 A 
ATOM     10  C   UNL A   1      37.220  29.276  29.767  1.00  0.00     0.010 A 
ATOM     11  C   UNL A   1      38.280  29.387  28.872  1.00  0.00    -0.014 A 
BRANCH  11  12
ATOM     12  C   UNL A   1      39.702  29.021  29.176  1.00  0.00     0.031 A 
ATOM     13  C   UNL A   1      40.441  29.808  30.201  1.00  0.00     0.074 A 
ATOM     14  C   UNL A   1      40.261  27.871  28.741  1.00  0.00     0.049 A 
ATOM     15  N   UNL A   1      41.571  29.517  30.782  1.00  0.00    -0.248 NA
ATOM     16  C   UNL A   1      39.823  31.067  30.633  1.00  0.00     0.031 C 
ATOM     17  C   UNL A   1      39.610  26.997  27.796  1.00  0.00     0.029 A 
ATOM     18  N   UNL A   1      41.402  27.173  29.074  1.00  0.00    -0.354 N 
ATOM     19  C   UNL A   1      41.791  30.542  31.682  1.00  0.00     0.074 A 
ATOM     20  C   UNL A   1      40.689  31.475  31.547  1.00  0.00     0.031 C 
ATOM     21  C   UNL A   1      40.264  25.829  27.710  1.00  0.00     0.029 A 
ATOM     22  C   UNL A   1      41.455  25.895  28.541  1.00  0.00     0.049 A 
ATOM     23  H   UNL A   1      42.115  27.548  29.640  1.00  0.00     0.167 HD
ATOM     24  C   UNL A   1      42.831  30.696  32.530  1.00  0.00     0.031 A 
ATOM     25  C   UNL A   1      42.341  24.884  28.695  1.00  0.00     0.031 A 
ATOM     26  C   UNL A   1      43.961  29.813  32.610  1.00  0.00     0.049 A 
ATOM     27  C   UNL A   1      43.547  25.148  29.556  1.00  0.00     0.074 A 
ATOM     28  C   UNL A   1      45.134  29.987  33.322  1.00  0.00     0.029 A 
ATOM     29  N   UNL A   1      44.067  28.595  31.955  1.00  0.00    -0.354 N 
ATOM     30  N   UNL A   1      43.774  26.167  30.348  1.00  0.00    -0.248 NA
ATOM     31  C   UNL A   1      44.636  24.161  29.513  1.00  0.00     0.031 C 
ATOM     32  C   UNL A   1      45.977  28.906  33.045  1.00  0.00     0.029 A 
ATOM     33  C   UNL A   1      45.304  28.025  32.213  1.00  0.00     0.049 A 
ATOM     34  H   UNL A   1      43.368  28.193  31.390  1.00  0.00     0.167 HD
ATOM     35  C   UNL A   1      45.035  25.952  30.885  1.00  0.00     0.074 A 
ATOM     36  C   UNL A   1      45.496  24.676  30.379  1.00  0.00     0.031 C 
ATOM     37  C   UNL A   1      45.760  26.760  31.696  1.00  0.00     0.031 A 
BRANCH  24  38
ATOM     38  C   UNL A   1      42.821  31.944  33.354  1.00  0.00    -0.014 A 
ATOM     39  C   UNL A   1      43.391  33.136  32.875  1.00  0.00     0.010 A 
ATOM     40  C   UNL A   1      42.262  31.905  34.643  1.00  0.00     0.010 A 
ATOM     41  C   UNL A   1      43.419  34.270  33.688  1.00  0.00     0.020 A 
ATOM     42  C   UNL A   1      42.270  33.041  35.448  1.00  0.00     0.020 A 
ATOM     43  C   UNL A   1      42.859  34.214  34.970  1.00  0.00     0.054 A 
BRANCH  43  44
ATOM     44  S   UNL A   1      42.893  35.704  35.997  1.00  0.00     0.124 S 
ATOM     45  O   UNL A   1      44.324  35.988  36.069  1.00  0.00    -0.237 OA
ATOM     46  O   UNL A   1      42.103  36.649  35.212  1.00  0.00    -0.237 OA
ATOM     47  O   UNL A   1      42.281  35.275  37.252  1.00  0.00    -0.744 OA
ENDBRANCH  43  44
ENDBRANCH  24  38
BRANCH  25  48
ATOM     48  C   UNL A   1      42.204  23.569  27.979  1.00  0.00    -0.014 A 
ATOM     49  C   UNL A   1      41.544  22.472  28.570  1.00  0.00     0.010 A 
ATOM     50  C   UNL A   1      42.828  23.371  26.732  1.00  0.00     0.010 A 
ATOM     51  C   UNL A   1      41.551  21.209  27.957  1.00  0.00     0.020 A 
ATOM     52  C   UNL A   1      42.799  22.125  26.094  1.00  0.00     0.020 A 
ATOM     53  C   UNL A   1      42.186  21.044  26.724  1.00  0.00     0.054 A 
BRANCH  53  54
ATOM     54  S   UNL A   1      42.209  19.401  25.945  1.00  0.00     0.124 S 
ATOM     55  O   UNL A   1      40.803  19.207  25.610  1.00  0.00    -0.237 OA
ATOM     56  O   UNL A   1      43.110  19.601  24.813  1.00  0.00    -0.237 OA
ATOM     57  O   UNL A   1      42.729  18.536  27.000  1.00  0.00    -0.744 OA
ENDBRANCH  53  54
ENDBRANCH  25  48
BRANCH  37  58
ATOM     58  C   UNL A   1      47.137  26.288  32.077  1.00  0.00    -0.014 A 
ATOM     59  C   UNL A   1      47.345  25.535  33.247  1.00  0.00     0.010 A 
ATOM     60  C   UNL A   1      48.228  26.567  31.236  1.00  0.00     0.010 A 
ATOM     61  C   UNL A   1      48.627  25.101  33.588  1.00  0.00     0.020 A 
ATOM     62  C   UNL A   1      49.507  26.109  31.559  1.00  0.00     0.020 A 
ATOM     63  C   UNL A   1      49.701  25.391  32.742  1.00  0.00     0.054 A 
BRANCH  63  64
ATOM     64  S   UNL A   1      51.351  24.786  33.189  1.00  0.00     0.124 S 
ATOM     65  O   UNL A   1      51.809  24.199  31.932  1.00  0.00    -0.237 OA
ATOM     66  O   UNL A   1      52.040  26.007  33.599  1.00  0.00    -0.237 OA
ATOM     67  O   UNL A   1      51.091  23.833  34.264  1.00  0.00    -0.744 OA
ENDBRANCH  63  64
ENDBRANCH  37  58
ENDBRANCH  11  12
ENDBRANCH   4   6
ENDBRANCH   3   4
ENDBRANCH   2   3
ENDBRANCH   1   2
BRANCH   1  68
ATOM     68  O   UNL A   1      32.048  26.230  27.356  1.00  0.00    -0.458 OA
BRANCH  68  69
ATOM     69  C   UNL A   1      31.406  25.418  26.505  1.00  0.00     0.338 C 
ATOM     70  O   UNL A   1      30.216  25.415  26.244  1.00  0.00    -0.246 OA
BRANCH  69  71
ATOM     71  C   UNL A   1      32.399  24.641  25.750  1.00  0.00     0.066 A 
ATOM     72  C   UNL A   1      33.019  23.647  26.544  1.00  0.00     0.016 A 
ATOM     73  C   UNL A   1      32.851  24.940  24.450  1.00  0.00     0.001 A 
ATOM     74  C   UNL A   1      34.141  22.968  26.091  1.00  0.00     0.001 A 
ATOM     75  C   UNL A   1      34.117  24.389  24.136  1.00  0.00     0.008 A 
ATOM     76  C   UNL A   1      34.724  23.382  24.907  1.00  0.00     0.000 A 
BRANCH  73  77
ATOM     77  C   UNL A   1      32.174  25.819  23.375  1.00  0.00     0.197 C 
ATOM     78  S   UNL A   1      33.014  25.628  21.787  1.00  0.00    -0.120 SA
ATOM     79  N   UNL A   1      32.082  27.270  23.629  1.00  0.00    -0.236 N 
ATOM     80  C   UNL A   1      33.542  27.349  21.736  1.00  0.00     0.174 C 
ATOM     81  C   UNL A   1      33.050  28.035  22.996  1.00  0.00     0.252 C 
ATOM     82  O   UNL A   1      33.500  29.107  23.392  1.00  0.00    -0.272 OA
BRANCH  79  83
ATOM     83  N   UNL A   1      30.768  27.817  23.985  1.00  0.00    -0.270 N 
ATOM     84  H   UNL A   1      30.712  28.186  24.896  1.00  0.00     0.191 HD
BRANCH  83  85
ATOM     85  C   UNL A   1      29.597  27.903  23.263  1.00  0.00     0.189 C 
ATOM     86  S   UNL A   1      28.262  26.986  23.692  1.00  0.00    -0.039 S 
BRANCH  85  87
ATOM     87  N   UNL A   1      29.455  28.739  22.213  1.00  0.00    -0.331 N 
ATOM     88  H   UNL A   1      29.727  28.410  21.326  1.00  0.00     0.169 HD
BRANCH  87  89
ATOM     89  C   UNL A   1      28.949  30.044  22.296  1.00  0.00     0.040 A 
ATOM     90  C   UNL A   1      29.121  30.748  23.489  1.00  0.00     0.026 A 
ATOM     91  C   UNL A   1      28.372  30.660  21.185  1.00  0.00     0.026 A 
ATOM     92  C   UNL A   1      28.864  32.116  23.513  1.00  0.00     0.002 A 
ATOM     93  C   UNL A   1      28.066  32.013  21.229  1.00  0.00     0.002 A 
ATOM     94  C   UNL A   1      28.352  32.749  22.378  1.00  0.00     0.000 A 
ENDBRANCH  87  89
ENDBRANCH  85  87
ENDBRANCH  83  85
ENDBRANCH  79  83
ENDBRANCH  73  77
ENDBRANCH  69  71
ENDBRANCH  68  69
ENDBRANCH   1  68
TORSDOF 19
ENDMDL
