MODEL 1
REMARK VINA RESULT:      -9.9      0.000      0.000
REMARK SMILES Cn1ccnc1N1[C@@H]2CC[C@H]1C[C@H](CC(=O)OCCOC(=O)c1ccc(-c3c4nc(c(-c5ccc(S(=O)(=O)[O-])cc5)c5ccc([nH]5)c(-c5ccc(S(=O)(=O)[O-])cc5)c5nc(c(-c6ccc(S(=O)(=O)[O-])cc6)c6ccc3[nH]6)C=C5)C=C4)cc1)C2
REMARK SMILES IDX 19 1 18 2 17 3 15 4 16 5 14 6 13 7 7 8 8 9 11 10 9 11 83 12
REMARK SMILES IDX 10 13 12 14 6 15 1 16 2 17 3 18 4 19 5 20 20 21 21 22 22 23
REMARK SMILES IDX 23 24 24 25 82 26 25 27 81 28 26 29 27 30 28 31 75 32 29 33
REMARK SMILES IDX 80 34 74 35 76 36 30 37 79 38 73 39 72 40 31 42 61 43 42 44
REMARK SMILES IDX 60 45 43 46 46 47 59 48 77 49 44 50 45 51 58 53 78 54 47 55
REMARK SMILES IDX 32 56 33 57 41 58 34 59 40 60 35 61 36 62 37 63 38 64 39 65
REMARK SMILES IDX 62 66 63 67 71 68 64 69 70 70 65 71 66 72 67 73 68 74 69 75
REMARK SMILES IDX 48 76 49 77 57 78 50 79 56 80 51 81 52 82 53 83 54 84 55 85
REMARK H PARENT 76 41 46 52
REMARK Flexibility Score: inf
ROOT
ATOM      1  C   UNL A   1      33.310  32.241  27.953  1.00  0.00     0.275 C 
ENDROOT
BRANCH   1   2
ATOM      2  C   UNL A   1      33.306  33.750  27.702  1.00  0.00     0.274 C 
BRANCH   2   3
ATOM      3  O   UNL A   1      32.633  34.460  28.759  1.00  0.00    -0.462 OA
BRANCH   3   4
ATOM      4  C   UNL A   1      33.227  35.594  29.207  1.00  0.00     0.306 C 
ATOM      5  O   UNL A   1      33.905  36.346  28.520  1.00  0.00    -0.252 OA
BRANCH   4   6
ATOM      6  C   UNL A   1      33.022  35.800  30.695  1.00  0.00     0.126 C 
BRANCH   6   7
ATOM      7  C   UNL A   1      33.848  34.884  31.614  1.00  0.00     0.004 C 
ATOM      8  N   UNL A   1      36.571  34.667  32.630  1.00  0.00    -0.336 N 
ATOM      9  C   UNL A   1      35.499  34.944  33.597  1.00  0.00     0.086 C 
ATOM     10  C   UNL A   1      36.049  33.567  31.815  1.00  0.00     0.086 C 
ATOM     11  C   UNL A   1      35.059  33.539  34.039  1.00  0.00     0.027 C 
ATOM     12  C   UNL A   1      34.385  35.685  32.827  1.00  0.00     0.029 C 
ATOM     13  C   UNL A   1      35.423  32.628  32.859  1.00  0.00     0.027 C 
ATOM     14  C   UNL A   1      35.001  34.173  30.867  1.00  0.00     0.029 C 
BRANCH   8  15
ATOM     15  C   UNL A   1      37.854  34.647  33.072  1.00  0.00     0.205 A 
ATOM     16  C   UNL A   1      38.938  34.671  30.787  1.00  0.00     0.153 C 
ATOM     17  N   UNL A   1      38.939  34.587  32.225  1.00  0.00    -0.320 N 
ATOM     18  C   UNL A   1      40.071  34.501  32.993  1.00  0.00     0.109 A 
ATOM     19  C   UNL A   1      39.626  34.586  34.288  1.00  0.00     0.133 A 
ATOM     20  N   UNL A   1      38.263  34.700  34.322  1.00  0.00    -0.221 NA
ENDBRANCH   8  15
ENDBRANCH   6   7
ENDBRANCH   4   6
ENDBRANCH   3   4
ENDBRANCH   2   3
ENDBRANCH   1   2
BRANCH   1  21
ATOM     21  O   UNL A   1      34.542  31.642  27.514  1.00  0.00    -0.458 OA
BRANCH  21  22
ATOM     22  C   UNL A   1      34.659  30.315  27.747  1.00  0.00     0.338 C 
ATOM     23  O   UNL A   1      33.812  29.458  27.568  1.00  0.00    -0.246 OA
BRANCH  22  24
ATOM     24  C   UNL A   1      36.040  30.018  28.162  1.00  0.00     0.060 A 
ATOM     25  C   UNL A   1      37.054  30.071  27.200  1.00  0.00     0.016 A 
ATOM     26  C   UNL A   1      36.321  29.634  29.473  1.00  0.00     0.016 A 
ATOM     27  C   UNL A   1      38.361  29.736  27.550  1.00  0.00     0.010 A 
ATOM     28  C   UNL A   1      37.634  29.300  29.822  1.00  0.00     0.010 A 
ATOM     29  C   UNL A   1      38.660  29.340  28.861  1.00  0.00    -0.014 A 
BRANCH  29  30
ATOM     30  C   UNL A   1      40.041  28.935  29.222  1.00  0.00     0.031 A 
ATOM     31  C   UNL A   1      40.961  29.918  29.888  1.00  0.00     0.074 A 
ATOM     32  C   UNL A   1      40.470  27.689  28.940  1.00  0.00     0.049 A 
ATOM     33  N   UNL A   1      42.221  29.780  30.212  1.00  0.00    -0.248 NA
ATOM     34  C   UNL A   1      40.392  31.232  30.231  1.00  0.00     0.031 C 
ATOM     35  C   UNL A   1      39.665  26.638  28.314  1.00  0.00     0.029 A 
ATOM     36  N   UNL A   1      41.695  27.102  29.134  1.00  0.00    -0.354 N 
ATOM     37  C   UNL A   1      42.604  30.992  30.775  1.00  0.00     0.074 A 
ATOM     38  C   UNL A   1      41.445  31.858  30.738  1.00  0.00     0.031 C 
ATOM     39  C   UNL A   1      40.422  25.538  28.167  1.00  0.00     0.029 A 
ATOM     40  C   UNL A   1      41.772  25.816  28.652  1.00  0.00     0.049 A 
ATOM     41  H   UNL A   1      42.448  27.558  29.576  1.00  0.00     0.167 HD
ATOM     42  C   UNL A   1      43.811  31.348  31.273  1.00  0.00     0.031 A 
ATOM     43  C   UNL A   1      42.816  24.967  28.584  1.00  0.00     0.031 A 
ATOM     44  C   UNL A   1      44.960  30.482  31.316  1.00  0.00     0.049 A 
ATOM     45  C   UNL A   1      44.155  25.400  29.118  1.00  0.00     0.074 A 
ATOM     46  C   UNL A   1      46.216  30.745  31.835  1.00  0.00     0.029 A 
ATOM     47  N   UNL A   1      44.996  29.189  30.818  1.00  0.00    -0.354 N 
ATOM     48  N   UNL A   1      44.490  26.540  29.673  1.00  0.00    -0.248 NA
ATOM     49  C   UNL A   1      45.255  24.431  29.019  1.00  0.00     0.031 C 
ATOM     50  C   UNL A   1      47.025  29.627  31.609  1.00  0.00     0.029 A 
ATOM     51  C   UNL A   1      46.259  28.649  30.996  1.00  0.00     0.049 A 
ATOM     52  H   UNL A   1      44.235  28.722  30.401  1.00  0.00     0.167 HD
ATOM     53  C   UNL A   1      45.834  26.416  30.010  1.00  0.00     0.074 A 
ATOM     54  C   UNL A   1      46.246  25.087  29.609  1.00  0.00     0.031 C 
ATOM     55  C   UNL A   1      46.653  27.324  30.595  1.00  0.00     0.031 A 
BRANCH  42  56
ATOM     56  C   UNL A   1      43.968  32.753  31.791  1.00  0.00    -0.014 A 
ATOM     57  C   UNL A   1      43.703  33.069  33.135  1.00  0.00     0.010 A 
ATOM     58  C   UNL A   1      44.448  33.757  30.930  1.00  0.00     0.010 A 
ATOM     59  C   UNL A   1      43.893  34.373  33.603  1.00  0.00     0.020 A 
ATOM     60  C   UNL A   1      44.659  35.056  31.400  1.00  0.00     0.020 A 
ATOM     61  C   UNL A   1      44.368  35.358  32.732  1.00  0.00     0.054 A 
BRANCH  61  62
ATOM     62  S   UNL A   1      44.643  37.033  33.374  1.00  0.00     0.124 S 
ATOM     63  O   UNL A   1      44.942  37.778  32.154  1.00  0.00    -0.237 OA
ATOM     64  O   UNL A   1      43.365  37.350  34.006  1.00  0.00    -0.237 OA
ATOM     65  O   UNL A   1      45.765  36.872  34.296  1.00  0.00    -0.744 OA
ENDBRANCH  61  62
ENDBRANCH  42  56
BRANCH  43  66
ATOM     66  C   UNL A   1      42.647  23.631  27.951  1.00  0.00    -0.014 A 
ATOM     67  C   UNL A   1      43.048  23.406  26.623  1.00  0.00     0.010 A 
ATOM     68  C   UNL A   1      42.072  22.574  28.682  1.00  0.00     0.010 A 
ATOM     69  C   UNL A   1      42.858  22.154  26.031  1.00  0.00     0.020 A 
ATOM     70  C   UNL A   1      41.906  21.315  28.101  1.00  0.00     0.020 A 
ATOM     71  C   UNL A   1      42.287  21.116  26.773  1.00  0.00     0.054 A 
BRANCH  71  72
ATOM     72  S   UNL A   1      42.086  19.486  26.002  1.00  0.00     0.124 S 
ATOM     73  O   UNL A   1      42.932  19.606  24.818  1.00  0.00    -0.237 OA
ATOM     74  O   UNL A   1      42.573  18.580  27.039  1.00  0.00    -0.237 OA
ATOM     75  O   UNL A   1      40.651  19.407  25.742  1.00  0.00    -0.744 OA
ENDBRANCH  71  72
ENDBRANCH  43  66
BRANCH  55  76
ATOM     76  C   UNL A   1      48.071  26.900  30.871  1.00  0.00    -0.014 A 
ATOM     77  C   UNL A   1      49.122  27.280  30.019  1.00  0.00     0.010 A 
ATOM     78  C   UNL A   1      48.360  26.158  32.030  1.00  0.00     0.010 A 
ATOM     79  C   UNL A   1      50.435  26.900  30.306  1.00  0.00     0.020 A 
ATOM     80  C   UNL A   1      49.675  25.797  32.334  1.00  0.00     0.020 A 
ATOM     81  C   UNL A   1      50.704  26.159  31.461  1.00  0.00     0.054 A 
BRANCH  81  82
ATOM     82  S   UNL A   1      52.422  25.715  31.839  1.00  0.00     0.124 S 
ATOM     83  O   UNL A   1      53.078  25.920  30.551  1.00  0.00    -0.237 OA
ATOM     84  O   UNL A   1      52.780  26.669  32.885  1.00  0.00    -0.237 OA
ATOM     85  O   UNL A   1      52.331  24.324  32.278  1.00  0.00    -0.744 OA
ENDBRANCH  81  82
ENDBRANCH  55  76
ENDBRANCH  29  30
ENDBRANCH  22  24
ENDBRANCH  21  22
ENDBRANCH   1  21
TORSDOF 16
ENDMDL
MODEL 2
REMARK VINA RESULT:      -9.9      5.261     12.186
REMARK SMILES Cn1ccnc1N1[C@@H]2CC[C@H]1C[C@H](CC(=O)OCCOC(=O)c1ccc(-c3c4nc(c(-c5ccc(S(=O)(=O)[O-])cc5)c5ccc([nH]5)c(-c5ccc(S(=O)(=O)[O-])cc5)c5nc(c(-c6ccc(S(=O)(=O)[O-])cc6)c6ccc3[nH]6)C=C5)C=C4)cc1)C2
REMARK SMILES IDX 19 1 18 2 17 3 15 4 16 5 14 6 13 7 7 8 8 9 11 10 9 11 83 12
REMARK SMILES IDX 10 13 12 14 6 15 1 16 2 17 3 18 4 19 5 20 20 21 21 22 22 23
REMARK SMILES IDX 23 24 24 25 82 26 25 27 81 28 26 29 27 30 28 31 75 32 29 33
REMARK SMILES IDX 80 34 74 35 76 36 30 37 79 38 73 39 72 40 31 42 61 43 42 44
REMARK SMILES IDX 60 45 43 46 46 47 59 48 77 49 44 50 45 51 58 53 78 54 47 55
REMARK SMILES IDX 32 56 33 57 41 58 34 59 40 60 35 61 36 62 37 63 38 64 39 65
REMARK SMILES IDX 62 66 63 67 71 68 64 69 70 70 65 71 66 72 67 73 68 74 69 75
REMARK SMILES IDX 48 76 49 77 57 78 50 79 56 80 51 81 52 82 53 83 54 84 55 85
REMARK H PARENT 76 41 46 52
REMARK Flexibility Score: inf
ROOT
ATOM      1  C   UNL A   1      40.335  22.352  26.932  1.00  0.00     0.275 C 
ENDROOT
BRANCH   1   2
ATOM      2  C   UNL A   1      39.494  21.474  26.003  1.00  0.00     0.274 C 
BRANCH   2   3
ATOM      3  O   UNL A   1      38.111  21.878  26.004  1.00  0.00    -0.462 OA
BRANCH   3   4
ATOM      4  C   UNL A   1      37.323  21.357  25.031  1.00  0.00     0.306 C 
ATOM      5  O   UNL A   1      37.274  20.171  24.732  1.00  0.00    -0.252 OA
BRANCH   4   6
ATOM      6  C   UNL A   1      36.547  22.426  24.287  1.00  0.00     0.126 C 
BRANCH   6   7
ATOM      7  C   UNL A   1      35.146  22.739  24.841  1.00  0.00     0.004 C 
ATOM      8  N   UNL A   1      32.900  24.505  24.266  1.00  0.00    -0.336 N 
ATOM      9  C   UNL A   1      32.693  23.058  24.106  1.00  0.00     0.086 C 
ATOM     10  C   UNL A   1      33.565  24.635  25.565  1.00  0.00     0.086 C 
ATOM     11  C   UNL A   1      32.194  22.625  25.494  1.00  0.00     0.027 C 
ATOM     12  C   UNL A   1      34.068  22.445  23.767  1.00  0.00     0.029 C 
ATOM     13  C   UNL A   1      32.773  23.668  26.459  1.00  0.00     0.027 C 
ATOM     14  C   UNL A   1      35.023  24.188  25.366  1.00  0.00     0.029 C 
BRANCH   8  15
ATOM     15  C   UNL A   1      31.892  25.347  23.921  1.00  0.00     0.205 A 
ATOM     16  C   UNL A   1      32.999  26.271  21.843  1.00  0.00     0.153 C 
ATOM     17  N   UNL A   1      31.964  26.201  22.843  1.00  0.00    -0.320 N 
ATOM     18  C   UNL A   1      30.822  26.959  22.827  1.00  0.00     0.109 A 
ATOM     19  C   UNL A   1      30.065  26.477  23.865  1.00  0.00     0.133 A 
ATOM     20  N   UNL A   1      30.724  25.469  24.515  1.00  0.00    -0.221 NA
ENDBRANCH   8  15
ENDBRANCH   6   7
ENDBRANCH   4   6
ENDBRANCH   3   4
ENDBRANCH   2   3
ENDBRANCH   1   2
BRANCH   1  21
ATOM     21  O   UNL A   1      40.019  23.745  26.760  1.00  0.00    -0.458 OA
BRANCH  21  22
ATOM     22  C   UNL A   1      41.083  24.578  26.694  1.00  0.00     0.338 C 
ATOM     23  O   UNL A   1      42.007  24.533  25.901  1.00  0.00    -0.246 OA
BRANCH  22  24
ATOM     24  C   UNL A   1      40.913  25.656  27.681  1.00  0.00     0.060 A 
ATOM     25  C   UNL A   1      41.895  26.649  27.766  1.00  0.00     0.016 A 
ATOM     26  C   UNL A   1      39.825  25.655  28.555  1.00  0.00     0.016 A 
ATOM     27  C   UNL A   1      41.791  27.648  28.732  1.00  0.00     0.010 A 
ATOM     28  C   UNL A   1      39.723  26.661  29.522  1.00  0.00     0.010 A 
ATOM     29  C   UNL A   1      40.709  27.658  29.622  1.00  0.00    -0.014 A 
BRANCH  29  30
ATOM     30  C   UNL A   1      40.624  28.691  30.683  1.00  0.00     0.031 A 
ATOM     31  C   UNL A   1      41.511  28.599  31.893  1.00  0.00     0.074 A 
ATOM     32  C   UNL A   1      39.744  29.704  30.565  1.00  0.00     0.049 A 
ATOM     33  N   UNL A   1      41.533  29.357  32.959  1.00  0.00    -0.248 NA
ATOM     34  C   UNL A   1      42.497  27.506  31.910  1.00  0.00     0.031 C 
ATOM     35  C   UNL A   1      38.844  29.915  29.429  1.00  0.00     0.029 A 
ATOM     36  N   UNL A   1      39.454  30.740  31.417  1.00  0.00    -0.354 N 
ATOM     37  C   UNL A   1      42.517  28.824  33.783  1.00  0.00     0.074 A 
ATOM     38  C   UNL A   1      43.061  27.670  33.099  1.00  0.00     0.031 C 
ATOM     39  C   UNL A   1      38.097  31.007  29.661  1.00  0.00     0.029 A 
ATOM     40  C   UNL A   1      38.436  31.550  30.973  1.00  0.00     0.049 A 
ATOM     41  H   UNL A   1      39.931  30.889  32.266  1.00  0.00     0.167 HD
ATOM     42  C   UNL A   1      42.927  29.257  34.999  1.00  0.00     0.031 A 
ATOM     43  C   UNL A   1      37.826  32.595  31.566  1.00  0.00     0.031 A 
ATOM     44  C   UNL A   1      42.390  30.410  35.674  1.00  0.00     0.049 A 
ATOM     45  C   UNL A   1      38.281  33.037  32.932  1.00  0.00     0.074 A 
ATOM     46  C   UNL A   1      42.767  30.944  36.894  1.00  0.00     0.029 A 
ATOM     47  N   UNL A   1      41.361  31.202  35.191  1.00  0.00    -0.354 N 
ATOM     48  N   UNL A   1      39.233  32.538  33.684  1.00  0.00    -0.248 NA
ATOM     49  C   UNL A   1      37.581  34.184  33.527  1.00  0.00     0.031 C 
ATOM     50  C   UNL A   1      41.934  32.034  37.170  1.00  0.00     0.029 A 
ATOM     51  C   UNL A   1      41.073  32.208  36.099  1.00  0.00     0.049 A 
ATOM     52  H   UNL A   1      40.902  31.070  34.329  1.00  0.00     0.167 HD
ATOM     53  C   UNL A   1      39.260  33.324  34.831  1.00  0.00     0.074 A 
ATOM     54  C   UNL A   1      38.241  34.339  34.668  1.00  0.00     0.031 C 
ATOM     55  C   UNL A   1      40.058  33.213  35.921  1.00  0.00     0.031 A 
BRANCH  42  56
ATOM     56  C   UNL A   1      43.994  28.462  35.702  1.00  0.00    -0.014 A 
ATOM     57  C   UNL A   1      45.358  28.748  35.518  1.00  0.00     0.010 A 
ATOM     58  C   UNL A   1      43.620  27.454  36.610  1.00  0.00     0.010 A 
ATOM     59  C   UNL A   1      46.331  28.022  36.212  1.00  0.00     0.020 A 
ATOM     60  C   UNL A   1      44.589  26.740  37.321  1.00  0.00     0.020 A 
ATOM     61  C   UNL A   1      45.940  27.022  37.107  1.00  0.00     0.054 A 
BRANCH  61  62
ATOM     62  S   UNL A   1      47.221  26.120  38.023  1.00  0.00     0.124 S 
ATOM     63  O   UNL A   1      46.634  24.786  38.127  1.00  0.00    -0.237 OA
ATOM     64  O   UNL A   1      48.383  26.230  37.146  1.00  0.00    -0.237 OA
ATOM     65  O   UNL A   1      47.327  26.853  39.284  1.00  0.00    -0.744 OA
ENDBRANCH  61  62
ENDBRANCH  42  56
BRANCH  43  66
ATOM     66  C   UNL A   1      36.692  33.277  30.887  1.00  0.00    -0.014 A 
ATOM     67  C   UNL A   1      36.904  34.065  29.743  1.00  0.00     0.010 A 
ATOM     68  C   UNL A   1      35.385  33.142  31.394  1.00  0.00     0.010 A 
ATOM     69  C   UNL A   1      35.834  34.723  29.130  1.00  0.00     0.020 A 
ATOM     70  C   UNL A   1      34.310  33.778  30.767  1.00  0.00     0.020 A 
ATOM     71  C   UNL A   1      34.543  34.577  29.647  1.00  0.00     0.054 A 
BRANCH  71  72
ATOM     72  S   UNL A   1      33.160  35.406  28.815  1.00  0.00     0.124 S 
ATOM     73  O   UNL A   1      33.850  36.402  28.001  1.00  0.00    -0.237 OA
ATOM     74  O   UNL A   1      32.530  34.312  28.078  1.00  0.00    -0.237 OA
ATOM     75  O   UNL A   1      32.368  35.938  29.920  1.00  0.00    -0.744 OA
ENDBRANCH  71  72
ENDBRANCH  43  66
BRANCH  55  76
ATOM     76  C   UNL A   1      39.884  34.235  37.013  1.00  0.00    -0.014 A 
ATOM     77  C   UNL A   1      40.435  35.523  36.897  1.00  0.00     0.010 A 
ATOM     78  C   UNL A   1      39.111  33.917  38.144  1.00  0.00     0.010 A 
ATOM     79  C   UNL A   1      40.240  36.467  37.908  1.00  0.00     0.020 A 
ATOM     80  C   UNL A   1      38.894  34.866  39.146  1.00  0.00     0.020 A 
ATOM     81  C   UNL A   1      39.472  36.132  39.028  1.00  0.00     0.054 A 
BRANCH  81  82
ATOM     82  S   UNL A   1      39.193  37.388  40.308  1.00  0.00     0.124 S 
ATOM     83  O   UNL A   1      38.304  38.322  39.626  1.00  0.00    -0.237 OA
ATOM     84  O   UNL A   1      38.586  36.618  41.390  1.00  0.00    -0.237 OA
ATOM     85  O   UNL A   1      40.534  37.896  40.591  1.00  0.00    -0.744 OA
ENDBRANCH  81  82
ENDBRANCH  55  76
ENDBRANCH  29  30
ENDBRANCH  22  24
ENDBRANCH  21  22
ENDBRANCH   1  21
TORSDOF 16
ENDMDL
MODEL 3
REMARK VINA RESULT:      -9.9      4.287      6.624
REMARK SMILES Cn1ccnc1N1[C@@H]2CC[C@H]1C[C@H](CC(=O)OCCOC(=O)c1ccc(-c3c4nc(c(-c5ccc(S(=O)(=O)[O-])cc5)c5ccc([nH]5)c(-c5ccc(S(=O)(=O)[O-])cc5)c5nc(c(-c6ccc(S(=O)(=O)[O-])cc6)c6ccc3[nH]6)C=C5)C=C4)cc1)C2
REMARK SMILES IDX 19 1 18 2 17 3 15 4 16 5 14 6 13 7 7 8 8 9 11 10 9 11 83 12
REMARK SMILES IDX 10 13 12 14 6 15 1 16 2 17 3 18 4 19 5 20 20 21 21 22 22 23
REMARK SMILES IDX 23 24 24 25 82 26 25 27 81 28 26 29 27 30 28 31 75 32 29 33
REMARK SMILES IDX 80 34 74 35 76 36 30 37 79 38 73 39 72 40 31 42 61 43 42 44
REMARK SMILES IDX 60 45 43 46 46 47 59 48 77 49 44 50 45 51 58 53 78 54 47 55
REMARK SMILES IDX 32 56 33 57 41 58 34 59 40 60 35 61 36 62 37 63 38 64 39 65
REMARK SMILES IDX 62 66 63 67 71 68 64 69 70 70 65 71 66 72 67 73 68 74 69 75
REMARK SMILES IDX 48 76 49 77 57 78 50 79 56 80 51 81 52 82 53 83 54 84 55 85
REMARK H PARENT 76 41 46 52
REMARK Flexibility Score: inf
ROOT
ATOM      1  C   UNL A   1      34.874  32.119  29.083  1.00  0.00     0.275 C 
ENDROOT
BRANCH   1   2
ATOM      2  C   UNL A   1      33.885  32.111  27.915  1.00  0.00     0.274 C 
BRANCH   2   3
ATOM      3  O   UNL A   1      33.701  30.783  27.389  1.00  0.00    -0.462 OA
BRANCH   3   4
ATOM      4  C   UNL A   1      32.456  30.467  26.952  1.00  0.00     0.306 C 
ATOM      5  O   UNL A   1      31.646  31.272  26.510  1.00  0.00    -0.252 OA
BRANCH   4   6
ATOM      6  C   UNL A   1      32.137  28.998  27.141  1.00  0.00     0.126 C 
BRANCH   6   7
ATOM      7  C   UNL A   1      32.421  28.094  25.928  1.00  0.00     0.004 C 
ATOM      8  N   UNL A   1      32.489  25.255  25.272  1.00  0.00    -0.336 N 
ATOM      9  C   UNL A   1      31.465  26.085  24.620  1.00  0.00     0.086 C 
ATOM     10  C   UNL A   1      33.726  26.026  25.129  1.00  0.00     0.086 C 
ATOM     11  C   UNL A   1      32.168  26.555  23.336  1.00  0.00     0.027 C 
ATOM     12  C   UNL A   1      31.165  27.257  25.578  1.00  0.00     0.029 C 
ATOM     13  C   UNL A   1      33.664  26.517  23.674  1.00  0.00     0.027 C 
ATOM     14  C   UNL A   1      33.651  27.181  26.141  1.00  0.00     0.029 C 
BRANCH   8  15
ATOM     15  C   UNL A   1      32.482  23.917  25.043  1.00  0.00     0.205 A 
ATOM     16  C   UNL A   1      30.807  23.335  26.848  1.00  0.00     0.153 C 
ATOM     17  N   UNL A   1      31.755  23.030  25.807  1.00  0.00    -0.320 N 
ATOM     18  C   UNL A   1      32.033  21.763  25.362  1.00  0.00     0.109 A 
ATOM     19  C   UNL A   1      32.868  21.942  24.288  1.00  0.00     0.133 A 
ATOM     20  N   UNL A   1      33.117  23.273  24.088  1.00  0.00    -0.221 NA
ENDBRANCH   8  15
ENDBRANCH   6   7
ENDBRANCH   4   6
ENDBRANCH   3   4
ENDBRANCH   2   3
ENDBRANCH   1   2
BRANCH   1  21
ATOM     21  O   UNL A   1      35.536  30.848  29.213  1.00  0.00    -0.458 OA
BRANCH  21  22
ATOM     22  C   UNL A   1      36.315  30.708  30.310  1.00  0.00     0.338 C 
ATOM     23  O   UNL A   1      35.987  30.870  31.472  1.00  0.00    -0.246 OA
BRANCH  22  24
ATOM     24  C   UNL A   1      37.638  30.208  29.902  1.00  0.00     0.060 A 
ATOM     25  C   UNL A   1      38.577  29.912  30.895  1.00  0.00     0.016 A 
ATOM     26  C   UNL A   1      37.968  30.090  28.552  1.00  0.00     0.016 A 
ATOM     27  C   UNL A   1      39.858  29.494  30.537  1.00  0.00     0.010 A 
ATOM     28  C   UNL A   1      39.253  29.669  28.196  1.00  0.00     0.010 A 
ATOM     29  C   UNL A   1      40.209  29.378  29.185  1.00  0.00    -0.014 A 
BRANCH  29  30
ATOM     30  C   UNL A   1      41.587  28.983  28.802  1.00  0.00     0.031 A 
ATOM     31  C   UNL A   1      42.679  30.015  28.760  1.00  0.00     0.074 A 
ATOM     32  C   UNL A   1      41.853  27.701  28.481  1.00  0.00     0.049 A 
ATOM     33  N   UNL A   1      43.923  29.883  28.379  1.00  0.00    -0.248 NA
ATOM     34  C   UNL A   1      42.323  31.374  29.198  1.00  0.00     0.031 C 
ATOM     35  C   UNL A   1      40.884  26.604  28.503  1.00  0.00     0.029 A 
ATOM     36  N   UNL A   1      43.019  27.110  28.062  1.00  0.00    -0.354 N 
ATOM     37  C   UNL A   1      44.495  31.144  28.509  1.00  0.00     0.074 A 
ATOM     38  C   UNL A   1      43.457  32.029  28.993  1.00  0.00     0.031 C 
ATOM     39  C   UNL A   1      41.494  25.475  28.106  1.00  0.00     0.029 A 
ATOM     40  C   UNL A   1      42.882  25.774  27.766  1.00  0.00     0.049 A 
ATOM     41  H   UNL A   1      43.871  27.596  27.981  1.00  0.00     0.167 HD
ATOM     42  C   UNL A   1      45.767  31.526  28.246  1.00  0.00     0.031 A 
ATOM     43  C   UNL A   1      43.766  24.897  27.252  1.00  0.00     0.031 A 
ATOM     44  C   UNL A   1      46.799  30.641  27.773  1.00  0.00     0.049 A 
ATOM     45  C   UNL A   1      45.165  25.355  26.941  1.00  0.00     0.074 A 
ATOM     46  C   UNL A   1      48.127  30.932  27.512  1.00  0.00     0.029 A 
ATOM     47  N   UNL A   1      46.620  29.297  27.485  1.00  0.00    -0.354 N 
ATOM     48  N   UNL A   1      45.696  26.544  27.097  1.00  0.00    -0.248 NA
ATOM     49  C   UNL A   1      46.085  24.353  26.386  1.00  0.00     0.031 C 
ATOM     50  C   UNL A   1      48.740  29.774  27.023  1.00  0.00     0.029 A 
ATOM     51  C   UNL A   1      47.807  28.750  27.027  1.00  0.00     0.049 A 
ATOM     52  H   UNL A   1      45.774  28.804  27.592  1.00  0.00     0.167 HD
ATOM     53  C   UNL A   1      47.017  26.427  26.681  1.00  0.00     0.074 A 
ATOM     54  C   UNL A   1      47.210  25.049  26.280  1.00  0.00     0.031 C 
ATOM     55  C   UNL A   1      47.984  27.377  26.634  1.00  0.00     0.031 A 
BRANCH  42  56
ATOM     56  C   UNL A   1      46.115  32.977  28.436  1.00  0.00    -0.014 A 
ATOM     57  C   UNL A   1      46.635  33.451  29.653  1.00  0.00     0.010 A 
ATOM     58  C   UNL A   1      45.977  33.868  27.356  1.00  0.00     0.010 A 
ATOM     59  C   UNL A   1      46.988  34.797  29.794  1.00  0.00     0.020 A 
ATOM     60  C   UNL A   1      46.349  35.209  27.486  1.00  0.00     0.020 A 
ATOM     61  C   UNL A   1      46.841  35.667  28.710  1.00  0.00     0.054 A 
BRANCH  61  62
ATOM     62  S   UNL A   1      47.342  37.400  28.907  1.00  0.00     0.124 S 
ATOM     63  O   UNL A   1      48.330  37.551  27.841  1.00  0.00    -0.237 OA
ATOM     64  O   UNL A   1      46.089  38.123  28.710  1.00  0.00    -0.237 OA
ATOM     65  O   UNL A   1      47.880  37.453  30.265  1.00  0.00    -0.744 OA
ENDBRANCH  61  62
ENDBRANCH  42  56
BRANCH  43  66
ATOM     66  C   UNL A   1      43.344  23.499  26.965  1.00  0.00    -0.014 A 
ATOM     67  C   UNL A   1      43.024  23.097  25.657  1.00  0.00     0.010 A 
ATOM     68  C   UNL A   1      43.254  22.561  28.011  1.00  0.00     0.010 A 
ATOM     69  C   UNL A   1      42.601  21.788  25.404  1.00  0.00     0.020 A 
ATOM     70  C   UNL A   1      42.858  21.247  27.757  1.00  0.00     0.020 A 
ATOM     71  C   UNL A   1      42.519  20.871  26.456  1.00  0.00     0.054 A 
BRANCH  71  72
ATOM     72  S   UNL A   1      42.008  19.166  26.103  1.00  0.00     0.124 S 
ATOM     73  O   UNL A   1      42.893  18.808  24.998  1.00  0.00    -0.237 OA
ATOM     74  O   UNL A   1      42.270  18.486  27.369  1.00  0.00    -0.237 OA
ATOM     75  O   UNL A   1      40.595  19.299  25.757  1.00  0.00    -0.744 OA
ENDBRANCH  71  72
ENDBRANCH  43  66
BRANCH  55  76
ATOM     76  C   UNL A   1      49.349  26.952  26.163  1.00  0.00    -0.014 A 
ATOM     77  C   UNL A   1      50.239  26.283  27.021  1.00  0.00     0.010 A 
ATOM     78  C   UNL A   1      49.722  27.178  24.826  1.00  0.00     0.010 A 
ATOM     79  C   UNL A   1      51.491  25.873  26.557  1.00  0.00     0.020 A 
ATOM     80  C   UNL A   1      50.963  26.748  24.352  1.00  0.00     0.020 A 
ATOM     81  C   UNL A   1      51.847  26.110  25.225  1.00  0.00     0.054 A 
BRANCH  81  82
ATOM     82  S   UNL A   1      53.460  25.527  24.631  1.00  0.00     0.124 S 
ATOM     83  O   UNL A   1      53.318  25.665  23.185  1.00  0.00    -0.237 OA
ATOM     84  O   UNL A   1      54.392  26.457  25.263  1.00  0.00    -0.237 OA
ATOM     85  O   UNL A   1      53.533  24.153  25.122  1.00  0.00    -0.744 OA
ENDBRANCH  81  82
ENDBRANCH  55  76
ENDBRANCH  29  30
ENDBRANCH  22  24
ENDBRANCH  21  22
ENDBRANCH   1  21
TORSDOF 16
ENDMDL
