MODEL 1
REMARK VINA RESULT:      -9.3      0.000      0.000
REMARK SMILES COc1ccc(N2C(=O)N=C(OCCOC(=O)c3ccc(-c4c5nc(c(-c6ccc(S(=O)(=O)[O-])cc6)c6ccc([nH]6)c(-c6ccc(S(=O)(=O)[O-])cc6)c6nc(c(-c7ccc(S(=O)(=O)[O-])cc7)c7ccc4[nH]7)C=C6)C=C5)cc3)/C(=C\c3cc(Cl)c(OCC(=O)[O-])c(Cl)c3)C2=O)cc1
REMARK SMILES IDX 13 1 12 2 11 3 7 4 8 5 93 6 9 7 10 8 78 9 94 10 79 11 6 12
REMARK SMILES IDX 3 13 4 14 96 15 5 16 95 17 2 18 1 19 80 20 81 21 92 22 82 23
REMARK SMILES IDX 90 24 83 25 84 26 91 27 85 28 86 29 87 30 88 31 89 32 14 33
REMARK SMILES IDX 15 34 16 35 17 36 18 37 19 38 77 39 20 40 76 41 21 42 22 43
REMARK SMILES IDX 23 44 70 45 24 46 75 47 69 48 71 49 25 50 74 51 68 52 67 53
REMARK SMILES IDX 26 55 56 56 37 57 55 58 38 59 41 60 54 61 72 62 39 63 40 64
REMARK SMILES IDX 53 66 73 67 42 68 27 69 28 70 36 71 29 72 35 73 30 74 31 75
REMARK SMILES IDX 32 76 33 77 34 78 57 79 58 80 66 81 59 82 65 83 60 84 61 85
REMARK SMILES IDX 62 86 63 87 64 88 43 89 44 90 52 91 45 92 51 93 46 94 47 95
REMARK SMILES IDX 48 96 49 97 50 98
REMARK H PARENT 71 54 41 65
REMARK Flexibility Score: inf
ROOT
ATOM      1  C   UNL A   1      44.011  26.452  26.003  1.00  0.00     0.273 C 
ENDROOT
BRANCH   1   2
ATOM      2  O   UNL A   1      43.783  26.039  27.361  1.00  0.00    -0.473 OA
BRANCH   2   3
ATOM      3  C   UNL A   1      44.225  26.849  28.336  1.00  0.00     0.231 C 
ATOM      4  N   UNL A   1      45.537  28.420  30.068  1.00  0.00    -0.226 N 
ATOM      5  C   UNL A   1      44.579  28.936  29.183  1.00  0.00     0.358 C 
ATOM      6  C   UNL A   1      45.590  27.062  30.414  1.00  0.00     0.272 C 
ATOM      7  O   UNL A   1      44.235  30.113  29.210  1.00  0.00    -0.245 OA
ATOM      8  N   UNL A   1      44.017  28.106  28.253  1.00  0.00    -0.156 NA
ATOM      9  C   UNL A   1      44.976  26.147  29.386  1.00  0.00     0.103 C 
ATOM     10  O   UNL A   1      46.175  26.584  31.383  1.00  0.00    -0.268 OA
ATOM     11  C   UNL A   1      45.269  24.821  29.404  1.00  0.00     0.027 C 
BRANCH   4  12
ATOM     12  C   UNL A   1      46.514  29.353  30.580  1.00  0.00     0.054 A 
ATOM     13  C   UNL A   1      48.645  30.943  31.582  1.00  0.00     0.119 A 
ATOM     14  C   UNL A   1      47.437  30.825  32.278  1.00  0.00     0.048 A 
ATOM     15  C   UNL A   1      48.788  30.276  30.373  1.00  0.00     0.048 A 
ATOM     16  C   UNL A   1      46.390  30.014  31.803  1.00  0.00     0.031 A 
ATOM     17  C   UNL A   1      47.725  29.512  29.868  1.00  0.00     0.031 A 
BRANCH  13  18
ATOM     18  O   UNL A   1      49.587  31.736  32.173  1.00  0.00    -0.497 OA
ATOM     19  C   UNL A   1      50.899  31.724  31.616  1.00  0.00     0.278 C 
ENDBRANCH  13  18
ENDBRANCH   4  12
BRANCH  11  20
ATOM     20  C   UNL A   1      44.781  23.777  28.468  1.00  0.00    -0.021 A 
ATOM     21  C   UNL A   1      43.490  23.271  28.633  1.00  0.00     0.032 A 
ATOM     22  C   UNL A   1      45.525  23.337  27.361  1.00  0.00     0.032 A 
ATOM     23  C   UNL A   1      42.909  22.457  27.650  1.00  0.00     0.085 A 
ATOM     24  C   UNL A   1      44.928  22.557  26.353  1.00  0.00     0.085 A 
ATOM     25  Cl  UNL A   1      41.315  21.852  27.937  1.00  0.00    -0.080 Cl
ATOM     26  C   UNL A   1      43.591  22.164  26.462  1.00  0.00     0.157 A 
ATOM     27  Cl  UNL A   1      45.897  22.130  24.987  1.00  0.00    -0.080 Cl
BRANCH  26  28
ATOM     28  O   UNL A   1      42.936  21.433  25.503  1.00  0.00    -0.485 OA
BRANCH  28  29
ATOM     29  C   UNL A   1      43.231  20.041  25.478  1.00  0.00     0.282 C 
BRANCH  29  30
ATOM     30  C   UNL A   1      42.449  18.996  26.275  1.00  0.00     0.079 C 
ATOM     31  O   UNL A   1      42.838  18.414  27.276  1.00  0.00    -0.546 OA
ATOM     32  O   UNL A   1      41.205  18.779  25.804  1.00  0.00    -0.546 OA
ENDBRANCH  29  30
ENDBRANCH  28  29
ENDBRANCH  26  28
ENDBRANCH  11  20
ENDBRANCH   2   3
ENDBRANCH   1   2
BRANCH   1  33
ATOM     33  C   UNL A   1      42.826  26.338  25.019  1.00  0.00     0.274 C 
BRANCH  33  34
ATOM     34  O   UNL A   1      41.630  27.048  25.418  1.00  0.00    -0.458 OA
BRANCH  34  35
ATOM     35  C   UNL A   1      40.802  26.318  26.227  1.00  0.00     0.338 C 
ATOM     36  O   UNL A   1      40.727  25.099  26.236  1.00  0.00    -0.246 OA
BRANCH  35  37
ATOM     37  C   UNL A   1      40.083  27.154  27.231  1.00  0.00     0.060 A 
ATOM     38  C   UNL A   1      40.271  28.526  27.221  1.00  0.00     0.016 A 
ATOM     39  C   UNL A   1      39.471  26.582  28.348  1.00  0.00     0.016 A 
ATOM     40  C   UNL A   1      40.050  29.298  28.362  1.00  0.00     0.010 A 
ATOM     41  C   UNL A   1      39.185  27.371  29.484  1.00  0.00     0.010 A 
ATOM     42  C   UNL A   1      39.604  28.714  29.549  1.00  0.00    -0.014 A 
BRANCH  42  43
ATOM     43  C   UNL A   1      39.929  29.391  30.858  1.00  0.00     0.031 A 
ATOM     44  C   UNL A   1      38.911  30.357  31.445  1.00  0.00     0.074 A 
ATOM     45  C   UNL A   1      40.963  29.027  31.650  1.00  0.00     0.049 A 
ATOM     46  N   UNL A   1      39.010  31.156  32.479  1.00  0.00    -0.248 NA
ATOM     47  C   UNL A   1      37.598  30.422  30.780  1.00  0.00     0.031 C 
ATOM     48  C   UNL A   1      41.945  27.985  31.345  1.00  0.00     0.029 A 
ATOM     49  N   UNL A   1      41.310  29.438  32.920  1.00  0.00    -0.354 N 
ATOM     50  C   UNL A   1      37.827  31.892  32.507  1.00  0.00     0.074 A 
ATOM     51  C   UNL A   1      37.018  31.434  31.404  1.00  0.00     0.031 C 
ATOM     52  C   UNL A   1      42.702  27.762  32.433  1.00  0.00     0.029 A 
ATOM     53  C   UNL A   1      42.350  28.724  33.474  1.00  0.00     0.049 A 
ATOM     54  H   UNL A   1      40.856  30.175  33.388  1.00  0.00     0.167 HD
ATOM     55  C   UNL A   1      37.439  32.860  33.373  1.00  0.00     0.031 A 
ATOM     56  C   UNL A   1      42.978  28.845  34.665  1.00  0.00     0.031 A 
ATOM     57  C   UNL A   1      38.181  33.234  34.545  1.00  0.00     0.049 A 
ATOM     58  C   UNL A   1      42.563  29.950  35.603  1.00  0.00     0.074 A 
ATOM     59  C   UNL A   1      37.910  34.242  35.455  1.00  0.00     0.029 A 
ATOM     60  N   UNL A   1      39.314  32.579  35.000  1.00  0.00    -0.354 N 
ATOM     61  N   UNL A   1      41.562  30.793  35.500  1.00  0.00    -0.248 NA
ATOM     62  C   UNL A   1      43.393  30.148  36.802  1.00  0.00     0.031 C 
ATOM     63  C   UNL A   1      38.900  34.215  36.445  1.00  0.00     0.029 A 
ATOM     64  C   UNL A   1      39.751  33.155  36.181  1.00  0.00     0.049 A 
ATOM     65  H   UNL A   1      39.744  31.817  34.551  1.00  0.00     0.167 HD
ATOM     66  C   UNL A   1      41.649  31.625  36.613  1.00  0.00     0.074 A 
ATOM     67  C   UNL A   1      42.773  31.159  37.398  1.00  0.00     0.031 C 
ATOM     68  C   UNL A   1      40.879  32.692  36.946  1.00  0.00     0.031 A 
BRANCH  55  69
ATOM     69  C   UNL A   1      36.201  33.643  33.020  1.00  0.00    -0.014 A 
ATOM     70  C   UNL A   1      36.252  34.926  32.448  1.00  0.00     0.010 A 
ATOM     71  C   UNL A   1      34.946  33.069  33.297  1.00  0.00     0.010 A 
ATOM     72  C   UNL A   1      35.073  35.643  32.217  1.00  0.00     0.020 A 
ATOM     73  C   UNL A   1      33.765  33.767  33.038  1.00  0.00     0.020 A 
ATOM     74  C   UNL A   1      33.837  35.062  32.524  1.00  0.00     0.054 A 
BRANCH  74  75
ATOM     75  S   UNL A   1      32.321  36.015  32.234  1.00  0.00     0.124 S 
ATOM     76  O   UNL A   1      31.298  35.122  32.770  1.00  0.00    -0.237 OA
ATOM     77  O   UNL A   1      32.556  37.234  33.005  1.00  0.00    -0.237 OA
ATOM     78  O   UNL A   1      32.295  36.194  30.784  1.00  0.00    -0.744 OA
ENDBRANCH  74  75
ENDBRANCH  55  69
BRANCH  56  79
ATOM     79  C   UNL A   1      44.131  27.954  35.005  1.00  0.00    -0.014 A 
ATOM     80  C   UNL A   1      43.950  26.753  35.715  1.00  0.00     0.010 A 
ATOM     81  C   UNL A   1      45.437  28.318  34.623  1.00  0.00     0.010 A 
ATOM     82  C   UNL A   1      45.046  25.935  36.027  1.00  0.00     0.020 A 
ATOM     83  C   UNL A   1      46.527  27.487  34.894  1.00  0.00     0.020 A 
ATOM     84  C   UNL A   1      46.327  26.304  35.605  1.00  0.00     0.054 A 
BRANCH  84  85
ATOM     85  S   UNL A   1      47.728  25.197  35.937  1.00  0.00     0.124 S 
ATOM     86  O   UNL A   1      48.080  24.742  34.596  1.00  0.00    -0.237 OA
ATOM     87  O   UNL A   1      48.693  26.087  36.577  1.00  0.00    -0.237 OA
ATOM     88  O   UNL A   1      47.155  24.179  36.815  1.00  0.00    -0.744 OA
ENDBRANCH  84  85
ENDBRANCH  56  79
BRANCH  68  89
ATOM     89  C   UNL A   1      41.215  33.416  38.223  1.00  0.00    -0.014 A 
ATOM     90  C   UNL A   1      42.130  34.483  38.236  1.00  0.00     0.010 A 
ATOM     91  C   UNL A   1      40.585  33.039  39.423  1.00  0.00     0.010 A 
ATOM     92  C   UNL A   1      42.449  35.126  39.436  1.00  0.00     0.020 A 
ATOM     93  C   UNL A   1      40.881  33.697  40.620  1.00  0.00     0.020 A 
ATOM     94  C   UNL A   1      41.829  34.721  40.622  1.00  0.00     0.054 A 
BRANCH  94  95
ATOM     95  S   UNL A   1      42.258  35.569  42.168  1.00  0.00     0.124 S 
ATOM     96  O   UNL A   1      41.209  35.102  43.069  1.00  0.00    -0.237 OA
ATOM     97  O   UNL A   1      43.600  35.065  42.451  1.00  0.00    -0.237 OA
ATOM     98  O   UNL A   1      42.193  36.985  41.815  1.00  0.00    -0.744 OA
ENDBRANCH  94  95
ENDBRANCH  68  89
ENDBRANCH  42  43
ENDBRANCH  35  37
ENDBRANCH  34  35
ENDBRANCH  33  34
ENDBRANCH   1  33
TORSDOF 19
ENDMDL
MODEL 2
REMARK VINA RESULT:      -8.9      2.045      8.099
REMARK SMILES COc1ccc(N2C(=O)N=C(OCCOC(=O)c3ccc(-c4c5nc(c(-c6ccc(S(=O)(=O)[O-])cc6)c6ccc([nH]6)c(-c6ccc(S(=O)(=O)[O-])cc6)c6nc(c(-c7ccc(S(=O)(=O)[O-])cc7)c7ccc4[nH]7)C=C6)C=C5)cc3)/C(=C\c3cc(Cl)c(OCC(=O)[O-])c(Cl)c3)C2=O)cc1
REMARK SMILES IDX 13 1 12 2 11 3 7 4 8 5 93 6 9 7 10 8 78 9 94 10 79 11 6 12
REMARK SMILES IDX 3 13 4 14 96 15 5 16 95 17 2 18 1 19 80 20 81 21 92 22 82 23
REMARK SMILES IDX 90 24 83 25 84 26 91 27 85 28 86 29 87 30 88 31 89 32 14 33
REMARK SMILES IDX 15 34 16 35 17 36 18 37 19 38 77 39 20 40 76 41 21 42 22 43
REMARK SMILES IDX 23 44 70 45 24 46 75 47 69 48 71 49 25 50 74 51 68 52 67 53
REMARK SMILES IDX 26 55 56 56 37 57 55 58 38 59 41 60 54 61 72 62 39 63 40 64
REMARK SMILES IDX 53 66 73 67 42 68 27 69 28 70 36 71 29 72 35 73 30 74 31 75
REMARK SMILES IDX 32 76 33 77 34 78 57 79 58 80 66 81 59 82 65 83 60 84 61 85
REMARK SMILES IDX 62 86 63 87 64 88 43 89 44 90 52 91 45 92 51 93 46 94 47 95
REMARK SMILES IDX 48 96 49 97 50 98
REMARK H PARENT 71 54 41 65
REMARK Flexibility Score: inf
ROOT
ATOM      1  C   UNL A   1      44.201  27.391  25.581  1.00  0.00     0.273 C 
ENDROOT
BRANCH   1   2
ATOM      2  O   UNL A   1      44.949  27.879  26.708  1.00  0.00    -0.473 OA
BRANCH   2   3
ATOM      3  C   UNL A   1      44.646  29.103  27.167  1.00  0.00     0.231 C 
ATOM      4  N   UNL A   1      44.515  31.584  28.176  1.00  0.00    -0.226 N 
ATOM      5  C   UNL A   1      44.277  31.326  26.819  1.00  0.00     0.358 C 
ATOM      6  C   UNL A   1      44.426  30.589  29.161  1.00  0.00     0.272 C 
ATOM      7  O   UNL A   1      43.919  32.205  26.042  1.00  0.00    -0.245 OA
ATOM      8  N   UNL A   1      44.459  30.058  26.341  1.00  0.00    -0.156 NA
ATOM      9  C   UNL A   1      44.632  29.191  28.634  1.00  0.00     0.103 C 
ATOM     10  O   UNL A   1      44.317  30.774  30.370  1.00  0.00    -0.268 OA
ATOM     11  C   UNL A   1      44.932  28.184  29.495  1.00  0.00     0.027 C 
BRANCH   4  12
ATOM     12  C   UNL A   1      44.911  32.931  28.520  1.00  0.00     0.054 A 
ATOM     13  C   UNL A   1      45.876  35.445  29.422  1.00  0.00     0.119 A 
ATOM     14  C   UNL A   1      44.506  35.164  29.384  1.00  0.00     0.048 A 
ATOM     15  C   UNL A   1      46.771  34.474  28.995  1.00  0.00     0.048 A 
ATOM     16  C   UNL A   1      44.023  33.910  28.969  1.00  0.00     0.031 A 
ATOM     17  C   UNL A   1      46.290  33.241  28.527  1.00  0.00     0.031 A 
BRANCH  13  18
ATOM     18  O   UNL A   1      46.206  36.691  29.877  1.00  0.00    -0.497 OA
ATOM     19  C   UNL A   1      47.262  36.782  30.831  1.00  0.00     0.278 C 
ENDBRANCH  13  18
ENDBRANCH   4  12
BRANCH  11  20
ATOM     20  C   UNL A   1      45.188  26.760  29.163  1.00  0.00    -0.021 A 
ATOM     21  C   UNL A   1      44.141  25.843  29.269  1.00  0.00     0.032 A 
ATOM     22  C   UNL A   1      46.415  26.305  28.655  1.00  0.00     0.032 A 
ATOM     23  C   UNL A   1      44.273  24.544  28.756  1.00  0.00     0.085 A 
ATOM     24  C   UNL A   1      46.535  25.016  28.101  1.00  0.00     0.085 A 
ATOM     25  Cl  UNL A   1      42.940  23.459  28.944  1.00  0.00    -0.080 Cl
ATOM     26  C   UNL A   1      45.440  24.147  28.090  1.00  0.00     0.157 A 
ATOM     27  Cl  UNL A   1      48.061  24.570  27.424  1.00  0.00    -0.080 Cl
BRANCH  26  28
ATOM     28  O   UNL A   1      45.474  22.892  27.537  1.00  0.00    -0.485 OA
BRANCH  28  29
ATOM     29  C   UNL A   1      45.138  22.816  26.156  1.00  0.00     0.282 C 
BRANCH  29  30
ATOM     30  C   UNL A   1      46.025  22.145  25.106  1.00  0.00     0.079 C 
ATOM     31  O   UNL A   1      46.555  22.695  24.153  1.00  0.00    -0.546 OA
ATOM     32  O   UNL A   1      46.240  20.836  25.338  1.00  0.00    -0.546 OA
ENDBRANCH  29  30
ENDBRANCH  28  29
ENDBRANCH  26  28
ENDBRANCH  11  20
ENDBRANCH   2   3
ENDBRANCH   1   2
BRANCH   1  33
ATOM     33  C   UNL A   1      43.149  26.292  25.851  1.00  0.00     0.274 C 
BRANCH  33  34
ATOM     34  O   UNL A   1      41.778  26.754  25.886  1.00  0.00    -0.458 OA
BRANCH  34  35
ATOM     35  C   UNL A   1      40.922  25.884  26.504  1.00  0.00     0.338 C 
ATOM     36  O   UNL A   1      40.954  24.668  26.391  1.00  0.00    -0.246 OA
BRANCH  35  37
ATOM     37  C   UNL A   1      40.008  26.556  27.473  1.00  0.00     0.060 A 
ATOM     38  C   UNL A   1      39.823  27.925  27.384  1.00  0.00     0.016 A 
ATOM     39  C   UNL A   1      39.574  25.908  28.631  1.00  0.00     0.016 A 
ATOM     40  C   UNL A   1      39.407  28.676  28.484  1.00  0.00     0.010 A 
ATOM     41  C   UNL A   1      39.092  26.657  29.727  1.00  0.00     0.010 A 
ATOM     42  C   UNL A   1      39.137  28.064  29.710  1.00  0.00    -0.014 A 
BRANCH  42  43
ATOM     43  C   UNL A   1      39.273  28.880  30.973  1.00  0.00     0.031 A 
ATOM     44  C   UNL A   1      40.590  28.825  31.731  1.00  0.00     0.074 A 
ATOM     45  C   UNL A   1      38.383  29.825  31.349  1.00  0.00     0.049 A 
ATOM     46  N   UNL A   1      40.908  29.324  32.900  1.00  0.00    -0.248 NA
ATOM     47  C   UNL A   1      41.704  28.117  31.076  1.00  0.00     0.031 C 
ATOM     48  C   UNL A   1      37.144  30.158  30.644  1.00  0.00     0.029 A 
ATOM     49  N   UNL A   1      38.426  30.741  32.378  1.00  0.00    -0.354 N 
ATOM     50  C   UNL A   1      42.205  28.889  33.161  1.00  0.00     0.074 A 
ATOM     51  C   UNL A   1      42.625  28.104  32.026  1.00  0.00     0.031 C 
ATOM     52  C   UNL A   1      36.613  31.267  31.188  1.00  0.00     0.029 A 
ATOM     53  C   UNL A   1      37.397  31.657  32.357  1.00  0.00     0.049 A 
ATOM     54  H   UNL A   1      39.130  30.741  33.067  1.00  0.00     0.167 HD
ATOM     55  C   UNL A   1      42.987  29.122  34.244  1.00  0.00     0.031 A 
ATOM     56  C   UNL A   1      37.091  32.672  33.195  1.00  0.00     0.031 A 
ATOM     57  C   UNL A   1      42.627  30.004  35.320  1.00  0.00     0.049 A 
ATOM     58  C   UNL A   1      37.945  32.897  34.417  1.00  0.00     0.074 A 
ATOM     59  C   UNL A   1      43.317  30.263  36.493  1.00  0.00     0.029 A 
ATOM     60  N   UNL A   1      41.502  30.811  35.332  1.00  0.00    -0.354 N 
ATOM     61  N   UNL A   1      39.067  32.309  34.764  1.00  0.00    -0.248 NA
ATOM     62  C   UNL A   1      37.468  33.896  35.386  1.00  0.00     0.031 C 
ATOM     63  C   UNL A   1      42.589  31.207  37.227  1.00  0.00     0.029 A 
ATOM     64  C   UNL A   1      41.479  31.575  36.486  1.00  0.00     0.049 A 
ATOM     65  H   UNL A   1      40.819  30.838  34.624  1.00  0.00     0.167 HD
ATOM     66  C   UNL A   1      39.421  32.860  35.993  1.00  0.00     0.074 A 
ATOM     67  C   UNL A   1      38.419  33.857  36.309  1.00  0.00     0.031 C 
ATOM     68  C   UNL A   1      40.470  32.554  36.797  1.00  0.00     0.031 A 
BRANCH  55  69
ATOM     69  C   UNL A   1      44.265  28.331  34.354  1.00  0.00    -0.014 A 
ATOM     70  C   UNL A   1      44.330  27.080  34.993  1.00  0.00     0.010 A 
ATOM     71  C   UNL A   1      45.441  28.881  33.810  1.00  0.00     0.010 A 
ATOM     72  C   UNL A   1      45.558  26.426  35.140  1.00  0.00     0.020 A 
ATOM     73  C   UNL A   1      46.664  28.217  33.926  1.00  0.00     0.020 A 
ATOM     74  C   UNL A   1      46.719  27.005  34.613  1.00  0.00     0.054 A 
BRANCH  74  75
ATOM     75  S   UNL A   1      48.304  26.149  34.830  1.00  0.00     0.124 S 
ATOM     76  O   UNL A   1      48.238  25.747  36.232  1.00  0.00    -0.237 OA
ATOM     77  O   UNL A   1      48.216  25.061  33.859  1.00  0.00    -0.237 OA
ATOM     78  O   UNL A   1      49.297  27.176  34.522  1.00  0.00    -0.744 OA
ENDBRANCH  74  75
ENDBRANCH  55  69
BRANCH  56  79
ATOM     79  C   UNL A   1      35.866  33.500  32.964  1.00  0.00    -0.014 A 
ATOM     80  C   UNL A   1      34.599  33.082  33.412  1.00  0.00     0.010 A 
ATOM     81  C   UNL A   1      35.964  34.723  32.272  1.00  0.00     0.010 A 
ATOM     82  C   UNL A   1      33.463  33.870  33.179  1.00  0.00     0.020 A 
ATOM     83  C   UNL A   1      34.842  35.532  32.075  1.00  0.00     0.020 A 
ATOM     84  C   UNL A   1      33.595  35.096  32.520  1.00  0.00     0.054 A 
BRANCH  84  85
ATOM     85  S   UNL A   1      32.134  36.152  32.301  1.00  0.00     0.124 S 
ATOM     86  O   UNL A   1      31.043  35.229  32.596  1.00  0.00    -0.237 OA
ATOM     87  O   UNL A   1      32.353  37.209  33.284  1.00  0.00    -0.237 OA
ATOM     88  O   UNL A   1      32.233  36.581  30.907  1.00  0.00    -0.744 OA
ENDBRANCH  84  85
ENDBRANCH  56  79
BRANCH  68  89
ATOM     89  C   UNL A   1      40.600  33.319  38.087  1.00  0.00    -0.014 A 
ATOM     90  C   UNL A   1      41.373  34.491  38.166  1.00  0.00     0.010 A 
ATOM     91  C   UNL A   1      39.916  32.872  39.233  1.00  0.00     0.010 A 
ATOM     92  C   UNL A   1      41.502  35.173  39.379  1.00  0.00     0.020 A 
ATOM     93  C   UNL A   1      40.021  33.566  40.441  1.00  0.00     0.020 A 
ATOM     94  C   UNL A   1      40.833  34.699  40.512  1.00  0.00     0.054 A 
BRANCH  94  95
ATOM     95  S   UNL A   1      41.015  35.599  42.077  1.00  0.00     0.124 S 
ATOM     96  O   UNL A   1      39.762  35.284  42.754  1.00  0.00    -0.237 OA
ATOM     97  O   UNL A   1      42.213  34.997  42.658  1.00  0.00    -0.237 OA
ATOM     98  O   UNL A   1      41.166  36.991  41.659  1.00  0.00    -0.744 OA
ENDBRANCH  94  95
ENDBRANCH  68  89
ENDBRANCH  42  43
ENDBRANCH  35  37
ENDBRANCH  34  35
ENDBRANCH  33  34
ENDBRANCH   1  33
TORSDOF 19
ENDMDL
MODEL 3
REMARK VINA RESULT:      -8.9      3.560      8.929
REMARK SMILES COc1ccc(N2C(=O)N=C(OCCOC(=O)c3ccc(-c4c5nc(c(-c6ccc(S(=O)(=O)[O-])cc6)c6ccc([nH]6)c(-c6ccc(S(=O)(=O)[O-])cc6)c6nc(c(-c7ccc(S(=O)(=O)[O-])cc7)c7ccc4[nH]7)C=C6)C=C5)cc3)/C(=C\c3cc(Cl)c(OCC(=O)[O-])c(Cl)c3)C2=O)cc1
REMARK SMILES IDX 13 1 12 2 11 3 7 4 8 5 93 6 9 7 10 8 78 9 94 10 79 11 6 12
REMARK SMILES IDX 3 13 4 14 96 15 5 16 95 17 2 18 1 19 80 20 81 21 92 22 82 23
REMARK SMILES IDX 90 24 83 25 84 26 91 27 85 28 86 29 87 30 88 31 89 32 14 33
REMARK SMILES IDX 15 34 16 35 17 36 18 37 19 38 77 39 20 40 76 41 21 42 22 43
REMARK SMILES IDX 23 44 70 45 24 46 75 47 69 48 71 49 25 50 74 51 68 52 67 53
REMARK SMILES IDX 26 55 56 56 37 57 55 58 38 59 41 60 54 61 72 62 39 63 40 64
REMARK SMILES IDX 53 66 73 67 42 68 27 69 28 70 36 71 29 72 35 73 30 74 31 75
REMARK SMILES IDX 32 76 33 77 34 78 57 79 58 80 66 81 59 82 65 83 60 84 61 85
REMARK SMILES IDX 62 86 63 87 64 88 43 89 44 90 52 91 45 92 51 93 46 94 47 95
REMARK SMILES IDX 48 96 49 97 50 98
REMARK H PARENT 71 54 41 65
REMARK Flexibility Score: inf
ROOT
ATOM      1  C   UNL A   1      44.748  27.022  25.286  1.00  0.00     0.273 C 
ENDROOT
BRANCH   1   2
ATOM      2  O   UNL A   1      45.867  26.216  24.881  1.00  0.00    -0.473 OA
BRANCH   2   3
ATOM      3  C   UNL A   1      46.878  26.834  24.250  1.00  0.00     0.231 C 
ATOM      4  N   UNL A   1      48.928  27.659  22.732  1.00  0.00    -0.226 N 
ATOM      5  C   UNL A   1      47.652  28.230  22.621  1.00  0.00     0.358 C 
ATOM      6  C   UNL A   1      49.342  26.950  23.869  1.00  0.00     0.272 C 
ATOM      7  O   UNL A   1      47.427  29.185  21.885  1.00  0.00    -0.245 OA
ATOM      8  N   UNL A   1      46.621  27.699  23.347  1.00  0.00    -0.156 NA
ATOM      9  C   UNL A   1      48.205  26.360  24.665  1.00  0.00     0.103 C 
ATOM     10  O   UNL A   1      50.502  26.688  24.178  1.00  0.00    -0.268 OA
ATOM     11  C   UNL A   1      48.452  25.367  25.559  1.00  0.00     0.027 C 
BRANCH   4  12
ATOM     12  C   UNL A   1      49.800  27.795  21.588  1.00  0.00     0.054 A 
ATOM     13  C   UNL A   1      51.620  27.765  19.407  1.00  0.00     0.119 A 
ATOM     14  C   UNL A   1      51.658  28.778  20.371  1.00  0.00     0.048 A 
ATOM     15  C   UNL A   1      50.662  26.768  19.521  1.00  0.00     0.048 A 
ATOM     16  C   UNL A   1      50.780  28.781  21.471  1.00  0.00     0.031 A 
ATOM     17  C   UNL A   1      49.747  26.799  20.585  1.00  0.00     0.031 A 
BRANCH  13  18
ATOM     18  O   UNL A   1      52.551  27.869  18.412  1.00  0.00    -0.497 OA
ATOM     19  C   UNL A   1      52.072  27.990  17.075  1.00  0.00     0.278 C 
ENDBRANCH  13  18
ENDBRANCH   4  12
BRANCH  11  20
ATOM     20  C   UNL A   1      47.468  24.655  26.411  1.00  0.00    -0.021 A 
ATOM     21  C   UNL A   1      47.185  25.159  27.682  1.00  0.00     0.032 A 
ATOM     22  C   UNL A   1      46.732  23.546  25.963  1.00  0.00     0.032 A 
ATOM     23  C   UNL A   1      46.109  24.657  28.428  1.00  0.00     0.085 A 
ATOM     24  C   UNL A   1      45.625  23.071  26.690  1.00  0.00     0.085 A 
ATOM     25  Cl  UNL A   1      45.836  25.317  30.003  1.00  0.00    -0.080 Cl
ATOM     26  C   UNL A   1      45.266  23.668  27.902  1.00  0.00     0.157 A 
ATOM     27  Cl  UNL A   1      44.729  21.753  26.022  1.00  0.00    -0.080 Cl
BRANCH  26  28
ATOM     28  O   UNL A   1      44.181  23.280  28.646  1.00  0.00    -0.485 OA
BRANCH  28  29
ATOM     29  C   UNL A   1      42.943  23.888  28.297  1.00  0.00     0.282 C 
BRANCH  29  30
ATOM     30  C   UNL A   1      41.795  23.139  27.618  1.00  0.00     0.079 C 
ATOM     31  O   UNL A   1      40.786  22.719  28.164  1.00  0.00    -0.546 OA
ATOM     32  O   UNL A   1      41.951  23.003  26.287  1.00  0.00    -0.546 OA
ENDBRANCH  29  30
ENDBRANCH  28  29
ENDBRANCH  26  28
ENDBRANCH  11  20
ENDBRANCH   2   3
ENDBRANCH   1   2
BRANCH   1  33
ATOM     33  C   UNL A   1      43.403  26.300  25.524  1.00  0.00     0.274 C 
BRANCH  33  34
ATOM     34  O   UNL A   1      42.441  27.042  26.309  1.00  0.00    -0.458 OA
BRANCH  34  35
ATOM     35  C   UNL A   1      41.154  26.604  26.158  1.00  0.00     0.338 C 
ATOM     36  O   UNL A   1      40.796  25.733  25.381  1.00  0.00    -0.246 OA
BRANCH  35  37
ATOM     37  C   UNL A   1      40.217  27.193  27.157  1.00  0.00     0.060 A 
ATOM     38  C   UNL A   1      40.007  28.562  27.156  1.00  0.00     0.016 A 
ATOM     39  C   UNL A   1      39.780  26.463  28.264  1.00  0.00     0.016 A 
ATOM     40  C   UNL A   1      39.564  29.231  28.298  1.00  0.00     0.010 A 
ATOM     41  C   UNL A   1      39.271  27.129  29.401  1.00  0.00     0.010 A 
ATOM     42  C   UNL A   1      39.291  28.535  29.477  1.00  0.00    -0.014 A 
BRANCH  42  43
ATOM     43  C   UNL A   1      39.396  29.267  30.793  1.00  0.00     0.031 A 
ATOM     44  C   UNL A   1      40.702  29.179  31.567  1.00  0.00     0.074 A 
ATOM     45  C   UNL A   1      38.487  30.174  31.216  1.00  0.00     0.049 A 
ATOM     46  N   UNL A   1      40.995  29.604  32.771  1.00  0.00    -0.248 NA
ATOM     47  C   UNL A   1      41.835  28.530  30.885  1.00  0.00     0.031 C 
ATOM     48  C   UNL A   1      37.255  30.537  30.515  1.00  0.00     0.029 A 
ATOM     49  N   UNL A   1      38.503  31.021  32.304  1.00  0.00    -0.354 N 
ATOM     50  C   UNL A   1      42.295  29.170  33.024  1.00  0.00     0.074 A 
ATOM     51  C   UNL A   1      42.742  28.466  31.846  1.00  0.00     0.031 C 
ATOM     52  C   UNL A   1      36.700  31.600  31.122  1.00  0.00     0.029 A 
ATOM     53  C   UNL A   1      37.461  31.922  32.326  1.00  0.00     0.049 A 
ATOM     54  H   UNL A   1      39.196  30.984  33.002  1.00  0.00     0.167 HD
ATOM     55  C   UNL A   1      43.056  29.341  34.132  1.00  0.00     0.031 A 
ATOM     56  C   UNL A   1      37.129  32.876  33.225  1.00  0.00     0.031 A 
ATOM     57  C   UNL A   1      42.669  30.145  35.258  1.00  0.00     0.049 A 
ATOM     58  C   UNL A   1      37.961  33.031  34.472  1.00  0.00     0.074 A 
ATOM     59  C   UNL A   1      43.337  30.335  36.456  1.00  0.00     0.029 A 
ATOM     60  N   UNL A   1      41.532  30.935  35.304  1.00  0.00    -0.354 N 
ATOM     61  N   UNL A   1      39.085  32.436  34.798  1.00  0.00    -0.248 NA
ATOM     62  C   UNL A   1      37.456  33.958  35.496  1.00  0.00     0.031 C 
ATOM     63  C   UNL A   1      42.585  31.219  37.239  1.00  0.00     0.029 A 
ATOM     64  C   UNL A   1      41.481  31.621  36.505  1.00  0.00     0.049 A 
ATOM     65  H   UNL A   1      40.859  31.000  34.589  1.00  0.00     0.167 HD
ATOM     66  C   UNL A   1      39.413  32.909  36.065  1.00  0.00     0.074 A 
ATOM     67  C   UNL A   1      38.393  33.870  36.430  1.00  0.00     0.031 C 
ATOM     68  C   UNL A   1      40.455  32.565  36.864  1.00  0.00     0.031 A 
BRANCH  55  69
ATOM     69  C   UNL A   1      44.343  28.560  34.210  1.00  0.00    -0.014 A 
ATOM     70  C   UNL A   1      44.405  27.248  34.711  1.00  0.00     0.010 A 
ATOM     71  C   UNL A   1      45.530  29.183  33.780  1.00  0.00     0.010 A 
ATOM     72  C   UNL A   1      45.639  26.599  34.839  1.00  0.00     0.020 A 
ATOM     73  C   UNL A   1      46.760  28.528  33.875  1.00  0.00     0.020 A 
ATOM     74  C   UNL A   1      46.809  27.249  34.429  1.00  0.00     0.054 A 
BRANCH  74  75
ATOM     75  S   UNL A   1      48.400  26.397  34.620  1.00  0.00     0.124 S 
ATOM     76  O   UNL A   1      48.792  26.181  33.230  1.00  0.00    -0.237 OA
ATOM     77  O   UNL A   1      49.201  27.374  35.353  1.00  0.00    -0.237 OA
ATOM     78  O   UNL A   1      48.059  25.189  35.367  1.00  0.00    -0.744 OA
ENDBRANCH  74  75
ENDBRANCH  55  69
BRANCH  56  79
ATOM     79  C   UNL A   1      35.896  33.702  33.028  1.00  0.00    -0.014 A 
ATOM     80  C   UNL A   1      35.967  35.046  32.617  1.00  0.00     0.010 A 
ATOM     81  C   UNL A   1      34.628  33.138  33.267  1.00  0.00     0.010 A 
ATOM     82  C   UNL A   1      34.799  35.802  32.444  1.00  0.00     0.020 A 
ATOM     83  C   UNL A   1      33.459  33.875  33.056  1.00  0.00     0.020 A 
ATOM     84  C   UNL A   1      33.552  35.208  32.655  1.00  0.00     0.054 A 
BRANCH  84  85
ATOM     85  S   UNL A   1      32.042  36.168  32.344  1.00  0.00     0.124 S 
ATOM     86  O   UNL A   1      32.091  36.352  30.897  1.00  0.00    -0.237 OA
ATOM     87  O   UNL A   1      30.992  35.280  32.835  1.00  0.00    -0.237 OA
ATOM     88  O   UNL A   1      32.242  37.380  33.137  1.00  0.00    -0.744 OA
ENDBRANCH  84  85
ENDBRANCH  56  79
BRANCH  68  89
ATOM     89  C   UNL A   1      40.554  33.245  38.204  1.00  0.00    -0.014 A 
ATOM     90  C   UNL A   1      39.866  32.749  39.326  1.00  0.00     0.010 A 
ATOM     91  C   UNL A   1      41.368  34.383  38.348  1.00  0.00     0.010 A 
ATOM     92  C   UNL A   1      39.949  33.410  40.555  1.00  0.00     0.020 A 
ATOM     93  C   UNL A   1      41.475  35.030  39.582  1.00  0.00     0.020 A 
ATOM     94  C   UNL A   1      40.746  34.552  40.672  1.00  0.00     0.054 A 
BRANCH  94  95
ATOM     95  S   UNL A   1      40.840  35.394  42.276  1.00  0.00     0.124 S 
ATOM     96  O   UNL A   1      41.727  34.514  43.028  1.00  0.00    -0.237 OA
ATOM     97  O   UNL A   1      41.397  36.698  41.924  1.00  0.00    -0.237 OA
ATOM     98  O   UNL A   1      39.453  35.421  42.733  1.00  0.00    -0.744 OA
ENDBRANCH  94  95
ENDBRANCH  68  89
ENDBRANCH  42  43
ENDBRANCH  35  37
ENDBRANCH  34  35
ENDBRANCH  33  34
ENDBRANCH   1  33
TORSDOF 19
ENDMDL
