MODEL 1
REMARK VINA RESULT:      -8.3      0.000      0.000
REMARK SMILES Cc1cc(C)cc([S@@](=O)Cc2ccc(C(=O)OCCOC(=O)c3ccc(-c4c5nc(c(-c6ccc(S(=O)(=O)[O-])cc6)c6ccc([nH]6)c(-c6ccc(S(=O)(=O)[O-])cc6)c6nc(c(-c7ccc(S(=O)(=O)[O-])cc7)c7ccc4[nH]7)C=C6)C=C5)cc3)o2)c1
REMARK SMILES IDX 18 1 17 2 15 3 16 4 14 5 11 6 12 7 83 8 13 9 10 10 8 11 9 12
REMARK SMILES IDX 7 13 1 14 2 15 3 16 84 17 4 18 5 19 6 20 19 21 20 22 21 23
REMARK SMILES IDX 22 24 23 25 24 26 82 27 25 28 81 29 26 30 27 31 28 32 75 33
REMARK SMILES IDX 29 34 80 35 74 36 76 37 30 38 79 39 73 40 72 41 31 43 61 44
REMARK SMILES IDX 42 45 60 46 43 47 46 48 59 49 77 50 44 51 45 52 58 54 78 55
REMARK SMILES IDX 47 56 32 57 33 58 41 59 34 60 40 61 35 62 36 63 37 64 38 65
REMARK SMILES IDX 39 66 62 67 63 68 71 69 64 70 70 71 65 72 66 73 67 74 68 75
REMARK SMILES IDX 69 76 48 77 49 78 57 79 50 80 56 81 51 82 52 83 53 84 54 85
REMARK SMILES IDX 55 86
REMARK H PARENT 76 42 46 53
REMARK Flexibility Score: inf
ROOT
ATOM      1  C   UNL A   1      41.630  21.574  26.087  1.00  0.00     0.275 C 
ENDROOT
BRANCH   1   2
ATOM      2  O   UNL A   1      42.338  22.764  26.477  1.00  0.00    -0.456 OA
BRANCH   2   3
ATOM      3  C   UNL A   1      42.530  22.933  27.824  1.00  0.00     0.374 C 
ATOM      4  O   UNL A   1      41.703  22.656  28.675  1.00  0.00    -0.242 OA
BRANCH   3   5
ATOM      5  C   UNL A   1      43.888  23.372  28.059  1.00  0.00     0.211 A 
ATOM      6  C   UNL A   1      45.734  24.472  27.520  1.00  0.00     0.117 A 
ATOM      7  C   UNL A   1      45.839  24.138  28.856  1.00  0.00     0.047 A 
ATOM      8  O   UNL A   1      44.568  23.958  27.024  1.00  0.00    -0.453 OA
ATOM      9  C   UNL A   1      44.664  23.426  29.197  1.00  0.00     0.058 A 
BRANCH   6  10
ATOM     10  C   UNL A   1      46.478  25.386  26.609  1.00  0.00     0.185 C 
BRANCH  10  11
ATOM     11  S   UNL A   1      45.572  26.145  25.242  1.00  0.00     0.061 S 
ATOM     12  O   UNL A   1      46.542  26.662  24.221  1.00  0.00    -0.254 OA
BRANCH  11  13
ATOM     13  C   UNL A   1      44.817  27.604  25.990  1.00  0.00     0.040 A 
ATOM     14  C   UNL A   1      45.740  30.709  27.983  1.00  0.00     0.044 C 
ATOM     15  C   UNL A   1      44.928  29.669  27.266  1.00  0.00    -0.050 A 
ATOM     16  C   UNL A   1      43.577  29.911  26.985  1.00  0.00     0.007 A 
ATOM     17  C   UNL A   1      45.519  28.479  26.823  1.00  0.00     0.021 A 
ATOM     18  C   UNL A   1      42.827  28.989  26.250  1.00  0.00    -0.050 A 
ATOM     19  C   UNL A   1      41.376  29.242  25.968  1.00  0.00     0.044 C 
ATOM     20  C   UNL A   1      43.463  27.854  25.734  1.00  0.00     0.021 A 
ENDBRANCH  11  13
ENDBRANCH  10  11
ENDBRANCH   6  10
ENDBRANCH   3   5
ENDBRANCH   2   3
ENDBRANCH   1   2
BRANCH   1  21
ATOM     21  C   UNL A   1      40.157  21.639  26.506  1.00  0.00     0.275 C 
BRANCH  21  22
ATOM     22  O   UNL A   1      39.352  22.345  25.542  1.00  0.00    -0.458 OA
BRANCH  22  23
ATOM     23  C   UNL A   1      38.406  23.163  26.065  1.00  0.00     0.338 C 
ATOM     24  O   UNL A   1      37.200  22.969  26.064  1.00  0.00    -0.246 OA
BRANCH  23  25
ATOM     25  C   UNL A   1      39.036  24.292  26.778  1.00  0.00     0.060 A 
ATOM     26  C   UNL A   1      38.689  24.479  28.120  1.00  0.00     0.016 A 
ATOM     27  C   UNL A   1      39.906  25.188  26.149  1.00  0.00     0.016 A 
ATOM     28  C   UNL A   1      39.201  25.557  28.836  1.00  0.00     0.010 A 
ATOM     29  C   UNL A   1      40.414  26.280  26.868  1.00  0.00     0.010 A 
ATOM     30  C   UNL A   1      40.052  26.478  28.212  1.00  0.00    -0.014 A 
BRANCH  30  31
ATOM     31  C   UNL A   1      40.490  27.674  28.973  1.00  0.00     0.031 A 
ATOM     32  C   UNL A   1      41.891  27.747  29.511  1.00  0.00     0.074 A 
ATOM     33  C   UNL A   1      39.661  28.727  29.108  1.00  0.00     0.049 A 
ATOM     34  N   UNL A   1      42.491  28.737  30.123  1.00  0.00    -0.248 NA
ATOM     35  C   UNL A   1      42.730  26.552  29.332  1.00  0.00     0.031 C 
ATOM     36  C   UNL A   1      38.289  28.792  28.604  1.00  0.00     0.029 A 
ATOM     37  N   UNL A   1      39.864  29.953  29.691  1.00  0.00    -0.354 N 
ATOM     38  C   UNL A   1      43.774  28.286  30.406  1.00  0.00     0.074 A 
ATOM     39  C   UNL A   1      43.859  26.924  29.921  1.00  0.00     0.031 C 
ATOM     40  C   UNL A   1      37.779  30.004  28.884  1.00  0.00     0.029 A 
ATOM     41  C   UNL A   1      38.777  30.790  29.604  1.00  0.00     0.049 A 
ATOM     42  H   UNL A   1      40.707  30.207  30.132  1.00  0.00     0.167 HD
ATOM     43  C   UNL A   1      44.793  28.945  31.010  1.00  0.00     0.031 A 
ATOM     44  C   UNL A   1      38.606  32.049  30.052  1.00  0.00     0.031 A 
ATOM     45  C   UNL A   1      44.710  30.294  31.504  1.00  0.00     0.049 A 
ATOM     46  C   UNL A   1      39.743  32.750  30.744  1.00  0.00     0.074 A 
ATOM     47  C   UNL A   1      45.690  31.045  32.131  1.00  0.00     0.029 A 
ATOM     48  N   UNL A   1      43.580  31.096  31.431  1.00  0.00    -0.354 N 
ATOM     49  N   UNL A   1      40.955  32.311  30.991  1.00  0.00    -0.248 NA
ATOM     50  C   UNL A   1      39.490  34.121  31.209  1.00  0.00     0.031 C 
ATOM     51  C   UNL A   1      45.141  32.288  32.469  1.00  0.00     0.029 A 
ATOM     52  C   UNL A   1      43.834  32.326  32.014  1.00  0.00     0.049 A 
ATOM     53  H   UNL A   1      42.725  30.829  31.024  1.00  0.00     0.167 HD
ATOM     54  C   UNL A   1      41.614  33.359  31.626  1.00  0.00     0.074 A 
ATOM     55  C   UNL A   1      40.672  34.458  31.707  1.00  0.00     0.031 C 
ATOM     56  C   UNL A   1      42.884  33.406  32.099  1.00  0.00     0.031 A 
BRANCH  43  57
ATOM     57  C   UNL A   1      46.081  28.190  31.197  1.00  0.00    -0.014 A 
ATOM     58  C   UNL A   1      47.127  28.297  30.263  1.00  0.00     0.010 A 
ATOM     59  C   UNL A   1      46.250  27.370  32.326  1.00  0.00     0.010 A 
ATOM     60  C   UNL A   1      48.303  27.562  30.433  1.00  0.00     0.020 A 
ATOM     61  C   UNL A   1      47.433  26.649  32.510  1.00  0.00     0.020 A 
ATOM     62  C   UNL A   1      48.444  26.734  31.550  1.00  0.00     0.054 A 
BRANCH  62  63
ATOM     63  S   UNL A   1      49.978  25.785  31.748  1.00  0.00     0.124 S 
ATOM     64  O   UNL A   1      49.973  24.955  30.545  1.00  0.00    -0.237 OA
ATOM     65  O   UNL A   1      51.001  26.827  31.788  1.00  0.00    -0.237 OA
ATOM     66  O   UNL A   1      49.779  25.064  33.004  1.00  0.00    -0.744 OA
ENDBRANCH  62  63
ENDBRANCH  43  57
BRANCH  44  67
ATOM     67  C   UNL A   1      37.299  32.731  29.857  1.00  0.00    -0.014 A 
ATOM     68  C   UNL A   1      36.302  32.672  30.846  1.00  0.00     0.010 A 
ATOM     69  C   UNL A   1      37.050  33.450  28.674  1.00  0.00     0.010 A 
ATOM     70  C   UNL A   1      35.072  33.309  30.649  1.00  0.00     0.020 A 
ATOM     71  C   UNL A   1      35.831  34.107  28.484  1.00  0.00     0.020 A 
ATOM     72  C   UNL A   1      34.845  34.022  29.468  1.00  0.00     0.054 A 
BRANCH  72  73
ATOM     73  S   UNL A   1      33.264  34.887  29.249  1.00  0.00     0.124 S 
ATOM     74  O   UNL A   1      32.609  34.065  28.236  1.00  0.00    -0.237 OA
ATOM     75  O   UNL A   1      32.678  34.828  30.586  1.00  0.00    -0.237 OA
ATOM     76  O   UNL A   1      33.665  36.222  28.811  1.00  0.00    -0.744 OA
ENDBRANCH  72  73
ENDBRANCH  44  67
BRANCH  56  77
ATOM     77  C   UNL A   1      43.331  34.698  32.728  1.00  0.00    -0.014 A 
ATOM     78  C   UNL A   1      43.995  35.682  31.974  1.00  0.00     0.010 A 
ATOM     79  C   UNL A   1      43.068  34.938  34.089  1.00  0.00     0.010 A 
ATOM     80  C   UNL A   1      44.430  36.864  32.581  1.00  0.00     0.020 A 
ATOM     81  C   UNL A   1      43.481  36.127  34.694  1.00  0.00     0.020 A 
ATOM     82  C   UNL A   1      44.178  37.074  33.940  1.00  0.00     0.054 A 
BRANCH  82  83
ATOM     83  S   UNL A   1      44.739  38.619  34.710  1.00  0.00     0.124 S 
ATOM     84  O   UNL A   1      43.767  39.582  34.199  1.00  0.00    -0.237 OA
ATOM     85  O   UNL A   1      44.643  38.327  36.138  1.00  0.00    -0.237 OA
ATOM     86  O   UNL A   1      46.101  38.780  34.205  1.00  0.00    -0.744 OA
ENDBRANCH  82  83
ENDBRANCH  56  77
ENDBRANCH  30  31
ENDBRANCH  23  25
ENDBRANCH  22  23
ENDBRANCH  21  22
ENDBRANCH   1  21
TORSDOF 17
ENDMDL
MODEL 2
REMARK VINA RESULT:      -8.3      3.513      4.636
REMARK SMILES Cc1cc(C)cc([S@@](=O)Cc2ccc(C(=O)OCCOC(=O)c3ccc(-c4c5nc(c(-c6ccc(S(=O)(=O)[O-])cc6)c6ccc([nH]6)c(-c6ccc(S(=O)(=O)[O-])cc6)c6nc(c(-c7ccc(S(=O)(=O)[O-])cc7)c7ccc4[nH]7)C=C6)C=C5)cc3)o2)c1
REMARK SMILES IDX 18 1 17 2 15 3 16 4 14 5 11 6 12 7 83 8 13 9 10 10 8 11 9 12
REMARK SMILES IDX 7 13 1 14 2 15 3 16 84 17 4 18 5 19 6 20 19 21 20 22 21 23
REMARK SMILES IDX 22 24 23 25 24 26 82 27 25 28 81 29 26 30 27 31 28 32 75 33
REMARK SMILES IDX 29 34 80 35 74 36 76 37 30 38 79 39 73 40 72 41 31 43 61 44
REMARK SMILES IDX 42 45 60 46 43 47 46 48 59 49 77 50 44 51 45 52 58 54 78 55
REMARK SMILES IDX 47 56 32 57 33 58 41 59 34 60 40 61 35 62 36 63 37 64 38 65
REMARK SMILES IDX 39 66 62 67 63 68 71 69 64 70 70 71 65 72 66 73 67 74 68 75
REMARK SMILES IDX 69 76 48 77 49 78 57 79 50 80 56 81 51 82 52 83 53 84 54 85
REMARK SMILES IDX 55 86
REMARK H PARENT 76 42 46 53
REMARK Flexibility Score: inf
ROOT
ATOM      1  C   UNL A   1      41.402  21.791  27.436  1.00  0.00     0.275 C 
ENDROOT
BRANCH   1   2
ATOM      2  O   UNL A   1      41.273  21.337  26.078  1.00  0.00    -0.456 OA
BRANCH   2   3
ATOM      3  C   UNL A   1      41.380  19.984  25.886  1.00  0.00     0.374 C 
ATOM      4  O   UNL A   1      40.436  19.213  25.890  1.00  0.00    -0.242 OA
BRANCH   3   5
ATOM      5  C   UNL A   1      42.752  19.657  25.568  1.00  0.00     0.211 A 
ATOM      6  C   UNL A   1      44.850  20.178  25.082  1.00  0.00     0.117 A 
ATOM      7  C   UNL A   1      44.836  18.840  25.424  1.00  0.00     0.047 A 
ATOM      8  O   UNL A   1      43.571  20.660  25.120  1.00  0.00    -0.453 OA
ATOM      9  C   UNL A   1      43.495  18.505  25.725  1.00  0.00     0.058 A 
BRANCH   6  10
ATOM     10  C   UNL A   1      45.920  21.196  24.886  1.00  0.00     0.185 C 
BRANCH  10  11
ATOM     11  S   UNL A   1      45.428  22.929  24.746  1.00  0.00     0.061 S 
ATOM     12  O   UNL A   1      46.420  23.667  23.897  1.00  0.00    -0.254 OA
BRANCH  11  13
ATOM     13  C   UNL A   1      45.640  23.567  26.421  1.00  0.00     0.040 A 
ATOM     14  C   UNL A   1      47.787  26.004  28.400  1.00  0.00     0.044 C 
ATOM     15  C   UNL A   1      46.756  24.965  28.067  1.00  0.00    -0.050 A 
ATOM     16  C   UNL A   1      45.791  24.609  29.018  1.00  0.00     0.007 A 
ATOM     17  C   UNL A   1      46.711  24.383  26.792  1.00  0.00     0.021 A 
ATOM     18  C   UNL A   1      44.777  23.701  28.698  1.00  0.00    -0.050 A 
ATOM     19  C   UNL A   1      43.758  23.308  29.725  1.00  0.00     0.044 C 
ATOM     20  C   UNL A   1      44.695  23.209  27.391  1.00  0.00     0.021 A 
ENDBRANCH  11  13
ENDBRANCH  10  11
ENDBRANCH   6  10
ENDBRANCH   3   5
ENDBRANCH   2   3
ENDBRANCH   1   2
BRANCH   1  21
ATOM     21  C   UNL A   1      40.555  23.045  27.688  1.00  0.00     0.275 C 
BRANCH  21  22
ATOM     22  O   UNL A   1      40.548  23.930  26.550  1.00  0.00    -0.458 OA
BRANCH  22  23
ATOM     23  C   UNL A   1      41.539  24.855  26.530  1.00  0.00     0.338 C 
ATOM     24  O   UNL A   1      42.333  25.045  25.623  1.00  0.00    -0.246 OA
BRANCH  23  25
ATOM     25  C   UNL A   1      41.460  25.722  27.723  1.00  0.00     0.060 A 
ATOM     26  C   UNL A   1      40.231  25.793  28.385  1.00  0.00     0.016 A 
ATOM     27  C   UNL A   1      42.538  26.496  28.164  1.00  0.00     0.016 A 
ATOM     28  C   UNL A   1      40.069  26.635  29.481  1.00  0.00     0.010 A 
ATOM     29  C   UNL A   1      42.372  27.351  29.262  1.00  0.00     0.010 A 
ATOM     30  C   UNL A   1      41.131  27.436  29.918  1.00  0.00    -0.014 A 
BRANCH  30  31
ATOM     31  C   UNL A   1      40.892  28.402  31.019  1.00  0.00     0.031 A 
ATOM     32  C   UNL A   1      41.772  28.382  32.237  1.00  0.00     0.074 A 
ATOM     33  C   UNL A   1      39.943  29.349  30.890  1.00  0.00     0.049 A 
ATOM     34  N   UNL A   1      41.781  29.194  33.263  1.00  0.00    -0.248 NA
ATOM     35  C   UNL A   1      42.777  27.310  32.308  1.00  0.00     0.031 C 
ATOM     36  C   UNL A   1      39.045  29.494  29.743  1.00  0.00     0.029 A 
ATOM     37  N   UNL A   1      39.594  30.381  31.724  1.00  0.00    -0.354 N 
ATOM     38  C   UNL A   1      42.787  28.733  34.104  1.00  0.00     0.074 A 
ATOM     39  C   UNL A   1      43.350  27.554  33.478  1.00  0.00     0.031 C 
ATOM     40  C   UNL A   1      38.259  30.567  29.939  1.00  0.00     0.029 A 
ATOM     41  C   UNL A   1      38.582  31.170  31.229  1.00  0.00     0.049 A 
ATOM     42  H   UNL A   1      40.026  30.540  32.594  1.00  0.00     0.167 HD
ATOM     43  C   UNL A   1      43.209  29.244  35.285  1.00  0.00     0.031 A 
ATOM     44  C   UNL A   1      37.984  32.256  31.755  1.00  0.00     0.031 A 
ATOM     45  C   UNL A   1      42.646  30.409  35.916  1.00  0.00     0.049 A 
ATOM     46  C   UNL A   1      38.452  32.789  33.082  1.00  0.00     0.074 A 
ATOM     47  C   UNL A   1      43.007  31.002  37.114  1.00  0.00     0.029 A 
ATOM     48  N   UNL A   1      41.597  31.158  35.401  1.00  0.00    -0.354 N 
ATOM     49  N   UNL A   1      39.415  32.347  33.856  1.00  0.00    -0.248 NA
ATOM     50  C   UNL A   1      37.757  33.976  33.600  1.00  0.00     0.031 C 
ATOM     51  C   UNL A   1      42.154  32.088  37.341  1.00  0.00     0.029 A 
ATOM     52  C   UNL A   1      41.290  32.197  36.264  1.00  0.00     0.049 A 
ATOM     53  H   UNL A   1      41.140  30.977  34.549  1.00  0.00     0.167 HD
ATOM     54  C   UNL A   1      39.452  33.211  34.945  1.00  0.00     0.074 A 
ATOM     55  C   UNL A   1      38.428  34.212  34.719  1.00  0.00     0.031 C 
ATOM     56  C   UNL A   1      40.260  33.179  36.034  1.00  0.00     0.031 A 
BRANCH  43  57
ATOM     57  C   UNL A   1      44.323  28.517  35.987  1.00  0.00    -0.014 A 
ATOM     58  C   UNL A   1      44.052  27.475  36.894  1.00  0.00     0.010 A 
ATOM     59  C   UNL A   1      45.658  28.873  35.730  1.00  0.00     0.010 A 
ATOM     60  C   UNL A   1      45.097  26.834  37.565  1.00  0.00     0.020 A 
ATOM     61  C   UNL A   1      46.707  28.219  36.384  1.00  0.00     0.020 A 
ATOM     62  C   UNL A   1      46.418  27.218  37.313  1.00  0.00     0.054 A 
BRANCH  62  63
ATOM     63  S   UNL A   1      47.758  26.374  38.199  1.00  0.00     0.124 S 
ATOM     64  O   UNL A   1      48.327  25.533  37.150  1.00  0.00    -0.237 OA
ATOM     65  O   UNL A   1      48.601  27.482  38.643  1.00  0.00    -0.237 OA
ATOM     66  O   UNL A   1      47.067  25.656  39.268  1.00  0.00    -0.744 OA
ENDBRANCH  62  63
ENDBRANCH  43  57
BRANCH  44  67
ATOM     67  C   UNL A   1      36.872  32.916  31.021  1.00  0.00    -0.014 A 
ATOM     68  C   UNL A   1      37.120  33.655  29.852  1.00  0.00     0.010 A 
ATOM     69  C   UNL A   1      35.552  32.799  31.492  1.00  0.00     0.010 A 
ATOM     70  C   UNL A   1      36.068  34.280  29.174  1.00  0.00     0.020 A 
ATOM     71  C   UNL A   1      34.496  33.403  30.804  1.00  0.00     0.020 A 
ATOM     72  C   UNL A   1      34.762  34.150  29.655  1.00  0.00     0.054 A 
BRANCH  72  73
ATOM     73  S   UNL A   1      33.400  34.923  28.737  1.00  0.00     0.124 S 
ATOM     74  O   UNL A   1      34.022  36.151  28.252  1.00  0.00    -0.237 OA
ATOM     75  O   UNL A   1      33.095  33.924  27.716  1.00  0.00    -0.237 OA
ATOM     76  O   UNL A   1      32.364  35.102  29.751  1.00  0.00    -0.744 OA
ENDBRANCH  72  73
ENDBRANCH  44  67
BRANCH  56  77
ATOM     77  C   UNL A   1      40.080  34.272  37.052  1.00  0.00    -0.014 A 
ATOM     78  C   UNL A   1      39.197  34.117  38.135  1.00  0.00     0.010 A 
ATOM     79  C   UNL A   1      40.815  35.465  36.931  1.00  0.00     0.010 A 
ATOM     80  C   UNL A   1      39.019  35.155  39.055  1.00  0.00     0.020 A 
ATOM     81  C   UNL A   1      40.656  36.495  37.860  1.00  0.00     0.020 A 
ATOM     82  C   UNL A   1      39.743  36.341  38.906  1.00  0.00     0.054 A 
BRANCH  82  83
ATOM     83  S   UNL A   1      39.508  37.673  40.116  1.00  0.00     0.124 S 
ATOM     84  O   UNL A   1      38.389  38.413  39.537  1.00  0.00    -0.237 OA
ATOM     85  O   UNL A   1      39.211  36.947  41.348  1.00  0.00    -0.237 OA
ATOM     86  O   UNL A   1      40.791  38.374  40.108  1.00  0.00    -0.744 OA
ENDBRANCH  82  83
ENDBRANCH  56  77
ENDBRANCH  30  31
ENDBRANCH  23  25
ENDBRANCH  22  23
ENDBRANCH  21  22
ENDBRANCH   1  21
TORSDOF 17
ENDMDL
MODEL 3
REMARK VINA RESULT:      -8.2      4.616      7.189
REMARK SMILES Cc1cc(C)cc([S@@](=O)Cc2ccc(C(=O)OCCOC(=O)c3ccc(-c4c5nc(c(-c6ccc(S(=O)(=O)[O-])cc6)c6ccc([nH]6)c(-c6ccc(S(=O)(=O)[O-])cc6)c6nc(c(-c7ccc(S(=O)(=O)[O-])cc7)c7ccc4[nH]7)C=C6)C=C5)cc3)o2)c1
REMARK SMILES IDX 18 1 17 2 15 3 16 4 14 5 11 6 12 7 83 8 13 9 10 10 8 11 9 12
REMARK SMILES IDX 7 13 1 14 2 15 3 16 84 17 4 18 5 19 6 20 19 21 20 22 21 23
REMARK SMILES IDX 22 24 23 25 24 26 82 27 25 28 81 29 26 30 27 31 28 32 75 33
REMARK SMILES IDX 29 34 80 35 74 36 76 37 30 38 79 39 73 40 72 41 31 43 61 44
REMARK SMILES IDX 42 45 60 46 43 47 46 48 59 49 77 50 44 51 45 52 58 54 78 55
REMARK SMILES IDX 47 56 32 57 33 58 41 59 34 60 40 61 35 62 36 63 37 64 38 65
REMARK SMILES IDX 39 66 62 67 63 68 71 69 64 70 70 71 65 72 66 73 67 74 68 75
REMARK SMILES IDX 69 76 48 77 49 78 57 79 50 80 56 81 51 82 52 83 53 84 54 85
REMARK SMILES IDX 55 86
REMARK H PARENT 76 42 46 53
REMARK Flexibility Score: inf
ROOT
ATOM      1  C   UNL A   1      38.200  22.285  25.759  1.00  0.00     0.275 C 
ENDROOT
BRANCH   1   2
ATOM      2  O   UNL A   1      36.765  22.189  25.767  1.00  0.00    -0.456 OA
BRANCH   2   3
ATOM      3  C   UNL A   1      36.240  21.019  25.282  1.00  0.00     0.374 C 
ATOM      4  O   UNL A   1      36.902  20.037  24.994  1.00  0.00    -0.242 OA
BRANCH   3   5
ATOM      5  C   UNL A   1      34.797  21.109  25.286  1.00  0.00     0.211 A 
ATOM      6  C   UNL A   1      32.882  22.218  25.175  1.00  0.00     0.117 A 
ATOM      7  C   UNL A   1      32.583  20.880  25.004  1.00  0.00     0.047 A 
ATOM      8  O   UNL A   1      34.224  22.349  25.400  1.00  0.00    -0.453 OA
ATOM      9  C   UNL A   1      33.805  20.171  25.084  1.00  0.00     0.058 A 
BRANCH   6  10
ATOM     10  C   UNL A   1      32.131  23.490  24.982  1.00  0.00     0.185 C 
BRANCH  10  11
ATOM     11  S   UNL A   1      31.638  24.416  26.454  1.00  0.00     0.061 S 
ATOM     12  O   UNL A   1      30.263  23.992  26.878  1.00  0.00    -0.254 OA
BRANCH  11  13
ATOM     13  C   UNL A   1      31.470  26.109  25.853  1.00  0.00     0.040 A 
ATOM     14  C   UNL A   1      29.934  28.085  22.988  1.00  0.00     0.044 C 
ATOM     15  C   UNL A   1      30.698  27.753  24.237  1.00  0.00    -0.050 A 
ATOM     16  C   UNL A   1      31.133  28.782  25.082  1.00  0.00     0.007 A 
ATOM     17  C   UNL A   1      30.934  26.421  24.600  1.00  0.00     0.021 A 
ATOM     18  C   UNL A   1      31.777  28.489  26.288  1.00  0.00    -0.050 A 
ATOM     19  C   UNL A   1      32.259  29.594  27.180  1.00  0.00     0.044 C 
ATOM     20  C   UNL A   1      31.915  27.152  26.676  1.00  0.00     0.021 A 
ENDBRANCH  11  13
ENDBRANCH  10  11
ENDBRANCH   6  10
ENDBRANCH   3   5
ENDBRANCH   2   3
ENDBRANCH   1   2
BRANCH   1  21
ATOM     21  C   UNL A   1      38.668  23.693  26.148  1.00  0.00     0.275 C 
BRANCH  21  22
ATOM     22  O   UNL A   1      39.872  23.662  26.940  1.00  0.00    -0.458 OA
BRANCH  22  23
ATOM     23  C   UNL A   1      40.679  24.743  26.808  1.00  0.00     0.338 C 
ATOM     24  O   UNL A   1      41.480  24.942  25.908  1.00  0.00    -0.246 OA
BRANCH  23  25
ATOM     25  C   UNL A   1      40.372  25.747  27.846  1.00  0.00     0.060 A 
ATOM     26  C   UNL A   1      41.249  26.829  27.973  1.00  0.00     0.016 A 
ATOM     27  C   UNL A   1      39.287  25.619  28.719  1.00  0.00     0.016 A 
ATOM     28  C   UNL A   1      41.052  27.781  28.967  1.00  0.00     0.010 A 
ATOM     29  C   UNL A   1      39.095  26.575  29.728  1.00  0.00     0.010 A 
ATOM     30  C   UNL A   1      39.986  27.653  29.866  1.00  0.00    -0.014 A 
BRANCH  30  31
ATOM     31  C   UNL A   1      39.872  28.625  30.981  1.00  0.00     0.031 A 
ATOM     32  C   UNL A   1      40.793  28.521  32.164  1.00  0.00     0.074 A 
ATOM     33  C   UNL A   1      39.001  29.649  30.895  1.00  0.00     0.049 A 
ATOM     34  N   UNL A   1      40.911  29.321  33.193  1.00  0.00    -0.248 NA
ATOM     35  C   UNL A   1      41.708  27.368  32.189  1.00  0.00     0.031 C 
ATOM     36  C   UNL A   1      38.075  29.879  29.786  1.00  0.00     0.029 A 
ATOM     37  N   UNL A   1      38.772  30.700  31.748  1.00  0.00    -0.354 N 
ATOM     38  C   UNL A   1      41.906  28.769  33.991  1.00  0.00     0.074 A 
ATOM     39  C   UNL A   1      42.343  27.553  33.337  1.00  0.00     0.031 C 
ATOM     40  C   UNL A   1      37.390  31.013  30.018  1.00  0.00     0.029 A 
ATOM     41  C   UNL A   1      37.812  31.575  31.298  1.00  0.00     0.049 A 
ATOM     42  H   UNL A   1      39.250  30.815  32.601  1.00  0.00     0.167 HD
ATOM     43  C   UNL A   1      42.415  29.233  35.157  1.00  0.00     0.031 A 
ATOM     44  C   UNL A   1      37.328  32.702  31.853  1.00  0.00     0.031 A 
ATOM     45  C   UNL A   1      41.976  30.435  35.816  1.00  0.00     0.049 A 
ATOM     46  C   UNL A   1      37.891  33.183  33.163  1.00  0.00     0.074 A 
ATOM     47  C   UNL A   1      42.432  30.986  37.002  1.00  0.00     0.029 A 
ATOM     48  N   UNL A   1      40.975  31.274  35.348  1.00  0.00    -0.354 N 
ATOM     49  N   UNL A   1      38.842  32.655  33.896  1.00  0.00    -0.248 NA
ATOM     50  C   UNL A   1      37.318  34.419  33.715  1.00  0.00     0.031 C 
ATOM     51  C   UNL A   1      41.683  32.137  37.269  1.00  0.00     0.029 A 
ATOM     52  C   UNL A   1      40.790  32.328  36.227  1.00  0.00     0.049 A 
ATOM     53  H   UNL A   1      40.471  31.139  34.513  1.00  0.00     0.167 HD
ATOM     54  C   UNL A   1      38.994  33.503  34.988  1.00  0.00     0.074 A 
ATOM     55  C   UNL A   1      38.050  34.588  34.808  1.00  0.00     0.031 C 
ATOM     56  C   UNL A   1      39.838  33.394  36.043  1.00  0.00     0.031 A 
BRANCH  43  57
ATOM     57  C   UNL A   1      43.490  28.409  35.811  1.00  0.00    -0.014 A 
ATOM     58  C   UNL A   1      44.849  28.615  35.510  1.00  0.00     0.010 A 
ATOM     59  C   UNL A   1      43.137  27.420  36.747  1.00  0.00     0.010 A 
ATOM     60  C   UNL A   1      45.833  27.817  36.099  1.00  0.00     0.020 A 
ATOM     61  C   UNL A   1      44.120  26.633  37.354  1.00  0.00     0.020 A 
ATOM     62  C   UNL A   1      45.460  26.823  37.010  1.00  0.00     0.054 A 
BRANCH  62  63
ATOM     63  S   UNL A   1      46.754  25.795  37.759  1.00  0.00     0.124 S 
ATOM     64  O   UNL A   1      45.984  24.650  38.241  1.00  0.00    -0.237 OA
ATOM     65  O   UNL A   1      47.645  25.524  36.634  1.00  0.00    -0.237 OA
ATOM     66  O   UNL A   1      47.316  26.652  38.802  1.00  0.00    -0.744 OA
ENDBRANCH  62  63
ENDBRANCH  43  57
BRANCH  44  67
ATOM     67  C   UNL A   1      36.248  33.459  31.167  1.00  0.00    -0.014 A 
ATOM     68  C   UNL A   1      35.075  33.820  31.852  1.00  0.00     0.010 A 
ATOM     69  C   UNL A   1      36.393  33.827  29.817  1.00  0.00     0.010 A 
ATOM     70  C   UNL A   1      34.060  34.524  31.195  1.00  0.00     0.020 A 
ATOM     71  C   UNL A   1      35.391  34.550  29.164  1.00  0.00     0.020 A 
ATOM     72  C   UNL A   1      34.225  34.883  29.855  1.00  0.00     0.054 A 
BRANCH  72  73
ATOM     73  S   UNL A   1      32.922  35.840  29.029  1.00  0.00     0.124 S 
ATOM     74  O   UNL A   1      32.091  36.252  30.156  1.00  0.00    -0.237 OA
ATOM     75  O   UNL A   1      33.675  36.909  28.375  1.00  0.00    -0.237 OA
ATOM     76  O   UNL A   1      32.313  34.873  28.121  1.00  0.00    -0.744 OA
ENDBRANCH  72  73
ENDBRANCH  44  67
BRANCH  56  77
ATOM     77  C   UNL A   1      39.789  34.489  37.074  1.00  0.00    -0.014 A 
ATOM     78  C   UNL A   1      38.960  34.387  38.204  1.00  0.00     0.010 A 
ATOM     79  C   UNL A   1      40.598  35.630  36.916  1.00  0.00     0.010 A 
ATOM     80  C   UNL A   1      38.904  35.428  39.137  1.00  0.00     0.020 A 
ATOM     81  C   UNL A   1      40.561  36.661  37.857  1.00  0.00     0.020 A 
ATOM     82  C   UNL A   1      39.699  36.563  38.951  1.00  0.00     0.054 A 
BRANCH  82  83
ATOM     83  S   UNL A   1      39.623  37.899  40.177  1.00  0.00     0.124 S 
ATOM     84  O   UNL A   1      40.952  38.493  40.060  1.00  0.00    -0.237 OA
ATOM     85  O   UNL A   1      38.521  38.725  39.691  1.00  0.00    -0.237 OA
ATOM     86  O   UNL A   1      39.360  37.199  41.433  1.00  0.00    -0.744 OA
ENDBRANCH  82  83
ENDBRANCH  56  77
ENDBRANCH  30  31
ENDBRANCH  23  25
ENDBRANCH  22  23
ENDBRANCH  21  22
ENDBRANCH   1  21
TORSDOF 17
ENDMDL
