MODEL 1
REMARK VINA RESULT:     -10.8      0.000      0.000
REMARK SMILES O=C(OCCOC(=O)c1cccc2nc(Cl)c(Cl)nc12)c1ccc(-c2c3nc(c(-c4ccc(S(=O)(=O)[O-])cc4)c4ccc([nH]4)c(-c4ccc(S(=O)(=O)[O-])cc4)c4nc(c(-c5ccc(S(=O)(=O)[O-])cc5)c5ccc2[nH]5)C=C4)C=C3)cc1
REMARK SMILES IDX 3 1 2 2 1 3 21 4 22 5 80 6 23 7 79 8 24 9 25 10 26 11 73 12
REMARK SMILES IDX 27 13 78 14 72 15 74 16 28 17 77 18 71 19 70 20 29 22 59 23
REMARK SMILES IDX 40 24 58 25 41 26 44 27 57 28 75 29 42 30 43 31 56 33 76 34
REMARK SMILES IDX 45 35 30 36 31 37 39 38 32 39 38 40 33 41 34 42 35 43 36 44
REMARK SMILES IDX 37 45 60 46 61 47 69 48 62 49 68 50 63 51 64 52 65 53 66 54
REMARK SMILES IDX 67 55 46 56 47 57 55 58 48 59 54 60 49 61 50 62 51 63 52 64
REMARK SMILES IDX 53 65 4 66 5 67 6 68 7 69 8 70 9 71 10 72 20 73 11 74 13 75
REMARK SMILES IDX 19 76 12 77 14 78 17 79 15 80 18 81 16 82
REMARK H PARENT 74 21 44 32
REMARK Flexibility Score: inf
ROOT
ATOM      1  O   UNL A   1      34.414  32.146  27.255  1.00  0.00    -0.458 OA
ENDROOT
BRANCH   1   2
ATOM      2  C   UNL A   1      34.505  30.856  27.668  1.00  0.00     0.338 C 
ATOM      3  O   UNL A   1      33.487  30.195  27.854  1.00  0.00    -0.246 OA
BRANCH   2   4
ATOM      4  C   UNL A   1      35.807  30.293  28.127  1.00  0.00     0.060 A 
ATOM      5  C   UNL A   1      36.854  30.320  27.197  1.00  0.00     0.016 A 
ATOM      6  C   UNL A   1      36.069  29.794  29.405  1.00  0.00     0.016 A 
ATOM      7  C   UNL A   1      38.090  29.735  27.488  1.00  0.00     0.010 A 
ATOM      8  C   UNL A   1      37.313  29.226  29.710  1.00  0.00     0.010 A 
ATOM      9  C   UNL A   1      38.328  29.172  28.750  1.00  0.00    -0.014 A 
BRANCH   9  10
ATOM     10  C   UNL A   1      39.691  28.732  29.130  1.00  0.00     0.031 A 
ATOM     11  C   UNL A   1      40.190  27.336  28.886  1.00  0.00     0.074 A 
ATOM     12  C   UNL A   1      40.477  29.630  29.754  1.00  0.00     0.049 A 
ATOM     13  N   UNL A   1      41.407  26.876  29.019  1.00  0.00    -0.248 NA
ATOM     14  C   UNL A   1      39.229  26.332  28.406  1.00  0.00     0.031 C 
ATOM     15  C   UNL A   1      40.089  31.009  30.064  1.00  0.00     0.029 A 
ATOM     16  N   UNL A   1      41.742  29.515  30.269  1.00  0.00    -0.354 N 
ATOM     17  C   UNL A   1      41.382  25.573  28.539  1.00  0.00     0.074 A 
ATOM     18  C   UNL A   1      40.015  25.285  28.169  1.00  0.00     0.031 C 
ATOM     19  C   UNL A   1      41.082  31.601  30.741  1.00  0.00     0.029 A 
ATOM     20  C   UNL A   1      42.150  30.632  30.956  1.00  0.00     0.049 A 
ATOM     21  H   UNL A   1      42.302  28.714  30.156  1.00  0.00     0.167 HD
ATOM     22  C   UNL A   1      42.414  24.707  28.424  1.00  0.00     0.031 A 
ATOM     23  C   UNL A   1      43.236  30.843  31.722  1.00  0.00     0.031 A 
ATOM     24  C   UNL A   1      43.715  24.944  28.995  1.00  0.00     0.049 A 
ATOM     25  C   UNL A   1      44.274  29.766  31.809  1.00  0.00     0.074 A 
ATOM     26  C   UNL A   1      44.817  24.108  28.981  1.00  0.00     0.029 A 
ATOM     27  N   UNL A   1      44.057  26.050  29.758  1.00  0.00    -0.354 N 
ATOM     28  N   UNL A   1      44.298  28.609  31.191  1.00  0.00    -0.248 NA
ATOM     29  C   UNL A   1      45.432  30.014  32.677  1.00  0.00     0.031 C 
ATOM     30  C   UNL A   1      45.773  24.645  29.846  1.00  0.00     0.029 A 
ATOM     31  C   UNL A   1      45.313  25.869  30.309  1.00  0.00     0.049 A 
ATOM     32  H   UNL A   1      43.491  26.845  29.888  1.00  0.00     0.167 HD
ATOM     33  C   UNL A   1      45.481  27.995  31.581  1.00  0.00     0.074 A 
ATOM     34  C   UNL A   1      46.150  28.914  32.481  1.00  0.00     0.031 C 
ATOM     35  C   UNL A   1      45.964  26.783  31.218  1.00  0.00     0.031 A 
BRANCH  22  36
ATOM     36  C   UNL A   1      42.215  23.407  27.689  1.00  0.00    -0.014 A 
ATOM     37  C   UNL A   1      41.631  22.306  28.342  1.00  0.00     0.010 A 
ATOM     38  C   UNL A   1      42.817  23.215  26.431  1.00  0.00     0.010 A 
ATOM     39  C   UNL A   1      41.697  21.029  27.778  1.00  0.00     0.020 A 
ATOM     40  C   UNL A   1      42.873  21.940  25.856  1.00  0.00     0.020 A 
ATOM     41  C   UNL A   1      42.336  20.850  26.546  1.00  0.00     0.054 A 
BRANCH  41  42
ATOM     42  S   UNL A   1      42.499  19.167  25.885  1.00  0.00     0.124 S 
ATOM     43  O   UNL A   1      43.360  19.369  24.725  1.00  0.00    -0.237 OA
ATOM     44  O   UNL A   1      43.103  18.448  27.005  1.00  0.00    -0.237 OA
ATOM     45  O   UNL A   1      41.122  18.783  25.582  1.00  0.00    -0.744 OA
ENDBRANCH  41  42
ENDBRANCH  22  36
BRANCH  23  46
ATOM     46  C   UNL A   1      43.330  32.122  32.478  1.00  0.00    -0.014 A 
ATOM     47  C   UNL A   1      42.661  32.245  33.713  1.00  0.00     0.010 A 
ATOM     48  C   UNL A   1      43.954  33.249  31.925  1.00  0.00     0.010 A 
ATOM     49  C   UNL A   1      42.548  33.486  34.343  1.00  0.00     0.020 A 
ATOM     50  C   UNL A   1      43.874  34.489  32.571  1.00  0.00     0.020 A 
ATOM     51  C   UNL A   1      43.143  34.604  33.757  1.00  0.00     0.054 A 
BRANCH  51  52
ATOM     52  S   UNL A   1      42.924  36.218  34.557  1.00  0.00     0.124 S 
ATOM     53  O   UNL A   1      43.998  36.209  35.545  1.00  0.00    -0.237 OA
ATOM     54  O   UNL A   1      43.098  37.150  33.446  1.00  0.00    -0.237 OA
ATOM     55  O   UNL A   1      41.571  36.147  35.101  1.00  0.00    -0.744 OA
ENDBRANCH  51  52
ENDBRANCH  23  46
BRANCH  35  56
ATOM     56  C   UNL A   1      47.276  26.332  31.801  1.00  0.00    -0.014 A 
ATOM     57  C   UNL A   1      48.458  26.479  31.050  1.00  0.00     0.010 A 
ATOM     58  C   UNL A   1      47.309  25.602  33.001  1.00  0.00     0.010 A 
ATOM     59  C   UNL A   1      49.634  25.845  31.452  1.00  0.00     0.020 A 
ATOM     60  C   UNL A   1      48.495  24.995  33.424  1.00  0.00     0.020 A 
ATOM     61  C   UNL A   1      49.639  25.091  32.627  1.00  0.00     0.054 A 
BRANCH  61  62
ATOM     62  S   UNL A   1      51.151  24.202  33.084  1.00  0.00     0.124 S 
ATOM     63  O   UNL A   1      52.186  25.190  32.798  1.00  0.00    -0.237 OA
ATOM     64  O   UNL A   1      50.934  23.907  34.499  1.00  0.00    -0.237 OA
ATOM     65  O   UNL A   1      51.141  23.035  32.205  1.00  0.00    -0.744 OA
ENDBRANCH  61  62
ENDBRANCH  35  56
ENDBRANCH   9  10
ENDBRANCH   2   4
ENDBRANCH   1   2
BRANCH   1  66
ATOM     66  C   UNL A   1      34.313  33.307  28.096  1.00  0.00     0.275 C 
BRANCH  66  67
ATOM     67  C   UNL A   1      32.924  33.946  28.130  1.00  0.00     0.275 C 
BRANCH  67  68
ATOM     68  O   UNL A   1      32.595  34.501  29.412  1.00  0.00    -0.458 OA
BRANCH  68  69
ATOM     69  C   UNL A   1      33.030  35.774  29.629  1.00  0.00     0.340 C 
ATOM     70  O   UNL A   1      33.117  36.667  28.817  1.00  0.00    -0.246 OA
BRANCH  69  71
ATOM     71  C   UNL A   1      33.415  35.890  31.050  1.00  0.00     0.088 A 
ATOM     72  C   UNL A   1      32.623  36.676  31.897  1.00  0.00     0.018 A 
ATOM     73  C   UNL A   1      34.570  35.242  31.499  1.00  0.00     0.105 A 
ATOM     74  C   UNL A   1      32.998  36.837  33.222  1.00  0.00     0.003 A 
ATOM     75  C   UNL A   1      34.957  35.454  32.851  1.00  0.00     0.091 A 
ATOM     76  N   UNL A   1      35.349  34.485  30.684  1.00  0.00    -0.230 NA
ATOM     77  C   UNL A   1      34.170  36.241  33.680  1.00  0.00     0.031 A 
ATOM     78  N   UNL A   1      36.095  34.945  33.358  1.00  0.00    -0.231 NA
ATOM     79  C   UNL A   1      36.487  33.973  31.210  1.00  0.00     0.167 A 
ATOM     80  C   UNL A   1      36.858  34.208  32.519  1.00  0.00     0.167 A 
ATOM     81  Cl  UNL A   1      37.408  33.046  30.099  1.00  0.00    -0.059 Cl
ATOM     82  Cl  UNL A   1      38.309  33.635  33.230  1.00  0.00    -0.059 Cl
ENDBRANCH  69  71
ENDBRANCH  68  69
ENDBRANCH  67  68
ENDBRANCH  66  67
ENDBRANCH   1  66
TORSDOF 14
ENDMDL
MODEL 2
REMARK VINA RESULT:     -10.7      3.383      5.610
REMARK SMILES O=C(OCCOC(=O)c1cccc2nc(Cl)c(Cl)nc12)c1ccc(-c2c3nc(c(-c4ccc(S(=O)(=O)[O-])cc4)c4ccc([nH]4)c(-c4ccc(S(=O)(=O)[O-])cc4)c4nc(c(-c5ccc(S(=O)(=O)[O-])cc5)c5ccc2[nH]5)C=C4)C=C3)cc1
REMARK SMILES IDX 3 1 2 2 1 3 21 4 22 5 80 6 23 7 79 8 24 9 25 10 26 11 73 12
REMARK SMILES IDX 27 13 78 14 72 15 74 16 28 17 77 18 71 19 70 20 29 22 59 23
REMARK SMILES IDX 40 24 58 25 41 26 44 27 57 28 75 29 42 30 43 31 56 33 76 34
REMARK SMILES IDX 45 35 30 36 31 37 39 38 32 39 38 40 33 41 34 42 35 43 36 44
REMARK SMILES IDX 37 45 60 46 61 47 69 48 62 49 68 50 63 51 64 52 65 53 66 54
REMARK SMILES IDX 67 55 46 56 47 57 55 58 48 59 54 60 49 61 50 62 51 63 52 64
REMARK SMILES IDX 53 65 4 66 5 67 6 68 7 69 8 70 9 71 10 72 20 73 11 74 13 75
REMARK SMILES IDX 19 76 12 77 14 78 17 79 15 80 18 81 16 82
REMARK H PARENT 74 21 44 32
REMARK Flexibility Score: inf
ROOT
ATOM      1  O   UNL A   1      33.758  30.294  26.872  1.00  0.00    -0.458 OA
ENDROOT
BRANCH   1   2
ATOM      2  C   UNL A   1      34.434  30.833  27.920  1.00  0.00     0.338 C 
ATOM      3  O   UNL A   1      34.052  31.885  28.423  1.00  0.00    -0.246 OA
BRANCH   2   4
ATOM      4  C   UNL A   1      35.765  30.297  28.323  1.00  0.00     0.060 A 
ATOM      5  C   UNL A   1      36.750  30.273  27.328  1.00  0.00     0.016 A 
ATOM      6  C   UNL A   1      36.111  29.869  29.608  1.00  0.00     0.016 A 
ATOM      7  C   UNL A   1      38.004  29.706  27.570  1.00  0.00     0.010 A 
ATOM      8  C   UNL A   1      37.374  29.319  29.862  1.00  0.00     0.010 A 
ATOM      9  C   UNL A   1      38.325  29.213  28.843  1.00  0.00    -0.014 A 
BRANCH   9  10
ATOM     10  C   UNL A   1      39.712  28.795  29.158  1.00  0.00     0.031 A 
ATOM     11  C   UNL A   1      40.213  27.400  28.916  1.00  0.00     0.074 A 
ATOM     12  C   UNL A   1      40.520  29.714  29.721  1.00  0.00     0.049 A 
ATOM     13  N   UNL A   1      41.441  26.955  28.992  1.00  0.00    -0.248 NA
ATOM     14  C   UNL A   1      39.239  26.376  28.508  1.00  0.00     0.031 C 
ATOM     15  C   UNL A   1      40.133  31.095  30.024  1.00  0.00     0.029 A 
ATOM     16  N   UNL A   1      41.811  29.623  30.169  1.00  0.00    -0.354 N 
ATOM     17  C   UNL A   1      41.405  25.642  28.540  1.00  0.00     0.074 A 
ATOM     18  C   UNL A   1      40.023  25.333  28.250  1.00  0.00     0.031 C 
ATOM     19  C   UNL A   1      41.154  31.711  30.635  1.00  0.00     0.029 A 
ATOM     20  C   UNL A   1      42.243  30.758  30.811  1.00  0.00     0.049 A 
ATOM     21  H   UNL A   1      42.374  28.825  30.043  1.00  0.00     0.167 HD
ATOM     22  C   UNL A   1      42.439  24.785  28.387  1.00  0.00     0.031 A 
ATOM     23  C   UNL A   1      43.366  30.996  31.513  1.00  0.00     0.031 A 
ATOM     24  C   UNL A   1      43.766  25.048  28.882  1.00  0.00     0.049 A 
ATOM     25  C   UNL A   1      44.419  29.932  31.566  1.00  0.00     0.074 A 
ATOM     26  C   UNL A   1      44.876  24.223  28.825  1.00  0.00     0.029 A 
ATOM     27  N   UNL A   1      44.136  26.172  29.604  1.00  0.00    -0.354 N 
ATOM     28  N   UNL A   1      44.424  28.763  30.971  1.00  0.00    -0.248 NA
ATOM     29  C   UNL A   1      45.619  30.209  32.365  1.00  0.00     0.031 C 
ATOM     30  C   UNL A   1      45.871  24.788  29.627  1.00  0.00     0.029 A 
ATOM     31  C   UNL A   1      45.421  26.016  30.090  1.00  0.00     0.049 A 
ATOM     32  H   UNL A   1      43.569  26.963  29.748  1.00  0.00     0.167 HD
ATOM     33  C   UNL A   1      45.633  28.169  31.308  1.00  0.00     0.074 A 
ATOM     34  C   UNL A   1      46.339  29.113  32.153  1.00  0.00     0.031 C 
ATOM     35  C   UNL A   1      46.110  26.955  30.944  1.00  0.00     0.031 A 
BRANCH  22  36
ATOM     36  C   UNL A   1      42.216  23.468  27.690  1.00  0.00    -0.014 A 
ATOM     37  C   UNL A   1      41.810  22.339  28.423  1.00  0.00     0.010 A 
ATOM     38  C   UNL A   1      42.633  23.304  26.355  1.00  0.00     0.010 A 
ATOM     39  C   UNL A   1      41.873  21.063  27.854  1.00  0.00     0.020 A 
ATOM     40  C   UNL A   1      42.683  22.029  25.777  1.00  0.00     0.020 A 
ATOM     41  C   UNL A   1      42.329  20.915  26.540  1.00  0.00     0.054 A 
BRANCH  41  42
ATOM     42  S   UNL A   1      42.499  19.239  25.861  1.00  0.00     0.124 S 
ATOM     43  O   UNL A   1      43.097  18.510  26.974  1.00  0.00    -0.237 OA
ATOM     44  O   UNL A   1      41.116  18.888  25.545  1.00  0.00    -0.237 OA
ATOM     45  O   UNL A   1      43.365  19.426  24.699  1.00  0.00    -0.744 OA
ENDBRANCH  41  42
ENDBRANCH  22  36
BRANCH  23  46
ATOM     46  C   UNL A   1      43.485  32.291  32.238  1.00  0.00    -0.014 A 
ATOM     47  C   UNL A   1      42.953  32.407  33.538  1.00  0.00     0.010 A 
ATOM     48  C   UNL A   1      43.992  33.434  31.603  1.00  0.00     0.010 A 
ATOM     49  C   UNL A   1      42.855  33.653  34.161  1.00  0.00     0.020 A 
ATOM     50  C   UNL A   1      43.929  34.681  32.238  1.00  0.00     0.020 A 
ATOM     51  C   UNL A   1      43.330  34.785  33.498  1.00  0.00     0.054 A 
BRANCH  51  52
ATOM     52  S   UNL A   1      43.128  36.402  34.296  1.00  0.00     0.124 S 
ATOM     53  O   UNL A   1      44.154  36.352  35.333  1.00  0.00    -0.237 OA
ATOM     54  O   UNL A   1      43.386  37.332  33.200  1.00  0.00    -0.237 OA
ATOM     55  O   UNL A   1      41.749  36.374  34.776  1.00  0.00    -0.744 OA
ENDBRANCH  51  52
ENDBRANCH  23  46
BRANCH  35  56
ATOM     56  C   UNL A   1      47.457  26.530  31.464  1.00  0.00    -0.014 A 
ATOM     57  C   UNL A   1      48.593  26.667  30.646  1.00  0.00     0.010 A 
ATOM     58  C   UNL A   1      47.563  25.832  32.680  1.00  0.00     0.010 A 
ATOM     59  C   UNL A   1      49.796  26.053  30.998  1.00  0.00     0.020 A 
ATOM     60  C   UNL A   1      48.775  25.246  33.052  1.00  0.00     0.020 A 
ATOM     61  C   UNL A   1      49.872  25.329  32.190  1.00  0.00     0.054 A 
BRANCH  61  62
ATOM     62  S   UNL A   1      51.416  24.464  32.585  1.00  0.00     0.124 S 
ATOM     63  O   UNL A   1      51.527  24.678  34.025  1.00  0.00    -0.237 OA
ATOM     64  O   UNL A   1      51.129  23.093  32.171  1.00  0.00    -0.237 OA
ATOM     65  O   UNL A   1      52.414  25.156  31.772  1.00  0.00    -0.744 OA
ENDBRANCH  61  62
ENDBRANCH  35  56
ENDBRANCH   9  10
ENDBRANCH   2   4
ENDBRANCH   1   2
BRANCH   1  66
ATOM     66  C   UNL A   1      32.333  30.142  26.763  1.00  0.00     0.275 C 
BRANCH  66  67
ATOM     67  C   UNL A   1      31.792  28.824  27.318  1.00  0.00     0.275 C 
BRANCH  67  68
ATOM     68  O   UNL A   1      32.526  27.680  26.859  1.00  0.00    -0.458 OA
BRANCH  68  69
ATOM     69  C   UNL A   1      31.781  26.707  26.262  1.00  0.00     0.340 C 
ATOM     70  O   UNL A   1      30.698  26.296  26.611  1.00  0.00    -0.246 OA
BRANCH  69  71
ATOM     71  C   UNL A   1      32.538  26.199  25.101  1.00  0.00     0.088 A 
ATOM     72  C   UNL A   1      32.527  26.944  23.915  1.00  0.00     0.018 A 
ATOM     73  C   UNL A   1      33.213  24.978  25.208  1.00  0.00     0.105 A 
ATOM     74  C   UNL A   1      33.191  26.456  22.800  1.00  0.00     0.003 A 
ATOM     75  C   UNL A   1      33.853  24.478  24.040  1.00  0.00     0.091 A 
ATOM     76  N   UNL A   1      33.222  24.245  26.350  1.00  0.00    -0.230 NA
ATOM     77  C   UNL A   1      33.830  25.221  22.868  1.00  0.00     0.031 A 
ATOM     78  N   UNL A   1      34.457  23.277  24.015  1.00  0.00    -0.231 NA
ATOM     79  C   UNL A   1      33.842  23.041  26.312  1.00  0.00     0.167 A 
ATOM     80  C   UNL A   1      34.438  22.561  25.161  1.00  0.00     0.167 A 
ATOM     81  Cl  UNL A   1      33.786  22.184  27.797  1.00  0.00    -0.059 Cl
ATOM     82  Cl  UNL A   1      35.190  21.026  25.031  1.00  0.00    -0.059 Cl
ENDBRANCH  69  71
ENDBRANCH  68  69
ENDBRANCH  67  68
ENDBRANCH  66  67
ENDBRANCH   1  66
TORSDOF 14
ENDMDL
MODEL 3
REMARK VINA RESULT:     -10.6      3.583      5.977
REMARK SMILES O=C(OCCOC(=O)c1cccc2nc(Cl)c(Cl)nc12)c1ccc(-c2c3nc(c(-c4ccc(S(=O)(=O)[O-])cc4)c4ccc([nH]4)c(-c4ccc(S(=O)(=O)[O-])cc4)c4nc(c(-c5ccc(S(=O)(=O)[O-])cc5)c5ccc2[nH]5)C=C4)C=C3)cc1
REMARK SMILES IDX 3 1 2 2 1 3 21 4 22 5 80 6 23 7 79 8 24 9 25 10 26 11 73 12
REMARK SMILES IDX 27 13 78 14 72 15 74 16 28 17 77 18 71 19 70 20 29 22 59 23
REMARK SMILES IDX 40 24 58 25 41 26 44 27 57 28 75 29 42 30 43 31 56 33 76 34
REMARK SMILES IDX 45 35 30 36 31 37 39 38 32 39 38 40 33 41 34 42 35 43 36 44
REMARK SMILES IDX 37 45 60 46 61 47 69 48 62 49 68 50 63 51 64 52 65 53 66 54
REMARK SMILES IDX 67 55 46 56 47 57 55 58 48 59 54 60 49 61 50 62 51 63 52 64
REMARK SMILES IDX 53 65 4 66 5 67 6 68 7 69 8 70 9 71 10 72 20 73 11 74 13 75
REMARK SMILES IDX 19 76 12 77 14 78 17 79 15 80 18 81 16 82
REMARK H PARENT 74 21 44 32
REMARK Flexibility Score: inf
ROOT
ATOM      1  O   UNL A   1      33.603  30.063  27.139  1.00  0.00    -0.458 OA
ENDROOT
BRANCH   1   2
ATOM      2  C   UNL A   1      34.424  30.785  27.944  1.00  0.00     0.338 C 
ATOM      3  O   UNL A   1      34.167  31.959  28.192  1.00  0.00    -0.246 OA
BRANCH   2   4
ATOM      4  C   UNL A   1      35.757  30.252  28.346  1.00  0.00     0.060 A 
ATOM      5  C   UNL A   1      36.752  30.266  27.361  1.00  0.00     0.016 A 
ATOM      6  C   UNL A   1      36.095  29.791  29.621  1.00  0.00     0.016 A 
ATOM      7  C   UNL A   1      38.010  29.707  27.599  1.00  0.00     0.010 A 
ATOM      8  C   UNL A   1      37.361  29.248  29.873  1.00  0.00     0.010 A 
ATOM      9  C   UNL A   1      38.324  29.181  28.861  1.00  0.00    -0.014 A 
BRANCH   9  10
ATOM     10  C   UNL A   1      39.712  28.770  29.179  1.00  0.00     0.031 A 
ATOM     11  C   UNL A   1      40.222  27.379  28.928  1.00  0.00     0.074 A 
ATOM     12  C   UNL A   1      40.512  29.689  29.751  1.00  0.00     0.049 A 
ATOM     13  N   UNL A   1      41.453  26.942  29.006  1.00  0.00    -0.248 NA
ATOM     14  C   UNL A   1      39.256  26.352  28.509  1.00  0.00     0.031 C 
ATOM     15  C   UNL A   1      40.115  31.065  30.063  1.00  0.00     0.029 A 
ATOM     16  N   UNL A   1      41.802  29.603  30.204  1.00  0.00    -0.354 N 
ATOM     17  C   UNL A   1      41.426  25.632  28.545  1.00  0.00     0.074 A 
ATOM     18  C   UNL A   1      40.048  25.316  28.246  1.00  0.00     0.031 C 
ATOM     19  C   UNL A   1      41.129  31.683  30.683  1.00  0.00     0.029 A 
ATOM     20  C   UNL A   1      42.224  30.736  30.857  1.00  0.00     0.049 A 
ATOM     21  H   UNL A   1      42.370  28.809  30.074  1.00  0.00     0.167 HD
ATOM     22  C   UNL A   1      42.467  24.782  28.388  1.00  0.00     0.031 A 
ATOM     23  C   UNL A   1      43.343  30.975  31.565  1.00  0.00     0.031 A 
ATOM     24  C   UNL A   1      43.790  25.049  28.891  1.00  0.00     0.049 A 
ATOM     25  C   UNL A   1      44.402  29.917  31.614  1.00  0.00     0.074 A 
ATOM     26  C   UNL A   1      44.905  24.232  28.833  1.00  0.00     0.029 A 
ATOM     27  N   UNL A   1      44.150  26.171  29.622  1.00  0.00    -0.354 N 
ATOM     28  N   UNL A   1      44.416  28.753  31.010  1.00  0.00    -0.248 NA
ATOM     29  C   UNL A   1      45.597  30.196  32.420  1.00  0.00     0.031 C 
ATOM     30  C   UNL A   1      45.893  24.797  29.643  1.00  0.00     0.029 A 
ATOM     31  C   UNL A   1      45.434  26.019  30.113  1.00  0.00     0.049 A 
ATOM     32  H   UNL A   1      43.577  26.957  29.771  1.00  0.00     0.167 HD
ATOM     33  C   UNL A   1      45.628  28.164  31.348  1.00  0.00     0.074 A 
ATOM     34  C   UNL A   1      46.324  29.106  32.202  1.00  0.00     0.031 C 
ATOM     35  C   UNL A   1      46.114  26.955  30.977  1.00  0.00     0.031 A 
BRANCH  22  36
ATOM     36  C   UNL A   1      42.254  23.469  27.681  1.00  0.00    -0.014 A 
ATOM     37  C   UNL A   1      41.806  22.344  28.396  1.00  0.00     0.010 A 
ATOM     38  C   UNL A   1      42.721  23.301  26.363  1.00  0.00     0.010 A 
ATOM     39  C   UNL A   1      41.875  21.068  27.827  1.00  0.00     0.020 A 
ATOM     40  C   UNL A   1      42.778  22.027  25.786  1.00  0.00     0.020 A 
ATOM     41  C   UNL A   1      42.380  20.916  26.532  1.00  0.00     0.054 A 
BRANCH  41  42
ATOM     42  S   UNL A   1      42.555  19.239  25.857  1.00  0.00     0.124 S 
ATOM     43  O   UNL A   1      41.171  18.866  25.584  1.00  0.00    -0.237 OA
ATOM     44  O   UNL A   1      43.394  19.461  24.681  1.00  0.00    -0.237 OA
ATOM     45  O   UNL A   1      43.200  18.499  26.939  1.00  0.00    -0.744 OA
ENDBRANCH  41  42
ENDBRANCH  22  36
BRANCH  23  46
ATOM     46  C   UNL A   1      43.451  32.266  32.300  1.00  0.00    -0.014 A 
ATOM     47  C   UNL A   1      42.923  32.365  33.603  1.00  0.00     0.010 A 
ATOM     48  C   UNL A   1      43.942  33.420  31.672  1.00  0.00     0.010 A 
ATOM     49  C   UNL A   1      42.815  33.604  34.236  1.00  0.00     0.020 A 
ATOM     50  C   UNL A   1      43.869  34.660  32.318  1.00  0.00     0.020 A 
ATOM     51  C   UNL A   1      43.274  34.747  33.580  1.00  0.00     0.054 A 
BRANCH  51  52
ATOM     52  S   UNL A   1      43.058  36.355  34.393  1.00  0.00     0.124 S 
ATOM     53  O   UNL A   1      43.111  37.272  33.258  1.00  0.00    -0.237 OA
ATOM     54  O   UNL A   1      41.752  36.217  35.030  1.00  0.00    -0.237 OA
ATOM     55  O   UNL A   1      44.193  36.427  35.310  1.00  0.00    -0.744 OA
ENDBRANCH  51  52
ENDBRANCH  23  46
BRANCH  35  56
ATOM     56  C   UNL A   1      47.461  26.535  31.499  1.00  0.00    -0.014 A 
ATOM     57  C   UNL A   1      48.611  26.762  30.720  1.00  0.00     0.010 A 
ATOM     58  C   UNL A   1      47.562  25.757  32.666  1.00  0.00     0.010 A 
ATOM     59  C   UNL A   1      49.824  26.160  31.058  1.00  0.00     0.020 A 
ATOM     60  C   UNL A   1      48.783  25.183  33.026  1.00  0.00     0.020 A 
ATOM     61  C   UNL A   1      49.896  25.358  32.199  1.00  0.00     0.054 A 
BRANCH  61  62
ATOM     62  S   UNL A   1      51.456  24.513  32.571  1.00  0.00     0.124 S 
ATOM     63  O   UNL A   1      51.150  23.132  32.212  1.00  0.00    -0.237 OA
ATOM     64  O   UNL A   1      52.407  25.197  31.697  1.00  0.00    -0.237 OA
ATOM     65  O   UNL A   1      51.647  24.760  33.999  1.00  0.00    -0.744 OA
ENDBRANCH  61  62
ENDBRANCH  35  56
ENDBRANCH   9  10
ENDBRANCH   2   4
ENDBRANCH   1   2
BRANCH   1  66
ATOM     66  C   UNL A   1      33.324  28.656  27.245  1.00  0.00     0.275 C 
BRANCH  66  67
ATOM     67  C   UNL A   1      32.901  27.993  25.934  1.00  0.00     0.275 C 
BRANCH  67  68
ATOM     68  O   UNL A   1      33.631  26.790  25.655  1.00  0.00    -0.458 OA
BRANCH  68  69
ATOM     69  C   UNL A   1      32.999  25.897  24.841  1.00  0.00     0.340 C 
ATOM     70  O   UNL A   1      32.582  26.093  23.722  1.00  0.00    -0.246 OA
BRANCH  69  71
ATOM     71  C   UNL A   1      32.876  24.619  25.571  1.00  0.00     0.088 A 
ATOM     72  C   UNL A   1      31.879  24.498  26.547  1.00  0.00     0.018 A 
ATOM     73  C   UNL A   1      33.775  23.585  25.290  1.00  0.00     0.105 A 
ATOM     74  C   UNL A   1      31.782  23.322  27.277  1.00  0.00     0.003 A 
ATOM     75  C   UNL A   1      33.683  22.405  26.078  1.00  0.00     0.091 A 
ATOM     76  N   UNL A   1      34.750  23.697  24.353  1.00  0.00    -0.230 NA
ATOM     77  C   UNL A   1      32.696  22.296  27.048  1.00  0.00     0.031 A 
ATOM     78  N   UNL A   1      34.552  21.386  25.945  1.00  0.00    -0.231 NA
ATOM     79  C   UNL A   1      35.613  22.661  24.224  1.00  0.00     0.167 A 
ATOM     80  C   UNL A   1      35.521  21.531  25.015  1.00  0.00     0.167 A 
ATOM     81  Cl  UNL A   1      36.815  22.903  23.026  1.00  0.00    -0.059 Cl
ATOM     82  Cl  UNL A   1      36.611  20.209  24.941  1.00  0.00    -0.059 Cl
ENDBRANCH  69  71
ENDBRANCH  68  69
ENDBRANCH  67  68
ENDBRANCH  66  67
ENDBRANCH   1  66
TORSDOF 14
ENDMDL
