MODEL 1
REMARK VINA RESULT:     -12.0      0.000      0.000
REMARK SMILES Cc1cc(NC(=O)[C@H]2[C@@H](C(=O)OCCOC(=O)c3ccc(-c4c5nc(c(-c6ccc(S(=O)(=O)[O-])cc6)c6ccc([nH]6)c(-c6ccc(S(=O)(=O)[O-])cc6)c6nc(c(-c7ccc(S(=O)(=O)[O-])cc7)c7ccc4[nH]7)C=C6)C=C5)cc3)C2(C)C)n(-c2ccc(F)cc2)n1
REMARK SMILES IDX 13 1 12 2 10 3 11 4 9 5 8 6 78 7 79 8 80 9 6 10 5 11 7 13
REMARK SMILES IDX 4 14 1 15 2 16 3 17 89 18 81 19 82 20 83 21 88 22 84 23
REMARK SMILES IDX 87 24 85 25 86 26 14 27 15 28 16 29 17 30 18 31 19 32 77 33
REMARK SMILES IDX 20 34 76 35 21 36 22 37 23 38 70 39 24 40 75 41 69 42 71 43
REMARK SMILES IDX 25 44 74 45 68 46 67 47 26 49 56 50 37 51 55 52 38 53 41 54
REMARK SMILES IDX 54 55 72 56 39 57 40 58 53 60 73 61 42 62 27 63 28 64 36 65
REMARK SMILES IDX 29 66 35 67 30 68 31 69 32 70 33 71 34 72 57 73 58 74 66 75
REMARK SMILES IDX 59 76 65 77 60 78 61 79 62 80 63 81 64 82 43 83 44 84 52 85
REMARK SMILES IDX 45 86 51 87 46 88 47 89 48 90 49 91 50 92
REMARK H PARENT 5 12 71 48 41 59
REMARK Flexibility Score: inf
ROOT
ATOM      1  C   UNL A   1      36.810  22.575  24.846  1.00  0.00     0.274 C 
ENDROOT
BRANCH   1   2
ATOM      2  O   UNL A   1      35.719  22.646  25.782  1.00  0.00    -0.462 OA
BRANCH   2   3
ATOM      3  C   UNL A   1      34.682  23.434  25.417  1.00  0.00     0.310 C 
ATOM      4  O   UNL A   1      34.593  24.637  25.645  1.00  0.00    -0.252 OA
BRANCH   3   5
ATOM      5  C   UNL A   1      33.560  22.732  24.747  1.00  0.00     0.118 C 
ATOM      6  C   UNL A   1      32.247  22.658  25.504  1.00  0.00     0.100 C 
ATOM      7  C   UNL A   1      32.949  21.380  25.062  1.00  0.00    -0.009 C 
ATOM      8  C   UNL A   1      33.487  20.410  26.073  1.00  0.00     0.013 C 
ATOM      9  C   UNL A   1      32.316  20.664  23.866  1.00  0.00     0.013 C 
BRANCH   6  10
ATOM     10  C   UNL A   1      32.216  23.305  26.827  1.00  0.00     0.230 C 
ATOM     11  N   UNL A   1      31.746  24.652  27.012  1.00  0.00    -0.310 N 
ATOM     12  H   UNL A   1      31.838  24.995  27.930  1.00  0.00     0.171 HD
ATOM     13  O   UNL A   1      32.613  22.744  27.837  1.00  0.00    -0.274 OA
BRANCH  11  14
ATOM     14  C   UNL A   1      31.178  25.557  26.106  1.00  0.00     0.136 A 
ATOM     15  C   UNL A   1      28.585  26.453  23.644  1.00  0.00     0.069 C 
ATOM     16  C   UNL A   1      29.700  26.315  24.615  1.00  0.00     0.062 A 
ATOM     17  C   UNL A   1      30.226  25.137  25.195  1.00  0.00     0.072 A 
ATOM     18  N   UNL A   1      30.312  27.403  25.082  1.00  0.00    -0.171 NA
ATOM     19  N   UNL A   1      31.266  26.939  25.924  1.00  0.00    -0.217 N 
BRANCH  19  20
ATOM     20  C   UNL A   1      32.197  27.856  26.457  1.00  0.00     0.067 A 
ATOM     21  C   UNL A   1      31.766  29.054  27.040  1.00  0.00     0.031 A 
ATOM     22  C   UNL A   1      33.567  27.584  26.296  1.00  0.00     0.031 A 
ATOM     23  C   UNL A   1      32.714  30.031  27.356  1.00  0.00     0.041 A 
ATOM     24  C   UNL A   1      34.499  28.581  26.580  1.00  0.00     0.041 A 
ATOM     25  C   UNL A   1      34.063  29.800  27.087  1.00  0.00     0.123 A 
ATOM     26  F   UNL A   1      34.946  30.786  27.284  1.00  0.00    -0.207 F 
ENDBRANCH  19  20
ENDBRANCH  11  14
ENDBRANCH   6  10
ENDBRANCH   3   5
ENDBRANCH   2   3
ENDBRANCH   1   2
BRANCH   1  27
ATOM     27  C   UNL A   1      37.607  21.288  25.028  1.00  0.00     0.275 C 
BRANCH  27  28
ATOM     28  O   UNL A   1      38.869  21.577  25.622  1.00  0.00    -0.458 OA
BRANCH  28  29
ATOM     29  C   UNL A   1      39.707  20.522  25.734  1.00  0.00     0.338 C 
ATOM     30  O   UNL A   1      39.465  19.361  25.444  1.00  0.00    -0.246 OA
BRANCH  29  31
ATOM     31  C   UNL A   1      40.961  20.950  26.355  1.00  0.00     0.060 A 
ATOM     32  C   UNL A   1      41.007  20.827  27.747  1.00  0.00     0.016 A 
ATOM     33  C   UNL A   1      41.713  21.895  25.651  1.00  0.00     0.016 A 
ATOM     34  C   UNL A   1      41.492  21.900  28.450  1.00  0.00     0.010 A 
ATOM     35  C   UNL A   1      42.171  22.973  26.352  1.00  0.00     0.010 A 
ATOM     36  C   UNL A   1      41.932  23.010  27.723  1.00  0.00    -0.014 A 
BRANCH  36  37
ATOM     37  C   UNL A   1      42.240  24.224  28.433  1.00  0.00     0.031 A 
ATOM     38  C   UNL A   1      41.203  25.245  28.195  1.00  0.00     0.074 A 
ATOM     39  C   UNL A   1      43.265  24.301  29.304  1.00  0.00     0.049 A 
ATOM     40  N   UNL A   1      41.286  26.285  27.435  1.00  0.00    -0.248 NA
ATOM     41  C   UNL A   1      39.827  24.916  28.619  1.00  0.00     0.031 C 
ATOM     42  C   UNL A   1      44.146  23.233  29.789  1.00  0.00     0.029 A 
ATOM     43  N   UNL A   1      43.666  25.363  30.043  1.00  0.00    -0.354 N 
ATOM     44  C   UNL A   1      40.036  26.881  27.519  1.00  0.00     0.074 A 
ATOM     45  C   UNL A   1      39.135  25.864  27.990  1.00  0.00     0.031 C 
ATOM     46  C   UNL A   1      44.772  23.648  30.917  1.00  0.00     0.029 A 
ATOM     47  C   UNL A   1      44.442  25.045  31.151  1.00  0.00     0.049 A 
ATOM     48  H   UNL A   1      43.426  26.290  29.813  1.00  0.00     0.167 HD
ATOM     49  C   UNL A   1      39.906  28.233  27.556  1.00  0.00     0.031 A 
ATOM     50  C   UNL A   1      44.704  25.862  32.207  1.00  0.00     0.031 A 
ATOM     51  C   UNL A   1      41.111  28.891  27.117  1.00  0.00     0.049 A 
ATOM     52  C   UNL A   1      44.390  27.249  31.764  1.00  0.00     0.074 A 
ATOM     53  C   UNL A   1      41.846  28.880  25.949  1.00  0.00     0.029 A 
ATOM     54  N   UNL A   1      41.953  29.361  28.099  1.00  0.00    -0.354 N 
ATOM     55  N   UNL A   1      45.056  27.863  30.823  1.00  0.00    -0.248 NA
ATOM     56  C   UNL A   1      43.036  27.737  31.984  1.00  0.00     0.031 C 
ATOM     57  C   UNL A   1      43.207  28.898  26.371  1.00  0.00     0.029 A 
ATOM     58  C   UNL A   1      43.235  29.007  27.764  1.00  0.00     0.049 A 
ATOM     59  H   UNL A   1      41.683  29.863  28.902  1.00  0.00     0.167 HD
ATOM     60  C   UNL A   1      44.089  28.504  30.057  1.00  0.00     0.074 A 
ATOM     61  C   UNL A   1      42.869  28.445  30.862  1.00  0.00     0.031 C 
ATOM     62  C   UNL A   1      44.288  28.751  28.727  1.00  0.00     0.031 A 
BRANCH  49  63
ATOM     63  C   UNL A   1      38.877  28.921  28.419  1.00  0.00    -0.014 A 
ATOM     64  C   UNL A   1      38.198  30.036  27.899  1.00  0.00     0.010 A 
ATOM     65  C   UNL A   1      38.745  28.681  29.806  1.00  0.00     0.010 A 
ATOM     66  C   UNL A   1      37.475  30.896  28.735  1.00  0.00     0.020 A 
ATOM     67  C   UNL A   1      37.991  29.502  30.639  1.00  0.00     0.020 A 
ATOM     68  C   UNL A   1      37.386  30.626  30.101  1.00  0.00     0.054 A 
BRANCH  68  69
ATOM     69  S   UNL A   1      36.526  31.786  31.186  1.00  0.00     0.124 S 
ATOM     70  O   UNL A   1      36.358  30.991  32.398  1.00  0.00    -0.237 OA
ATOM     71  O   UNL A   1      37.481  32.887  31.271  1.00  0.00    -0.237 OA
ATOM     72  O   UNL A   1      35.297  32.088  30.456  1.00  0.00    -0.744 OA
ENDBRANCH  68  69
ENDBRANCH  49  63
BRANCH  50  73
ATOM     73  C   UNL A   1      44.809  25.485  33.646  1.00  0.00    -0.014 A 
ATOM     74  C   UNL A   1      43.955  24.529  34.230  1.00  0.00     0.010 A 
ATOM     75  C   UNL A   1      45.943  25.877  34.389  1.00  0.00     0.010 A 
ATOM     76  C   UNL A   1      44.244  23.962  35.489  1.00  0.00     0.020 A 
ATOM     77  C   UNL A   1      46.238  25.319  35.641  1.00  0.00     0.020 A 
ATOM     78  C   UNL A   1      45.396  24.351  36.180  1.00  0.00     0.054 A 
BRANCH  78  79
ATOM     79  S   UNL A   1      45.847  23.517  37.735  1.00  0.00     0.124 S 
ATOM     80  O   UNL A   1      47.245  23.903  37.902  1.00  0.00    -0.237 OA
ATOM     81  O   UNL A   1      44.910  24.098  38.692  1.00  0.00    -0.237 OA
ATOM     82  O   UNL A   1      45.628  22.101  37.440  1.00  0.00    -0.744 OA
ENDBRANCH  78  79
ENDBRANCH  50  73
BRANCH  62  83
ATOM     83  C   UNL A   1      45.676  28.555  28.156  1.00  0.00    -0.014 A 
ATOM     84  C   UNL A   1      46.145  27.347  27.596  1.00  0.00     0.010 A 
ATOM     85  C   UNL A   1      46.478  29.703  28.032  1.00  0.00     0.010 A 
ATOM     86  C   UNL A   1      47.393  27.295  26.950  1.00  0.00     0.020 A 
ATOM     87  C   UNL A   1      47.708  29.661  27.374  1.00  0.00     0.020 A 
ATOM     88  C   UNL A   1      48.166  28.456  26.843  1.00  0.00     0.054 A 
BRANCH  88  89
ATOM     89  S   UNL A   1      49.758  28.400  25.971  1.00  0.00     0.124 S 
ATOM     90  O   UNL A   1      49.371  27.971  24.631  1.00  0.00    -0.237 OA
ATOM     91  O   UNL A   1      50.234  29.779  26.079  1.00  0.00    -0.237 OA
ATOM     92  O   UNL A   1      50.538  27.425  26.732  1.00  0.00    -0.744 OA
ENDBRANCH  88  89
ENDBRANCH  62  83
ENDBRANCH  36  37
ENDBRANCH  29  31
ENDBRANCH  28  29
ENDBRANCH  27  28
ENDBRANCH   1  27
TORSDOF 17
ENDMDL
MODEL 2
REMARK VINA RESULT:     -11.9      2.813      7.681
REMARK SMILES Cc1cc(NC(=O)[C@H]2[C@@H](C(=O)OCCOC(=O)c3ccc(-c4c5nc(c(-c6ccc(S(=O)(=O)[O-])cc6)c6ccc([nH]6)c(-c6ccc(S(=O)(=O)[O-])cc6)c6nc(c(-c7ccc(S(=O)(=O)[O-])cc7)c7ccc4[nH]7)C=C6)C=C5)cc3)C2(C)C)n(-c2ccc(F)cc2)n1
REMARK SMILES IDX 13 1 12 2 10 3 11 4 9 5 8 6 78 7 79 8 80 9 6 10 5 11 7 13
REMARK SMILES IDX 4 14 1 15 2 16 3 17 89 18 81 19 82 20 83 21 88 22 84 23
REMARK SMILES IDX 87 24 85 25 86 26 14 27 15 28 16 29 17 30 18 31 19 32 77 33
REMARK SMILES IDX 20 34 76 35 21 36 22 37 23 38 70 39 24 40 75 41 69 42 71 43
REMARK SMILES IDX 25 44 74 45 68 46 67 47 26 49 56 50 37 51 55 52 38 53 41 54
REMARK SMILES IDX 54 55 72 56 39 57 40 58 53 60 73 61 42 62 27 63 28 64 36 65
REMARK SMILES IDX 29 66 35 67 30 68 31 69 32 70 33 71 34 72 57 73 58 74 66 75
REMARK SMILES IDX 59 76 65 77 60 78 61 79 62 80 63 81 64 82 43 83 44 84 52 85
REMARK SMILES IDX 45 86 51 87 46 88 47 89 48 90 49 91 50 92
REMARK H PARENT 5 12 71 48 41 59
REMARK Flexibility Score: inf
ROOT
ATOM      1  C   UNL A   1      36.247  23.401  25.122  1.00  0.00     0.274 C 
ENDROOT
BRANCH   1   2
ATOM      2  O   UNL A   1      34.996  23.523  25.823  1.00  0.00    -0.462 OA
BRANCH   2   3
ATOM      3  C   UNL A   1      34.175  24.507  25.392  1.00  0.00     0.310 C 
ATOM      4  O   UNL A   1      34.222  25.678  25.756  1.00  0.00    -0.252 OA
BRANCH   3   5
ATOM      5  C   UNL A   1      33.109  24.075  24.454  1.00  0.00     0.118 C 
ATOM      6  C   UNL A   1      31.675  24.294  24.896  1.00  0.00     0.100 C 
ATOM      7  C   UNL A   1      32.164  22.893  24.554  1.00  0.00    -0.009 C 
ATOM      8  C   UNL A   1      32.234  21.825  25.607  1.00  0.00     0.013 C 
ATOM      9  C   UNL A   1      31.680  22.339  23.211  1.00  0.00     0.013 C 
BRANCH   6  10
ATOM     10  C   UNL A   1      31.485  24.929  26.212  1.00  0.00     0.230 C 
ATOM     11  N   UNL A   1      31.291  26.347  26.360  1.00  0.00    -0.310 N 
ATOM     12  H   UNL A   1      31.244  26.659  27.292  1.00  0.00     0.171 HD
ATOM     13  O   UNL A   1      31.509  24.291  27.254  1.00  0.00    -0.274 OA
BRANCH  11  14
ATOM     14  C   UNL A   1      31.156  27.358  25.399  1.00  0.00     0.136 A 
ATOM     15  C   UNL A   1      29.364  28.897  22.569  1.00  0.00     0.069 C 
ATOM     16  C   UNL A   1      30.218  28.471  23.707  1.00  0.00     0.062 A 
ATOM     17  C   UNL A   1      30.291  27.204  24.330  1.00  0.00     0.072 A 
ATOM     18  N   UNL A   1      31.020  29.354  24.302  1.00  0.00    -0.171 NA
ATOM     19  N   UNL A   1      31.653  28.658  25.275  1.00  0.00    -0.217 N 
BRANCH  19  20
ATOM     20  C   UNL A   1      32.699  29.288  25.983  1.00  0.00     0.067 A 
ATOM     21  C   UNL A   1      33.950  28.672  26.106  1.00  0.00     0.031 A 
ATOM     22  C   UNL A   1      32.421  30.495  26.648  1.00  0.00     0.031 A 
ATOM     23  C   UNL A   1      34.886  29.214  26.991  1.00  0.00     0.041 A 
ATOM     24  C   UNL A   1      33.348  31.004  27.556  1.00  0.00     0.041 A 
ATOM     25  C   UNL A   1      34.561  30.349  27.734  1.00  0.00     0.123 A 
ATOM     26  F   UNL A   1      35.418  30.789  28.662  1.00  0.00    -0.207 F 
ENDBRANCH  19  20
ENDBRANCH  11  14
ENDBRANCH   6  10
ENDBRANCH   3   5
ENDBRANCH   2   3
ENDBRANCH   1   2
BRANCH   1  27
ATOM     27  C   UNL A   1      37.282  22.666  25.967  1.00  0.00     0.275 C 
BRANCH  27  28
ATOM     28  O   UNL A   1      38.303  23.570  26.380  1.00  0.00    -0.458 OA
BRANCH  28  29
ATOM     29  C   UNL A   1      39.461  22.990  26.768  1.00  0.00     0.338 C 
ATOM     30  O   UNL A   1      39.613  21.841  27.150  1.00  0.00    -0.246 OA
BRANCH  29  31
ATOM     31  C   UNL A   1      40.538  23.981  26.755  1.00  0.00     0.060 A 
ATOM     32  C   UNL A   1      41.487  23.841  27.773  1.00  0.00     0.016 A 
ATOM     33  C   UNL A   1      40.248  25.208  26.152  1.00  0.00     0.016 A 
ATOM     34  C   UNL A   1      41.845  24.978  28.450  1.00  0.00     0.010 A 
ATOM     35  C   UNL A   1      40.585  26.336  26.842  1.00  0.00     0.010 A 
ATOM     36  C   UNL A   1      41.264  26.185  28.049  1.00  0.00    -0.014 A 
BRANCH  36  37
ATOM     37  C   UNL A   1      41.453  27.351  28.872  1.00  0.00     0.031 A 
ATOM     38  C   UNL A   1      42.659  28.092  28.456  1.00  0.00     0.074 A 
ATOM     39  C   UNL A   1      40.535  27.743  29.777  1.00  0.00     0.049 A 
ATOM     40  N   UNL A   1      43.802  28.127  29.054  1.00  0.00    -0.248 NA
ATOM     41  C   UNL A   1      42.683  28.615  27.076  1.00  0.00     0.031 C 
ATOM     42  C   UNL A   1      39.194  27.202  30.022  1.00  0.00     0.029 A 
ATOM     43  N   UNL A   1      40.572  28.812  30.607  1.00  0.00    -0.354 N 
ATOM     44  C   UNL A   1      44.600  28.916  28.237  1.00  0.00     0.074 A 
ATOM     45  C   UNL A   1      43.972  28.921  26.944  1.00  0.00     0.031 C 
ATOM     46  C   UNL A   1      38.471  28.106  30.728  1.00  0.00     0.029 A 
ATOM     47  C   UNL A   1      39.336  29.216  31.096  1.00  0.00     0.049 A 
ATOM     48  H   UNL A   1      41.411  29.268  30.847  1.00  0.00     0.167 HD
ATOM     49  C   UNL A   1      45.492  29.794  28.767  1.00  0.00     0.031 A 
ATOM     50  C   UNL A   1      39.055  30.415  31.676  1.00  0.00     0.031 A 
ATOM     51  C   UNL A   1      45.754  29.508  30.155  1.00  0.00     0.049 A 
ATOM     52  C   UNL A   1      40.360  31.011  32.078  1.00  0.00     0.074 A 
ATOM     53  C   UNL A   1      46.250  28.417  30.839  1.00  0.00     0.029 A 
ATOM     54  N   UNL A   1      45.082  30.272  31.082  1.00  0.00    -0.354 N 
ATOM     55  N   UNL A   1      41.132  30.484  32.991  1.00  0.00    -0.248 NA
ATOM     56  C   UNL A   1      41.037  31.867  31.114  1.00  0.00     0.031 C 
ATOM     57  C   UNL A   1      45.466  28.340  32.027  1.00  0.00     0.029 A 
ATOM     58  C   UNL A   1      44.595  29.433  32.052  1.00  0.00     0.049 A 
ATOM     59  H   UNL A   1      44.969  31.250  31.054  1.00  0.00     0.167 HD
ATOM     60  C   UNL A   1      42.419  30.584  32.476  1.00  0.00     0.074 A 
ATOM     61  C   UNL A   1      42.303  31.507  31.347  1.00  0.00     0.031 C 
ATOM     62  C   UNL A   1      43.391  29.685  32.818  1.00  0.00     0.031 A 
BRANCH  49  63
ATOM     63  C   UNL A   1      45.745  31.152  28.159  1.00  0.00    -0.014 A 
ATOM     64  C   UNL A   1      44.660  32.031  27.999  1.00  0.00     0.010 A 
ATOM     65  C   UNL A   1      46.948  31.493  27.500  1.00  0.00     0.010 A 
ATOM     66  C   UNL A   1      44.760  33.157  27.173  1.00  0.00     0.020 A 
ATOM     67  C   UNL A   1      47.073  32.635  26.715  1.00  0.00     0.020 A 
ATOM     68  C   UNL A   1      45.964  33.445  26.530  1.00  0.00     0.054 A 
BRANCH  68  69
ATOM     69  S   UNL A   1      46.059  34.850  25.400  1.00  0.00     0.124 S 
ATOM     70  O   UNL A   1      45.561  35.938  26.235  1.00  0.00    -0.237 OA
ATOM     71  O   UNL A   1      47.483  34.889  25.082  1.00  0.00    -0.237 OA
ATOM     72  O   UNL A   1      45.188  34.457  24.294  1.00  0.00    -0.744 OA
ENDBRANCH  68  69
ENDBRANCH  49  63
BRANCH  50  73
ATOM     73  C   UNL A   1      37.813  31.227  31.535  1.00  0.00    -0.014 A 
ATOM     74  C   UNL A   1      36.787  31.194  32.498  1.00  0.00     0.010 A 
ATOM     75  C   UNL A   1      37.760  32.255  30.569  1.00  0.00     0.010 A 
ATOM     76  C   UNL A   1      35.769  32.171  32.517  1.00  0.00     0.020 A 
ATOM     77  C   UNL A   1      36.752  33.230  30.579  1.00  0.00     0.020 A 
ATOM     78  C   UNL A   1      35.768  33.194  31.563  1.00  0.00     0.054 A 
BRANCH  78  79
ATOM     79  S   UNL A   1      34.541  34.536  31.673  1.00  0.00     0.124 S 
ATOM     80  O   UNL A   1      34.327  34.878  30.270  1.00  0.00    -0.237 OA
ATOM     81  O   UNL A   1      33.420  33.889  32.346  1.00  0.00    -0.237 OA
ATOM     82  O   UNL A   1      35.225  35.561  32.461  1.00  0.00    -0.744 OA
ENDBRANCH  78  79
ENDBRANCH  50  73
BRANCH  62  83
ATOM     83  C   UNL A   1      43.124  28.734  33.966  1.00  0.00    -0.014 A 
ATOM     84  C   UNL A   1      43.465  28.993  35.310  1.00  0.00     0.010 A 
ATOM     85  C   UNL A   1      42.340  27.603  33.682  1.00  0.00     0.010 A 
ATOM     86  C   UNL A   1      43.044  28.127  36.335  1.00  0.00     0.020 A 
ATOM     87  C   UNL A   1      41.904  26.750  34.697  1.00  0.00     0.020 A 
ATOM     88  C   UNL A   1      42.265  27.010  36.019  1.00  0.00     0.054 A 
BRANCH  88  89
ATOM     89  S   UNL A   1      41.684  25.912  37.344  1.00  0.00     0.124 S 
ATOM     90  O   UNL A   1      42.743  26.031  38.342  1.00  0.00    -0.237 OA
ATOM     91  O   UNL A   1      40.399  26.505  37.715  1.00  0.00    -0.237 OA
ATOM     92  O   UNL A   1      41.587  24.605  36.697  1.00  0.00    -0.744 OA
ENDBRANCH  88  89
ENDBRANCH  62  83
ENDBRANCH  36  37
ENDBRANCH  29  31
ENDBRANCH  28  29
ENDBRANCH  27  28
ENDBRANCH   1  27
TORSDOF 17
ENDMDL
MODEL 3
REMARK VINA RESULT:     -11.8      4.626      9.871
REMARK SMILES Cc1cc(NC(=O)[C@H]2[C@@H](C(=O)OCCOC(=O)c3ccc(-c4c5nc(c(-c6ccc(S(=O)(=O)[O-])cc6)c6ccc([nH]6)c(-c6ccc(S(=O)(=O)[O-])cc6)c6nc(c(-c7ccc(S(=O)(=O)[O-])cc7)c7ccc4[nH]7)C=C6)C=C5)cc3)C2(C)C)n(-c2ccc(F)cc2)n1
REMARK SMILES IDX 13 1 12 2 10 3 11 4 9 5 8 6 78 7 79 8 80 9 6 10 5 11 7 13
REMARK SMILES IDX 4 14 1 15 2 16 3 17 89 18 81 19 82 20 83 21 88 22 84 23
REMARK SMILES IDX 87 24 85 25 86 26 14 27 15 28 16 29 17 30 18 31 19 32 77 33
REMARK SMILES IDX 20 34 76 35 21 36 22 37 23 38 70 39 24 40 75 41 69 42 71 43
REMARK SMILES IDX 25 44 74 45 68 46 67 47 26 49 56 50 37 51 55 52 38 53 41 54
REMARK SMILES IDX 54 55 72 56 39 57 40 58 53 60 73 61 42 62 27 63 28 64 36 65
REMARK SMILES IDX 29 66 35 67 30 68 31 69 32 70 33 71 34 72 57 73 58 74 66 75
REMARK SMILES IDX 59 76 65 77 60 78 61 79 62 80 63 81 64 82 43 83 44 84 52 85
REMARK SMILES IDX 45 86 51 87 46 88 47 89 48 90 49 91 50 92
REMARK H PARENT 5 12 71 48 41 59
REMARK Flexibility Score: inf
ROOT
ATOM      1  C   UNL A   1      31.807  30.431  25.806  1.00  0.00     0.274 C 
ENDROOT
BRANCH   1   2
ATOM      2  O   UNL A   1      32.618  29.618  24.939  1.00  0.00    -0.462 OA
BRANCH   2   3
ATOM      3  C   UNL A   1      32.455  28.281  25.066  1.00  0.00     0.310 C 
ATOM      4  O   UNL A   1      33.288  27.508  25.532  1.00  0.00    -0.252 OA
BRANCH   3   5
ATOM      5  C   UNL A   1      31.181  27.746  24.527  1.00  0.00     0.118 C 
ATOM      6  C   UNL A   1      31.278  26.798  23.347  1.00  0.00     0.100 C 
ATOM      7  C   UNL A   1      30.469  28.084  23.231  1.00  0.00    -0.009 C 
ATOM      8  C   UNL A   1      30.884  29.171  22.283  1.00  0.00     0.013 C 
ATOM      9  C   UNL A   1      28.949  27.907  23.265  1.00  0.00     0.013 C 
BRANCH   6  10
ATOM     10  C   UNL A   1      32.636  26.495  22.861  1.00  0.00     0.230 C 
ATOM     11  N   UNL A   1      33.412  25.403  23.385  1.00  0.00    -0.310 N 
ATOM     12  H   UNL A   1      34.328  25.344  23.030  1.00  0.00     0.171 HD
ATOM     13  O   UNL A   1      33.189  27.169  22.006  1.00  0.00    -0.274 OA
BRANCH  11  14
ATOM     14  C   UNL A   1      33.084  24.409  24.316  1.00  0.00     0.136 A 
ATOM     15  C   UNL A   1      30.591  22.369  26.109  1.00  0.00     0.069 C 
ATOM     16  C   UNL A   1      31.754  23.052  25.489  1.00  0.00     0.062 A 
ATOM     17  C   UNL A   1      31.783  24.268  24.768  1.00  0.00     0.072 A 
ATOM     18  N   UNL A   1      32.961  22.488  25.541  1.00  0.00    -0.171 NA
ATOM     19  N   UNL A   1      33.784  23.352  24.903  1.00  0.00    -0.217 N 
BRANCH  19  20
ATOM     20  C   UNL A   1      35.174  23.107  24.934  1.00  0.00     0.067 A 
ATOM     21  C   UNL A   1      35.719  22.006  24.262  1.00  0.00     0.031 A 
ATOM     22  C   UNL A   1      35.978  23.931  25.739  1.00  0.00     0.031 A 
ATOM     23  C   UNL A   1      37.056  21.668  24.493  1.00  0.00     0.041 A 
ATOM     24  C   UNL A   1      37.299  23.561  25.991  1.00  0.00     0.041 A 
ATOM     25  C   UNL A   1      37.818  22.424  25.382  1.00  0.00     0.123 A 
ATOM     26  F   UNL A   1      39.058  22.022  25.685  1.00  0.00    -0.207 F 
ENDBRANCH  19  20
ENDBRANCH  11  14
ENDBRANCH   6  10
ENDBRANCH   3   5
ENDBRANCH   2   3
ENDBRANCH   1   2
BRANCH   1  27
ATOM     27  C   UNL A   1      32.430  30.545  27.194  1.00  0.00     0.275 C 
BRANCH  27  28
ATOM     28  O   UNL A   1      33.447  31.542  27.190  1.00  0.00    -0.458 OA
BRANCH  28  29
ATOM     29  C   UNL A   1      33.068  32.752  27.659  1.00  0.00     0.338 C 
ATOM     30  O   UNL A   1      32.076  33.386  27.335  1.00  0.00    -0.246 OA
BRANCH  29  31
ATOM     31  C   UNL A   1      34.085  33.268  28.577  1.00  0.00     0.060 A 
ATOM     32  C   UNL A   1      35.113  34.000  27.975  1.00  0.00     0.016 A 
ATOM     33  C   UNL A   1      34.252  32.569  29.776  1.00  0.00     0.016 A 
ATOM     34  C   UNL A   1      36.395  33.703  28.361  1.00  0.00     0.010 A 
ATOM     35  C   UNL A   1      35.529  32.255  30.141  1.00  0.00     0.010 A 
ATOM     36  C   UNL A   1      36.570  32.724  29.343  1.00  0.00    -0.014 A 
BRANCH  36  37
ATOM     37  C   UNL A   1      37.900  32.241  29.609  1.00  0.00     0.031 A 
ATOM     38  C   UNL A   1      38.019  30.817  29.243  1.00  0.00     0.074 A 
ATOM     39  C   UNL A   1      38.896  33.064  29.990  1.00  0.00     0.049 A 
ATOM     40  N   UNL A   1      38.054  29.803  30.041  1.00  0.00    -0.248 NA
ATOM     41  C   UNL A   1      37.782  30.465  27.829  1.00  0.00     0.031 C 
ATOM     42  C   UNL A   1      38.895  34.528  30.089  1.00  0.00     0.029 A 
ATOM     43  N   UNL A   1      40.186  32.757  30.265  1.00  0.00    -0.354 N 
ATOM     44  C   UNL A   1      38.121  28.700  29.202  1.00  0.00     0.074 A 
ATOM     45  C   UNL A   1      37.653  29.143  27.916  1.00  0.00     0.031 C 
ATOM     46  C   UNL A   1      40.176  34.972  30.130  1.00  0.00     0.029 A 
ATOM     47  C   UNL A   1      41.069  33.827  30.199  1.00  0.00     0.049 A 
ATOM     48  H   UNL A   1      40.476  31.844  30.495  1.00  0.00     0.167 HD
ATOM     49  C   UNL A   1      38.891  27.626  29.517  1.00  0.00     0.031 A 
ATOM     50  C   UNL A   1      42.425  33.744  30.120  1.00  0.00     0.031 A 
ATOM     51  C   UNL A   1      39.260  27.632  30.910  1.00  0.00     0.049 A 
ATOM     52  C   UNL A   1      42.795  32.367  30.551  1.00  0.00     0.074 A 
ATOM     53  C   UNL A   1      38.554  27.615  32.096  1.00  0.00     0.029 A 
ATOM     54  N   UNL A   1      40.518  28.100  31.216  1.00  0.00    -0.354 N 
ATOM     55  N   UNL A   1      42.604  31.926  31.766  1.00  0.00    -0.248 NA
ATOM     56  C   UNL A   1      42.876  31.337  29.524  1.00  0.00     0.031 C 
ATOM     57  C   UNL A   1      39.261  28.504  32.957  1.00  0.00     0.029 A 
ATOM     58  C   UNL A   1      40.406  28.947  32.289  1.00  0.00     0.049 A 
ATOM     59  H   UNL A   1      41.352  27.869  30.747  1.00  0.00     0.167 HD
ATOM     60  C   UNL A   1      42.118  30.633  31.608  1.00  0.00     0.074 A 
ATOM     61  C   UNL A   1      42.372  30.303  30.205  1.00  0.00     0.031 C 
ATOM     62  C   UNL A   1      41.289  30.070  32.537  1.00  0.00     0.031 A 
BRANCH  49  63
ATOM     63  C   UNL A   1      39.672  26.860  28.477  1.00  0.00    -0.014 A 
ATOM     64  C   UNL A   1      39.523  25.464  28.415  1.00  0.00     0.010 A 
ATOM     65  C   UNL A   1      40.739  27.423  27.740  1.00  0.00     0.010 A 
ATOM     66  C   UNL A   1      40.431  24.673  27.701  1.00  0.00     0.020 A 
ATOM     67  C   UNL A   1      41.620  26.651  26.989  1.00  0.00     0.020 A 
ATOM     68  C   UNL A   1      41.479  25.273  27.002  1.00  0.00     0.054 A 
BRANCH  68  69
ATOM     69  S   UNL A   1      42.696  24.240  26.157  1.00  0.00     0.124 S 
ATOM     70  O   UNL A   1      42.970  25.024  24.958  1.00  0.00    -0.237 OA
ATOM     71  O   UNL A   1      43.774  24.176  27.140  1.00  0.00    -0.237 OA
ATOM     72  O   UNL A   1      41.983  22.983  25.938  1.00  0.00    -0.744 OA
ENDBRANCH  68  69
ENDBRANCH  49  63
BRANCH  50  73
ATOM     73  C   UNL A   1      43.347  34.611  29.332  1.00  0.00    -0.014 A 
ATOM     74  C   UNL A   1      43.181  34.809  27.947  1.00  0.00     0.010 A 
ATOM     75  C   UNL A   1      44.241  35.470  30.004  1.00  0.00     0.010 A 
ATOM     76  C   UNL A   1      43.856  35.848  27.271  1.00  0.00     0.020 A 
ATOM     77  C   UNL A   1      44.917  36.504  29.341  1.00  0.00     0.020 A 
ATOM     78  C   UNL A   1      44.709  36.700  27.978  1.00  0.00     0.054 A 
BRANCH  78  79
ATOM     79  S   UNL A   1      45.467  38.127  27.139  1.00  0.00     0.124 S 
ATOM     80  O   UNL A   1      46.129  38.822  28.239  1.00  0.00    -0.237 OA
ATOM     81  O   UNL A   1      46.352  37.493  26.166  1.00  0.00    -0.237 OA
ATOM     82  O   UNL A   1      44.322  38.833  26.562  1.00  0.00    -0.744 OA
ENDBRANCH  78  79
ENDBRANCH  50  73
BRANCH  62  83
ATOM     83  C   UNL A   1      41.115  30.769  33.869  1.00  0.00    -0.014 A 
ATOM     84  C   UNL A   1      41.949  30.567  34.989  1.00  0.00     0.010 A 
ATOM     85  C   UNL A   1      40.162  31.800  33.923  1.00  0.00     0.010 A 
ATOM     86  C   UNL A   1      41.812  31.369  36.136  1.00  0.00     0.020 A 
ATOM     87  C   UNL A   1      40.035  32.611  35.052  1.00  0.00     0.020 A 
ATOM     88  C   UNL A   1      40.854  32.387  36.158  1.00  0.00     0.054 A 
BRANCH  88  89
ATOM     89  S   UNL A   1      40.705  33.452  37.622  1.00  0.00     0.124 S 
ATOM     90  O   UNL A   1      42.084  33.870  37.853  1.00  0.00    -0.237 OA
ATOM     91  O   UNL A   1      39.795  34.503  37.166  1.00  0.00    -0.237 OA
ATOM     92  O   UNL A   1      40.148  32.565  38.642  1.00  0.00    -0.744 OA
ENDBRANCH  88  89
ENDBRANCH  62  83
ENDBRANCH  36  37
ENDBRANCH  29  31
ENDBRANCH  28  29
ENDBRANCH  27  28
ENDBRANCH   1  27
TORSDOF 17
ENDMDL
