MODEL 1
REMARK VINA RESULT:     -11.0      0.000      0.000
REMARK SMILES O=C(OCCOC(=O)c1ccccc1C(=O)Nc1ccc(N2C(=O)[C@H]3[C@@H]4CC[C@@H](C4)[C@@H]3C2=O)cc1)c1ccc(-c2c3nc(c(-c4ccc(S(=O)(=O)[O-])cc4)c4ccc([nH]4)c(-c4ccc(S(=O)(=O)[O-])cc4)c4nc(c(-c5ccc(S(=O)(=O)[O-])cc5)c5ccc2[nH]5)C=C4)C=C3)cc1
REMARK SMILES IDX 4 1 3 2 2 3 1 4 36 5 37 6 95 7 38 8 94 9 39 10 40 11 41 12
REMARK SMILES IDX 88 13 42 14 93 15 87 16 89 17 43 18 92 19 86 20 85 21 44 23
REMARK SMILES IDX 74 24 55 25 73 26 56 27 59 28 72 29 90 30 57 31 58 32 71 34
REMARK SMILES IDX 91 35 60 36 45 37 46 38 54 39 47 40 53 41 48 42 49 43 50 44
REMARK SMILES IDX 51 45 52 46 75 47 76 48 84 49 77 50 83 51 78 52 79 53 80 54
REMARK SMILES IDX 81 55 82 56 61 57 62 58 70 59 63 60 69 61 64 62 65 63 66 64
REMARK SMILES IDX 67 65 68 66 5 67 6 68 7 69 8 70 9 71 10 72 14 73 11 74 13 75
REMARK SMILES IDX 12 76 15 77 16 78 17 79 18 81 19 82 35 83 20 84 34 85 21 86
REMARK SMILES IDX 22 87 23 88 32 89 24 90 25 91 31 92 33 93 26 94 29 95 27 96
REMARK SMILES IDX 30 97 28 98
REMARK H PARENT 89 22 59 33 17 80
REMARK Flexibility Score: inf
ROOT
ATOM      1  C   UNL A   1      34.820  34.369  32.775  1.00  0.00     0.275 C 
ENDROOT
BRANCH   1   2
ATOM      2  O   UNL A   1      35.089  32.878  31.699  1.00  0.00    -0.458 OA
BRANCH   2   3
ATOM      3  C   UNL A   1      35.895  32.337  30.355  1.00  0.00     0.338 C 
ATOM      4  O   UNL A   1      35.456  32.885  29.331  1.00  0.00    -0.246 OA
BRANCH   3   5
ATOM      5  C   UNL A   1      37.253  31.207  29.983  1.00  0.00     0.060 A 
ATOM      6  C   UNL A   1      37.664  30.569  28.775  1.00  0.00     0.016 A 
ATOM      7  C   UNL A   1      38.244  30.881  30.935  1.00  0.00     0.016 A 
ATOM      8  C   UNL A   1      38.957  30.041  28.388  1.00  0.00     0.010 A 
ATOM      9  C   UNL A   1      39.576  30.250  30.591  1.00  0.00     0.010 A 
ATOM     10  C   UNL A   1      40.003  29.928  29.274  1.00  0.00    -0.014 A 
BRANCH  10  11
ATOM     11  C   UNL A   1      41.376  29.392  28.762  1.00  0.00     0.031 A 
ATOM     12  C   UNL A   1      42.603  30.284  28.767  1.00  0.00     0.074 A 
ATOM     13  C   UNL A   1      41.716  28.081  28.567  1.00  0.00     0.049 A 
ATOM     14  N   UNL A   1      43.849  29.988  28.464  1.00  0.00    -0.248 NA
ATOM     15  C   UNL A   1      42.417  31.646  29.272  1.00  0.00     0.031 C 
ATOM     16  C   UNL A   1      40.883  26.960  28.932  1.00  0.00     0.029 A 
ATOM     17  N   UNL A   1      42.854  27.434  28.077  1.00  0.00    -0.354 N 
ATOM     18  C   UNL A   1      44.606  31.105  28.788  1.00  0.00     0.074 A 
ATOM     19  C   UNL A   1      43.664  32.100  29.275  1.00  0.00     0.031 C 
ATOM     20  C   UNL A   1      41.423  25.796  28.529  1.00  0.00     0.029 A 
ATOM     21  C   UNL A   1      42.722  26.056  27.929  1.00  0.00     0.049 A 
ATOM     22  H   UNL A   1      43.685  27.915  27.855  1.00  0.00     0.167 HD
ATOM     23  C   UNL A   1      45.948  31.301  28.713  1.00  0.00     0.031 A 
ATOM     24  C   UNL A   1      43.521  25.079  27.426  1.00  0.00     0.031 A 
ATOM     25  C   UNL A   1      46.931  30.372  28.201  1.00  0.00     0.049 A 
ATOM     26  C   UNL A   1      44.951  25.398  27.061  1.00  0.00     0.074 A 
ATOM     27  C   UNL A   1      48.282  30.598  27.973  1.00  0.00     0.029 A 
ATOM     28  N   UNL A   1      46.695  29.056  27.842  1.00  0.00    -0.354 N 
ATOM     29  N   UNL A   1      45.608  26.509  27.272  1.00  0.00    -0.248 NA
ATOM     30  C   UNL A   1      45.766  24.331  26.450  1.00  0.00     0.031 C 
ATOM     31  C   UNL A   1      48.846  29.443  27.421  1.00  0.00     0.029 A 
ATOM     32  C   UNL A   1      47.864  28.472  27.362  1.00  0.00     0.049 A 
ATOM     33  H   UNL A   1      45.826  28.598  27.917  1.00  0.00     0.167 HD
ATOM     34  C   UNL A   1      46.915  26.261  26.869  1.00  0.00     0.074 A 
ATOM     35  C   UNL A   1      46.968  24.892  26.410  1.00  0.00     0.031 C 
ATOM     36  C   UNL A   1      47.970  27.111  26.897  1.00  0.00     0.031 A 
BRANCH  23  37
ATOM     37  C   UNL A   1      46.438  32.660  29.135  1.00  0.00    -0.014 A 
ATOM     38  C   UNL A   1      46.811  32.924  30.464  1.00  0.00     0.010 A 
ATOM     39  C   UNL A   1      46.513  33.688  28.177  1.00  0.00     0.010 A 
ATOM     40  C   UNL A   1      47.193  34.214  30.842  1.00  0.00     0.020 A 
ATOM     41  C   UNL A   1      46.918  34.971  28.547  1.00  0.00     0.020 A 
ATOM     42  C   UNL A   1      47.230  35.232  29.882  1.00  0.00     0.054 A 
BRANCH  42  43
ATOM     43  S   UNL A   1      47.687  36.907  30.403  1.00  0.00     0.124 S 
ATOM     44  O   UNL A   1      47.970  36.712  31.823  1.00  0.00    -0.237 OA
ATOM     45  O   UNL A   1      48.847  37.199  29.565  1.00  0.00    -0.237 OA
ATOM     46  O   UNL A   1      46.495  37.698  30.110  1.00  0.00    -0.744 OA
ENDBRANCH  42  43
ENDBRANCH  23  37
BRANCH  24  47
ATOM     47  C   UNL A   1      43.016  23.676  27.180  1.00  0.00    -0.014 A 
ATOM     48  C   UNL A   1      43.115  22.654  28.147  1.00  0.00     0.010 A 
ATOM     49  C   UNL A   1      42.562  23.323  25.893  1.00  0.00     0.010 A 
ATOM     50  C   UNL A   1      42.821  21.318  27.822  1.00  0.00     0.020 A 
ATOM     51  C   UNL A   1      42.243  21.996  25.570  1.00  0.00     0.020 A 
ATOM     52  C   UNL A   1      42.395  20.995  26.531  1.00  0.00     0.054 A 
BRANCH  52  53
ATOM     53  S   UNL A   1      42.048  19.257  26.114  1.00  0.00     0.124 S 
ATOM     54  O   UNL A   1      40.605  19.275  25.891  1.00  0.00    -0.237 OA
ATOM     55  O   UNL A   1      42.867  19.044  24.924  1.00  0.00    -0.237 OA
ATOM     56  O   UNL A   1      42.485  18.525  27.302  1.00  0.00    -0.744 OA
ENDBRANCH  52  53
ENDBRANCH  24  47
BRANCH  36  57
ATOM     57  C   UNL A   1      49.313  26.595  26.439  1.00  0.00    -0.014 A 
ATOM     58  C   UNL A   1      49.794  26.849  25.141  1.00  0.00     0.010 A 
ATOM     59  C   UNL A   1      50.132  25.879  27.333  1.00  0.00     0.010 A 
ATOM     60  C   UNL A   1      51.050  26.378  24.739  1.00  0.00     0.020 A 
ATOM     61  C   UNL A   1      51.399  25.427  26.944  1.00  0.00     0.020 A 
ATOM     62  C   UNL A   1      51.846  25.670  25.644  1.00  0.00     0.054 A 
BRANCH  62  63
ATOM     63  S   UNL A   1      53.491  25.113  25.116  1.00  0.00     0.124 S 
ATOM     64  O   UNL A   1      53.551  25.597  23.739  1.00  0.00    -0.237 OA
ATOM     65  O   UNL A   1      54.378  25.789  26.058  1.00  0.00    -0.237 OA
ATOM     66  O   UNL A   1      53.430  23.660  25.261  1.00  0.00    -0.744 OA
ENDBRANCH  62  63
ENDBRANCH  36  57
ENDBRANCH  10  11
ENDBRANCH   3   5
ENDBRANCH   2   3
ENDBRANCH   1   2
BRANCH   1  67
ATOM     67  C   UNL A   1      35.260  34.142  34.645  1.00  0.00     0.275 C 
BRANCH  67  68
ATOM     68  O   UNL A   1      37.262  33.907  34.986  1.00  0.00    -0.458 OA
BRANCH  68  69
ATOM     69  C   UNL A   1      38.619  34.568  34.613  1.00  0.00     0.339 C 
ATOM     70  O   UNL A   1      39.070  35.558  35.237  1.00  0.00    -0.246 OA
BRANCH  69  71
ATOM     71  C   UNL A   1      39.414  34.543  33.387  1.00  0.00     0.072 A 
ATOM     72  C   UNL A   1      38.537  34.574  32.225  1.00  0.00     0.016 A 
ATOM     73  C   UNL A   1      40.747  34.237  33.192  1.00  0.00     0.054 A 
ATOM     74  C   UNL A   1      38.927  34.438  30.914  1.00  0.00     0.001 A 
ATOM     75  C   UNL A   1      41.133  34.098  31.814  1.00  0.00     0.015 A 
ATOM     76  C   UNL A   1      40.258  34.217  30.707  1.00  0.00     0.001 A 
BRANCH  73  77
ATOM     77  C   UNL A   1      41.883  34.174  34.183  1.00  0.00     0.256 C 
ATOM     78  O   UNL A   1      42.131  35.219  34.798  1.00  0.00    -0.269 OA
ATOM     79  N   UNL A   1      42.593  33.070  34.618  1.00  0.00    -0.322 N 
ATOM     80  H   UNL A   1      43.076  33.206  35.464  1.00  0.00     0.170 HD
BRANCH  79  81
ATOM     81  C   UNL A   1      42.746  31.790  34.067  1.00  0.00     0.041 A 
ATOM     82  C   UNL A   1      43.908  31.783  32.744  1.00  0.00     0.028 A 
ATOM     83  C   UNL A   1      42.546  30.421  35.142  1.00  0.00     0.028 A 
ATOM     84  C   UNL A   1      45.049  30.484  32.487  1.00  0.00     0.029 A 
ATOM     85  C   UNL A   1      43.735  29.065  34.966  1.00  0.00     0.029 A 
ATOM     86  C   UNL A   1      45.037  29.064  33.537  1.00  0.00     0.052 A 
BRANCH  86  87
ATOM     87  N   UNL A   1      45.877  27.764  32.807  1.00  0.00    -0.250 N 
ATOM     88  C   UNL A   1      46.769  26.852  33.442  1.00  0.00     0.237 C 
ATOM     89  C   UNL A   1      46.189  27.568  31.425  1.00  0.00     0.237 C 
ATOM     90  O   UNL A   1      46.502  25.908  34.174  1.00  0.00    -0.274 OA
ATOM     91  C   UNL A   1      48.045  26.967  32.662  1.00  0.00     0.095 C 
ATOM     92  C   UNL A   1      47.391  26.596  31.359  1.00  0.00     0.095 C 
ATOM     93  O   UNL A   1      45.606  27.912  30.411  1.00  0.00    -0.274 OA
ATOM     94  C   UNL A   1      49.430  26.325  32.620  1.00  0.00     0.002 C 
ATOM     95  C   UNL A   1      48.646  26.363  30.500  1.00  0.00     0.002 C 
ATOM     96  C   UNL A   1      50.346  27.386  31.935  1.00  0.00     0.005 C 
ATOM     97  C   UNL A   1      49.344  25.342  31.452  1.00  0.00     0.009 C 
ATOM     98  C   UNL A   1      49.701  27.503  30.526  1.00  0.00     0.005 C 
ENDBRANCH  86  87
ENDBRANCH  79  81
ENDBRANCH  73  77
ENDBRANCH  69  71
ENDBRANCH  68  69
ENDBRANCH  67  68
ENDBRANCH   1  67
TORSDOF 17
ENDMDL
MODEL 2
REMARK VINA RESULT:     -10.8      1.593      2.185
REMARK SMILES O=C(OCCOC(=O)c1ccccc1C(=O)Nc1ccc(N2C(=O)[C@H]3[C@@H]4CC[C@@H](C4)[C@@H]3C2=O)cc1)c1ccc(-c2c3nc(c(-c4ccc(S(=O)(=O)[O-])cc4)c4ccc([nH]4)c(-c4ccc(S(=O)(=O)[O-])cc4)c4nc(c(-c5ccc(S(=O)(=O)[O-])cc5)c5ccc2[nH]5)C=C4)C=C3)cc1
REMARK SMILES IDX 4 1 3 2 2 3 1 4 36 5 37 6 95 7 38 8 94 9 39 10 40 11 41 12
REMARK SMILES IDX 88 13 42 14 93 15 87 16 89 17 43 18 92 19 86 20 85 21 44 23
REMARK SMILES IDX 74 24 55 25 73 26 56 27 59 28 72 29 90 30 57 31 58 32 71 34
REMARK SMILES IDX 91 35 60 36 45 37 46 38 54 39 47 40 53 41 48 42 49 43 50 44
REMARK SMILES IDX 51 45 52 46 75 47 76 48 84 49 77 50 83 51 78 52 79 53 80 54
REMARK SMILES IDX 81 55 82 56 61 57 62 58 70 59 63 60 69 61 64 62 65 63 66 64
REMARK SMILES IDX 67 65 68 66 5 67 6 68 7 69 8 70 9 71 10 72 14 73 11 74 13 75
REMARK SMILES IDX 12 76 15 77 16 78 17 79 18 81 19 82 35 83 20 84 34 85 21 86
REMARK SMILES IDX 22 87 23 88 32 89 24 90 25 91 31 92 33 93 26 94 29 95 27 96
REMARK SMILES IDX 30 97 28 98
REMARK H PARENT 89 22 59 33 17 80
REMARK Flexibility Score: inf
ROOT
ATOM      1  C   UNL A   1      34.284  34.019  31.556  1.00  0.00     0.275 C 
ENDROOT
BRANCH   1   2
ATOM      2  O   UNL A   1      34.685  32.419  30.700  1.00  0.00    -0.458 OA
BRANCH   2   3
ATOM      3  C   UNL A   1      35.582  31.757  29.472  1.00  0.00     0.338 C 
ATOM      4  O   UNL A   1      35.137  32.108  28.367  1.00  0.00    -0.246 OA
BRANCH   3   5
ATOM      5  C   UNL A   1      37.040  30.705  29.307  1.00  0.00     0.060 A 
ATOM      6  C   UNL A   1      37.512  29.884  28.240  1.00  0.00     0.016 A 
ATOM      7  C   UNL A   1      38.054  30.664  30.289  1.00  0.00     0.016 A 
ATOM      8  C   UNL A   1      38.850  29.412  27.943  1.00  0.00     0.010 A 
ATOM      9  C   UNL A   1      39.440  30.103  30.054  1.00  0.00     0.010 A 
ATOM     10  C   UNL A   1      39.899  29.571  28.819  1.00  0.00    -0.014 A 
BRANCH  10  11
ATOM     11  C   UNL A   1      41.318  29.074  28.401  1.00  0.00     0.031 A 
ATOM     12  C   UNL A   1      42.514  30.003  28.476  1.00  0.00     0.074 A 
ATOM     13  C   UNL A   1      41.708  27.773  28.238  1.00  0.00     0.049 A 
ATOM     14  N   UNL A   1      43.786  29.743  28.256  1.00  0.00    -0.248 NA
ATOM     15  C   UNL A   1      42.255  31.362  28.957  1.00  0.00     0.031 C 
ATOM     16  C   UNL A   1      40.887  26.629  28.559  1.00  0.00     0.029 A 
ATOM     17  N   UNL A   1      42.894  27.158  27.827  1.00  0.00    -0.354 N 
ATOM     18  C   UNL A   1      44.487  30.885  28.618  1.00  0.00     0.074 A 
ATOM     19  C   UNL A   1      43.485  31.853  29.036  1.00  0.00     0.031 C 
ATOM     20  C   UNL A   1      41.487  25.480  28.200  1.00  0.00     0.029 A 
ATOM     21  C   UNL A   1      42.813  25.776  27.682  1.00  0.00     0.049 A 
ATOM     22  H   UNL A   1      43.723  27.663  27.655  1.00  0.00     0.167 HD
ATOM     23  C   UNL A   1      45.824  31.121  28.627  1.00  0.00     0.031 A 
ATOM     24  C   UNL A   1      43.672  24.820  27.240  1.00  0.00     0.031 A 
ATOM     25  C   UNL A   1      46.865  30.219  28.187  1.00  0.00     0.049 A 
ATOM     26  C   UNL A   1      45.112  25.180  26.964  1.00  0.00     0.074 A 
ATOM     27  C   UNL A   1      48.221  30.485  28.044  1.00  0.00     0.029 A 
ATOM     28  N   UNL A   1      46.692  28.894  27.825  1.00  0.00    -0.354 N 
ATOM     29  N   UNL A   1      45.721  26.312  27.207  1.00  0.00    -0.248 NA
ATOM     30  C   UNL A   1      45.997  24.134  26.416  1.00  0.00     0.031 C 
ATOM     31  C   UNL A   1      48.854  29.344  27.539  1.00  0.00     0.029 A 
ATOM     32  C   UNL A   1      47.907  28.343  27.426  1.00  0.00     0.049 A 
ATOM     33  H   UNL A   1      45.834  28.411  27.848  1.00  0.00     0.167 HD
ATOM     34  C   UNL A   1      47.058  26.101  26.891  1.00  0.00     0.074 A 
ATOM     35  C   UNL A   1      47.182  24.731  26.448  1.00  0.00     0.031 C 
ATOM     36  C   UNL A   1      48.083  26.984  26.980  1.00  0.00     0.031 A 
BRANCH  23  37
ATOM     37  C   UNL A   1      46.245  32.497  29.068  1.00  0.00    -0.014 A 
ATOM     38  C   UNL A   1      46.363  33.556  28.152  1.00  0.00     0.010 A 
ATOM     39  C   UNL A   1      46.537  32.720  30.426  1.00  0.00     0.010 A 
ATOM     40  C   UNL A   1      46.826  34.803  28.579  1.00  0.00     0.020 A 
ATOM     41  C   UNL A   1      46.976  33.972  30.860  1.00  0.00     0.020 A 
ATOM     42  C   UNL A   1      47.143  34.998  29.928  1.00  0.00     0.054 A 
BRANCH  42  43
ATOM     43  S   UNL A   1      47.783  36.611  30.451  1.00  0.00     0.124 S 
ATOM     44  O   UNL A   1      47.509  36.591  31.886  1.00  0.00    -0.237 OA
ATOM     45  O   UNL A   1      49.194  36.533  30.079  1.00  0.00    -0.237 OA
ATOM     46  O   UNL A   1      46.991  37.566  29.682  1.00  0.00    -0.744 OA
ENDBRANCH  42  43
ENDBRANCH  23  37
BRANCH  24  47
ATOM     47  C   UNL A   1      43.226  23.401  26.975  1.00  0.00    -0.014 A 
ATOM     48  C   UNL A   1      42.899  22.502  28.010  1.00  0.00     0.010 A 
ATOM     49  C   UNL A   1      43.276  22.898  25.658  1.00  0.00     0.010 A 
ATOM     50  C   UNL A   1      42.682  21.138  27.745  1.00  0.00     0.020 A 
ATOM     51  C   UNL A   1      43.035  21.544  25.384  1.00  0.00     0.020 A 
ATOM     52  C   UNL A   1      42.760  20.665  26.433  1.00  0.00     0.054 A 
BRANCH  52  53
ATOM     53  S   UNL A   1      42.508  18.891  26.107  1.00  0.00     0.124 S 
ATOM     54  O   UNL A   1      42.833  18.292  27.399  1.00  0.00    -0.237 OA
ATOM     55  O   UNL A   1      41.101  18.833  25.722  1.00  0.00    -0.237 OA
ATOM     56  O   UNL A   1      43.454  18.602  25.031  1.00  0.00    -0.744 OA
ENDBRANCH  52  53
ENDBRANCH  24  47
BRANCH  36  57
ATOM     57  C   UNL A   1      49.468  26.506  26.613  1.00  0.00    -0.014 A 
ATOM     58  C   UNL A   1      49.970  26.642  25.305  1.00  0.00     0.010 A 
ATOM     59  C   UNL A   1      50.302  25.947  27.600  1.00  0.00     0.010 A 
ATOM     60  C   UNL A   1      51.263  26.209  24.987  1.00  0.00     0.020 A 
ATOM     61  C   UNL A   1      51.605  25.536  27.293  1.00  0.00     0.020 A 
ATOM     62  C   UNL A   1      52.074  25.659  25.984  1.00  0.00     0.054 A 
BRANCH  62  63
ATOM     63  S   UNL A   1      53.764  25.152  25.558  1.00  0.00     0.124 S 
ATOM     64  O   UNL A   1      54.315  26.376  24.980  1.00  0.00    -0.237 OA
ATOM     65  O   UNL A   1      54.320  24.764  26.852  1.00  0.00    -0.237 OA
ATOM     66  O   UNL A   1      53.571  24.052  24.616  1.00  0.00    -0.744 OA
ENDBRANCH  62  63
ENDBRANCH  36  57
ENDBRANCH  10  11
ENDBRANCH   3   5
ENDBRANCH   2   3
ENDBRANCH   1   2
BRANCH   1  67
ATOM     67  C   UNL A   1      34.609  34.054  33.462  1.00  0.00     0.275 C 
BRANCH  67  68
ATOM     68  O   UNL A   1      36.564  33.726  33.960  1.00  0.00    -0.458 OA
BRANCH  68  69
ATOM     69  C   UNL A   1      37.980  34.295  33.660  1.00  0.00     0.339 C 
ATOM     70  O   UNL A   1      38.521  35.154  34.397  1.00  0.00    -0.246 OA
BRANCH  69  71
ATOM     71  C   UNL A   1      38.774  34.343  32.434  1.00  0.00     0.072 A 
ATOM     72  C   UNL A   1      37.896  34.371  31.273  1.00  0.00     0.016 A 
ATOM     73  C   UNL A   1      40.120  34.103  32.231  1.00  0.00     0.054 A 
ATOM     74  C   UNL A   1      38.291  34.294  29.959  1.00  0.00     0.001 A 
ATOM     75  C   UNL A   1      40.511  34.024  30.849  1.00  0.00     0.015 A 
ATOM     76  C   UNL A   1      39.630  34.139  29.746  1.00  0.00     0.001 A 
BRANCH  73  77
ATOM     77  C   UNL A   1      41.258  34.059  33.220  1.00  0.00     0.256 C 
ATOM     78  O   UNL A   1      41.883  35.114  33.381  1.00  0.00    -0.269 OA
ATOM     79  N   UNL A   1      41.610  33.044  34.091  1.00  0.00    -0.322 N 
ATOM     80  H   UNL A   1      42.185  33.331  34.837  1.00  0.00     0.170 HD
BRANCH  79  81
ATOM     81  C   UNL A   1      41.293  31.679  34.101  1.00  0.00     0.041 A 
ATOM     82  C   UNL A   1      42.034  30.826  32.751  1.00  0.00     0.028 A 
ATOM     83  C   UNL A   1      41.043  30.921  35.661  1.00  0.00     0.028 A 
ATOM     84  C   UNL A   1      42.710  29.221  32.895  1.00  0.00     0.029 A 
ATOM     85  C   UNL A   1      41.771  29.278  35.895  1.00  0.00     0.029 A 
ATOM     86  C   UNL A   1      42.618  28.348  34.428  1.00  0.00     0.052 A 
BRANCH  86  87
ATOM     87  N   UNL A   1      42.891  26.675  34.189  1.00  0.00    -0.250 N 
ATOM     88  C   UNL A   1      42.552  25.614  35.077  1.00  0.00     0.237 C 
ATOM     89  C   UNL A   1      43.828  26.041  33.315  1.00  0.00     0.237 C 
ATOM     90  O   UNL A   1      41.452  25.123  35.296  1.00  0.00    -0.274 OA
ATOM     91  C   UNL A   1      43.848  24.898  35.322  1.00  0.00     0.095 C 
ATOM     92  C   UNL A   1      44.074  24.614  33.862  1.00  0.00     0.095 C 
ATOM     93  O   UNL A   1      44.289  26.386  32.240  1.00  0.00    -0.274 OA
ATOM     94  C   UNL A   1      44.358  23.663  36.060  1.00  0.00     0.002 C 
ATOM     95  C   UNL A   1      45.225  23.600  33.974  1.00  0.00     0.002 C 
ATOM     96  C   UNL A   1      45.873  23.939  36.311  1.00  0.00     0.005 C 
ATOM     97  C   UNL A   1      44.519  22.616  34.958  1.00  0.00     0.009 C 
ATOM     98  C   UNL A   1      46.423  24.036  34.861  1.00  0.00     0.005 C 
ENDBRANCH  86  87
ENDBRANCH  79  81
ENDBRANCH  73  77
ENDBRANCH  69  71
ENDBRANCH  68  69
ENDBRANCH  67  68
ENDBRANCH   1  67
TORSDOF 17
ENDMDL
MODEL 3
REMARK VINA RESULT:     -10.3      1.169      7.757
REMARK SMILES O=C(OCCOC(=O)c1ccccc1C(=O)Nc1ccc(N2C(=O)[C@H]3[C@@H]4CC[C@@H](C4)[C@@H]3C2=O)cc1)c1ccc(-c2c3nc(c(-c4ccc(S(=O)(=O)[O-])cc4)c4ccc([nH]4)c(-c4ccc(S(=O)(=O)[O-])cc4)c4nc(c(-c5ccc(S(=O)(=O)[O-])cc5)c5ccc2[nH]5)C=C4)C=C3)cc1
REMARK SMILES IDX 4 1 3 2 2 3 1 4 36 5 37 6 95 7 38 8 94 9 39 10 40 11 41 12
REMARK SMILES IDX 88 13 42 14 93 15 87 16 89 17 43 18 92 19 86 20 85 21 44 23
REMARK SMILES IDX 74 24 55 25 73 26 56 27 59 28 72 29 90 30 57 31 58 32 71 34
REMARK SMILES IDX 91 35 60 36 45 37 46 38 54 39 47 40 53 41 48 42 49 43 50 44
REMARK SMILES IDX 51 45 52 46 75 47 76 48 84 49 77 50 83 51 78 52 79 53 80 54
REMARK SMILES IDX 81 55 82 56 61 57 62 58 70 59 63 60 69 61 64 62 65 63 66 64
REMARK SMILES IDX 67 65 68 66 5 67 6 68 7 69 8 70 9 71 10 72 14 73 11 74 13 75
REMARK SMILES IDX 12 76 15 77 16 78 17 79 18 81 19 82 35 83 20 84 34 85 21 86
REMARK SMILES IDX 22 87 23 88 32 89 24 90 25 91 31 92 33 93 26 94 29 95 27 96
REMARK SMILES IDX 30 97 28 98
REMARK H PARENT 89 22 59 33 17 80
REMARK Flexibility Score: inf
ROOT
ATOM      1  C   UNL A   1      34.456  33.980  30.646  1.00  0.00     0.275 C 
ENDROOT
BRANCH   1   2
ATOM      2  O   UNL A   1      35.231  32.392  30.070  1.00  0.00    -0.458 OA
BRANCH   2   3
ATOM      3  C   UNL A   1      36.314  31.757  28.987  1.00  0.00     0.338 C 
ATOM      4  O   UNL A   1      35.981  32.034  27.823  1.00  0.00    -0.246 OA
BRANCH   3   5
ATOM      5  C   UNL A   1      37.854  30.816  29.040  1.00  0.00     0.060 A 
ATOM      6  C   UNL A   1      38.448  29.899  28.123  1.00  0.00     0.016 A 
ATOM      7  C   UNL A   1      38.809  30.992  30.066  1.00  0.00     0.016 A 
ATOM      8  C   UNL A   1      39.832  29.503  27.961  1.00  0.00     0.010 A 
ATOM      9  C   UNL A   1      40.243  30.520  29.980  1.00  0.00     0.010 A 
ATOM     10  C   UNL A   1      40.813  29.865  28.855  1.00  0.00    -0.014 A 
BRANCH  10  11
ATOM     11  C   UNL A   1      42.287  29.433  28.579  1.00  0.00     0.031 A 
ATOM     12  C   UNL A   1      42.626  27.982  28.294  1.00  0.00     0.074 A 
ATOM     13  C   UNL A   1      43.330  30.259  28.258  1.00  0.00     0.049 A 
ATOM     14  N   UNL A   1      43.780  27.448  27.954  1.00  0.00    -0.248 NA
ATOM     15  C   UNL A   1      41.507  27.039  28.295  1.00  0.00     0.031 C 
ATOM     16  C   UNL A   1      43.199  31.674  27.995  1.00  0.00     0.029 A 
ATOM     17  N   UNL A   1      44.695  30.060  28.033  1.00  0.00    -0.354 N 
ATOM     18  C   UNL A   1      43.521  26.119  27.650  1.00  0.00     0.074 A 
ATOM     19  C   UNL A   1      42.100  25.924  27.888  1.00  0.00     0.031 C 
ATOM     20  C   UNL A   1      44.399  32.250  27.810  1.00  0.00     0.029 A 
ATOM     21  C   UNL A   1      45.432  31.227  27.853  1.00  0.00     0.049 A 
ATOM     22  H   UNL A   1      45.103  29.164  28.003  1.00  0.00     0.167 HD
ATOM     23  C   UNL A   1      44.358  25.148  27.203  1.00  0.00     0.031 A 
ATOM     24  C   UNL A   1      46.754  31.494  27.693  1.00  0.00     0.031 A 
ATOM     25  C   UNL A   1      45.783  25.266  26.987  1.00  0.00     0.049 A 
ATOM     26  C   UNL A   1      47.727  30.357  27.492  1.00  0.00     0.074 A 
ATOM     27  C   UNL A   1      46.686  24.256  26.675  1.00  0.00     0.029 A 
ATOM     28  N   UNL A   1      46.520  26.436  27.049  1.00  0.00    -0.354 N 
ATOM     29  N   UNL A   1      47.460  29.087  27.327  1.00  0.00    -0.248 NA
ATOM     30  C   UNL A   1      49.164  30.680  27.397  1.00  0.00     0.031 C 
ATOM     31  C   UNL A   1      47.971  24.805  26.611  1.00  0.00     0.029 A 
ATOM     32  C   UNL A   1      47.867  26.168  26.818  1.00  0.00     0.049 A 
ATOM     33  H   UNL A   1      46.147  27.329  27.229  1.00  0.00     0.167 HD
ATOM     34  C   UNL A   1      48.678  28.473  27.060  1.00  0.00     0.074 A 
ATOM     35  C   UNL A   1      49.689  29.506  27.073  1.00  0.00     0.031 C 
ATOM     36  C   UNL A   1      48.912  27.161  26.817  1.00  0.00     0.031 A 
BRANCH  23  37
ATOM     37  C   UNL A   1      43.738  23.793  26.990  1.00  0.00    -0.014 A 
ATOM     38  C   UNL A   1      43.414  23.330  25.703  1.00  0.00     0.010 A 
ATOM     39  C   UNL A   1      43.469  22.981  28.106  1.00  0.00     0.010 A 
ATOM     40  C   UNL A   1      42.773  22.099  25.542  1.00  0.00     0.020 A 
ATOM     41  C   UNL A   1      42.851  21.740  27.947  1.00  0.00     0.020 A 
ATOM     42  C   UNL A   1      42.484  21.319  26.667  1.00  0.00     0.054 A 
BRANCH  42  43
ATOM     43  S   UNL A   1      41.612  19.746  26.440  1.00  0.00     0.124 S 
ATOM     44  O   UNL A   1      42.249  19.223  25.232  1.00  0.00    -0.237 OA
ATOM     45  O   UNL A   1      41.921  19.027  27.674  1.00  0.00    -0.237 OA
ATOM     46  O   UNL A   1      40.216  20.141  26.284  1.00  0.00    -0.744 OA
ENDBRANCH  42  43
ENDBRANCH  23  37
BRANCH  24  47
ATOM     47  C   UNL A   1      47.301  32.902  27.747  1.00  0.00    -0.014 A 
ATOM     48  C   UNL A   1      47.566  33.567  28.962  1.00  0.00     0.010 A 
ATOM     49  C   UNL A   1      47.416  33.643  26.553  1.00  0.00     0.010 A 
ATOM     50  C   UNL A   1      47.883  34.937  28.985  1.00  0.00     0.020 A 
ATOM     51  C   UNL A   1      47.757  35.003  26.567  1.00  0.00     0.020 A 
ATOM     52  C   UNL A   1      47.967  35.650  27.786  1.00  0.00     0.054 A 
BRANCH  52  53
ATOM     53  S   UNL A   1      48.346  37.431  27.832  1.00  0.00     0.124 S 
ATOM     54  O   UNL A   1      49.412  37.544  26.840  1.00  0.00    -0.237 OA
ATOM     55  O   UNL A   1      47.072  38.038  27.460  1.00  0.00    -0.237 OA
ATOM     56  O   UNL A   1      48.757  37.659  29.216  1.00  0.00    -0.744 OA
ENDBRANCH  52  53
ENDBRANCH  24  47
BRANCH  36  57
ATOM     57  C   UNL A   1      50.328  26.735  26.512  1.00  0.00    -0.014 A 
ATOM     58  C   UNL A   1      51.200  26.301  27.528  1.00  0.00     0.010 A 
ATOM     59  C   UNL A   1      50.788  26.726  25.181  1.00  0.00     0.010 A 
ATOM     60  C   UNL A   1      52.505  25.892  27.224  1.00  0.00     0.020 A 
ATOM     61  C   UNL A   1      52.083  26.295  24.869  1.00  0.00     0.020 A 
ATOM     62  C   UNL A   1      52.939  25.891  25.896  1.00  0.00     0.054 A 
BRANCH  62  63
ATOM     63  S   UNL A   1      54.617  25.309  25.522  1.00  0.00     0.124 S 
ATOM     64  O   UNL A   1      54.806  25.778  24.152  1.00  0.00    -0.237 OA
ATOM     65  O   UNL A   1      55.425  25.986  26.534  1.00  0.00    -0.237 OA
ATOM     66  O   UNL A   1      54.525  23.859  25.676  1.00  0.00    -0.744 OA
ENDBRANCH  62  63
ENDBRANCH  36  57
ENDBRANCH  10  11
ENDBRANCH   3   5
ENDBRANCH   2   3
ENDBRANCH   1   2
BRANCH   1  67
ATOM     67  C   UNL A   1      34.848  34.491  32.470  1.00  0.00     0.275 C 
BRANCH  67  68
ATOM     68  O   UNL A   1      36.666  33.826  33.127  1.00  0.00    -0.458 OA
BRANCH  68  69
ATOM     69  C   UNL A   1      38.140  34.306  33.235  1.00  0.00     0.339 C 
ATOM     70  O   UNL A   1      38.511  35.122  34.113  1.00  0.00    -0.246 OA
BRANCH  69  71
ATOM     71  C   UNL A   1      39.239  34.316  32.271  1.00  0.00     0.072 A 
ATOM     72  C   UNL A   1      38.736  34.655  30.948  1.00  0.00     0.016 A 
ATOM     73  C   UNL A   1      40.524  33.818  32.375  1.00  0.00     0.054 A 
ATOM     74  C   UNL A   1      39.460  34.637  29.779  1.00  0.00     0.001 A 
ATOM     75  C   UNL A   1      41.262  33.806  31.141  1.00  0.00     0.015 A 
ATOM     76  C   UNL A   1      40.756  34.224  29.886  1.00  0.00     0.001 A 
BRANCH  73  77
ATOM     77  C   UNL A   1      41.317  33.426  33.597  1.00  0.00     0.256 C 
ATOM     78  O   UNL A   1      41.213  34.172  34.579  1.00  0.00    -0.269 OA
ATOM     79  N   UNL A   1      42.029  32.264  33.832  1.00  0.00    -0.322 N 
ATOM     80  H   UNL A   1      42.218  32.089  34.782  1.00  0.00     0.170 HD
BRANCH  79  81
ATOM     81  C   UNL A   1      42.530  31.291  32.957  1.00  0.00     0.041 A 
ATOM     82  C   UNL A   1      44.278  31.406  32.782  1.00  0.00     0.028 A 
ATOM     83  C   UNL A   1      41.683  29.758  32.888  1.00  0.00     0.028 A 
ATOM     84  C   UNL A   1      45.318  30.006  32.675  1.00  0.00     0.029 A 
ATOM     85  C   UNL A   1      42.705  28.263  32.834  1.00  0.00     0.029 A 
ATOM     86  C   UNL A   1      44.628  28.379  32.677  1.00  0.00     0.052 A 
BRANCH  86  87
ATOM     87  N   UNL A   1      45.760  27.241  32.083  1.00  0.00    -0.250 N 
ATOM     88  C   UNL A   1      46.586  26.370  32.849  1.00  0.00     0.237 C 
ATOM     89  C   UNL A   1      46.399  27.203  30.803  1.00  0.00     0.237 C 
ATOM     90  O   UNL A   1      46.274  25.341  33.436  1.00  0.00    -0.274 OA
ATOM     91  C   UNL A   1      47.983  26.682  32.401  1.00  0.00     0.095 C 
ATOM     92  C   UNL A   1      47.691  26.366  30.960  1.00  0.00     0.095 C 
ATOM     93  O   UNL A   1      46.025  27.577  29.705  1.00  0.00    -0.274 OA
ATOM     94  C   UNL A   1      49.407  26.187  32.645  1.00  0.00     0.002 C 
ATOM     95  C   UNL A   1      49.126  26.339  30.408  1.00  0.00     0.002 C 
ATOM     96  C   UNL A   1      50.323  27.393  32.265  1.00  0.00     0.005 C 
ATOM     97  C   UNL A   1      49.706  25.311  31.429  1.00  0.00     0.009 C 
ATOM     98  C   UNL A   1      50.005  27.571  30.755  1.00  0.00     0.005 C 
ENDBRANCH  86  87
ENDBRANCH  79  81
ENDBRANCH  73  77
ENDBRANCH  69  71
ENDBRANCH  68  69
ENDBRANCH  67  68
ENDBRANCH   1  67
TORSDOF 17
ENDMDL
