MODEL 1
REMARK VINA RESULT:     -10.8      0.000      0.000
REMARK SMILES O=C1CC[C@H](CNC(=O)N[C@@H]2C=C[C@@H](C(=O)OCCOC(=O)c3ccc(-c4c5nc(c(-c6ccc(S(=O)(=O)[O-])cc6)c6ccc([nH]6)c(-c6ccc(S(=O)(=O)[O-])cc6)c6nc(c(-c7ccc(S(=O)(=O)[O-])cc7)c7ccc4[nH]7)C=C6)C=C5)cc3)C2)N1
REMARK SMILES IDX 18 1 17 2 15 3 16 4 14 5 11 6 12 7 83 8 13 9 10 10 7 11 8 12
REMARK SMILES IDX 9 14 6 16 5 17 1 18 2 19 3 20 84 21 4 22 19 24 20 25 21 26
REMARK SMILES IDX 22 27 23 28 24 29 82 30 25 31 81 32 26 33 27 34 28 35 75 36
REMARK SMILES IDX 29 37 80 38 74 39 76 40 30 41 79 42 73 43 72 44 31 46 61 47
REMARK SMILES IDX 42 48 60 49 43 50 46 51 59 52 77 53 44 54 45 55 58 57 78 58
REMARK SMILES IDX 47 59 32 60 33 61 41 62 34 63 40 64 35 65 36 66 37 67 38 68
REMARK SMILES IDX 39 69 62 70 63 71 71 72 64 73 70 74 65 75 66 76 67 77 68 78
REMARK SMILES IDX 69 79 48 80 49 81 57 82 50 83 56 84 51 85 52 86 53 87 54 88
REMARK SMILES IDX 55 89
REMARK H PARENT 7 13 10 15 84 23 76 45 46 56
REMARK Flexibility Score: inf
ROOT
ATOM      1  C   UNL A   1      40.863  22.407  26.810  1.00  0.00     0.274 C 
ENDROOT
BRANCH   1   2
ATOM      2  O   UNL A   1      39.597  22.775  26.236  1.00  0.00    -0.462 OA
BRANCH   2   3
ATOM      3  C   UNL A   1      38.792  21.795  25.756  1.00  0.00     0.312 C 
ATOM      4  O   UNL A   1      39.047  20.597  25.813  1.00  0.00    -0.252 OA
BRANCH   3   5
ATOM      5  C   UNL A   1      37.480  22.352  25.188  1.00  0.00     0.124 C 
ATOM      6  C   UNL A   1      35.143  21.503  25.239  1.00  0.00     0.107 C 
ATOM      7  C   UNL A   1      35.362  22.647  26.173  1.00  0.00    -0.006 C 
ATOM      8  C   UNL A   1      36.518  21.310  24.604  1.00  0.00     0.048 C 
ATOM      9  C   UNL A   1      36.631  23.073  26.185  1.00  0.00    -0.014 C 
BRANCH   6  10
ATOM     10  N   UNL A   1      34.125  21.821  24.263  1.00  0.00    -0.332 N 
ATOM     11  N   UNL A   1      32.478  20.122  24.515  1.00  0.00    -0.336 N 
ATOM     12  C   UNL A   1      32.938  21.263  23.966  1.00  0.00     0.315 C 
ATOM     13  H   UNL A   1      31.532  19.936  24.319  1.00  0.00     0.165 HD
ATOM     14  O   UNL A   1      32.223  21.828  23.137  1.00  0.00    -0.249 OA
ATOM     15  H   UNL A   1      34.345  22.601  23.704  1.00  0.00     0.165 HD
BRANCH  11  16
ATOM     16  C   UNL A   1      33.119  19.119  25.343  1.00  0.00     0.142 C 
BRANCH  16  17
ATOM     17  C   UNL A   1      32.685  17.665  25.093  1.00  0.00     0.101 C 
ATOM     18  O   UNL A   1      35.492  15.568  25.383  1.00  0.00    -0.275 OA
ATOM     19  C   UNL A   1      34.555  16.235  24.989  1.00  0.00     0.220 C 
ATOM     20  C   UNL A   1      34.270  16.652  23.569  1.00  0.00     0.102 C 
ATOM     21  N   UNL A   1      33.567  16.760  25.795  1.00  0.00    -0.352 N 
ATOM     22  C   UNL A   1      32.846  17.209  23.647  1.00  0.00     0.036 C 
ATOM     23  H   UNL A   1      33.471  16.541  26.750  1.00  0.00     0.163 HD
ENDBRANCH  16  17
ENDBRANCH  11  16
ENDBRANCH   6  10
ENDBRANCH   3   5
ENDBRANCH   2   3
ENDBRANCH   1   2
BRANCH   1  24
ATOM     24  C   UNL A   1      41.983  22.887  25.878  1.00  0.00     0.275 C 
BRANCH  24  25
ATOM     25  O   UNL A   1      42.695  24.000  26.465  1.00  0.00    -0.458 OA
BRANCH  25  26
ATOM     26  C   UNL A   1      42.225  25.222  26.123  1.00  0.00     0.338 C 
ATOM     27  O   UNL A   1      41.887  25.599  25.012  1.00  0.00    -0.246 OA
BRANCH  26  28
ATOM     28  C   UNL A   1      42.038  26.059  27.317  1.00  0.00     0.060 A 
ATOM     29  C   UNL A   1      40.970  25.760  28.163  1.00  0.00     0.016 A 
ATOM     30  C   UNL A   1      42.829  27.183  27.549  1.00  0.00     0.016 A 
ATOM     31  C   UNL A   1      40.674  26.585  29.243  1.00  0.00     0.010 A 
ATOM     32  C   UNL A   1      42.545  28.004  28.647  1.00  0.00     0.010 A 
ATOM     33  C   UNL A   1      41.464  27.711  29.498  1.00  0.00    -0.014 A 
BRANCH  33  34
ATOM     34  C   UNL A   1      41.159  28.558  30.675  1.00  0.00     0.031 A 
ATOM     35  C   UNL A   1      40.025  29.541  30.635  1.00  0.00     0.074 A 
ATOM     36  C   UNL A   1      41.903  28.419  31.789  1.00  0.00     0.049 A 
ATOM     37  N   UNL A   1      39.655  30.403  31.545  1.00  0.00    -0.248 NA
ATOM     38  C   UNL A   1      39.202  29.559  29.416  1.00  0.00     0.031 C 
ATOM     39  C   UNL A   1      43.008  27.471  31.955  1.00  0.00     0.029 A 
ATOM     40  N   UNL A   1      41.847  29.078  32.990  1.00  0.00    -0.354 N 
ATOM     41  C   UNL A   1      38.572  31.086  31.004  1.00  0.00     0.074 A 
ATOM     42  C   UNL A   1      38.347  30.540  29.683  1.00  0.00     0.031 C 
ATOM     43  C   UNL A   1      43.527  27.612  33.185  1.00  0.00     0.029 A 
ATOM     44  C   UNL A   1      42.827  28.691  33.875  1.00  0.00     0.049 A 
ATOM     45  H   UNL A   1      41.172  29.763  33.200  1.00  0.00     0.167 HD
ATOM     46  C   UNL A   1      37.838  32.079  31.561  1.00  0.00     0.031 A 
ATOM     47  C   UNL A   1      43.147  29.172  35.091  1.00  0.00     0.031 A 
ATOM     48  C   UNL A   1      38.063  32.608  32.880  1.00  0.00     0.049 A 
ATOM     49  C   UNL A   1      42.341  30.304  35.665  1.00  0.00     0.074 A 
ATOM     50  C   UNL A   1      37.351  33.596  33.541  1.00  0.00     0.029 A 
ATOM     51  N   UNL A   1      39.071  32.200  33.739  1.00  0.00    -0.354 N 
ATOM     52  N   UNL A   1      41.308  30.923  35.146  1.00  0.00    -0.248 NA
ATOM     53  C   UNL A   1      42.743  30.801  36.988  1.00  0.00     0.031 C 
ATOM     54  C   UNL A   1      37.961  33.819  34.781  1.00  0.00     0.029 A 
ATOM     55  C   UNL A   1      39.020  32.935  34.912  1.00  0.00     0.049 A 
ATOM     56  H   UNL A   1      39.727  31.493  33.543  1.00  0.00     0.167 HD
ATOM     57  C   UNL A   1      40.926  31.872  36.087  1.00  0.00     0.074 A 
ATOM     58  C   UNL A   1      41.826  31.732  37.214  1.00  0.00     0.031 C 
ATOM     59  C   UNL A   1      39.922  32.781  36.024  1.00  0.00     0.031 A 
BRANCH  46  60
ATOM     60  C   UNL A   1      36.740  32.691  30.735  1.00  0.00    -0.014 A 
ATOM     61  C   UNL A   1      35.403  32.283  30.877  1.00  0.00     0.010 A 
ATOM     62  C   UNL A   1      37.045  33.752  29.861  1.00  0.00     0.010 A 
ATOM     63  C   UNL A   1      34.392  32.914  30.146  1.00  0.00     0.020 A 
ATOM     64  C   UNL A   1      36.035  34.398  29.143  1.00  0.00     0.020 A 
ATOM     65  C   UNL A   1      34.714  33.967  29.284  1.00  0.00     0.054 A 
BRANCH  65  66
ATOM     66  S   UNL A   1      33.377  34.799  28.383  1.00  0.00     0.124 S 
ATOM     67  O   UNL A   1      34.119  35.566  27.384  1.00  0.00    -0.237 OA
ATOM     68  O   UNL A   1      32.596  33.681  27.861  1.00  0.00    -0.237 OA
ATOM     69  O   UNL A   1      32.710  35.596  29.409  1.00  0.00    -0.744 OA
ENDBRANCH  65  66
ENDBRANCH  46  60
BRANCH  47  70
ATOM     70  C   UNL A   1      44.319  28.621  35.824  1.00  0.00    -0.014 A 
ATOM     71  C   UNL A   1      45.605  29.155  35.636  1.00  0.00     0.010 A 
ATOM     72  C   UNL A   1      44.148  27.543  36.711  1.00  0.00     0.010 A 
ATOM     73  C   UNL A   1      46.703  28.603  36.302  1.00  0.00     0.020 A 
ATOM     74  C   UNL A   1      45.239  27.006  37.400  1.00  0.00     0.020 A 
ATOM     75  C   UNL A   1      46.513  27.529  37.176  1.00  0.00     0.054 A 
BRANCH  75  76
ATOM     76  S   UNL A   1      47.944  26.842  38.054  1.00  0.00     0.124 S 
ATOM     77  O   UNL A   1      47.520  26.940  39.446  1.00  0.00    -0.237 OA
ATOM     78  O   UNL A   1      48.031  25.488  37.512  1.00  0.00    -0.237 OA
ATOM     79  O   UNL A   1      49.038  27.729  37.666  1.00  0.00    -0.744 OA
ENDBRANCH  75  76
ENDBRANCH  47  70
BRANCH  59  80
ATOM     80  C   UNL A   1      39.725  33.675  37.216  1.00  0.00    -0.014 A 
ATOM     81  C   UNL A   1      40.301  34.955  37.266  1.00  0.00     0.010 A 
ATOM     82  C   UNL A   1      38.911  33.244  38.279  1.00  0.00     0.010 A 
ATOM     83  C   UNL A   1      40.090  35.782  38.372  1.00  0.00     0.020 A 
ATOM     84  C   UNL A   1      38.677  34.077  39.376  1.00  0.00     0.020 A 
ATOM     85  C   UNL A   1      39.280  35.336  39.422  1.00  0.00     0.054 A 
BRANCH  85  86
ATOM     86  S   UNL A   1      38.982  36.443  40.828  1.00  0.00     0.124 S 
ATOM     87  O   UNL A   1      37.975  35.706  41.586  1.00  0.00    -0.237 OA
ATOM     88  O   UNL A   1      40.300  36.531  41.454  1.00  0.00    -0.237 OA
ATOM     89  O   UNL A   1      38.513  37.677  40.202  1.00  0.00    -0.744 OA
ENDBRANCH  85  86
ENDBRANCH  59  80
ENDBRANCH  33  34
ENDBRANCH  26  28
ENDBRANCH  25  26
ENDBRANCH  24  25
ENDBRANCH   1  24
TORSDOF 17
ENDMDL
MODEL 2
REMARK VINA RESULT:     -10.7      2.153      8.954
REMARK SMILES O=C1CC[C@H](CNC(=O)N[C@@H]2C=C[C@@H](C(=O)OCCOC(=O)c3ccc(-c4c5nc(c(-c6ccc(S(=O)(=O)[O-])cc6)c6ccc([nH]6)c(-c6ccc(S(=O)(=O)[O-])cc6)c6nc(c(-c7ccc(S(=O)(=O)[O-])cc7)c7ccc4[nH]7)C=C6)C=C5)cc3)C2)N1
REMARK SMILES IDX 18 1 17 2 15 3 16 4 14 5 11 6 12 7 83 8 13 9 10 10 7 11 8 12
REMARK SMILES IDX 9 14 6 16 5 17 1 18 2 19 3 20 84 21 4 22 19 24 20 25 21 26
REMARK SMILES IDX 22 27 23 28 24 29 82 30 25 31 81 32 26 33 27 34 28 35 75 36
REMARK SMILES IDX 29 37 80 38 74 39 76 40 30 41 79 42 73 43 72 44 31 46 61 47
REMARK SMILES IDX 42 48 60 49 43 50 46 51 59 52 77 53 44 54 45 55 58 57 78 58
REMARK SMILES IDX 47 59 32 60 33 61 41 62 34 63 40 64 35 65 36 66 37 67 38 68
REMARK SMILES IDX 39 69 62 70 63 71 71 72 64 73 70 74 65 75 66 76 67 77 68 78
REMARK SMILES IDX 69 79 48 80 49 81 57 82 50 83 56 84 51 85 52 86 53 87 54 88
REMARK SMILES IDX 55 89
REMARK H PARENT 7 13 10 15 84 23 76 45 46 56
REMARK Flexibility Score: inf
ROOT
ATOM      1  C   UNL A   1      37.520  22.380  25.844  1.00  0.00     0.274 C 
ENDROOT
BRANCH   1   2
ATOM      2  O   UNL A   1      37.362  22.481  24.418  1.00  0.00    -0.462 OA
BRANCH   2   3
ATOM      3  C   UNL A   1      36.146  22.816  23.921  1.00  0.00     0.312 C 
ATOM      4  O   UNL A   1      35.967  23.381  22.848  1.00  0.00    -0.252 OA
BRANCH   3   5
ATOM      5  C   UNL A   1      35.001  22.342  24.826  1.00  0.00     0.124 C 
ATOM      6  C   UNL A   1      32.602  22.983  24.962  1.00  0.00     0.107 C 
ATOM      7  C   UNL A   1      32.808  21.648  24.325  1.00  0.00    -0.006 C 
ATOM      8  C   UNL A   1      34.025  23.433  25.282  1.00  0.00     0.048 C 
ATOM      9  C   UNL A   1      34.101  21.323  24.205  1.00  0.00    -0.014 C 
BRANCH   6  10
ATOM     10  N   UNL A   1      31.780  22.869  26.145  1.00  0.00    -0.332 N 
ATOM     11  N   UNL A   1      29.994  24.403  25.804  1.00  0.00    -0.336 N 
ATOM     12  C   UNL A   1      30.618  23.441  26.509  1.00  0.00     0.315 C 
ATOM     13  H   UNL A   1      29.080  24.599  26.114  1.00  0.00     0.165 HD
ATOM     14  O   UNL A   1      30.089  23.062  27.555  1.00  0.00    -0.249 OA
ATOM     15  H   UNL A   1      32.143  22.250  26.819  1.00  0.00     0.165 HD
BRANCH  11  16
ATOM     16  C   UNL A   1      30.418  25.205  24.673  1.00  0.00     0.142 C 
BRANCH  16  17
ATOM     17  C   UNL A   1      30.695  26.689  24.968  1.00  0.00     0.101 C 
ATOM     18  O   UNL A   1      34.047  27.405  24.183  1.00  0.00    -0.275 OA
ATOM     19  C   UNL A   1      32.989  27.179  24.738  1.00  0.00     0.220 C 
ATOM     20  C   UNL A   1      32.778  26.843  26.192  1.00  0.00     0.102 C 
ATOM     21  N   UNL A   1      31.758  27.171  24.115  1.00  0.00    -0.352 N 
ATOM     22  C   UNL A   1      31.260  26.950  26.360  1.00  0.00     0.036 C 
ATOM     23  H   UNL A   1      31.618  27.464  23.185  1.00  0.00     0.163 HD
ENDBRANCH  16  17
ENDBRANCH  11  16
ENDBRANCH   6  10
ENDBRANCH   3   5
ENDBRANCH   2   3
ENDBRANCH   1   2
BRANCH   1  24
ATOM     24  C   UNL A   1      38.971  22.720  26.204  1.00  0.00     0.275 C 
BRANCH  24  25
ATOM     25  O   UNL A   1      39.077  24.085  26.666  1.00  0.00    -0.458 OA
BRANCH  25  26
ATOM     26  C   UNL A   1      40.342  24.551  26.784  1.00  0.00     0.338 C 
ATOM     27  O   UNL A   1      41.297  24.285  26.072  1.00  0.00    -0.246 OA
BRANCH  26  28
ATOM     28  C   UNL A   1      40.424  25.564  27.846  1.00  0.00     0.060 A 
ATOM     29  C   UNL A   1      39.358  25.658  28.744  1.00  0.00     0.016 A 
ATOM     30  C   UNL A   1      41.475  26.477  27.901  1.00  0.00     0.016 A 
ATOM     31  C   UNL A   1      39.327  26.671  29.696  1.00  0.00     0.010 A 
ATOM     32  C   UNL A   1      41.454  27.486  28.873  1.00  0.00     0.010 A 
ATOM     33  C   UNL A   1      40.379  27.590  29.773  1.00  0.00    -0.014 A 
BRANCH  33  34
ATOM     34  C   UNL A   1      40.348  28.639  30.819  1.00  0.00     0.031 A 
ATOM     35  C   UNL A   1      41.259  28.557  32.010  1.00  0.00     0.074 A 
ATOM     36  C   UNL A   1      39.505  29.679  30.675  1.00  0.00     0.049 A 
ATOM     37  N   UNL A   1      41.325  29.349  33.047  1.00  0.00    -0.248 NA
ATOM     38  C   UNL A   1      42.218  27.442  32.040  1.00  0.00     0.031 C 
ATOM     39  C   UNL A   1      38.598  29.882  29.541  1.00  0.00     0.029 A 
ATOM     40  N   UNL A   1      39.267  30.758  31.488  1.00  0.00    -0.354 N 
ATOM     41  C   UNL A   1      42.313  28.819  33.868  1.00  0.00     0.074 A 
ATOM     42  C   UNL A   1      42.817  27.633  33.209  1.00  0.00     0.031 C 
ATOM     43  C   UNL A   1      37.901  31.013  29.733  1.00  0.00     0.029 A 
ATOM     44  C   UNL A   1      38.274  31.588  31.021  1.00  0.00     0.049 A 
ATOM     45  H   UNL A   1      39.757  30.921  32.325  1.00  0.00     0.167 HD
ATOM     46  C   UNL A   1      42.753  29.281  35.063  1.00  0.00     0.031 A 
ATOM     47  C   UNL A   1      37.705  32.671  31.582  1.00  0.00     0.031 A 
ATOM     48  C   UNL A   1      42.253  30.467  35.706  1.00  0.00     0.049 A 
ATOM     49  C   UNL A   1      38.185  33.135  32.930  1.00  0.00     0.074 A 
ATOM     50  C   UNL A   1      42.659  31.029  36.905  1.00  0.00     0.029 A 
ATOM     51  N   UNL A   1      41.241  31.273  35.209  1.00  0.00    -0.354 N 
ATOM     52  N   UNL A   1      39.134  32.631  33.682  1.00  0.00    -0.248 NA
ATOM     53  C   UNL A   1      37.518  34.312  33.504  1.00  0.00     0.031 C 
ATOM     54  C   UNL A   1      41.856  32.148  37.157  1.00  0.00     0.029 A 
ATOM     55  C   UNL A   1      40.987  32.311  36.090  1.00  0.00     0.049 A 
ATOM     56  H   UNL A   1      40.770  31.128  34.357  1.00  0.00     0.167 HD
ATOM     57  C   UNL A   1      39.190  33.440  34.810  1.00  0.00     0.074 A 
ATOM     58  C   UNL A   1      38.193  34.477  34.633  1.00  0.00     0.031 C 
ATOM     59  C   UNL A   1      39.992  33.334  35.898  1.00  0.00     0.031 A 
BRANCH  46  60
ATOM     60  C   UNL A   1      43.808  28.484  35.781  1.00  0.00    -0.014 A 
ATOM     61  C   UNL A   1      43.466  27.516  36.741  1.00  0.00     0.010 A 
ATOM     62  C   UNL A   1      45.160  28.651  35.425  1.00  0.00     0.010 A 
ATOM     63  C   UNL A   1      44.460  26.742  37.345  1.00  0.00     0.020 A 
ATOM     64  C   UNL A   1      46.154  27.866  36.014  1.00  0.00     0.020 A 
ATOM     65  C   UNL A   1      45.798  26.921  36.979  1.00  0.00     0.054 A 
BRANCH  65  66
ATOM     66  S   UNL A   1      47.063  25.870  37.745  1.00  0.00     0.124 S 
ATOM     67  O   UNL A   1      47.837  25.436  36.583  1.00  0.00    -0.237 OA
ATOM     68  O   UNL A   1      47.748  26.795  38.644  1.00  0.00    -0.237 OA
ATOM     69  O   UNL A   1      46.290  24.821  38.405  1.00  0.00    -0.744 OA
ENDBRANCH  65  66
ENDBRANCH  46  60
BRANCH  47  70
ATOM     70  C   UNL A   1      36.578  33.359  30.896  1.00  0.00    -0.014 A 
ATOM     71  C   UNL A   1      36.765  33.990  29.654  1.00  0.00     0.010 A 
ATOM     72  C   UNL A   1      35.306  33.393  31.497  1.00  0.00     0.010 A 
ATOM     73  C   UNL A   1      35.707  34.666  29.039  1.00  0.00     0.020 A 
ATOM     74  C   UNL A   1      34.239  34.044  30.872  1.00  0.00     0.020 A 
ATOM     75  C   UNL A   1      34.453  34.692  29.655  1.00  0.00     0.054 A 
BRANCH  75  76
ATOM     76  S   UNL A   1      33.083  35.550  28.830  1.00  0.00     0.124 S 
ATOM     77  O   UNL A   1      33.789  36.551  28.037  1.00  0.00    -0.237 OA
ATOM     78  O   UNL A   1      32.444  34.477  28.072  1.00  0.00    -0.237 OA
ATOM     79  O   UNL A   1      32.292  36.073  29.941  1.00  0.00    -0.744 OA
ENDBRANCH  75  76
ENDBRANCH  47  70
BRANCH  59  80
ATOM     80  C   UNL A   1      39.846  34.381  36.967  1.00  0.00    -0.014 A 
ATOM     81  C   UNL A   1      39.041  34.156  38.097  1.00  0.00     0.010 A 
ATOM     82  C   UNL A   1      40.564  35.586  36.862  1.00  0.00     0.010 A 
ATOM     83  C   UNL A   1      38.934  35.131  39.092  1.00  0.00     0.020 A 
ATOM     84  C   UNL A   1      40.479  36.553  37.867  1.00  0.00     0.020 A 
ATOM     85  C   UNL A   1      39.652  36.325  38.969  1.00  0.00     0.054 A 
BRANCH  85  86
ATOM     86  S   UNL A   1      39.534  37.557  40.294  1.00  0.00     0.124 S 
ATOM     87  O   UNL A   1      40.933  37.921  40.497  1.00  0.00    -0.237 OA
ATOM     88  O   UNL A   1      38.695  38.594  39.697  1.00  0.00    -0.237 OA
ATOM     89  O   UNL A   1      38.913  36.823  41.395  1.00  0.00    -0.744 OA
ENDBRANCH  85  86
ENDBRANCH  59  80
ENDBRANCH  33  34
ENDBRANCH  26  28
ENDBRANCH  25  26
ENDBRANCH  24  25
ENDBRANCH   1  24
TORSDOF 17
ENDMDL
MODEL 3
REMARK VINA RESULT:     -10.7      6.317     10.997
REMARK SMILES O=C1CC[C@H](CNC(=O)N[C@@H]2C=C[C@@H](C(=O)OCCOC(=O)c3ccc(-c4c5nc(c(-c6ccc(S(=O)(=O)[O-])cc6)c6ccc([nH]6)c(-c6ccc(S(=O)(=O)[O-])cc6)c6nc(c(-c7ccc(S(=O)(=O)[O-])cc7)c7ccc4[nH]7)C=C6)C=C5)cc3)C2)N1
REMARK SMILES IDX 18 1 17 2 15 3 16 4 14 5 11 6 12 7 83 8 13 9 10 10 7 11 8 12
REMARK SMILES IDX 9 14 6 16 5 17 1 18 2 19 3 20 84 21 4 22 19 24 20 25 21 26
REMARK SMILES IDX 22 27 23 28 24 29 82 30 25 31 81 32 26 33 27 34 28 35 75 36
REMARK SMILES IDX 29 37 80 38 74 39 76 40 30 41 79 42 73 43 72 44 31 46 61 47
REMARK SMILES IDX 42 48 60 49 43 50 46 51 59 52 77 53 44 54 45 55 58 57 78 58
REMARK SMILES IDX 47 59 32 60 33 61 41 62 34 63 40 64 35 65 36 66 37 67 38 68
REMARK SMILES IDX 39 69 62 70 63 71 71 72 64 73 70 74 65 75 66 76 67 77 68 78
REMARK SMILES IDX 69 79 48 80 49 81 57 82 50 83 56 84 51 85 52 86 53 87 54 88
REMARK SMILES IDX 55 89
REMARK H PARENT 7 13 10 15 84 23 76 45 46 56
REMARK Flexibility Score: inf
ROOT
ATOM      1  C   UNL A   1      41.725  19.790  27.627  1.00  0.00     0.274 C 
ENDROOT
BRANCH   1   2
ATOM      2  O   UNL A   1      40.590  20.672  27.647  1.00  0.00    -0.462 OA
BRANCH   2   3
ATOM      3  C   UNL A   1      40.805  22.011  27.603  1.00  0.00     0.312 C 
ATOM      4  O   UNL A   1      41.552  22.618  28.362  1.00  0.00    -0.252 OA
BRANCH   3   5
ATOM      5  C   UNL A   1      40.058  22.678  26.441  1.00  0.00     0.124 C 
ATOM      6  C   UNL A   1      37.680  22.593  25.715  1.00  0.00     0.107 C 
ATOM      7  C   UNL A   1      38.034  23.882  26.382  1.00  0.00    -0.006 C 
ATOM      8  C   UNL A   1      38.992  21.813  25.758  1.00  0.00     0.048 C 
ATOM      9  C   UNL A   1      39.299  23.911  26.819  1.00  0.00    -0.014 C 
BRANCH   6  10
ATOM     10  N   UNL A   1      37.219  22.822  24.365  1.00  0.00    -0.332 N 
ATOM     11  N   UNL A   1      34.914  22.229  24.394  1.00  0.00    -0.336 N 
ATOM     12  C   UNL A   1      36.011  22.716  23.782  1.00  0.00     0.315 C 
ATOM     13  H   UNL A   1      34.079  22.370  23.892  1.00  0.00     0.165 HD
ATOM     14  O   UNL A   1      35.897  23.087  22.613  1.00  0.00    -0.249 OA
ATOM     15  H   UNL A   1      37.929  23.112  23.749  1.00  0.00     0.165 HD
BRANCH  11  16
ATOM     16  C   UNL A   1      34.736  21.536  25.655  1.00  0.00     0.142 C 
BRANCH  16  17
ATOM     17  C   UNL A   1      33.291  21.149  26.010  1.00  0.00     0.101 C 
ATOM     18  O   UNL A   1      32.895  17.682  25.579  1.00  0.00    -0.275 OA
ATOM     19  C   UNL A   1      32.867  18.893  25.476  1.00  0.00     0.220 C 
ATOM     20  C   UNL A   1      32.445  19.694  24.270  1.00  0.00     0.102 C 
ATOM     21  N   UNL A   1      33.245  19.778  26.465  1.00  0.00    -0.352 N 
ATOM     22  C   UNL A   1      32.344  21.121  24.815  1.00  0.00     0.036 C 
ATOM     23  H   UNL A   1      33.461  19.503  27.385  1.00  0.00     0.163 HD
ENDBRANCH  16  17
ENDBRANCH  11  16
ENDBRANCH   6  10
ENDBRANCH   3   5
ENDBRANCH   2   3
ENDBRANCH   1   2
BRANCH   1  24
ATOM     24  C   UNL A   1      42.043  19.430  26.171  1.00  0.00     0.275 C 
BRANCH  24  25
ATOM     25  O   UNL A   1      43.466  19.258  25.985  1.00  0.00    -0.458 OA
BRANCH  25  26
ATOM     26  C   UNL A   1      43.972  19.841  24.874  1.00  0.00     0.338 C 
ATOM     27  O   UNL A   1      44.053  19.355  23.757  1.00  0.00    -0.246 OA
BRANCH  26  28
ATOM     28  C   UNL A   1      44.320  21.244  25.137  1.00  0.00     0.060 A 
ATOM     29  C   UNL A   1      44.877  21.558  26.378  1.00  0.00     0.016 A 
ATOM     30  C   UNL A   1      44.010  22.254  24.228  1.00  0.00     0.016 A 
ATOM     31  C   UNL A   1      45.119  22.882  26.728  1.00  0.00     0.010 A 
ATOM     32  C   UNL A   1      44.272  23.587  24.571  1.00  0.00     0.010 A 
ATOM     33  C   UNL A   1      44.825  23.908  25.823  1.00  0.00    -0.014 A 
BRANCH  33  34
ATOM     34  C   UNL A   1      45.126  25.310  26.196  1.00  0.00     0.031 A 
ATOM     35  C   UNL A   1      46.518  25.855  26.060  1.00  0.00     0.074 A 
ATOM     36  C   UNL A   1      44.126  26.096  26.640  1.00  0.00     0.049 A 
ATOM     37  N   UNL A   1      46.973  27.033  26.395  1.00  0.00    -0.248 NA
ATOM     38  C   UNL A   1      47.529  24.961  25.474  1.00  0.00     0.031 C 
ATOM     39  C   UNL A   1      42.726  25.684  26.779  1.00  0.00     0.029 A 
ATOM     40  N   UNL A   1      44.132  27.400  27.062  1.00  0.00    -0.354 N 
ATOM     41  C   UNL A   1      48.328  27.019  26.086  1.00  0.00     0.074 A 
ATOM     42  C   UNL A   1      48.622  25.712  25.540  1.00  0.00     0.031 C 
ATOM     43  C   UNL A   1      42.011  26.715  27.256  1.00  0.00     0.029 A 
ATOM     44  C   UNL A   1      42.906  27.841  27.502  1.00  0.00     0.049 A 
ATOM     45  H   UNL A   1      44.936  27.967  27.051  1.00  0.00     0.167 HD
ATOM     46  C   UNL A   1      49.240  28.008  26.247  1.00  0.00     0.031 A 
ATOM     47  C   UNL A   1      42.549  29.007  28.071  1.00  0.00     0.031 A 
ATOM     48  C   UNL A   1      48.935  29.309  26.781  1.00  0.00     0.049 A 
ATOM     49  C   UNL A   1      43.592  30.071  28.278  1.00  0.00     0.074 A 
ATOM     50  C   UNL A   1      49.789  30.386  26.956  1.00  0.00     0.029 A 
ATOM     51  N   UNL A   1      47.687  29.713  27.228  1.00  0.00    -0.354 N 
ATOM     52  N   UNL A   1      44.864  30.045  27.961  1.00  0.00    -0.248 NA
ATOM     53  C   UNL A   1      43.152  31.318  28.918  1.00  0.00     0.031 C 
ATOM     54  C   UNL A   1      49.066  31.424  27.555  1.00  0.00     0.029 A 
ATOM     55  C   UNL A   1      47.752  31.011  27.706  1.00  0.00     0.049 A 
ATOM     56  H   UNL A   1      46.875  29.157  27.210  1.00  0.00     0.167 HD
ATOM     57  C   UNL A   1      45.373  31.279  28.347  1.00  0.00     0.074 A 
ATOM     58  C   UNL A   1      44.267  32.034  28.903  1.00  0.00     0.031 C 
ATOM     59  C   UNL A   1      46.642  31.747  28.253  1.00  0.00     0.031 A 
BRANCH  46  60
ATOM     60  C   UNL A   1      50.668  27.716  25.878  1.00  0.00    -0.014 A 
ATOM     61  C   UNL A   1      51.542  27.083  26.778  1.00  0.00     0.010 A 
ATOM     62  C   UNL A   1      51.117  28.009  24.576  1.00  0.00     0.010 A 
ATOM     63  C   UNL A   1      52.845  26.762  26.388  1.00  0.00     0.020 A 
ATOM     64  C   UNL A   1      52.414  27.672  24.176  1.00  0.00     0.020 A 
ATOM     65  C   UNL A   1      53.273  27.059  25.089  1.00  0.00     0.054 A 
BRANCH  65  66
ATOM     66  S   UNL A   1      54.954  26.589  24.594  1.00  0.00     0.124 S 
ATOM     67  O   UNL A   1      54.926  26.844  23.155  1.00  0.00    -0.237 OA
ATOM     68  O   UNL A   1      55.786  27.500  25.376  1.00  0.00    -0.237 OA
ATOM     69  O   UNL A   1      55.048  25.183  24.975  1.00  0.00    -0.744 OA
ENDBRANCH  65  66
ENDBRANCH  46  60
BRANCH  47  70
ATOM     70  C   UNL A   1      41.151  29.210  28.537  1.00  0.00    -0.014 A 
ATOM     71  C   UNL A   1      40.822  29.119  29.900  1.00  0.00     0.010 A 
ATOM     72  C   UNL A   1      40.134  29.488  27.604  1.00  0.00     0.010 A 
ATOM     73  C   UNL A   1      39.497  29.274  30.319  1.00  0.00     0.020 A 
ATOM     74  C   UNL A   1      38.813  29.670  28.022  1.00  0.00     0.020 A 
ATOM     75  C   UNL A   1      38.501  29.544  29.377  1.00  0.00     0.054 A 
BRANCH  75  76
ATOM     76  S   UNL A   1      36.791  29.770  29.940  1.00  0.00     0.124 S 
ATOM     77  O   UNL A   1      36.759  28.945  31.143  1.00  0.00    -0.237 OA
ATOM     78  O   UNL A   1      36.715  31.213  30.159  1.00  0.00    -0.237 OA
ATOM     79  O   UNL A   1      35.996  29.277  28.818  1.00  0.00    -0.744 OA
ENDBRANCH  75  76
ENDBRANCH  47  70
BRANCH  59  80
ATOM     80  C   UNL A   1      46.898  33.148  28.736  1.00  0.00    -0.014 A 
ATOM     81  C   UNL A   1      47.312  33.395  30.056  1.00  0.00     0.010 A 
ATOM     82  C   UNL A   1      46.771  34.225  27.841  1.00  0.00     0.010 A 
ATOM     83  C   UNL A   1      47.567  34.702  30.482  1.00  0.00     0.020 A 
ATOM     84  C   UNL A   1      47.049  35.529  28.255  1.00  0.00     0.020 A 
ATOM     85  C   UNL A   1      47.432  35.761  29.578  1.00  0.00     0.054 A 
BRANCH  85  86
ATOM     86  S   UNL A   1      47.811  37.443  30.140  1.00  0.00     0.124 S 
ATOM     87  O   UNL A   1      46.551  38.138  29.891  1.00  0.00    -0.237 OA
ATOM     88  O   UNL A   1      48.153  37.245  31.546  1.00  0.00    -0.237 OA
ATOM     89  O   UNL A   1      48.926  37.849  29.286  1.00  0.00    -0.744 OA
ENDBRANCH  85  86
ENDBRANCH  59  80
ENDBRANCH  33  34
ENDBRANCH  26  28
ENDBRANCH  25  26
ENDBRANCH  24  25
ENDBRANCH   1  24
TORSDOF 17
ENDMDL
