MODEL 1
REMARK VINA RESULT:     -10.0      0.000      0.000
REMARK SMILES C/C=C/C(=O)N[C@@H](Cc1ccc(F)cc1)C(=O)OCCOC(=O)c1ccc(-c2c3nc(c(-c4ccc(S(=O)(=O)[O-])cc4)c4ccc([nH]4)c(-c4ccc(S(=O)(=O)[O-])cc4)c4nc(c(-c5ccc(S(=O)(=O)[O-])cc5)c5ccc2[nH]5)C=C4)C=C3)cc1
REMARK SMILES IDX 20 1 19 2 18 3 16 4 17 5 7 6 6 7 4 8 5 9 3 11 1 12 2 13 8 14
REMARK SMILES IDX 9 15 10 16 15 17 11 18 14 19 12 20 13 21 21 22 22 23 23 24
REMARK SMILES IDX 24 25 25 26 83 27 26 28 82 29 27 30 28 31 29 32 76 33 30 34
REMARK SMILES IDX 81 35 75 36 77 37 31 38 80 39 74 40 73 41 32 43 62 44 43 45
REMARK SMILES IDX 61 46 44 47 47 48 60 49 78 50 45 51 46 52 59 54 79 55 48 56
REMARK SMILES IDX 33 57 34 58 42 59 35 60 41 61 36 62 37 63 38 64 39 65 40 66
REMARK SMILES IDX 63 67 64 68 72 69 65 70 71 71 66 72 67 73 68 74 69 75 70 76
REMARK SMILES IDX 49 77 50 78 58 79 51 80 57 81 52 82 53 83 54 84 55 85 56 86
REMARK H PARENT 6 10 77 42 47 53
REMARK Flexibility Score: inf
ROOT
ATOM      1  C   UNL A   1      32.617  30.607  26.984  1.00  0.00     0.275 C 
ENDROOT
BRANCH   1   2
ATOM      2  C   UNL A   1      31.884  29.292  27.248  1.00  0.00     0.274 C 
BRANCH   2   3
ATOM      3  O   UNL A   1      32.542  28.196  26.582  1.00  0.00    -0.461 OA
BRANCH   3   4
ATOM      4  C   UNL A   1      32.100  27.901  25.327  1.00  0.00     0.329 C 
ATOM      5  O   UNL A   1      31.258  28.547  24.712  1.00  0.00    -0.250 OA
BRANCH   4   6
ATOM      6  C   UNL A   1      32.722  26.610  24.768  1.00  0.00     0.196 C 
BRANCH   6   7
ATOM      7  N   UNL A   1      33.099  26.681  23.349  1.00  0.00    -0.339 N 
ATOM      8  C   UNL A   1      33.097  25.749  22.362  1.00  0.00     0.244 C 
ATOM      9  O   UNL A   1      33.474  26.058  21.236  1.00  0.00    -0.270 OA
ATOM     10  H   UNL A   1      33.410  27.569  23.061  1.00  0.00     0.164 HD
BRANCH   8  11
ATOM     11  C   UNL A   1      32.558  24.389  22.597  1.00  0.00     0.066 C 
ATOM     12  C   UNL A   1      32.531  21.893  22.516  1.00  0.00     0.036 C 
ATOM     13  C   UNL A   1      33.134  23.234  22.234  1.00  0.00    -0.025 C 
ENDBRANCH   8  11
ENDBRANCH   6   7
BRANCH   6  14
ATOM     14  C   UNL A   1      33.931  26.208  25.635  1.00  0.00     0.072 C 
BRANCH  14  15
ATOM     15  C   UNL A   1      34.243  24.725  25.605  1.00  0.00    -0.045 A 
ATOM     16  C   UNL A   1      35.403  24.250  24.974  1.00  0.00     0.007 A 
ATOM     17  C   UNL A   1      33.393  23.813  26.250  1.00  0.00     0.007 A 
ATOM     18  C   UNL A   1      35.714  22.890  25.002  1.00  0.00     0.039 A 
ATOM     19  C   UNL A   1      33.705  22.454  26.276  1.00  0.00     0.039 A 
ATOM     20  C   UNL A   1      34.863  22.005  25.654  1.00  0.00     0.123 A 
ATOM     21  F   UNL A   1      35.165  20.700  25.687  1.00  0.00    -0.207 F 
ENDBRANCH  14  15
ENDBRANCH   6  14
ENDBRANCH   4   6
ENDBRANCH   3   4
ENDBRANCH   2   3
ENDBRANCH   1   2
BRANCH   1  22
ATOM     22  O   UNL A   1      34.039  30.396  26.944  1.00  0.00    -0.458 OA
BRANCH  22  23
ATOM     23  C   UNL A   1      34.701  30.854  28.032  1.00  0.00     0.338 C 
ATOM     24  O   UNL A   1      34.282  31.612  28.889  1.00  0.00    -0.246 OA
BRANCH  23  25
ATOM     25  C   UNL A   1      36.000  30.179  28.145  1.00  0.00     0.060 A 
ATOM     26  C   UNL A   1      36.342  29.662  29.392  1.00  0.00     0.016 A 
ATOM     27  C   UNL A   1      36.922  30.176  27.100  1.00  0.00     0.016 A 
ATOM     28  C   UNL A   1      37.626  29.186  29.624  1.00  0.00     0.010 A 
ATOM     29  C   UNL A   1      38.212  29.675  27.327  1.00  0.00     0.010 A 
ATOM     30  C   UNL A   1      38.583  29.210  28.601  1.00  0.00    -0.014 A 
BRANCH  30  31
ATOM     31  C   UNL A   1      39.983  28.832  28.926  1.00  0.00     0.031 A 
ATOM     32  C   UNL A   1      40.846  29.764  29.734  1.00  0.00     0.074 A 
ATOM     33  C   UNL A   1      40.448  27.614  28.590  1.00  0.00     0.049 A 
ATOM     34  N   UNL A   1      42.080  29.601  30.138  1.00  0.00    -0.248 NA
ATOM     35  C   UNL A   1      40.241  31.040  30.148  1.00  0.00     0.031 C 
ATOM     36  C   UNL A   1      39.695  26.591  27.861  1.00  0.00     0.029 A 
ATOM     37  N   UNL A   1      41.657  27.017  28.847  1.00  0.00    -0.354 N 
ATOM     38  C   UNL A   1      42.409  30.762  30.830  1.00  0.00     0.074 A 
ATOM     39  C   UNL A   1      41.248  31.623  30.784  1.00  0.00     0.031 C 
ATOM     40  C   UNL A   1      40.446  25.482  27.761  1.00  0.00     0.029 A 
ATOM     41  C   UNL A   1      41.747  25.729  28.378  1.00  0.00     0.049 A 
ATOM     42  H   UNL A   1      42.391  27.471  29.321  1.00  0.00     0.167 HD
ATOM     43  C   UNL A   1      43.573  31.085  31.446  1.00  0.00     0.031 A 
ATOM     44  C   UNL A   1      42.762  24.846  28.432  1.00  0.00     0.031 A 
ATOM     45  C   UNL A   1      44.730  30.233  31.505  1.00  0.00     0.049 A 
ATOM     46  C   UNL A   1      44.052  25.238  29.098  1.00  0.00     0.074 A 
ATOM     47  C   UNL A   1      45.961  30.488  32.084  1.00  0.00     0.029 A 
ATOM     48  N   UNL A   1      44.797  28.954  30.975  1.00  0.00    -0.354 N 
ATOM     49  N   UNL A   1      44.357  26.360  29.705  1.00  0.00    -0.248 NA
ATOM     50  C   UNL A   1      45.135  24.245  29.079  1.00  0.00     0.031 C 
ATOM     51  C   UNL A   1      46.783  29.372  31.879  1.00  0.00     0.029 A 
ATOM     52  C   UNL A   1      46.050  28.409  31.206  1.00  0.00     0.049 A 
ATOM     53  H   UNL A   1      44.062  28.499  30.503  1.00  0.00     0.167 HD
ATOM     54  C   UNL A   1      45.667  26.204  30.145  1.00  0.00     0.074 A 
ATOM     55  C   UNL A   1      46.086  24.873  29.758  1.00  0.00     0.031 C 
ATOM     56  C   UNL A   1      46.455  27.089  30.804  1.00  0.00     0.031 A 
BRANCH  43  57
ATOM     57  C   UNL A   1      43.659  32.450  32.071  1.00  0.00    -0.014 A 
ATOM     58  C   UNL A   1      44.091  33.565  31.329  1.00  0.00     0.010 A 
ATOM     59  C   UNL A   1      43.290  32.619  33.417  1.00  0.00     0.010 A 
ATOM     60  C   UNL A   1      44.186  34.820  31.937  1.00  0.00     0.020 A 
ATOM     61  C   UNL A   1      43.368  33.876  34.022  1.00  0.00     0.020 A 
ATOM     62  C   UNL A   1      43.834  34.965  33.283  1.00  0.00     0.054 A 
BRANCH  62  63
ATOM     63  S   UNL A   1      43.961  36.603  34.053  1.00  0.00     0.124 S 
ATOM     64  O   UNL A   1      44.928  36.358  35.120  1.00  0.00    -0.237 OA
ATOM     65  O   UNL A   1      44.436  37.442  32.956  1.00  0.00    -0.237 OA
ATOM     66  O   UNL A   1      42.598  36.881  34.499  1.00  0.00    -0.744 OA
ENDBRANCH  62  63
ENDBRANCH  43  57
BRANCH  44  67
ATOM     67  C   UNL A   1      42.606  23.500  27.820  1.00  0.00    -0.014 A 
ATOM     68  C   UNL A   1      42.988  23.271  26.487  1.00  0.00     0.010 A 
ATOM     69  C   UNL A   1      42.077  22.438  28.576  1.00  0.00     0.010 A 
ATOM     70  C   UNL A   1      42.837  22.003  25.917  1.00  0.00     0.020 A 
ATOM     71  C   UNL A   1      41.946  21.165  28.016  1.00  0.00     0.020 A 
ATOM     72  C   UNL A   1      42.317  20.959  26.685  1.00  0.00     0.054 A 
BRANCH  72  73
ATOM     73  S   UNL A   1      42.187  19.303  25.956  1.00  0.00     0.124 S 
ATOM     74  O   UNL A   1      40.754  19.192  25.710  1.00  0.00    -0.237 OA
ATOM     75  O   UNL A   1      43.028  19.409  24.766  1.00  0.00    -0.237 OA
ATOM     76  O   UNL A   1      42.717  18.431  27.004  1.00  0.00    -0.744 OA
ENDBRANCH  72  73
ENDBRANCH  44  67
BRANCH  56  77
ATOM     77  C   UNL A   1      47.845  26.632  31.154  1.00  0.00    -0.014 A 
ATOM     78  C   UNL A   1      48.103  25.972  32.370  1.00  0.00     0.010 A 
ATOM     79  C   UNL A   1      48.903  26.859  30.256  1.00  0.00     0.010 A 
ATOM     80  C   UNL A   1      49.405  25.586  32.700  1.00  0.00     0.020 A 
ATOM     81  C   UNL A   1      50.202  26.457  30.575  1.00  0.00     0.020 A 
ATOM     82  C   UNL A   1      50.448  25.842  31.805  1.00  0.00     0.054 A 
BRANCH  82  83
ATOM     83  S   UNL A   1      52.133  25.330  32.246  1.00  0.00     0.124 S 
ATOM     84  O   UNL A   1      52.353  26.058  33.491  1.00  0.00    -0.237 OA
ATOM     85  O   UNL A   1      52.010  23.881  32.378  1.00  0.00    -0.237 OA
ATOM     86  O   UNL A   1      52.934  25.778  31.109  1.00  0.00    -0.744 OA
ENDBRANCH  82  83
ENDBRANCH  56  77
ENDBRANCH  30  31
ENDBRANCH  23  25
ENDBRANCH  22  23
ENDBRANCH   1  22
TORSDOF 18
ENDMDL
MODEL 2
REMARK VINA RESULT:      -9.9      4.631      6.625
REMARK SMILES C/C=C/C(=O)N[C@@H](Cc1ccc(F)cc1)C(=O)OCCOC(=O)c1ccc(-c2c3nc(c(-c4ccc(S(=O)(=O)[O-])cc4)c4ccc([nH]4)c(-c4ccc(S(=O)(=O)[O-])cc4)c4nc(c(-c5ccc(S(=O)(=O)[O-])cc5)c5ccc2[nH]5)C=C4)C=C3)cc1
REMARK SMILES IDX 20 1 19 2 18 3 16 4 17 5 7 6 6 7 4 8 5 9 3 11 1 12 2 13 8 14
REMARK SMILES IDX 9 15 10 16 15 17 11 18 14 19 12 20 13 21 21 22 22 23 23 24
REMARK SMILES IDX 24 25 25 26 83 27 26 28 82 29 27 30 28 31 29 32 76 33 30 34
REMARK SMILES IDX 81 35 75 36 77 37 31 38 80 39 74 40 73 41 32 43 62 44 43 45
REMARK SMILES IDX 61 46 44 47 47 48 60 49 78 50 45 51 46 52 59 54 79 55 48 56
REMARK SMILES IDX 33 57 34 58 42 59 35 60 41 61 36 62 37 63 38 64 39 65 40 66
REMARK SMILES IDX 63 67 64 68 72 69 65 70 71 71 66 72 67 73 68 74 69 75 70 76
REMARK SMILES IDX 49 77 50 78 58 79 51 80 57 81 52 82 53 83 54 84 55 85 56 86
REMARK H PARENT 6 10 77 42 47 53
REMARK Flexibility Score: inf
ROOT
ATOM      1  C   UNL A   1      34.337  29.823  27.912  1.00  0.00     0.275 C 
ENDROOT
BRANCH   1   2
ATOM      2  C   UNL A   1      33.501  30.934  27.279  1.00  0.00     0.274 C 
BRANCH   2   3
ATOM      3  O   UNL A   1      34.115  32.222  27.487  1.00  0.00    -0.461 OA
BRANCH   3   4
ATOM      4  C   UNL A   1      33.292  33.218  27.921  1.00  0.00     0.329 C 
ATOM      5  O   UNL A   1      32.184  33.464  27.456  1.00  0.00    -0.250 OA
BRANCH   4   6
ATOM      6  C   UNL A   1      33.929  34.071  29.030  1.00  0.00     0.196 C 
BRANCH   6   7
ATOM      7  N   UNL A   1      33.028  35.068  29.625  1.00  0.00    -0.339 N 
ATOM      8  C   UNL A   1      33.018  35.670  30.842  1.00  0.00     0.244 C 
ATOM      9  O   UNL A   1      32.136  36.480  31.109  1.00  0.00    -0.270 OA
ATOM     10  H   UNL A   1      32.296  35.351  29.032  1.00  0.00     0.164 HD
BRANCH   8  11
ATOM     11  C   UNL A   1      34.109  35.440  31.817  1.00  0.00     0.066 C 
ATOM     12  C   UNL A   1      35.117  34.982  34.056  1.00  0.00     0.036 C 
ATOM     13  C   UNL A   1      33.963  35.218  33.132  1.00  0.00    -0.025 C 
ENDBRANCH   8  11
ENDBRANCH   6   7
BRANCH   6  14
ATOM     14  C   UNL A   1      34.513  33.146  30.115  1.00  0.00     0.072 C 
BRANCH  14  15
ATOM     15  C   UNL A   1      36.027  33.180  30.204  1.00  0.00    -0.045 A 
ATOM     16  C   UNL A   1      36.683  32.808  31.387  1.00  0.00     0.007 A 
ATOM     17  C   UNL A   1      36.790  33.543  29.083  1.00  0.00     0.007 A 
ATOM     18  C   UNL A   1      38.077  32.785  31.441  1.00  0.00     0.039 A 
ATOM     19  C   UNL A   1      38.183  33.520  29.139  1.00  0.00     0.039 A 
ATOM     20  C   UNL A   1      38.814  33.140  30.317  1.00  0.00     0.123 A 
ATOM     21  F   UNL A   1      40.152  33.111  30.367  1.00  0.00    -0.207 F 
ENDBRANCH  14  15
ENDBRANCH   6  14
ENDBRANCH   4   6
ENDBRANCH   3   4
ENDBRANCH   2   3
ENDBRANCH   1   2
BRANCH   1  22
ATOM     22  O   UNL A   1      35.708  30.239  28.052  1.00  0.00    -0.458 OA
BRANCH  22  23
ATOM     23  C   UNL A   1      36.315  29.781  29.172  1.00  0.00     0.338 C 
ATOM     24  O   UNL A   1      35.784  29.357  30.183  1.00  0.00    -0.246 OA
BRANCH  23  25
ATOM     25  C   UNL A   1      37.766  29.715  28.958  1.00  0.00     0.060 A 
ATOM     26  C   UNL A   1      38.216  29.728  27.640  1.00  0.00     0.016 A 
ATOM     27  C   UNL A   1      38.657  29.500  30.009  1.00  0.00     0.016 A 
ATOM     28  C   UNL A   1      39.552  29.474  27.354  1.00  0.00     0.010 A 
ATOM     29  C   UNL A   1      40.009  29.264  29.722  1.00  0.00     0.010 A 
ATOM     30  C   UNL A   1      40.458  29.215  28.390  1.00  0.00    -0.014 A 
BRANCH  30  31
ATOM     31  C   UNL A   1      41.842  28.801  28.039  1.00  0.00     0.031 A 
ATOM     32  C   UNL A   1      42.970  29.796  28.124  1.00  0.00     0.074 A 
ATOM     33  C   UNL A   1      42.107  27.514  27.748  1.00  0.00     0.049 A 
ATOM     34  N   UNL A   1      44.244  29.619  27.884  1.00  0.00    -0.248 NA
ATOM     35  C   UNL A   1      42.620  31.163  28.540  1.00  0.00     0.031 C 
ATOM     36  C   UNL A   1      41.117  26.436  27.692  1.00  0.00     0.029 A 
ATOM     37  N   UNL A   1      43.298  26.887  27.475  1.00  0.00    -0.354 N 
ATOM     38  C   UNL A   1      44.845  30.855  28.093  1.00  0.00     0.074 A 
ATOM     39  C   UNL A   1      43.794  31.775  28.472  1.00  0.00     0.031 C 
ATOM     40  C   UNL A   1      41.746  25.277  27.439  1.00  0.00     0.029 A 
ATOM     41  C   UNL A   1      43.174  25.534  27.270  1.00  0.00     0.049 A 
ATOM     42  H   UNL A   1      44.159  27.363  27.428  1.00  0.00     0.167 HD
ATOM     43  C   UNL A   1      46.151  31.197  27.978  1.00  0.00     0.031 A 
ATOM     44  C   UNL A   1      44.102  24.604  26.975  1.00  0.00     0.031 A 
ATOM     45  C   UNL A   1      47.204  30.288  27.610  1.00  0.00     0.049 A 
ATOM     46  C   UNL A   1      45.541  25.014  26.826  1.00  0.00     0.074 A 
ATOM     47  C   UNL A   1      48.552  30.552  27.442  1.00  0.00     0.029 A 
ATOM     48  N   UNL A   1      47.030  28.936  27.363  1.00  0.00    -0.354 N 
ATOM     49  N   UNL A   1      46.080  26.199  26.983  1.00  0.00    -0.248 NA
ATOM     50  C   UNL A   1      46.495  23.959  26.455  1.00  0.00     0.031 C 
ATOM     51  C   UNL A   1      49.190  29.363  27.066  1.00  0.00     0.029 A 
ATOM     52  C   UNL A   1      48.243  28.353  27.037  1.00  0.00     0.049 A 
ATOM     53  H   UNL A   1      46.169  28.460  27.412  1.00  0.00     0.167 HD
ATOM     54  C   UNL A   1      47.438  26.030  26.733  1.00  0.00     0.074 A 
ATOM     55  C   UNL A   1      47.641  24.626  26.443  1.00  0.00     0.031 C 
ATOM     56  C   UNL A   1      48.427  26.958  26.737  1.00  0.00     0.031 A 
BRANCH  43  57
ATOM     57  C   UNL A   1      46.504  32.640  28.213  1.00  0.00    -0.014 A 
ATOM     58  C   UNL A   1      46.885  33.098  29.487  1.00  0.00     0.010 A 
ATOM     59  C   UNL A   1      46.463  33.546  27.138  1.00  0.00     0.010 A 
ATOM     60  C   UNL A   1      47.185  34.448  29.688  1.00  0.00     0.020 A 
ATOM     61  C   UNL A   1      46.779  34.893  27.333  1.00  0.00     0.020 A 
ATOM     62  C   UNL A   1      47.121  35.339  28.611  1.00  0.00     0.054 A 
BRANCH  62  63
ATOM     63  S   UNL A   1      47.517  37.087  28.891  1.00  0.00     0.124 S 
ATOM     64  O   UNL A   1      48.928  37.139  28.520  1.00  0.00    -0.237 OA
ATOM     65  O   UNL A   1      46.604  37.777  27.983  1.00  0.00    -0.237 OA
ATOM     66  O   UNL A   1      47.238  37.281  30.312  1.00  0.00    -0.744 OA
ENDBRANCH  62  63
ENDBRANCH  43  57
BRANCH  44  67
ATOM     67  C   UNL A   1      43.696  23.187  26.780  1.00  0.00    -0.014 A 
ATOM     68  C   UNL A   1      43.043  22.482  27.805  1.00  0.00     0.010 A 
ATOM     69  C   UNL A   1      43.959  22.540  25.559  1.00  0.00     0.010 A 
ATOM     70  C   UNL A   1      42.665  21.150  27.616  1.00  0.00     0.020 A 
ATOM     71  C   UNL A   1      43.563  21.215  25.360  1.00  0.00     0.020 A 
ATOM     72  C   UNL A   1      42.928  20.525  26.394  1.00  0.00     0.054 A 
BRANCH  72  73
ATOM     73  S   UNL A   1      42.374  18.816  26.137  1.00  0.00     0.124 S 
ATOM     74  O   UNL A   1      40.977  19.004  25.760  1.00  0.00    -0.237 OA
ATOM     75  O   UNL A   1      43.260  18.348  25.074  1.00  0.00    -0.237 OA
ATOM     76  O   UNL A   1      42.596  18.191  27.440  1.00  0.00    -0.744 OA
ENDBRANCH  72  73
ENDBRANCH  44  67
BRANCH  56  77
ATOM     77  C   UNL A   1      49.817  26.472  26.428  1.00  0.00    -0.014 A 
ATOM     78  C   UNL A   1      50.675  26.038  27.455  1.00  0.00     0.010 A 
ATOM     79  C   UNL A   1      50.267  26.442  25.097  1.00  0.00     0.010 A 
ATOM     80  C   UNL A   1      51.976  25.624  27.159  1.00  0.00     0.020 A 
ATOM     81  C   UNL A   1      51.561  26.010  24.795  1.00  0.00     0.020 A 
ATOM     82  C   UNL A   1      52.415  25.624  25.831  1.00  0.00     0.054 A 
BRANCH  82  83
ATOM     83  S   UNL A   1      54.106  25.079  25.461  1.00  0.00     0.124 S 
ATOM     84  O   UNL A   1      54.748  25.179  26.768  1.00  0.00    -0.237 OA
ATOM     85  O   UNL A   1      53.909  23.722  24.959  1.00  0.00    -0.237 OA
ATOM     86  O   UNL A   1      54.565  26.043  24.464  1.00  0.00    -0.744 OA
ENDBRANCH  82  83
ENDBRANCH  56  77
ENDBRANCH  30  31
ENDBRANCH  23  25
ENDBRANCH  22  23
ENDBRANCH   1  22
TORSDOF 18
ENDMDL
MODEL 3
REMARK VINA RESULT:      -9.9      2.598      3.425
REMARK SMILES C/C=C/C(=O)N[C@@H](Cc1ccc(F)cc1)C(=O)OCCOC(=O)c1ccc(-c2c3nc(c(-c4ccc(S(=O)(=O)[O-])cc4)c4ccc([nH]4)c(-c4ccc(S(=O)(=O)[O-])cc4)c4nc(c(-c5ccc(S(=O)(=O)[O-])cc5)c5ccc2[nH]5)C=C4)C=C3)cc1
REMARK SMILES IDX 20 1 19 2 18 3 16 4 17 5 7 6 6 7 4 8 5 9 3 11 1 12 2 13 8 14
REMARK SMILES IDX 9 15 10 16 15 17 11 18 14 19 12 20 13 21 21 22 22 23 23 24
REMARK SMILES IDX 24 25 25 26 83 27 26 28 82 29 27 30 28 31 29 32 76 33 30 34
REMARK SMILES IDX 81 35 75 36 77 37 31 38 80 39 74 40 73 41 32 43 62 44 43 45
REMARK SMILES IDX 61 46 44 47 47 48 60 49 78 50 45 51 46 52 59 54 79 55 48 56
REMARK SMILES IDX 33 57 34 58 42 59 35 60 41 61 36 62 37 63 38 64 39 65 40 66
REMARK SMILES IDX 63 67 64 68 72 69 65 70 71 71 66 72 67 73 68 74 69 75 70 76
REMARK SMILES IDX 49 77 50 78 58 79 51 80 57 81 52 82 53 83 54 84 55 85 56 86
REMARK H PARENT 6 10 77 42 47 53
REMARK Flexibility Score: inf
ROOT
ATOM      1  C   UNL A   1      32.337  30.804  26.393  1.00  0.00     0.275 C 
ENDROOT
BRANCH   1   2
ATOM      2  C   UNL A   1      31.637  29.596  25.773  1.00  0.00     0.274 C 
BRANCH   2   3
ATOM      3  O   UNL A   1      32.410  28.396  25.973  1.00  0.00    -0.461 OA
BRANCH   3   4
ATOM      4  C   UNL A   1      31.876  27.468  26.816  1.00  0.00     0.329 C 
ATOM      5  O   UNL A   1      31.282  27.728  27.857  1.00  0.00    -0.250 OA
BRANCH   4   6
ATOM      6  C   UNL A   1      32.154  26.025  26.362  1.00  0.00     0.196 C 
BRANCH   6   7
ATOM      7  N   UNL A   1      31.104  25.061  26.721  1.00  0.00    -0.339 N 
ATOM      8  C   UNL A   1      31.151  23.737  27.017  1.00  0.00     0.244 C 
ATOM      9  O   UNL A   1      30.113  23.138  27.281  1.00  0.00    -0.270 OA
ATOM     10  H   UNL A   1      30.199  25.447  26.752  1.00  0.00     0.164 HD
BRANCH   8  11
ATOM     11  C   UNL A   1      32.445  23.023  27.120  1.00  0.00     0.066 C 
ATOM     12  C   UNL A   1      34.165  21.307  26.538  1.00  0.00     0.036 C 
ATOM     13  C   UNL A   1      32.833  21.972  26.382  1.00  0.00    -0.025 C 
ENDBRANCH   8  11
ENDBRANCH   6   7
BRANCH   6  14
ATOM     14  C   UNL A   1      32.416  26.008  24.843  1.00  0.00     0.072 C 
BRANCH  14  15
ATOM     15  C   UNL A   1      33.540  25.082  24.423  1.00  0.00    -0.045 A 
ATOM     16  C   UNL A   1      34.719  24.998  25.179  1.00  0.00     0.007 A 
ATOM     17  C   UNL A   1      33.392  24.262  23.293  1.00  0.00     0.007 A 
ATOM     18  C   UNL A   1      35.723  24.098  24.819  1.00  0.00     0.039 A 
ATOM     19  C   UNL A   1      34.397  23.365  22.934  1.00  0.00     0.039 A 
ATOM     20  C   UNL A   1      35.553  23.290  23.702  1.00  0.00     0.123 A 
ATOM     21  F   UNL A   1      36.515  22.422  23.360  1.00  0.00    -0.207 F 
ENDBRANCH  14  15
ENDBRANCH   6  14
ENDBRANCH   4   6
ENDBRANCH   3   4
ENDBRANCH   2   3
ENDBRANCH   1   2
BRANCH   1  22
ATOM     22  O   UNL A   1      33.461  30.386  27.188  1.00  0.00    -0.458 OA
BRANCH  22  23
ATOM     23  C   UNL A   1      34.141  31.403  27.767  1.00  0.00     0.338 C 
ATOM     24  O   UNL A   1      33.706  32.491  28.100  1.00  0.00    -0.246 OA
BRANCH  23  25
ATOM     25  C   UNL A   1      35.502  30.963  28.100  1.00  0.00     0.060 A 
ATOM     26  C   UNL A   1      35.639  29.707  28.685  1.00  0.00     0.016 A 
ATOM     27  C   UNL A   1      36.601  31.812  27.979  1.00  0.00     0.016 A 
ATOM     28  C   UNL A   1      36.865  29.306  29.204  1.00  0.00     0.010 A 
ATOM     29  C   UNL A   1      37.843  31.399  28.483  1.00  0.00     0.010 A 
ATOM     30  C   UNL A   1      37.974  30.157  29.130  1.00  0.00    -0.014 A 
BRANCH  30  31
ATOM     31  C   UNL A   1      39.226  29.758  29.824  1.00  0.00     0.031 A 
ATOM     32  C   UNL A   1      39.601  30.404  31.132  1.00  0.00     0.074 A 
ATOM     33  C   UNL A   1      39.972  28.747  29.340  1.00  0.00     0.049 A 
ATOM     34  N   UNL A   1      40.636  30.172  31.898  1.00  0.00    -0.248 NA
ATOM     35  C   UNL A   1      38.688  31.436  31.649  1.00  0.00     0.031 C 
ATOM     36  C   UNL A   1      39.689  27.996  28.116  1.00  0.00     0.029 A 
ATOM     37  N   UNL A   1      41.107  28.156  29.839  1.00  0.00    -0.354 N 
ATOM     38  C   UNL A   1      40.516  31.046  32.973  1.00  0.00     0.074 A 
ATOM     39  C   UNL A   1      39.311  31.818  32.756  1.00  0.00     0.031 C 
ATOM     40  C   UNL A   1      40.603  27.021  27.979  1.00  0.00     0.029 A 
ATOM     41  C   UNL A   1      41.561  27.107  29.078  1.00  0.00     0.049 A 
ATOM     42  H   UNL A   1      41.553  28.458  30.663  1.00  0.00     0.167 HD
ATOM     43  C   UNL A   1      41.334  31.197  34.043  1.00  0.00     0.031 A 
ATOM     44  C   UNL A   1      42.631  26.305  29.241  1.00  0.00     0.031 A 
ATOM     45  C   UNL A   1      42.529  30.430  34.273  1.00  0.00     0.049 A 
ATOM     46  C   UNL A   1      43.538  26.511  30.423  1.00  0.00     0.074 A 
ATOM     47  C   UNL A   1      43.433  30.532  35.315  1.00  0.00     0.029 A 
ATOM     48  N   UNL A   1      42.981  29.409  33.453  1.00  0.00    -0.354 N 
ATOM     49  N   UNL A   1      43.431  27.375  31.403  1.00  0.00    -0.248 NA
ATOM     50  C   UNL A   1      44.714  25.634  30.515  1.00  0.00     0.031 C 
ATOM     51  C   UNL A   1      44.449  29.591  35.110  1.00  0.00     0.029 A 
ATOM     52  C   UNL A   1      44.156  28.877  33.960  1.00  0.00     0.049 A 
ATOM     53  H   UNL A   1      42.534  29.105  32.629  1.00  0.00     0.167 HD
ATOM     54  C   UNL A   1      44.524  27.143  32.231  1.00  0.00     0.074 A 
ATOM     55  C   UNL A   1      45.263  26.040  31.652  1.00  0.00     0.031 C 
ATOM     56  C   UNL A   1      44.886  27.790  33.366  1.00  0.00     0.031 A 
BRANCH  43  57
ATOM     57  C   UNL A   1      40.977  32.275  35.029  1.00  0.00    -0.014 A 
ATOM     58  C   UNL A   1      41.282  33.625  34.776  1.00  0.00     0.010 A 
ATOM     59  C   UNL A   1      40.316  31.930  36.222  1.00  0.00     0.010 A 
ATOM     60  C   UNL A   1      40.962  34.607  35.717  1.00  0.00     0.020 A 
ATOM     61  C   UNL A   1      39.980  32.912  37.157  1.00  0.00     0.020 A 
ATOM     62  C   UNL A   1      40.322  34.243  36.907  1.00  0.00     0.054 A 
BRANCH  62  63
ATOM     63  S   UNL A   1      39.913  35.532  38.115  1.00  0.00     0.124 S 
ATOM     64  O   UNL A   1      39.836  36.721  37.271  1.00  0.00    -0.237 OA
ATOM     65  O   UNL A   1      38.641  35.070  38.666  1.00  0.00    -0.237 OA
ATOM     66  O   UNL A   1      41.038  35.500  39.048  1.00  0.00    -0.744 OA
ENDBRANCH  62  63
ENDBRANCH  43  57
BRANCH  44  67
ATOM     67  C   UNL A   1      42.916  25.239  28.246  1.00  0.00    -0.014 A 
ATOM     68  C   UNL A   1      43.677  25.515  27.097  1.00  0.00     0.010 A 
ATOM     69  C   UNL A   1      42.429  23.935  28.450  1.00  0.00     0.010 A 
ATOM     70  C   UNL A   1      43.939  24.508  26.164  1.00  0.00     0.020 A 
ATOM     71  C   UNL A   1      42.708  22.921  27.531  1.00  0.00     0.020 A 
ATOM     72  C   UNL A   1      43.453  23.217  26.388  1.00  0.00     0.054 A 
BRANCH  72  73
ATOM     73  S   UNL A   1      43.856  21.902  25.204  1.00  0.00     0.124 S 
ATOM     74  O   UNL A   1      42.804  20.926  25.466  1.00  0.00    -0.237 OA
ATOM     75  O   UNL A   1      43.775  22.591  23.918  1.00  0.00    -0.237 OA
ATOM     76  O   UNL A   1      45.204  21.497  25.598  1.00  0.00    -0.744 OA
ENDBRANCH  72  73
ENDBRANCH  44  67
BRANCH  56  77
ATOM     77  C   UNL A   1      46.134  27.308  34.055  1.00  0.00    -0.014 A 
ATOM     78  C   UNL A   1      47.389  27.860  33.743  1.00  0.00     0.010 A 
ATOM     79  C   UNL A   1      46.048  26.298  35.029  1.00  0.00     0.010 A 
ATOM     80  C   UNL A   1      48.545  27.377  34.364  1.00  0.00     0.020 A 
ATOM     81  C   UNL A   1      47.199  25.827  35.665  1.00  0.00     0.020 A 
ATOM     82  C   UNL A   1      48.444  26.355  35.312  1.00  0.00     0.054 A 
BRANCH  82  83
ATOM     83  S   UNL A   1      49.953  25.743  36.112  1.00  0.00     0.124 S 
ATOM     84  O   UNL A   1      50.968  26.034  35.105  1.00  0.00    -0.237 OA
ATOM     85  O   UNL A   1      50.026  26.546  37.330  1.00  0.00    -0.237 OA
ATOM     86  O   UNL A   1      49.674  24.325  36.328  1.00  0.00    -0.744 OA
ENDBRANCH  82  83
ENDBRANCH  56  77
ENDBRANCH  30  31
ENDBRANCH  23  25
ENDBRANCH  22  23
ENDBRANCH   1  22
TORSDOF 18
ENDMDL
