MODEL 1
REMARK VINA RESULT:      -9.7      0.000      0.000
REMARK SMILES C[C@@H](Sc1nc2ccccc2c(=O)n1N)C(=O)OCCOC(=O)c1ccc(-c2c3nc(c(-c4ccc(S(=O)(=O)[O-])cc4)c4ccc([nH]4)c(-c4ccc(S(=O)(=O)[O-])cc4)c4nc(c(-c5ccc(S(=O)(=O)[O-])cc5)c5ccc2[nH]5)C=C4)C=C3)cc1
REMARK SMILES IDX 19 1 18 2 16 3 17 4 2 5 1 6 3 7 4 8 5 9 14 10 6 11 12 12
REMARK SMILES IDX 7 13 11 14 13 15 8 16 10 17 9 18 15 19 20 22 21 23 22 24
REMARK SMILES IDX 23 25 24 26 25 27 83 28 26 29 82 30 27 31 28 32 29 33 76 34
REMARK SMILES IDX 30 35 81 36 75 37 77 38 31 39 80 40 74 41 73 42 32 44 62 45
REMARK SMILES IDX 43 46 61 47 44 48 47 49 60 50 78 51 45 52 46 53 59 55 79 56
REMARK SMILES IDX 48 57 33 58 34 59 42 60 35 61 41 62 36 63 37 64 38 65 39 66
REMARK SMILES IDX 40 67 63 68 64 69 72 70 65 71 71 72 66 73 67 74 68 75 69 76
REMARK SMILES IDX 70 77 49 78 50 79 58 80 51 81 57 82 52 83 53 84 54 85 55 86
REMARK SMILES IDX 56 87
REMARK H PARENT 15 20 15 21 77 43 47 54
REMARK Flexibility Score: inf
ROOT
ATOM      1  C   UNL A   1      33.398  33.959  28.007  1.00  0.00     0.274 C 
ENDROOT
BRANCH   1   2
ATOM      2  O   UNL A   1      32.871  34.229  29.319  1.00  0.00    -0.461 OA
BRANCH   2   3
ATOM      3  C   UNL A   1      32.883  35.532  29.716  1.00  0.00     0.319 C 
ATOM      4  O   UNL A   1      32.396  36.450  29.064  1.00  0.00    -0.251 OA
BRANCH   3   5
ATOM      5  C   UNL A   1      33.574  35.743  31.062  1.00  0.00     0.161 C 
ATOM      6  C   UNL A   1      32.818  36.637  32.037  1.00  0.00     0.032 C 
BRANCH   5   7
ATOM      7  S   UNL A   1      33.913  34.095  31.774  1.00  0.00    -0.071 SA
BRANCH   7   8
ATOM      8  C   UNL A   1      35.656  34.163  31.915  1.00  0.00     0.191 A 
ATOM      9  N   UNL A   1      36.332  33.942  30.833  1.00  0.00    -0.222 NA
ATOM     10  N   UNL A   1      36.235  34.500  33.136  1.00  0.00    -0.202 N 
ATOM     11  C   UNL A   1      37.727  34.064  30.888  1.00  0.00     0.079 A 
ATOM     12  C   UNL A   1      37.619  34.629  33.276  1.00  0.00     0.280 A 
ATOM     13  C   UNL A   1      38.461  33.863  29.717  1.00  0.00     0.029 A 
ATOM     14  C   UNL A   1      38.411  34.403  32.056  1.00  0.00     0.068 A 
ATOM     15  O   UNL A   1      38.170  34.926  34.336  1.00  0.00    -0.267 OA
ATOM     16  C   UNL A   1      39.852  34.005  29.713  1.00  0.00     0.002 A 
ATOM     17  C   UNL A   1      39.804  34.544  32.066  1.00  0.00     0.016 A 
ATOM     18  C   UNL A   1      40.523  34.345  30.888  1.00  0.00     0.001 A 
BRANCH  10  19
ATOM     19  N   UNL A   1      35.451  34.729  34.315  1.00  0.00    -0.334 N 
ATOM     20  H   UNL A   1      35.627  35.518  34.878  1.00  0.00     0.178 HD
ATOM     21  H   UNL A   1      34.737  34.098  34.562  1.00  0.00     0.178 HD
ENDBRANCH  10  19
ENDBRANCH   7   8
ENDBRANCH   5   7
ENDBRANCH   3   5
ENDBRANCH   2   3
ENDBRANCH   1   2
BRANCH   1  22
ATOM     22  C   UNL A   1      34.543  32.942  28.042  1.00  0.00     0.275 C 
BRANCH  22  23
ATOM     23  O   UNL A   1      34.101  31.629  28.436  1.00  0.00    -0.458 OA
BRANCH  23  24
ATOM     24  C   UNL A   1      34.542  30.622  27.647  1.00  0.00     0.338 C 
ATOM     25  O   UNL A   1      34.040  30.235  26.604  1.00  0.00    -0.246 OA
BRANCH  24  26
ATOM     26  C   UNL A   1      35.829  30.106  28.140  1.00  0.00     0.060 A 
ATOM     27  C   UNL A   1      35.861  29.579  29.434  1.00  0.00     0.016 A 
ATOM     28  C   UNL A   1      37.004  30.226  27.395  1.00  0.00     0.016 A 
ATOM     29  C   UNL A   1      37.068  29.187  30.001  1.00  0.00     0.010 A 
ATOM     30  C   UNL A   1      38.220  29.833  27.968  1.00  0.00     0.010 A 
ATOM     31  C   UNL A   1      38.259  29.329  29.280  1.00  0.00    -0.014 A 
BRANCH  31  32
ATOM     32  C   UNL A   1      39.544  29.017  29.946  1.00  0.00     0.031 A 
ATOM     33  C   UNL A   1      39.930  29.745  31.202  1.00  0.00     0.074 A 
ATOM     34  C   UNL A   1      40.333  28.042  29.458  1.00  0.00     0.049 A 
ATOM     35  N   UNL A   1      41.008  29.620  31.932  1.00  0.00    -0.248 NA
ATOM     36  C   UNL A   1      38.971  30.741  31.707  1.00  0.00     0.031 C 
ATOM     37  C   UNL A   1      40.038  27.228  28.277  1.00  0.00     0.029 A 
ATOM     38  N   UNL A   1      41.538  27.563  29.904  1.00  0.00    -0.354 N 
ATOM     39  C   UNL A   1      40.869  30.530  32.972  1.00  0.00     0.074 A 
ATOM     40  C   UNL A   1      39.608  31.212  32.771  1.00  0.00     0.031 C 
ATOM     41  C   UNL A   1      41.030  26.340  28.101  1.00  0.00     0.029 A 
ATOM     42  C   UNL A   1      42.046  26.547  29.130  1.00  0.00     0.049 A 
ATOM     43  H   UNL A   1      41.995  27.913  30.702  1.00  0.00     0.167 HD
ATOM     44  C   UNL A   1      41.714  30.775  34.001  1.00  0.00     0.031 A 
ATOM     45  C   UNL A   1      43.205  25.870  29.233  1.00  0.00     0.031 A 
ATOM     46  C   UNL A   1      42.969  30.099  34.199  1.00  0.00     0.049 A 
ATOM     47  C   UNL A   1      44.154  26.201  30.351  1.00  0.00     0.074 A 
ATOM     48  C   UNL A   1      43.897  30.279  35.208  1.00  0.00     0.029 A 
ATOM     49  N   UNL A   1      43.471  29.110  33.366  1.00  0.00    -0.354 N 
ATOM     50  N   UNL A   1      44.013  27.074  31.320  1.00  0.00    -0.248 NA
ATOM     51  C   UNL A   1      45.419  25.454  30.388  1.00  0.00     0.031 C 
ATOM     52  C   UNL A   1      44.980  29.426  34.965  1.00  0.00     0.029 A 
ATOM     53  C   UNL A   1      44.704  28.683  33.828  1.00  0.00     0.049 A 
ATOM     54  H   UNL A   1      43.017  28.762  32.563  1.00  0.00     0.167 HD
ATOM     55  C   UNL A   1      45.163  26.969  32.094  1.00  0.00     0.074 A 
ATOM     56  C   UNL A   1      45.983  25.939  31.487  1.00  0.00     0.031 C 
ATOM     57  C   UNL A   1      45.508  27.661  33.207  1.00  0.00     0.031 A 
BRANCH  44  58
ATOM     58  C   UNL A   1      41.321  31.858  34.970  1.00  0.00    -0.014 A 
ATOM     59  C   UNL A   1      40.477  31.589  36.062  1.00  0.00     0.010 A 
ATOM     60  C   UNL A   1      41.811  33.164  34.787  1.00  0.00     0.010 A 
ATOM     61  C   UNL A   1      40.095  32.616  36.929  1.00  0.00     0.020 A 
ATOM     62  C   UNL A   1      41.449  34.188  35.664  1.00  0.00     0.020 A 
ATOM     63  C   UNL A   1      40.575  33.912  36.718  1.00  0.00     0.054 A 
BRANCH  63  64
ATOM     64  S   UNL A   1      40.062  35.232  37.852  1.00  0.00     0.124 S 
ATOM     65  O   UNL A   1      41.228  35.346  38.726  1.00  0.00    -0.237 OA
ATOM     66  O   UNL A   1      39.837  36.362  36.955  1.00  0.00    -0.237 OA
ATOM     67  O   UNL A   1      38.860  34.696  38.486  1.00  0.00    -0.744 OA
ENDBRANCH  63  64
ENDBRANCH  44  58
BRANCH  45  68
ATOM     68  C   UNL A   1      43.538  24.819  28.234  1.00  0.00    -0.014 A 
ATOM     69  C   UNL A   1      43.045  23.512  28.381  1.00  0.00     0.010 A 
ATOM     70  C   UNL A   1      44.342  25.130  27.122  1.00  0.00     0.010 A 
ATOM     71  C   UNL A   1      43.357  22.529  27.436  1.00  0.00     0.020 A 
ATOM     72  C   UNL A   1      44.637  24.156  26.165  1.00  0.00     0.020 A 
ATOM     73  C   UNL A   1      44.151  22.858  26.334  1.00  0.00     0.054 A 
BRANCH  73  74
ATOM     74  S   UNL A   1      44.496  21.586  25.086  1.00  0.00     0.124 S 
ATOM     75  O   UNL A   1      43.490  20.577  25.397  1.00  0.00    -0.237 OA
ATOM     76  O   UNL A   1      44.302  22.310  23.831  1.00  0.00    -0.237 OA
ATOM     77  O   UNL A   1      45.879  21.204  25.365  1.00  0.00    -0.744 OA
ENDBRANCH  73  74
ENDBRANCH  45  68
BRANCH  57  78
ATOM     78  C   UNL A   1      46.819  27.308  33.855  1.00  0.00    -0.014 A 
ATOM     79  C   UNL A   1      48.005  27.980  33.507  1.00  0.00     0.010 A 
ATOM     80  C   UNL A   1      46.857  26.315  34.850  1.00  0.00     0.010 A 
ATOM     81  C   UNL A   1      49.213  27.640  34.122  1.00  0.00     0.020 A 
ATOM     82  C   UNL A   1      48.060  25.988  35.481  1.00  0.00     0.020 A 
ATOM     83  C   UNL A   1      49.234  26.643  35.101  1.00  0.00     0.054 A 
BRANCH  83  84
ATOM     84  S   UNL A   1      50.806  26.239  35.912  1.00  0.00     0.124 S 
ATOM     85  O   UNL A   1      51.190  27.526  36.486  1.00  0.00    -0.237 OA
ATOM     86  O   UNL A   1      50.420  25.211  36.876  1.00  0.00    -0.237 OA
ATOM     87  O   UNL A   1      51.648  25.769  34.815  1.00  0.00    -0.744 OA
ENDBRANCH  83  84
ENDBRANCH  57  78
ENDBRANCH  31  32
ENDBRANCH  24  26
ENDBRANCH  23  24
ENDBRANCH  22  23
ENDBRANCH   1  22
TORSDOF 17
ENDMDL
MODEL 2
REMARK VINA RESULT:      -9.7      1.818      2.341
REMARK SMILES C[C@@H](Sc1nc2ccccc2c(=O)n1N)C(=O)OCCOC(=O)c1ccc(-c2c3nc(c(-c4ccc(S(=O)(=O)[O-])cc4)c4ccc([nH]4)c(-c4ccc(S(=O)(=O)[O-])cc4)c4nc(c(-c5ccc(S(=O)(=O)[O-])cc5)c5ccc2[nH]5)C=C4)C=C3)cc1
REMARK SMILES IDX 19 1 18 2 16 3 17 4 2 5 1 6 3 7 4 8 5 9 14 10 6 11 12 12
REMARK SMILES IDX 7 13 11 14 13 15 8 16 10 17 9 18 15 19 20 22 21 23 22 24
REMARK SMILES IDX 23 25 24 26 25 27 83 28 26 29 82 30 27 31 28 32 29 33 76 34
REMARK SMILES IDX 30 35 81 36 75 37 77 38 31 39 80 40 74 41 73 42 32 44 62 45
REMARK SMILES IDX 43 46 61 47 44 48 47 49 60 50 78 51 45 52 46 53 59 55 79 56
REMARK SMILES IDX 48 57 33 58 34 59 42 60 35 61 41 62 36 63 37 64 38 65 39 66
REMARK SMILES IDX 40 67 63 68 64 69 72 70 65 71 71 72 66 73 67 74 68 75 69 76
REMARK SMILES IDX 70 77 49 78 50 79 58 80 51 81 57 82 52 83 53 84 54 85 55 86
REMARK SMILES IDX 56 87
REMARK H PARENT 15 20 15 21 77 43 47 54
REMARK Flexibility Score: inf
ROOT
ATOM      1  C   UNL A   1      33.475  33.916  28.179  1.00  0.00     0.274 C 
ENDROOT
BRANCH   1   2
ATOM      2  O   UNL A   1      33.004  34.191  29.512  1.00  0.00    -0.461 OA
BRANCH   2   3
ATOM      3  C   UNL A   1      32.971  35.501  29.880  1.00  0.00     0.319 C 
ATOM      4  O   UNL A   1      32.493  36.394  29.188  1.00  0.00    -0.251 OA
BRANCH   3   5
ATOM      5  C   UNL A   1      33.597  35.756  31.249  1.00  0.00     0.161 C 
ATOM      6  C   UNL A   1      32.833  36.735  32.131  1.00  0.00     0.032 C 
BRANCH   5   7
ATOM      7  S   UNL A   1      33.820  34.137  32.065  1.00  0.00    -0.071 SA
BRANCH   7   8
ATOM      8  C   UNL A   1      35.544  34.169  32.369  1.00  0.00     0.191 A 
ATOM      9  N   UNL A   1      36.312  34.260  31.331  1.00  0.00    -0.222 NA
ATOM     10  N   UNL A   1      36.012  34.155  33.681  1.00  0.00    -0.202 N 
ATOM     11  C   UNL A   1      37.693  34.367  31.537  1.00  0.00     0.079 A 
ATOM     12  C   UNL A   1      37.376  34.246  33.970  1.00  0.00     0.280 A 
ATOM     13  C   UNL A   1      38.526  34.502  30.423  1.00  0.00     0.029 A 
ATOM     14  C   UNL A   1      38.271  34.371  32.807  1.00  0.00     0.068 A 
ATOM     15  O   UNL A   1      37.831  34.238  35.113  1.00  0.00    -0.267 OA
ATOM     16  C   UNL A   1      39.908  34.644  30.578  1.00  0.00     0.002 A 
ATOM     17  C   UNL A   1      39.654  34.508  32.975  1.00  0.00     0.016 A 
ATOM     18  C   UNL A   1      40.471  34.647  31.854  1.00  0.00     0.001 A 
BRANCH  10  19
ATOM     19  N   UNL A   1      35.129  34.045  34.805  1.00  0.00    -0.334 N 
ATOM     20  H   UNL A   1      34.701  34.851  35.177  1.00  0.00     0.178 HD
ATOM     21  H   UNL A   1      34.949  33.164  35.206  1.00  0.00     0.178 HD
ENDBRANCH  10  19
ENDBRANCH   7   8
ENDBRANCH   5   7
ENDBRANCH   3   5
ENDBRANCH   2   3
ENDBRANCH   1   2
BRANCH   1  22
ATOM     22  C   UNL A   1      34.730  33.038  28.179  1.00  0.00     0.275 C 
BRANCH  22  23
ATOM     23  O   UNL A   1      34.518  31.774  28.837  1.00  0.00    -0.458 OA
BRANCH  23  24
ATOM     24  C   UNL A   1      34.688  30.688  28.048  1.00  0.00     0.338 C 
ATOM     25  O   UNL A   1      33.939  30.298  27.167  1.00  0.00    -0.246 OA
BRANCH  24  26
ATOM     26  C   UNL A   1      36.003  30.075  28.291  1.00  0.00     0.060 A 
ATOM     27  C   UNL A   1      36.243  29.545  29.562  1.00  0.00     0.016 A 
ATOM     28  C   UNL A   1      37.019  30.106  27.334  1.00  0.00     0.016 A 
ATOM     29  C   UNL A   1      37.504  29.061  29.892  1.00  0.00     0.010 A 
ATOM     30  C   UNL A   1      38.289  29.620  27.667  1.00  0.00     0.010 A 
ATOM     31  C   UNL A   1      38.542  29.113  28.954  1.00  0.00    -0.014 A 
BRANCH  31  32
ATOM     32  C   UNL A   1      39.904  28.702  29.365  1.00  0.00     0.031 A 
ATOM     33  C   UNL A   1      40.718  29.601  30.251  1.00  0.00     0.074 A 
ATOM     34  C   UNL A   1      40.382  27.501  28.994  1.00  0.00     0.049 A 
ATOM     35  N   UNL A   1      41.927  29.426  30.718  1.00  0.00    -0.248 NA
ATOM     36  C   UNL A   1      40.086  30.862  30.672  1.00  0.00     0.031 C 
ATOM     37  C   UNL A   1      39.663  26.519  28.182  1.00  0.00     0.029 A 
ATOM     38  N   UNL A   1      41.585  26.898  29.264  1.00  0.00    -0.354 N 
ATOM     39  C   UNL A   1      42.209  30.558  31.473  1.00  0.00     0.074 A 
ATOM     40  C   UNL A   1      41.051  31.421  31.390  1.00  0.00     0.031 C 
ATOM     41  C   UNL A   1      40.433  25.429  28.031  1.00  0.00     0.029 A 
ATOM     42  C   UNL A   1      41.712  25.651  28.702  1.00  0.00     0.049 A 
ATOM     43  H   UNL A   1      42.288  27.319  29.808  1.00  0.00     0.167 HD
ATOM     44  C   UNL A   1      43.331  30.851  32.173  1.00  0.00     0.031 A 
ATOM     45  C   UNL A   1      42.748  24.791  28.715  1.00  0.00     0.031 A 
ATOM     46  C   UNL A   1      44.484  29.994  32.253  1.00  0.00     0.049 A 
ATOM     47  C   UNL A   1      44.005  25.164  29.450  1.00  0.00     0.074 A 
ATOM     48  C   UNL A   1      45.670  30.204  32.932  1.00  0.00     0.029 A 
ATOM     49  N   UNL A   1      44.593  28.760  31.629  1.00  0.00    -0.354 N 
ATOM     50  N   UNL A   1      44.260  26.245  30.149  1.00  0.00    -0.248 NA
ATOM     51  C   UNL A   1      45.114  24.201  29.398  1.00  0.00     0.031 C 
ATOM     52  C   UNL A   1      46.514  29.113  32.689  1.00  0.00     0.029 A 
ATOM     53  C   UNL A   1      45.834  28.204  31.893  1.00  0.00     0.049 A 
ATOM     54  H   UNL A   1      43.892  28.340  31.079  1.00  0.00     0.167 HD
ATOM     55  C   UNL A   1      45.553  26.084  30.636  1.00  0.00     0.074 A 
ATOM     56  C   UNL A   1      46.021  24.797  30.161  1.00  0.00     0.031 C 
ATOM     57  C   UNL A   1      46.285  26.925  31.407  1.00  0.00     0.031 A 
BRANCH  44  58
ATOM     58  C   UNL A   1      43.376  32.182  32.873  1.00  0.00    -0.014 A 
ATOM     59  C   UNL A   1      42.867  32.341  34.174  1.00  0.00     0.010 A 
ATOM     60  C   UNL A   1      43.944  33.291  32.218  1.00  0.00     0.010 A 
ATOM     61  C   UNL A   1      42.885  33.594  34.792  1.00  0.00     0.020 A 
ATOM     62  C   UNL A   1      43.983  34.541  32.841  1.00  0.00     0.020 A 
ATOM     63  C   UNL A   1      43.434  34.689  34.116  1.00  0.00     0.054 A 
BRANCH  63  64
ATOM     64  S   UNL A   1      43.443  36.308  34.935  1.00  0.00     0.124 S 
ATOM     65  O   UNL A   1      44.874  36.559  35.085  1.00  0.00    -0.237 OA
ATOM     66  O   UNL A   1      42.753  37.163  33.972  1.00  0.00    -0.237 OA
ATOM     67  O   UNL A   1      42.719  36.070  36.181  1.00  0.00    -0.744 OA
ENDBRANCH  63  64
ENDBRANCH  44  58
BRANCH  45  68
ATOM     68  C   UNL A   1      42.642  23.495  27.992  1.00  0.00    -0.014 A 
ATOM     69  C   UNL A   1      43.202  23.343  26.712  1.00  0.00     0.010 A 
ATOM     70  C   UNL A   1      41.991  22.402  28.592  1.00  0.00     0.010 A 
ATOM     71  C   UNL A   1      43.105  22.121  26.040  1.00  0.00     0.020 A 
ATOM     72  C   UNL A   1      41.911  21.173  27.932  1.00  0.00     0.020 A 
ATOM     73  C   UNL A   1      42.459  21.043  26.654  1.00  0.00     0.054 A 
BRANCH  73  74
ATOM     74  S   UNL A   1      42.395  19.448  25.792  1.00  0.00     0.124 S 
ATOM     75  O   UNL A   1      43.409  19.621  24.759  1.00  0.00    -0.237 OA
ATOM     76  O   UNL A   1      42.726  18.499  26.853  1.00  0.00    -0.237 OA
ATOM     77  O   UNL A   1      41.016  19.376  25.314  1.00  0.00    -0.744 OA
ENDBRANCH  73  74
ENDBRANCH  45  68
BRANCH  57  78
ATOM     78  C   UNL A   1      47.660  26.466  31.806  1.00  0.00    -0.014 A 
ATOM     79  C   UNL A   1      48.775  26.714  30.985  1.00  0.00     0.010 A 
ATOM     80  C   UNL A   1      47.844  25.809  33.035  1.00  0.00     0.010 A 
ATOM     81  C   UNL A   1      50.046  26.283  31.374  1.00  0.00     0.020 A 
ATOM     82  C   UNL A   1      49.117  25.395  33.437  1.00  0.00     0.020 A 
ATOM     83  C   UNL A   1      50.208  25.622  32.595  1.00  0.00     0.054 A 
BRANCH  83  84
ATOM     84  S   UNL A   1      51.871  25.099  33.098  1.00  0.00     0.124 S 
ATOM     85  O   UNL A   1      51.758  25.089  34.554  1.00  0.00    -0.237 OA
ATOM     86  O   UNL A   1      52.003  23.787  32.469  1.00  0.00    -0.237 OA
ATOM     87  O   UNL A   1      52.740  26.136  32.546  1.00  0.00    -0.744 OA
ENDBRANCH  83  84
ENDBRANCH  57  78
ENDBRANCH  31  32
ENDBRANCH  24  26
ENDBRANCH  23  24
ENDBRANCH  22  23
ENDBRANCH   1  22
TORSDOF 17
ENDMDL
MODEL 3
REMARK VINA RESULT:      -9.5      4.114     11.272
REMARK SMILES C[C@@H](Sc1nc2ccccc2c(=O)n1N)C(=O)OCCOC(=O)c1ccc(-c2c3nc(c(-c4ccc(S(=O)(=O)[O-])cc4)c4ccc([nH]4)c(-c4ccc(S(=O)(=O)[O-])cc4)c4nc(c(-c5ccc(S(=O)(=O)[O-])cc5)c5ccc2[nH]5)C=C4)C=C3)cc1
REMARK SMILES IDX 19 1 18 2 16 3 17 4 2 5 1 6 3 7 4 8 5 9 14 10 6 11 12 12
REMARK SMILES IDX 7 13 11 14 13 15 8 16 10 17 9 18 15 19 20 22 21 23 22 24
REMARK SMILES IDX 23 25 24 26 25 27 83 28 26 29 82 30 27 31 28 32 29 33 76 34
REMARK SMILES IDX 30 35 81 36 75 37 77 38 31 39 80 40 74 41 73 42 32 44 62 45
REMARK SMILES IDX 43 46 61 47 44 48 47 49 60 50 78 51 45 52 46 53 59 55 79 56
REMARK SMILES IDX 48 57 33 58 34 59 42 60 35 61 41 62 36 63 37 64 38 65 39 66
REMARK SMILES IDX 40 67 63 68 64 69 72 70 65 71 71 72 66 73 67 74 68 75 69 76
REMARK SMILES IDX 70 77 49 78 50 79 58 80 51 81 57 82 52 83 53 84 54 85 55 86
REMARK SMILES IDX 56 87
REMARK H PARENT 15 20 15 21 77 43 47 54
REMARK Flexibility Score: inf
ROOT
ATOM      1  C   UNL A   1      39.084  21.824  25.962  1.00  0.00     0.274 C 
ENDROOT
BRANCH   1   2
ATOM      2  O   UNL A   1      37.693  22.134  26.163  1.00  0.00    -0.461 OA
BRANCH   2   3
ATOM      3  C   UNL A   1      36.815  21.549  25.302  1.00  0.00     0.319 C 
ATOM      4  O   UNL A   1      36.663  20.336  25.201  1.00  0.00    -0.251 OA
BRANCH   3   5
ATOM      5  C   UNL A   1      36.034  22.557  24.462  1.00  0.00     0.161 C 
ATOM      6  C   UNL A   1      36.618  22.832  23.083  1.00  0.00     0.032 C 
BRANCH   5   7
ATOM      7  S   UNL A   1      34.305  21.974  24.365  1.00  0.00    -0.071 SA
BRANCH   7   8
ATOM      8  C   UNL A   1      33.477  23.305  25.143  1.00  0.00     0.191 A 
ATOM      9  N   UNL A   1      33.956  24.489  24.927  1.00  0.00    -0.222 NA
ATOM     10  N   UNL A   1      32.332  23.058  25.896  1.00  0.00    -0.202 N 
ATOM     11  C   UNL A   1      33.275  25.587  25.469  1.00  0.00     0.079 A 
ATOM     12  C   UNL A   1      31.603  24.097  26.479  1.00  0.00     0.280 A 
ATOM     13  C   UNL A   1      33.765  26.869  25.211  1.00  0.00     0.029 A 
ATOM     14  C   UNL A   1      32.115  25.456  26.233  1.00  0.00     0.068 A 
ATOM     15  O   UNL A   1      30.587  23.923  27.150  1.00  0.00    -0.267 OA
ATOM     16  C   UNL A   1      33.103  27.999  25.702  1.00  0.00     0.002 A 
ATOM     17  C   UNL A   1      31.445  26.579  26.734  1.00  0.00     0.016 A 
ATOM     18  C   UNL A   1      31.944  27.853  26.464  1.00  0.00     0.001 A 
BRANCH  10  19
ATOM     19  N   UNL A   1      31.837  21.730  26.118  1.00  0.00    -0.334 N 
ATOM     20  H   UNL A   1      32.436  21.034  26.473  1.00  0.00     0.178 HD
ATOM     21  H   UNL A   1      30.897  21.515  25.917  1.00  0.00     0.178 HD
ENDBRANCH  10  19
ENDBRANCH   7   8
ENDBRANCH   5   7
ENDBRANCH   3   5
ENDBRANCH   2   3
ENDBRANCH   1   2
BRANCH   1  22
ATOM     22  C   UNL A   1      40.008  22.839  26.643  1.00  0.00     0.275 C 
BRANCH  22  23
ATOM     23  O   UNL A   1      39.437  24.160  26.685  1.00  0.00    -0.458 OA
BRANCH  23  24
ATOM     24  C   UNL A   1      40.313  25.164  26.450  1.00  0.00     0.338 C 
ATOM     25  O   UNL A   1      40.863  25.424  25.392  1.00  0.00    -0.246 OA
BRANCH  24  26
ATOM     26  C   UNL A   1      40.435  26.030  27.634  1.00  0.00     0.060 A 
ATOM     27  C   UNL A   1      39.461  25.904  28.629  1.00  0.00     0.016 A 
ATOM     28  C   UNL A   1      41.420  27.016  27.728  1.00  0.00     0.016 A 
ATOM     29  C   UNL A   1      39.452  26.774  29.713  1.00  0.00     0.010 A 
ATOM     30  C   UNL A   1      41.408  27.893  28.819  1.00  0.00     0.010 A 
ATOM     31  C   UNL A   1      40.413  27.788  29.806  1.00  0.00    -0.014 A 
BRANCH  31  32
ATOM     32  C   UNL A   1      40.313  28.775  30.906  1.00  0.00     0.031 A 
ATOM     33  C   UNL A   1      41.250  28.686  32.076  1.00  0.00     0.074 A 
ATOM     34  C   UNL A   1      39.424  29.782  30.823  1.00  0.00     0.049 A 
ATOM     35  N   UNL A   1      41.322  29.448  33.136  1.00  0.00    -0.248 NA
ATOM     36  C   UNL A   1      42.240  27.597  32.046  1.00  0.00     0.031 C 
ATOM     37  C   UNL A   1      38.500  30.005  29.710  1.00  0.00     0.029 A 
ATOM     38  N   UNL A   1      39.163  30.814  31.688  1.00  0.00    -0.354 N 
ATOM     39  C   UNL A   1      42.352  28.925  33.909  1.00  0.00     0.074 A 
ATOM     40  C   UNL A   1      42.866  27.771  33.202  1.00  0.00     0.031 C 
ATOM     41  C   UNL A   1      37.783  31.114  29.954  1.00  0.00     0.029 A 
ATOM     42  C   UNL A   1      38.169  31.656  31.254  1.00  0.00     0.049 A 
ATOM     43  H   UNL A   1      39.644  30.939  32.539  1.00  0.00     0.167 HD
ATOM     44  C   UNL A   1      42.827  29.367  35.098  1.00  0.00     0.031 A 
ATOM     45  C   UNL A   1      37.621  32.736  31.845  1.00  0.00     0.031 A 
ATOM     46  C   UNL A   1      42.313  30.512  35.801  1.00  0.00     0.049 A 
ATOM     47  C   UNL A   1      38.126  33.171  33.193  1.00  0.00     0.074 A 
ATOM     48  C   UNL A   1      42.724  31.037  37.013  1.00  0.00     0.029 A 
ATOM     49  N   UNL A   1      41.272  31.311  35.351  1.00  0.00    -0.354 N 
ATOM     50  N   UNL A   1      39.093  32.658  33.915  1.00  0.00    -0.248 NA
ATOM     51  C   UNL A   1      37.465  34.333  33.803  1.00  0.00     0.031 C 
ATOM     52  C   UNL A   1      41.906  32.132  37.316  1.00  0.00     0.029 A 
ATOM     53  C   UNL A   1      41.015  32.314  36.271  1.00  0.00     0.049 A 
ATOM     54  H   UNL A   1      40.787  31.184  34.504  1.00  0.00     0.167 HD
ATOM     55  C   UNL A   1      39.169  33.446  35.059  1.00  0.00     0.074 A 
ATOM     56  C   UNL A   1      38.158  34.476  34.925  1.00  0.00     0.031 C 
ATOM     57  C   UNL A   1      40.001  33.327  36.123  1.00  0.00     0.031 A 
BRANCH  44  58
ATOM     58  C   UNL A   1      43.936  28.572  35.733  1.00  0.00    -0.014 A 
ATOM     59  C   UNL A   1      45.286  28.880  35.488  1.00  0.00     0.010 A 
ATOM     60  C   UNL A   1      43.620  27.505  36.593  1.00  0.00     0.010 A 
ATOM     61  C   UNL A   1      46.301  28.106  36.059  1.00  0.00     0.020 A 
ATOM     62  C   UNL A   1      44.632  26.743  37.182  1.00  0.00     0.020 A 
ATOM     63  C   UNL A   1      45.967  27.036  36.893  1.00  0.00     0.054 A 
BRANCH  63  64
ATOM     64  S   UNL A   1      47.299  26.042  37.620  1.00  0.00     0.124 S 
ATOM     65  O   UNL A   1      48.245  25.951  36.510  1.00  0.00    -0.237 OA
ATOM     66  O   UNL A   1      47.735  26.858  38.750  1.00  0.00    -0.237 OA
ATOM     67  O   UNL A   1      46.639  24.788  37.979  1.00  0.00    -0.744 OA
ENDBRANCH  63  64
ENDBRANCH  44  58
BRANCH  45  68
ATOM     68  C   UNL A   1      36.519  33.470  31.168  1.00  0.00    -0.014 A 
ATOM     69  C   UNL A   1      36.627  33.832  29.815  1.00  0.00     0.010 A 
ATOM     70  C   UNL A   1      35.348  33.797  31.876  1.00  0.00     0.010 A 
ATOM     71  C   UNL A   1      35.586  34.517  29.182  1.00  0.00     0.020 A 
ATOM     72  C   UNL A   1      34.297  34.462  31.241  1.00  0.00     0.020 A 
ATOM     73  C   UNL A   1      34.426  34.828  29.900  1.00  0.00     0.054 A 
BRANCH  73  74
ATOM     74  S   UNL A   1      33.060  35.664  29.047  1.00  0.00     0.124 S 
ATOM     75  O   UNL A   1      32.271  36.171  30.164  1.00  0.00    -0.237 OA
ATOM     76  O   UNL A   1      33.752  36.674  28.249  1.00  0.00    -0.237 OA
ATOM     77  O   UNL A   1      32.438  34.593  28.272  1.00  0.00    -0.744 OA
ENDBRANCH  73  74
ENDBRANCH  45  68
BRANCH  57  78
ATOM     78  C   UNL A   1      39.869  34.354  37.214  1.00  0.00    -0.014 A 
ATOM     79  C   UNL A   1      40.593  35.558  37.169  1.00  0.00     0.010 A 
ATOM     80  C   UNL A   1      38.981  34.124  38.280  1.00  0.00     0.010 A 
ATOM     81  C   UNL A   1      40.455  36.502  38.191  1.00  0.00     0.020 A 
ATOM     82  C   UNL A   1      38.825  35.075  39.292  1.00  0.00     0.020 A 
ATOM     83  C   UNL A   1      39.576  36.252  39.248  1.00  0.00     0.054 A 
BRANCH  83  84
ATOM     84  S   UNL A   1      39.385  37.503  40.548  1.00  0.00     0.124 S 
ATOM     85  O   UNL A   1      38.249  38.279  40.058  1.00  0.00    -0.237 OA
ATOM     86  O   UNL A   1      39.128  36.697  41.740  1.00  0.00    -0.237 OA
ATOM     87  O   UNL A   1      40.668  38.203  40.543  1.00  0.00    -0.744 OA
ENDBRANCH  83  84
ENDBRANCH  57  78
ENDBRANCH  31  32
ENDBRANCH  24  26
ENDBRANCH  23  24
ENDBRANCH  22  23
ENDBRANCH   1  22
TORSDOF 17
ENDMDL
