MODEL 1
REMARK VINA RESULT:     -15.8      0.000      0.000
REMARK SMILES Cc1ccccc1NC(=S)NN1C(=O)CS[C@H]1c1ccccc1C(=O)OCCOC(=O)c1ccc(-c2c3nc(c(-c4ccc(S(=O)(=O)[O-])cc4)c4ccc([nH]4)c(-c4ccc(S(=O)(=O)[O-])cc4)c4nc(c(-c5ccc(S(=O)(=O)[O-])cc5)c5ccc2[nH]5)C=C4)C=C3)cc1
REMARK SMILES IDX 27 1 26 2 24 3 25 4 23 5 18 6 19 7 20 8 22 9 21 10 17 11
REMARK SMILES IDX 12 12 13 13 14 14 15 15 16 16 11 17 9 19 10 20 8 21 7 23
REMARK SMILES IDX 1 24 2 25 3 26 4 27 6 28 5 29 28 30 29 31 30 32 31 33 32 34
REMARK SMILES IDX 33 35 91 36 34 37 90 38 35 39 36 40 37 41 84 42 38 43 89 44
REMARK SMILES IDX 83 45 85 46 39 47 88 48 82 49 81 50 40 52 70 53 51 54 69 55
REMARK SMILES IDX 52 56 55 57 68 58 86 59 53 60 54 61 67 63 87 64 56 65 41 66
REMARK SMILES IDX 42 67 50 68 43 69 49 70 44 71 45 72 46 73 47 74 48 75 71 76
REMARK SMILES IDX 72 77 80 78 73 79 79 80 74 81 75 82 76 83 77 84 78 85 57 86
REMARK SMILES IDX 58 87 66 88 59 89 65 90 60 91 61 92 62 93 63 94 64 95
REMARK H PARENT 11 18 8 22 85 51 55 62
REMARK Flexibility Score: inf
ROOT
ATOM      1  C   UNL A   1      39.065  22.300  26.116  1.00  0.00     0.275 C 
ENDROOT
BRANCH   1   2
ATOM      2  O   UNL A   1      37.660  21.170  25.782  1.00  0.00    -0.458 OA
BRANCH   2   3
ATOM      3  C   UNL A   1      37.305  19.667  24.990  1.00  0.00     0.338 C 
ATOM      4  O   UNL A   1      38.456  19.174  25.031  1.00  0.00    -0.246 OA
BRANCH   3   5
ATOM      5  C   UNL A   1      35.297  18.938  24.516  1.00  0.00     0.066 A 
ATOM      6  C   UNL A   1      33.939  19.987  24.638  1.00  0.00     0.001 A 
ATOM      7  C   UNL A   1      32.597  19.649  24.389  1.00  0.00     0.008 A 
ATOM      8  C   UNL A   1      32.278  18.326  24.195  1.00  0.00     0.000 A 
ATOM      9  C   UNL A   1      34.672  17.616  24.321  1.00  0.00     0.016 A 
ATOM     10  C   UNL A   1      33.269  17.347  24.223  1.00  0.00     0.001 A 
BRANCH   6  11
ATOM     11  C   UNL A   1      34.081  21.673  25.310  1.00  0.00     0.197 C 
ATOM     12  N   UNL A   1      32.845  22.869  25.030  1.00  0.00    -0.236 N 
ATOM     13  C   UNL A   1      32.006  22.829  26.438  1.00  0.00     0.252 C 
ATOM     14  O   UNL A   1      30.801  22.639  26.645  1.00  0.00    -0.272 OA
ATOM     15  C   UNL A   1      32.855  22.550  27.625  1.00  0.00     0.174 C 
ATOM     16  S   UNL A   1      34.170  21.458  27.194  1.00  0.00    -0.120 SA
BRANCH  12  17
ATOM     17  N   UNL A   1      32.239  23.536  23.245  1.00  0.00    -0.270 N 
ATOM     18  H   UNL A   1      32.031  22.799  22.626  1.00  0.00     0.191 HD
BRANCH  17  19
ATOM     19  C   UNL A   1      31.992  25.068  22.528  1.00  0.00     0.189 C 
ATOM     20  S   UNL A   1      32.676  25.373  21.015  1.00  0.00    -0.039 S 
BRANCH  19  21
ATOM     21  N   UNL A   1      30.863  26.117  23.008  1.00  0.00    -0.331 N 
ATOM     22  H   UNL A   1      30.008  25.913  22.563  1.00  0.00     0.169 HD
BRANCH  21  23
ATOM     23  C   UNL A   1      30.685  27.351  23.949  1.00  0.00     0.043 A 
ATOM     24  C   UNL A   1      31.488  26.308  26.161  1.00  0.00     0.046 C 
ATOM     25  C   UNL A   1      31.307  27.453  25.214  1.00  0.00    -0.028 A 
ATOM     26  C   UNL A   1      31.629  28.741  25.764  1.00  0.00     0.005 A 
ATOM     27  C   UNL A   1      31.306  29.921  25.113  1.00  0.00     0.000 A 
ATOM     28  C   UNL A   1      30.036  28.549  23.597  1.00  0.00     0.026 A 
ATOM     29  C   UNL A   1      30.444  29.823  24.049  1.00  0.00     0.002 A 
ENDBRANCH  21  23
ENDBRANCH  19  21
ENDBRANCH  17  19
ENDBRANCH  12  17
ENDBRANCH   6  11
ENDBRANCH   3   5
ENDBRANCH   2   3
ENDBRANCH   1   2
BRANCH   1  30
ATOM     30  C   UNL A   1      38.842  24.282  26.685  1.00  0.00     0.275 C 
BRANCH  30  31
ATOM     31  O   UNL A   1      40.101  25.521  26.154  1.00  0.00    -0.458 OA
BRANCH  31  32
ATOM     32  C   UNL A   1      40.764  26.701  26.785  1.00  0.00     0.338 C 
ATOM     33  O   UNL A   1      41.237  27.577  26.068  1.00  0.00    -0.246 OA
BRANCH  32  34
ATOM     34  C   UNL A   1      40.704  26.992  28.444  1.00  0.00     0.060 A 
ATOM     35  C   UNL A   1      39.325  26.414  29.453  1.00  0.00     0.016 A 
ATOM     36  C   UNL A   1      41.898  28.124  29.436  1.00  0.00     0.016 A 
ATOM     37  C   UNL A   1      39.170  27.100  31.150  1.00  0.00     0.010 A 
ATOM     38  C   UNL A   1      41.665  28.601  31.024  1.00  0.00     0.010 A 
ATOM     39  C   UNL A   1      40.346  28.220  31.878  1.00  0.00    -0.014 A 
BRANCH  39  40
ATOM     40  C   UNL A   1      40.242  29.678  32.432  1.00  0.00     0.031 A 
ATOM     41  C   UNL A   1      39.164  30.620  31.618  1.00  0.00     0.074 A 
ATOM     42  C   UNL A   1      40.709  29.847  33.712  1.00  0.00     0.049 A 
ATOM     43  N   UNL A   1      39.441  31.708  30.963  1.00  0.00    -0.248 NA
ATOM     44  C   UNL A   1      37.691  30.285  31.238  1.00  0.00     0.031 C 
ATOM     45  C   UNL A   1      40.636  30.916  34.713  1.00  0.00     0.029 A 
ATOM     46  N   UNL A   1      41.615  28.980  34.327  1.00  0.00    -0.354 N 
ATOM     47  C   UNL A   1      38.190  32.320  30.762  1.00  0.00     0.074 A 
ATOM     48  C   UNL A   1      37.290  31.278  30.461  1.00  0.00     0.031 C 
ATOM     49  C   UNL A   1      41.738  30.856  35.505  1.00  0.00     0.029 A 
ATOM     50  C   UNL A   1      42.510  29.674  35.137  1.00  0.00     0.049 A 
ATOM     51  H   UNL A   1      41.621  28.003  34.202  1.00  0.00     0.167 HD
ATOM     52  C   UNL A   1      37.841  33.434  31.481  1.00  0.00     0.031 A 
ATOM     53  C   UNL A   1      43.804  29.622  34.703  1.00  0.00     0.031 A 
ATOM     54  C   UNL A   1      38.970  33.835  32.318  1.00  0.00     0.049 A 
ATOM     55  C   UNL A   1      43.981  30.795  33.737  1.00  0.00     0.074 A 
ATOM     56  C   UNL A   1      39.195  33.958  33.674  1.00  0.00     0.029 A 
ATOM     57  N   UNL A   1      40.223  33.809  31.733  1.00  0.00    -0.354 N 
ATOM     58  N   UNL A   1      42.984  31.466  33.205  1.00  0.00    -0.248 NA
ATOM     59  C   UNL A   1      45.262  31.438  33.463  1.00  0.00     0.031 C 
ATOM     60  C   UNL A   1      40.619  33.920  33.874  1.00  0.00     0.029 A 
ATOM     61  C   UNL A   1      41.241  33.724  32.650  1.00  0.00     0.049 A 
ATOM     62  H   UNL A   1      40.369  33.847  30.760  1.00  0.00     0.167 HD
ATOM     63  C   UNL A   1      43.425  32.623  32.638  1.00  0.00     0.074 A 
ATOM     64  C   UNL A   1      44.868  32.544  32.802  1.00  0.00     0.031 C 
ATOM     65  C   UNL A   1      42.608  33.603  32.137  1.00  0.00     0.031 A 
BRANCH  52  66
ATOM     66  C   UNL A   1      36.436  34.029  31.610  1.00  0.00    -0.014 A 
ATOM     67  C   UNL A   1      36.179  34.814  32.749  1.00  0.00     0.010 A 
ATOM     68  C   UNL A   1      35.357  33.923  30.695  1.00  0.00     0.010 A 
ATOM     69  C   UNL A   1      34.961  35.485  32.947  1.00  0.00     0.020 A 
ATOM     70  C   UNL A   1      34.130  34.596  30.875  1.00  0.00     0.020 A 
ATOM     71  C   UNL A   1      33.948  35.389  31.998  1.00  0.00     0.054 A 
BRANCH  71  72
ATOM     72  S   UNL A   1      32.429  36.348  32.244  1.00  0.00     0.124 S 
ATOM     73  O   UNL A   1      31.445  35.309  32.530  1.00  0.00    -0.237 OA
ATOM     74  O   UNL A   1      32.782  37.210  33.369  1.00  0.00    -0.237 OA
ATOM     75  O   UNL A   1      32.242  37.043  30.971  1.00  0.00    -0.744 OA
ENDBRANCH  71  72
ENDBRANCH  52  66
BRANCH  53  76
ATOM     76  C   UNL A   1      44.239  28.160  34.622  1.00  0.00    -0.014 A 
ATOM     77  C   UNL A   1      44.114  27.416  35.833  1.00  0.00     0.010 A 
ATOM     78  C   UNL A   1      44.353  27.404  33.447  1.00  0.00     0.010 A 
ATOM     79  C   UNL A   1      43.881  26.027  35.853  1.00  0.00     0.020 A 
ATOM     80  C   UNL A   1      44.174  25.984  33.467  1.00  0.00     0.020 A 
ATOM     81  C   UNL A   1      43.868  25.319  34.661  1.00  0.00     0.054 A 
BRANCH  81  82
ATOM     82  S   UNL A   1      43.314  23.573  34.700  1.00  0.00     0.124 S 
ATOM     83  O   UNL A   1      43.447  23.164  33.305  1.00  0.00    -0.237 OA
ATOM     84  O   UNL A   1      44.255  22.948  35.626  1.00  0.00    -0.237 OA
ATOM     85  O   UNL A   1      41.938  23.661  35.189  1.00  0.00    -0.744 OA
ENDBRANCH  81  82
ENDBRANCH  53  76
BRANCH  65  86
ATOM     86  C   UNL A   1      43.058  34.596  31.078  1.00  0.00    -0.014 A 
ATOM     87  C   UNL A   1      42.889  34.386  29.707  1.00  0.00     0.010 A 
ATOM     88  C   UNL A   1      43.569  35.866  31.458  1.00  0.00     0.010 A 
ATOM     89  C   UNL A   1      43.351  35.311  28.769  1.00  0.00     0.020 A 
ATOM     90  C   UNL A   1      43.924  36.845  30.536  1.00  0.00     0.020 A 
ATOM     91  C   UNL A   1      43.875  36.529  29.192  1.00  0.00     0.054 A 
BRANCH  91  92
ATOM     92  S   UNL A   1      44.510  37.679  27.963  1.00  0.00     0.124 S 
ATOM     93  O   UNL A   1      44.906  36.771  26.890  1.00  0.00    -0.237 OA
ATOM     94  O   UNL A   1      43.348  38.516  27.682  1.00  0.00    -0.237 OA
ATOM     95  O   UNL A   1      45.610  38.353  28.649  1.00  0.00    -0.744 OA
ENDBRANCH  91  92
ENDBRANCH  65  86
ENDBRANCH  39  40
ENDBRANCH  32  34
ENDBRANCH  31  32
ENDBRANCH  30  31
ENDBRANCH   1  30
TORSDOF 19
ENDMDL
MODEL 2
REMARK VINA RESULT:     -15.6      3.882     10.998
REMARK SMILES Cc1ccccc1NC(=S)NN1C(=O)CS[C@H]1c1ccccc1C(=O)OCCOC(=O)c1ccc(-c2c3nc(c(-c4ccc(S(=O)(=O)[O-])cc4)c4ccc([nH]4)c(-c4ccc(S(=O)(=O)[O-])cc4)c4nc(c(-c5ccc(S(=O)(=O)[O-])cc5)c5ccc2[nH]5)C=C4)C=C3)cc1
REMARK SMILES IDX 27 1 26 2 24 3 25 4 23 5 18 6 19 7 20 8 22 9 21 10 17 11
REMARK SMILES IDX 12 12 13 13 14 14 15 15 16 16 11 17 9 19 10 20 8 21 7 23
REMARK SMILES IDX 1 24 2 25 3 26 4 27 6 28 5 29 28 30 29 31 30 32 31 33 32 34
REMARK SMILES IDX 33 35 91 36 34 37 90 38 35 39 36 40 37 41 84 42 38 43 89 44
REMARK SMILES IDX 83 45 85 46 39 47 88 48 82 49 81 50 40 52 70 53 51 54 69 55
REMARK SMILES IDX 52 56 55 57 68 58 86 59 53 60 54 61 67 63 87 64 56 65 41 66
REMARK SMILES IDX 42 67 50 68 43 69 49 70 44 71 45 72 46 73 47 74 48 75 71 76
REMARK SMILES IDX 72 77 80 78 73 79 79 80 74 81 75 82 76 83 77 84 78 85 57 86
REMARK SMILES IDX 58 87 66 88 59 89 65 90 60 91 61 92 62 93 63 94 64 95
REMARK H PARENT 11 18 8 22 85 51 55 62
REMARK Flexibility Score: inf
ROOT
ATOM      1  C   UNL A   1      34.280  31.235  27.601  1.00  0.00     0.275 C 
ENDROOT
BRANCH   1   2
ATOM      2  O   UNL A   1      34.115  29.652  26.690  1.00  0.00    -0.458 OA
BRANCH   2   3
ATOM      3  C   UNL A   1      33.060  28.853  25.567  1.00  0.00     0.338 C 
ATOM      4  O   UNL A   1      33.402  29.476  24.535  1.00  0.00    -0.246 OA
BRANCH   3   5
ATOM      5  C   UNL A   1      31.876  27.066  26.006  1.00  0.00     0.066 A 
ATOM      6  C   UNL A   1      32.280  25.556  25.290  1.00  0.00     0.001 A 
ATOM      7  C   UNL A   1      31.597  24.339  25.464  1.00  0.00     0.008 A 
ATOM      8  C   UNL A   1      30.389  24.352  26.120  1.00  0.00     0.000 A 
ATOM      9  C   UNL A   1      30.562  26.795  26.621  1.00  0.00     0.016 A 
ATOM     10  C   UNL A   1      29.868  25.543  26.621  1.00  0.00     0.001 A 
BRANCH   6  11
ATOM     11  C   UNL A   1      33.586  25.405  24.031  1.00  0.00     0.197 C 
ATOM     12  N   UNL A   1      34.364  23.880  23.708  1.00  0.00    -0.236 N 
ATOM     13  C   UNL A   1      33.584  23.379  22.355  1.00  0.00     0.252 C 
ATOM     14  O   UNL A   1      32.975  22.326  22.128  1.00  0.00    -0.272 OA
ATOM     15  C   UNL A   1      33.187  24.491  21.454  1.00  0.00     0.174 C 
ATOM     16  S   UNL A   1      32.772  25.923  22.397  1.00  0.00    -0.120 SA
BRANCH  12  17
ATOM     17  N   UNL A   1      35.387  22.780  25.027  1.00  0.00    -0.270 N 
ATOM     18  H   UNL A   1      35.355  23.165  25.933  1.00  0.00     0.191 HD
BRANCH  17  19
ATOM     19  C   UNL A   1      36.303  21.337  24.973  1.00  0.00     0.189 C 
ATOM     20  S   UNL A   1      37.973  21.430  25.199  1.00  0.00    -0.039 S 
BRANCH  19  21
ATOM     21  N   UNL A   1      35.664  19.859  25.086  1.00  0.00    -0.331 N 
ATOM     22  H   UNL A   1      36.240  19.290  25.646  1.00  0.00     0.169 HD
BRANCH  21  23
ATOM     23  C   UNL A   1      34.428  19.039  24.595  1.00  0.00     0.043 A 
ATOM     24  C   UNL A   1      32.558  20.702  25.194  1.00  0.00     0.046 C 
ATOM     25  C   UNL A   1      33.162  19.619  24.356  1.00  0.00    -0.028 A 
ATOM     26  C   UNL A   1      32.270  19.043  23.388  1.00  0.00     0.005 A 
ATOM     27  C   UNL A   1      32.585  17.887  22.692  1.00  0.00     0.000 A 
ATOM     28  C   UNL A   1      34.464  17.693  24.184  1.00  0.00     0.026 A 
ATOM     29  C   UNL A   1      33.667  17.171  23.143  1.00  0.00     0.002 A 
ENDBRANCH  21  23
ENDBRANCH  19  21
ENDBRANCH  17  19
ENDBRANCH  12  17
ENDBRANCH   6  11
ENDBRANCH   3   5
ENDBRANCH   2   3
ENDBRANCH   1   2
BRANCH   1  30
ATOM     30  C   UNL A   1      35.409  31.460  29.326  1.00  0.00     0.275 C 
BRANCH  30  31
ATOM     31  O   UNL A   1      36.057  29.961  30.183  1.00  0.00    -0.458 OA
BRANCH  31  32
ATOM     32  C   UNL A   1      37.409  29.367  30.410  1.00  0.00     0.338 C 
ATOM     33  O   UNL A   1      37.566  28.572  31.332  1.00  0.00    -0.246 OA
BRANCH  32  34
ATOM     34  C   UNL A   1      38.681  29.574  29.326  1.00  0.00     0.060 A 
ATOM     35  C   UNL A   1      38.484  29.235  27.565  1.00  0.00     0.016 A 
ATOM     36  C   UNL A   1      40.508  29.949  29.787  1.00  0.00     0.016 A 
ATOM     37  C   UNL A   1      40.008  29.126  26.547  1.00  0.00     0.010 A 
ATOM     38  C   UNL A   1      41.796  29.892  28.717  1.00  0.00     0.010 A 
ATOM     39  C   UNL A   1      41.646  29.427  27.176  1.00  0.00    -0.014 A 
BRANCH  39  40
ATOM     40  C   UNL A   1      42.936  28.550  27.280  1.00  0.00     0.031 A 
ATOM     41  C   UNL A   1      42.632  26.937  27.400  1.00  0.00     0.074 A 
ATOM     42  C   UNL A   1      44.088  29.160  26.848  1.00  0.00     0.049 A 
ATOM     43  N   UNL A   1      42.957  26.169  28.399  1.00  0.00    -0.248 NA
ATOM     44  C   UNL A   1      41.690  26.067  26.515  1.00  0.00     0.031 C 
ATOM     45  C   UNL A   1      45.452  28.713  26.548  1.00  0.00     0.029 A 
ATOM     46  N   UNL A   1      44.247  30.545  26.763  1.00  0.00    -0.354 N 
ATOM     47  C   UNL A   1      42.816  24.864  27.892  1.00  0.00     0.074 A 
ATOM     48  C   UNL A   1      41.657  24.878  27.093  1.00  0.00     0.031 C 
ATOM     49  C   UNL A   1      46.313  29.738  26.776  1.00  0.00     0.029 A 
ATOM     50  C   UNL A   1      45.539  30.929  27.110  1.00  0.00     0.049 A 
ATOM     51  H   UNL A   1      43.535  31.170  26.493  1.00  0.00     0.167 HD
ATOM     52  C   UNL A   1      43.926  24.112  27.600  1.00  0.00     0.031 A 
ATOM     53  C   UNL A   1      45.607  31.677  28.251  1.00  0.00     0.031 A 
ATOM     54  C   UNL A   1      45.123  24.857  27.984  1.00  0.00     0.049 A 
ATOM     55  C   UNL A   1      45.737  30.686  29.409  1.00  0.00     0.074 A 
ATOM     56  C   UNL A   1      46.222  25.363  27.322  1.00  0.00     0.029 A 
ATOM     57  N   UNL A   1      45.088  25.512  29.202  1.00  0.00    -0.354 N 
ATOM     58  N   UNL A   1      45.482  29.400  29.308  1.00  0.00    -0.248 NA
ATOM     59  C   UNL A   1      46.357  31.006  30.690  1.00  0.00     0.031 C 
ATOM     60  C   UNL A   1      46.784  26.394  28.154  1.00  0.00     0.029 A 
ATOM     61  C   UNL A   1      45.994  26.540  29.284  1.00  0.00     0.049 A 
ATOM     62  H   UNL A   1      44.476  25.267  29.934  1.00  0.00     0.167 HD
ATOM     63  C   UNL A   1      45.964  28.723  30.387  1.00  0.00     0.074 A 
ATOM     64  C   UNL A   1      46.479  29.782  31.240  1.00  0.00     0.031 C 
ATOM     65  C   UNL A   1      45.985  27.357  30.500  1.00  0.00     0.031 A 
BRANCH  52  66
ATOM     66  C   UNL A   1      43.958  22.824  26.773  1.00  0.00    -0.014 A 
ATOM     67  C   UNL A   1      45.103  22.600  25.987  1.00  0.00     0.010 A 
ATOM     68  C   UNL A   1      42.985  21.793  26.728  1.00  0.00     0.010 A 
ATOM     69  C   UNL A   1      45.296  21.421  25.248  1.00  0.00     0.020 A 
ATOM     70  C   UNL A   1      43.166  20.599  25.998  1.00  0.00     0.020 A 
ATOM     71  C   UNL A   1      44.334  20.415  25.273  1.00  0.00     0.054 A 
BRANCH  71  72
ATOM     72  S   UNL A   1      44.666  18.870  24.385  1.00  0.00     0.124 S 
ATOM     73  O   UNL A   1      43.561  18.018  24.815  1.00  0.00    -0.237 OA
ATOM     74  O   UNL A   1      44.626  19.297  22.989  1.00  0.00    -0.237 OA
ATOM     75  O   UNL A   1      45.984  18.462  24.869  1.00  0.00    -0.744 OA
ENDBRANCH  71  72
ENDBRANCH  52  66
BRANCH  53  76
ATOM     76  C   UNL A   1      44.749  32.928  28.071  1.00  0.00    -0.014 A 
ATOM     77  C   UNL A   1      43.928  33.272  29.186  1.00  0.00     0.010 A 
ATOM     78  C   UNL A   1      44.979  33.951  27.140  1.00  0.00     0.010 A 
ATOM     79  C   UNL A   1      43.555  34.598  29.476  1.00  0.00     0.020 A 
ATOM     80  C   UNL A   1      44.552  35.291  27.402  1.00  0.00     0.020 A 
ATOM     81  C   UNL A   1      43.908  35.615  28.602  1.00  0.00     0.054 A 
BRANCH  81  82
ATOM     82  S   UNL A   1      43.632  37.347  29.135  1.00  0.00     0.124 S 
ATOM     83  O   UNL A   1      44.727  38.060  28.485  1.00  0.00    -0.237 OA
ATOM     84  O   UNL A   1      42.299  37.644  28.614  1.00  0.00    -0.237 OA
ATOM     85  O   UNL A   1      43.720  37.275  30.593  1.00  0.00    -0.744 OA
ENDBRANCH  81  82
ENDBRANCH  53  76
BRANCH  65  86
ATOM     86  C   UNL A   1      46.020  26.638  31.839  1.00  0.00    -0.014 A 
ATOM     87  C   UNL A   1      47.195  26.159  32.424  1.00  0.00     0.010 A 
ATOM     88  C   UNL A   1      44.842  26.534  32.626  1.00  0.00     0.010 A 
ATOM     89  C   UNL A   1      47.173  25.472  33.638  1.00  0.00     0.020 A 
ATOM     90  C   UNL A   1      44.826  25.957  33.892  1.00  0.00     0.020 A 
ATOM     91  C   UNL A   1      45.986  25.367  34.358  1.00  0.00     0.054 A 
BRANCH  91  92
ATOM     92  S   UNL A   1      45.977  24.432  35.894  1.00  0.00     0.124 S 
ATOM     93  O   UNL A   1      45.372  25.390  36.817  1.00  0.00    -0.237 OA
ATOM     94  O   UNL A   1      45.150  23.277  35.556  1.00  0.00    -0.237 OA
ATOM     95  O   UNL A   1      47.387  24.138  36.135  1.00  0.00    -0.744 OA
ENDBRANCH  91  92
ENDBRANCH  65  86
ENDBRANCH  39  40
ENDBRANCH  32  34
ENDBRANCH  31  32
ENDBRANCH  30  31
ENDBRANCH   1  30
TORSDOF 19
ENDMDL
MODEL 3
REMARK VINA RESULT:     -15.3      3.979      6.614
REMARK SMILES Cc1ccccc1NC(=S)NN1C(=O)CS[C@H]1c1ccccc1C(=O)OCCOC(=O)c1ccc(-c2c3nc(c(-c4ccc(S(=O)(=O)[O-])cc4)c4ccc([nH]4)c(-c4ccc(S(=O)(=O)[O-])cc4)c4nc(c(-c5ccc(S(=O)(=O)[O-])cc5)c5ccc2[nH]5)C=C4)C=C3)cc1
REMARK SMILES IDX 27 1 26 2 24 3 25 4 23 5 18 6 19 7 20 8 22 9 21 10 17 11
REMARK SMILES IDX 12 12 13 13 14 14 15 15 16 16 11 17 9 19 10 20 8 21 7 23
REMARK SMILES IDX 1 24 2 25 3 26 4 27 6 28 5 29 28 30 29 31 30 32 31 33 32 34
REMARK SMILES IDX 33 35 91 36 34 37 90 38 35 39 36 40 37 41 84 42 38 43 89 44
REMARK SMILES IDX 83 45 85 46 39 47 88 48 82 49 81 50 40 52 70 53 51 54 69 55
REMARK SMILES IDX 52 56 55 57 68 58 86 59 53 60 54 61 67 63 87 64 56 65 41 66
REMARK SMILES IDX 42 67 50 68 43 69 49 70 44 71 45 72 46 73 47 74 48 75 71 76
REMARK SMILES IDX 72 77 80 78 73 79 79 80 74 81 75 82 76 83 77 84 78 85 57 86
REMARK SMILES IDX 58 87 66 88 59 89 65 90 60 91 61 92 62 93 63 94 64 95
REMARK H PARENT 11 18 8 22 85 51 55 62
REMARK Flexibility Score: inf
ROOT
ATOM      1  C   UNL A   1      33.860  29.177  26.437  1.00  0.00     0.275 C 
ENDROOT
BRANCH   1   2
ATOM      2  O   UNL A   1      32.739  28.116  25.446  1.00  0.00    -0.458 OA
BRANCH   2   3
ATOM      3  C   UNL A   1      32.558  26.468  24.929  1.00  0.00     0.338 C 
ATOM      4  O   UNL A   1      32.533  26.677  23.693  1.00  0.00    -0.246 OA
BRANCH   3   5
ATOM      5  C   UNL A   1      32.741  24.716  26.226  1.00  0.00     0.066 A 
ATOM      6  C   UNL A   1      34.224  23.848  26.313  1.00  0.00     0.001 A 
ATOM      7  C   UNL A   1      34.474  22.698  27.082  1.00  0.00     0.008 A 
ATOM      8  C   UNL A   1      33.415  22.076  27.699  1.00  0.00     0.000 A 
ATOM      9  C   UNL A   1      31.803  23.834  26.948  1.00  0.00     0.016 A 
ATOM     10  C   UNL A   1      32.125  22.591  27.582  1.00  0.00     0.001 A 
BRANCH   6  11
ATOM     11  C   UNL A   1      35.635  24.240  25.232  1.00  0.00     0.197 C 
ATOM     12  N   UNL A   1      37.197  23.509  25.477  1.00  0.00    -0.236 N 
ATOM     13  C   UNL A   1      37.199  22.321  24.347  1.00  0.00     0.252 C 
ATOM     14  O   UNL A   1      37.381  21.103  24.470  1.00  0.00    -0.272 OA
ATOM     15  C   UNL A   1      36.466  22.682  23.107  1.00  0.00     0.174 C 
ATOM     16  S   UNL A   1      35.093  23.720  23.489  1.00  0.00    -0.120 SA
BRANCH  12  17
ATOM     17  N   UNL A   1      38.313  23.648  27.131  1.00  0.00    -0.270 N 
ATOM     18  H   UNL A   1      37.761  23.702  27.945  1.00  0.00     0.191 HD
BRANCH  17  19
ATOM     19  C   UNL A   1      39.985  23.697  27.482  1.00  0.00     0.189 C 
ATOM     20  S   UNL A   1      40.864  22.256  27.433  1.00  0.00    -0.039 S 
BRANCH  19  21
ATOM     21  N   UNL A   1      40.863  25.050  27.500  1.00  0.00    -0.331 N 
ATOM     22  H   UNL A   1      41.597  24.963  28.151  1.00  0.00     0.169 HD
BRANCH  21  23
ATOM     23  C   UNL A   1      40.927  26.456  26.820  1.00  0.00     0.043 A 
ATOM     24  C   UNL A   1      39.185  27.693  28.255  1.00  0.00     0.046 C 
ATOM     25  C   UNL A   1      40.433  27.632  27.430  1.00  0.00    -0.028 A 
ATOM     26  C   UNL A   1      41.005  28.911  27.113  1.00  0.00     0.005 A 
ATOM     27  C   UNL A   1      42.017  29.053  26.177  1.00  0.00     0.000 A 
ATOM     28  C   UNL A   1      41.612  26.745  25.626  1.00  0.00     0.026 A 
ATOM     29  C   UNL A   1      42.278  27.965  25.380  1.00  0.00     0.002 A 
ENDBRANCH  21  23
ENDBRANCH  19  21
ENDBRANCH  17  19
ENDBRANCH  12  17
ENDBRANCH   6  11
ENDBRANCH   3   5
ENDBRANCH   2   3
ENDBRANCH   1   2
BRANCH   1  30
ATOM     30  C   UNL A   1      33.268  30.939  27.354  1.00  0.00     0.275 C 
BRANCH  30  31
ATOM     31  O   UNL A   1      34.444  31.813  28.475  1.00  0.00    -0.458 OA
BRANCH  31  32
ATOM     32  C   UNL A   1      35.912  32.090  28.469  1.00  0.00     0.338 C 
ATOM     33  O   UNL A   1      36.321  33.139  27.983  1.00  0.00    -0.246 OA
BRANCH  32  34
ATOM     34  C   UNL A   1      37.017  31.123  29.295  1.00  0.00     0.060 A 
ATOM     35  C   UNL A   1      36.496  29.640  30.181  1.00  0.00     0.016 A 
ATOM     36  C   UNL A   1      38.865  31.541  29.615  1.00  0.00     0.016 A 
ATOM     37  C   UNL A   1      37.697  28.881  31.344  1.00  0.00     0.010 A 
ATOM     38  C   UNL A   1      39.871  30.696  30.653  1.00  0.00     0.010 A 
ATOM     39  C   UNL A   1      39.362  29.468  31.574  1.00  0.00    -0.014 A 
BRANCH  39  40
ATOM     40  C   UNL A   1      40.146  30.023  32.807  1.00  0.00     0.031 A 
ATOM     41  C   UNL A   1      39.286  31.098  33.709  1.00  0.00     0.074 A 
ATOM     42  C   UNL A   1      41.221  29.264  33.200  1.00  0.00     0.049 A 
ATOM     43  N   UNL A   1      39.599  32.343  33.919  1.00  0.00    -0.248 NA
ATOM     44  C   UNL A   1      37.835  30.950  34.257  1.00  0.00     0.031 C 
ATOM     45  C   UNL A   1      42.101  29.236  34.372  1.00  0.00     0.029 A 
ATOM     46  N   UNL A   1      41.879  28.360  32.364  1.00  0.00    -0.354 N 
ATOM     47  C   UNL A   1      38.786  32.726  35.002  1.00  0.00     0.074 A 
ATOM     48  C   UNL A   1      37.531  32.127  34.780  1.00  0.00     0.031 C 
ATOM     49  C   UNL A   1      43.320  28.769  33.999  1.00  0.00     0.029 A 
ATOM     50  C   UNL A   1      43.250  28.354  32.602  1.00  0.00     0.049 A 
ATOM     51  H   UNL A   1      41.430  27.799  31.690  1.00  0.00     0.167 HD
ATOM     52  C   UNL A   1      39.330  32.898  36.249  1.00  0.00     0.031 A 
ATOM     53  C   UNL A   1      43.996  28.815  31.555  1.00  0.00     0.031 A 
ATOM     54  C   UNL A   1      40.778  32.709  36.169  1.00  0.00     0.049 A 
ATOM     55  C   UNL A   1      44.109  30.330  31.740  1.00  0.00     0.074 A 
ATOM     56  C   UNL A   1      41.688  31.831  36.720  1.00  0.00     0.029 A 
ATOM     57  N   UNL A   1      41.425  33.292  35.095  1.00  0.00    -0.354 N 
ATOM     58  N   UNL A   1      43.345  31.030  32.549  1.00  0.00    -0.248 NA
ATOM     59  C   UNL A   1      45.203  31.136  31.210  1.00  0.00     0.031 C 
ATOM     60  C   UNL A   1      42.861  31.855  35.888  1.00  0.00     0.029 A 
ATOM     61  C   UNL A   1      42.634  32.704  34.815  1.00  0.00     0.049 A 
ATOM     62  H   UNL A   1      41.058  34.049  34.584  1.00  0.00     0.167 HD
ATOM     63  C   UNL A   1      43.856  32.278  32.739  1.00  0.00     0.074 A 
ATOM     64  C   UNL A   1      45.008  32.304  31.852  1.00  0.00     0.031 C 
ATOM     65  C   UNL A   1      43.369  33.187  33.642  1.00  0.00     0.031 A 
BRANCH  52  66
ATOM     66  C   UNL A   1      38.562  33.007  37.569  1.00  0.00    -0.014 A 
ATOM     67  C   UNL A   1      37.703  31.942  37.896  1.00  0.00     0.010 A 
ATOM     68  C   UNL A   1      38.636  34.041  38.537  1.00  0.00     0.010 A 
ATOM     69  C   UNL A   1      37.005  31.878  39.113  1.00  0.00     0.020 A 
ATOM     70  C   UNL A   1      37.948  33.989  39.768  1.00  0.00     0.020 A 
ATOM     71  C   UNL A   1      37.146  32.893  40.054  1.00  0.00     0.054 A 
BRANCH  71  72
ATOM     72  S   UNL A   1      36.306  32.725  41.651  1.00  0.00     0.124 S 
ATOM     73  O   UNL A   1      36.018  34.113  42.002  1.00  0.00    -0.237 OA
ATOM     74  O   UNL A   1      35.145  31.907  41.310  1.00  0.00    -0.237 OA
ATOM     75  O   UNL A   1      37.296  32.067  42.502  1.00  0.00    -0.744 OA
ENDBRANCH  71  72
ENDBRANCH  52  66
BRANCH  53  76
ATOM     76  C   UNL A   1      43.703  27.957  30.325  1.00  0.00    -0.014 A 
ATOM     77  C   UNL A   1      44.294  28.410  29.108  1.00  0.00     0.010 A 
ATOM     78  C   UNL A   1      43.282  26.620  30.342  1.00  0.00     0.010 A 
ATOM     79  C   UNL A   1      44.653  27.536  28.065  1.00  0.00     0.020 A 
ATOM     80  C   UNL A   1      43.595  25.738  29.259  1.00  0.00     0.020 A 
ATOM     81  C   UNL A   1      44.341  26.189  28.163  1.00  0.00     0.054 A 
BRANCH  81  82
ATOM     82  S   UNL A   1      45.045  25.046  26.916  1.00  0.00     0.124 S 
ATOM     83  O   UNL A   1      45.443  25.950  25.842  1.00  0.00    -0.237 OA
ATOM     84  O   UNL A   1      46.146  24.409  27.635  1.00  0.00    -0.237 OA
ATOM     85  O   UNL A   1      43.927  24.158  26.594  1.00  0.00    -0.744 OA
ENDBRANCH  81  82
ENDBRANCH  53  76
BRANCH  65  86
ATOM     86  C   UNL A   1      43.570  34.686  33.500  1.00  0.00    -0.014 A 
ATOM     87  C   UNL A   1      44.124  35.486  34.503  1.00  0.00     0.010 A 
ATOM     88  C   UNL A   1      43.311  35.328  32.259  1.00  0.00     0.010 A 
ATOM     89  C   UNL A   1      44.256  36.866  34.340  1.00  0.00     0.020 A 
ATOM     90  C   UNL A   1      43.549  36.682  32.043  1.00  0.00     0.020 A 
ATOM     91  C   UNL A   1      43.957  37.455  33.114  1.00  0.00     0.054 A 
BRANCH  91  92
ATOM     92  S   UNL A   1      44.088  39.241  32.949  1.00  0.00     0.124 S 
ATOM     93  O   UNL A   1      42.957  39.692  33.756  1.00  0.00    -0.237 OA
ATOM     94  O   UNL A   1      45.408  39.515  33.508  1.00  0.00    -0.237 OA
ATOM     95  O   UNL A   1      43.961  39.471  31.512  1.00  0.00    -0.744 OA
ENDBRANCH  91  92
ENDBRANCH  65  86
ENDBRANCH  39  40
ENDBRANCH  32  34
ENDBRANCH  31  32
ENDBRANCH  30  31
ENDBRANCH   1  30
TORSDOF 19
ENDMDL
