MODEL 1
REMARK VINA RESULT:     -11.2      0.000      0.000
REMARK SMILES CCn1cc(Br)cc1C(=O)N[C@@H]1C=C[C@@H](C(=O)OCCOC(=O)c2ccc(-c3c4nc(c(-c5ccc(S(=O)(=O)[O-])cc5)c5ccc([nH]5)c(-c5ccc(S(=O)(=O)[O-])cc5)c5nc(c(-c6ccc(S(=O)(=O)[O-])cc6)c6ccc3[nH]6)C=C5)C=C4)cc2)C1
REMARK SMILES IDX 19 1 18 2 16 3 17 4 15 5 12 6 13 7 84 8 14 9 11 10 9 11
REMARK SMILES IDX 10 12 8 14 3 15 4 16 5 17 7 18 6 19 2 20 1 21 20 22 21 23
REMARK SMILES IDX 22 24 23 25 24 26 25 27 83 28 26 29 82 30 27 31 28 32 29 33
REMARK SMILES IDX 76 34 30 35 81 36 75 37 77 38 31 39 80 40 74 41 73 42 32 44
REMARK SMILES IDX 62 45 43 46 61 47 44 48 47 49 60 50 78 51 45 52 46 53 59 55
REMARK SMILES IDX 79 56 48 57 33 58 34 59 42 60 35 61 41 62 36 63 37 64 38 65
REMARK SMILES IDX 39 66 40 67 63 68 64 69 72 70 65 71 71 72 66 73 67 74 68 75
REMARK SMILES IDX 69 76 70 77 49 78 50 79 58 80 51 81 57 82 52 83 53 84 54 85
REMARK SMILES IDX 55 86 56 87
REMARK H PARENT 11 13 77 43 47 54
REMARK Flexibility Score: inf
ROOT
ATOM      1  C   UNL A   1      33.554  34.816  28.479  1.00  0.00     0.274 C 
ENDROOT
BRANCH   1   2
ATOM      2  O   UNL A   1      32.648  34.960  29.586  1.00  0.00    -0.462 OA
BRANCH   2   3
ATOM      3  C   UNL A   1      32.779  36.056  30.385  1.00  0.00     0.312 C 
ATOM      4  O   UNL A   1      32.712  37.213  29.984  1.00  0.00    -0.252 OA
BRANCH   3   5
ATOM      5  C   UNL A   1      33.036  35.689  31.855  1.00  0.00     0.124 C 
ATOM      6  C   UNL A   1      34.920  35.754  33.463  1.00  0.00     0.106 C 
ATOM      7  C   UNL A   1      33.873  36.785  33.760  1.00  0.00    -0.006 C 
ATOM      8  C   UNL A   1      34.456  35.209  32.132  1.00  0.00     0.048 C 
ATOM      9  C   UNL A   1      32.886  36.797  32.852  1.00  0.00    -0.014 C 
BRANCH   6  10
ATOM     10  N   UNL A   1      35.044  34.797  34.525  1.00  0.00    -0.345 N 
ATOM     11  C   UNL A   1      36.071  33.975  34.927  1.00  0.00     0.268 C 
ATOM     12  O   UNL A   1      35.941  33.539  36.076  1.00  0.00    -0.268 OA
ATOM     13  H   UNL A   1      34.231  34.712  35.075  1.00  0.00     0.164 HD
BRANCH  11  14
ATOM     14  C   UNL A   1      37.144  33.490  34.063  1.00  0.00     0.108 A 
ATOM     15  N   UNL A   1      37.291  32.370  33.243  1.00  0.00    -0.343 N 
ATOM     16  C   UNL A   1      38.552  32.368  32.674  1.00  0.00     0.102 A 
ATOM     17  C   UNL A   1      39.144  33.561  32.971  1.00  0.00     0.036 A 
ATOM     18  C   UNL A   1      38.286  34.263  33.823  1.00  0.00     0.049 A 
ATOM     19  Br  UNL A   1      40.780  34.206  32.335  1.00  0.00    -0.049 Br
BRANCH  15  20
ATOM     20  C   UNL A   1      36.271  31.437  32.789  1.00  0.00     0.119 C 
ATOM     21  C   UNL A   1      36.800  30.188  32.084  1.00  0.00     0.027 C 
ENDBRANCH  15  20
ENDBRANCH  11  14
ENDBRANCH   6  10
ENDBRANCH   3   5
ENDBRANCH   2   3
ENDBRANCH   1   2
BRANCH   1  22
ATOM     22  C   UNL A   1      33.619  33.368  28.002  1.00  0.00     0.275 C 
BRANCH  22  23
ATOM     23  O   UNL A   1      34.746  32.647  28.513  1.00  0.00    -0.458 OA
BRANCH  23  24
ATOM     24  C   UNL A   1      34.796  31.351  28.127  1.00  0.00     0.338 C 
ATOM     25  O   UNL A   1      33.863  30.688  27.723  1.00  0.00    -0.246 OA
BRANCH  24  26
ATOM     26  C   UNL A   1      36.086  30.748  28.487  1.00  0.00     0.060 A 
ATOM     27  C   UNL A   1      37.138  31.615  28.794  1.00  0.00     0.016 A 
ATOM     28  C   UNL A   1      36.300  29.371  28.333  1.00  0.00     0.016 A 
ATOM     29  C   UNL A   1      38.422  31.109  28.859  1.00  0.00     0.010 A 
ATOM     30  C   UNL A   1      37.586  28.869  28.394  1.00  0.00     0.010 A 
ATOM     31  C   UNL A   1      38.644  29.748  28.611  1.00  0.00    -0.014 A 
BRANCH  31  32
ATOM     32  C   UNL A   1      39.993  29.243  28.809  1.00  0.00     0.031 A 
ATOM     33  C   UNL A   1      40.276  28.992  30.241  1.00  0.00     0.074 A 
ATOM     34  C   UNL A   1      40.850  28.919  27.824  1.00  0.00     0.049 A 
ATOM     35  N   UNL A   1      41.001  29.710  31.031  1.00  0.00    -0.248 NA
ATOM     36  C   UNL A   1      39.489  27.951  30.925  1.00  0.00     0.031 C 
ATOM     37  C   UNL A   1      40.566  28.837  26.390  1.00  0.00     0.029 A 
ATOM     38  N   UNL A   1      42.140  28.482  27.908  1.00  0.00    -0.354 N 
ATOM     39  C   UNL A   1      40.961  29.057  32.255  1.00  0.00     0.074 A 
ATOM     40  C   UNL A   1      39.848  28.145  32.195  1.00  0.00     0.031 C 
ATOM     41  C   UNL A   1      41.556  28.143  25.780  1.00  0.00     0.029 A 
ATOM     42  C   UNL A   1      42.608  27.874  26.749  1.00  0.00     0.049 A 
ATOM     43  H   UNL A   1      42.690  28.588  28.718  1.00  0.00     0.167 HD
ATOM     44  C   UNL A   1      42.043  29.059  33.080  1.00  0.00     0.031 A 
ATOM     45  C   UNL A   1      43.751  27.153  26.617  1.00  0.00     0.031 A 
ATOM     46  C   UNL A   1      43.031  30.011  32.650  1.00  0.00     0.049 A 
ATOM     47  C   UNL A   1      44.667  27.571  27.704  1.00  0.00     0.074 A 
ATOM     48  C   UNL A   1      43.215  31.374  32.703  1.00  0.00     0.029 A 
ATOM     49  N   UNL A   1      43.866  29.519  31.681  1.00  0.00    -0.354 N 
ATOM     50  N   UNL A   1      45.163  28.776  27.792  1.00  0.00    -0.248 NA
ATOM     51  C   UNL A   1      44.767  26.764  28.915  1.00  0.00     0.031 C 
ATOM     52  C   UNL A   1      44.080  31.700  31.615  1.00  0.00     0.029 A 
ATOM     53  C   UNL A   1      44.438  30.525  30.953  1.00  0.00     0.049 A 
ATOM     54  H   UNL A   1      44.034  28.561  31.527  1.00  0.00     0.167 HD
ATOM     55  C   UNL A   1      45.234  29.018  29.151  1.00  0.00     0.074 A 
ATOM     56  C   UNL A   1      45.147  27.708  29.781  1.00  0.00     0.031 C 
ATOM     57  C   UNL A   1      45.030  30.268  29.655  1.00  0.00     0.031 A 
BRANCH  44  58
ATOM     58  C   UNL A   1      42.444  27.865  33.915  1.00  0.00    -0.014 A 
ATOM     59  C   UNL A   1      42.389  27.966  35.320  1.00  0.00     0.010 A 
ATOM     60  C   UNL A   1      43.143  26.760  33.383  1.00  0.00     0.010 A 
ATOM     61  C   UNL A   1      43.016  27.019  36.143  1.00  0.00     0.020 A 
ATOM     62  C   UNL A   1      43.736  25.792  34.191  1.00  0.00     0.020 A 
ATOM     63  C   UNL A   1      43.686  25.937  35.569  1.00  0.00     0.054 A 
BRANCH  63  64
ATOM     64  S   UNL A   1      44.531  24.745  36.635  1.00  0.00     0.124 S 
ATOM     65  O   UNL A   1      45.929  25.135  36.482  1.00  0.00    -0.237 OA
ATOM     66  O   UNL A   1      43.933  25.018  37.938  1.00  0.00    -0.237 OA
ATOM     67  O   UNL A   1      44.173  23.453  36.053  1.00  0.00    -0.744 OA
ENDBRANCH  63  64
ENDBRANCH  44  58
BRANCH  45  68
ATOM     68  C   UNL A   1      43.968  25.916  25.824  1.00  0.00    -0.014 A 
ATOM     69  C   UNL A   1      45.255  25.552  25.381  1.00  0.00     0.010 A 
ATOM     70  C   UNL A   1      42.956  24.935  25.766  1.00  0.00     0.010 A 
ATOM     71  C   UNL A   1      45.536  24.236  24.969  1.00  0.00     0.020 A 
ATOM     72  C   UNL A   1      43.227  23.625  25.351  1.00  0.00     0.020 A 
ATOM     73  C   UNL A   1      44.522  23.274  24.980  1.00  0.00     0.054 A 
BRANCH  73  74
ATOM     74  S   UNL A   1      44.932  21.536  24.637  1.00  0.00     0.124 S 
ATOM     75  O   UNL A   1      46.356  21.483  24.954  1.00  0.00    -0.237 OA
ATOM     76  O   UNL A   1      44.053  20.814  25.553  1.00  0.00    -0.237 OA
ATOM     77  O   UNL A   1      44.606  21.379  23.220  1.00  0.00    -0.744 OA
ENDBRANCH  73  74
ENDBRANCH  45  68
BRANCH  57  78
ATOM     78  C   UNL A   1      45.320  31.446  28.769  1.00  0.00    -0.014 A 
ATOM     79  C   UNL A   1      46.607  31.889  28.413  1.00  0.00     0.010 A 
ATOM     80  C   UNL A   1      44.204  32.093  28.210  1.00  0.00     0.010 A 
ATOM     81  C   UNL A   1      46.766  32.968  27.528  1.00  0.00     0.020 A 
ATOM     82  C   UNL A   1      44.354  33.152  27.318  1.00  0.00     0.020 A 
ATOM     83  C   UNL A   1      45.634  33.593  26.988  1.00  0.00     0.054 A 
BRANCH  83  84
ATOM     84  S   UNL A   1      45.838  34.975  25.830  1.00  0.00     0.124 S 
ATOM     85  O   UNL A   1      47.251  35.308  25.977  1.00  0.00    -0.237 OA
ATOM     86  O   UNL A   1      45.460  34.384  24.548  1.00  0.00    -0.237 OA
ATOM     87  O   UNL A   1      44.910  35.989  26.332  1.00  0.00    -0.744 OA
ENDBRANCH  83  84
ENDBRANCH  57  78
ENDBRANCH  31  32
ENDBRANCH  24  26
ENDBRANCH  23  24
ENDBRANCH  22  23
ENDBRANCH   1  22
TORSDOF 17
ENDMDL
MODEL 2
REMARK VINA RESULT:     -10.9      4.611     11.121
REMARK SMILES CCn1cc(Br)cc1C(=O)N[C@@H]1C=C[C@@H](C(=O)OCCOC(=O)c2ccc(-c3c4nc(c(-c5ccc(S(=O)(=O)[O-])cc5)c5ccc([nH]5)c(-c5ccc(S(=O)(=O)[O-])cc5)c5nc(c(-c6ccc(S(=O)(=O)[O-])cc6)c6ccc3[nH]6)C=C5)C=C4)cc2)C1
REMARK SMILES IDX 19 1 18 2 16 3 17 4 15 5 12 6 13 7 84 8 14 9 11 10 9 11
REMARK SMILES IDX 10 12 8 14 3 15 4 16 5 17 7 18 6 19 2 20 1 21 20 22 21 23
REMARK SMILES IDX 22 24 23 25 24 26 25 27 83 28 26 29 82 30 27 31 28 32 29 33
REMARK SMILES IDX 76 34 30 35 81 36 75 37 77 38 31 39 80 40 74 41 73 42 32 44
REMARK SMILES IDX 62 45 43 46 61 47 44 48 47 49 60 50 78 51 45 52 46 53 59 55
REMARK SMILES IDX 79 56 48 57 33 58 34 59 42 60 35 61 41 62 36 63 37 64 38 65
REMARK SMILES IDX 39 66 40 67 63 68 64 69 72 70 65 71 71 72 66 73 67 74 68 75
REMARK SMILES IDX 69 76 70 77 49 78 50 79 58 80 51 81 57 82 52 83 53 84 54 85
REMARK SMILES IDX 55 86 56 87
REMARK H PARENT 11 13 77 43 47 54
REMARK Flexibility Score: inf
ROOT
ATOM      1  C   UNL A   1      36.178  21.003  25.192  1.00  0.00     0.274 C 
ENDROOT
BRANCH   1   2
ATOM      2  O   UNL A   1      35.617  22.291  25.499  1.00  0.00    -0.462 OA
BRANCH   2   3
ATOM      3  C   UNL A   1      34.978  22.967  24.504  1.00  0.00     0.312 C 
ATOM      4  O   UNL A   1      35.325  22.954  23.328  1.00  0.00    -0.252 OA
BRANCH   3   5
ATOM      5  C   UNL A   1      33.770  23.769  25.015  1.00  0.00     0.124 C 
ATOM      6  C   UNL A   1      31.380  23.367  25.527  1.00  0.00     0.106 C 
ATOM      7  C   UNL A   1      32.207  23.566  26.760  1.00  0.00    -0.006 C 
ATOM      8  C   UNL A   1      32.434  23.304  24.446  1.00  0.00     0.048 C 
ATOM      9  C   UNL A   1      33.513  23.716  26.489  1.00  0.00    -0.014 C 
BRANCH   6  10
ATOM     10  N   UNL A   1      30.389  24.395  25.377  1.00  0.00    -0.345 N 
ATOM     11  C   UNL A   1      30.448  25.688  24.910  1.00  0.00     0.268 C 
ATOM     12  O   UNL A   1      29.347  26.161  24.609  1.00  0.00    -0.268 OA
ATOM     13  H   UNL A   1      29.488  24.119  25.664  1.00  0.00     0.164 HD
BRANCH  11  14
ATOM     14  C   UNL A   1      31.643  26.529  24.919  1.00  0.00     0.108 A 
ATOM     15  N   UNL A   1      32.483  27.022  23.920  1.00  0.00    -0.343 N 
ATOM     16  C   UNL A   1      33.519  27.739  24.490  1.00  0.00     0.102 A 
ATOM     17  C   UNL A   1      33.251  27.867  25.822  1.00  0.00     0.036 A 
ATOM     18  C   UNL A   1      32.097  27.129  26.099  1.00  0.00     0.049 A 
ATOM     19  Br  UNL A   1      34.197  28.879  27.078  1.00  0.00    -0.049 Br
BRANCH  15  20
ATOM     20  C   UNL A   1      32.262  27.054  22.482  1.00  0.00     0.119 C 
ATOM     21  C   UNL A   1      32.556  25.745  21.750  1.00  0.00     0.027 C 
ENDBRANCH  15  20
ENDBRANCH  11  14
ENDBRANCH   6  10
ENDBRANCH   3   5
ENDBRANCH   2   3
ENDBRANCH   1   2
BRANCH   1  22
ATOM     22  C   UNL A   1      37.696  21.081  25.050  1.00  0.00     0.275 C 
BRANCH  22  23
ATOM     23  O   UNL A   1      38.255  22.303  25.545  1.00  0.00    -0.458 OA
BRANCH  23  24
ATOM     24  C   UNL A   1      39.386  22.140  26.270  1.00  0.00     0.338 C 
ATOM     25  O   UNL A   1      39.994  21.100  26.426  1.00  0.00    -0.246 OA
BRANCH  24  26
ATOM     26  C   UNL A   1      39.674  23.341  27.067  1.00  0.00     0.060 A 
ATOM     27  C   UNL A   1      38.824  24.438  26.905  1.00  0.00     0.016 A 
ATOM     28  C   UNL A   1      40.863  23.444  27.801  1.00  0.00     0.016 A 
ATOM     29  C   UNL A   1      39.214  25.664  27.409  1.00  0.00     0.010 A 
ATOM     30  C   UNL A   1      41.253  24.672  28.300  1.00  0.00     0.010 A 
ATOM     31  C   UNL A   1      40.449  25.783  28.061  1.00  0.00    -0.014 A 
BRANCH  31  32
ATOM     32  C   UNL A   1      40.758  27.063  28.678  1.00  0.00     0.031 A 
ATOM     33  C   UNL A   1      41.976  27.670  28.093  1.00  0.00     0.074 A 
ATOM     34  C   UNL A   1      39.983  27.696  29.578  1.00  0.00     0.049 A 
ATOM     35  N   UNL A   1      43.149  27.732  28.627  1.00  0.00    -0.248 NA
ATOM     36  C   UNL A   1      41.940  28.051  26.671  1.00  0.00     0.031 C 
ATOM     37  C   UNL A   1      38.624  27.337  29.989  1.00  0.00     0.029 A 
ATOM     38  N   UNL A   1      40.205  28.867  30.240  1.00  0.00    -0.354 N 
ATOM     39  C   UNL A   1      43.936  28.396  27.696  1.00  0.00     0.074 A 
ATOM     40  C   UNL A   1      43.220  28.348  26.447  1.00  0.00     0.031 C 
ATOM     41  C   UNL A   1      38.057  28.392  30.619  1.00  0.00     0.029 A 
ATOM     42  C   UNL A   1      39.060  29.431  30.792  1.00  0.00     0.049 A 
ATOM     43  H   UNL A   1      41.097  29.277  30.319  1.00  0.00     0.167 HD
ATOM     44  C   UNL A   1      44.935  29.229  28.097  1.00  0.00     0.031 A 
ATOM     45  C   UNL A   1      38.939  30.685  31.299  1.00  0.00     0.031 A 
ATOM     46  C   UNL A   1      45.207  29.086  29.502  1.00  0.00     0.049 A 
ATOM     47  C   UNL A   1      40.296  31.144  31.677  1.00  0.00     0.074 A 
ATOM     48  C   UNL A   1      45.867  28.197  30.320  1.00  0.00     0.029 A 
ATOM     49  N   UNL A   1      44.372  29.832  30.291  1.00  0.00    -0.354 N 
ATOM     50  N   UNL A   1      41.000  30.581  32.621  1.00  0.00    -0.248 NA
ATOM     51  C   UNL A   1      41.044  32.011  30.773  1.00  0.00     0.031 C 
ATOM     52  C   UNL A   1      45.274  28.333  31.611  1.00  0.00     0.029 A 
ATOM     53  C   UNL A   1      44.300  29.331  31.561  1.00  0.00     0.049 A 
ATOM     54  H   UNL A   1      43.883  30.629  29.982  1.00  0.00     0.167 HD
ATOM     55  C   UNL A   1      42.305  30.671  32.175  1.00  0.00     0.074 A 
ATOM     56  C   UNL A   1      42.289  31.696  31.140  1.00  0.00     0.031 C 
ATOM     57  C   UNL A   1      43.211  29.690  32.448  1.00  0.00     0.031 A 
BRANCH  44  58
ATOM     58  C   UNL A   1      45.271  30.517  27.380  1.00  0.00    -0.014 A 
ATOM     59  C   UNL A   1      46.625  30.870  27.213  1.00  0.00     0.010 A 
ATOM     60  C   UNL A   1      44.313  31.522  27.125  1.00  0.00     0.010 A 
ATOM     61  C   UNL A   1      46.996  32.167  26.829  1.00  0.00     0.020 A 
ATOM     62  C   UNL A   1      44.669  32.803  26.705  1.00  0.00     0.020 A 
ATOM     63  C   UNL A   1      46.012  33.125  26.578  1.00  0.00     0.054 A 
BRANCH  63  64
ATOM     64  S   UNL A   1      46.499  34.807  26.127  1.00  0.00     0.124 S 
ATOM     65  O   UNL A   1      45.210  35.435  25.856  1.00  0.00    -0.237 OA
ATOM     66  O   UNL A   1      47.188  35.263  27.331  1.00  0.00    -0.237 OA
ATOM     67  O   UNL A   1      47.359  34.613  24.961  1.00  0.00    -0.744 OA
ENDBRANCH  63  64
ENDBRANCH  44  58
BRANCH  45  68
ATOM     68  C   UNL A   1      37.789  31.617  31.174  1.00  0.00    -0.014 A 
ATOM     69  C   UNL A   1      36.479  31.202  31.488  1.00  0.00     0.010 A 
ATOM     70  C   UNL A   1      38.021  33.001  31.040  1.00  0.00     0.010 A 
ATOM     71  C   UNL A   1      35.460  32.141  31.734  1.00  0.00     0.020 A 
ATOM     72  C   UNL A   1      37.010  33.941  31.277  1.00  0.00     0.020 A 
ATOM     73  C   UNL A   1      35.740  33.508  31.651  1.00  0.00     0.054 A 
BRANCH  73  74
ATOM     74  S   UNL A   1      34.479  34.715  32.160  1.00  0.00     0.124 S 
ATOM     75  O   UNL A   1      33.965  35.188  30.878  1.00  0.00    -0.237 OA
ATOM     76  O   UNL A   1      33.559  33.901  32.949  1.00  0.00    -0.237 OA
ATOM     77  O   UNL A   1      35.238  35.703  32.925  1.00  0.00    -0.744 OA
ENDBRANCH  73  74
ENDBRANCH  45  68
BRANCH  57  78
ATOM     78  C   UNL A   1      43.002  28.853  33.677  1.00  0.00    -0.014 A 
ATOM     79  C   UNL A   1      43.368  29.230  34.982  1.00  0.00     0.010 A 
ATOM     80  C   UNL A   1      42.321  27.636  33.492  1.00  0.00     0.010 A 
ATOM     81  C   UNL A   1      43.071  28.395  36.072  1.00  0.00     0.020 A 
ATOM     82  C   UNL A   1      42.008  26.811  34.570  1.00  0.00     0.020 A 
ATOM     83  C   UNL A   1      42.393  27.189  35.855  1.00  0.00     0.054 A 
BRANCH  83  84
ATOM     84  S   UNL A   1      41.993  26.117  37.264  1.00  0.00     0.124 S 
ATOM     85  O   UNL A   1      43.042  26.447  38.222  1.00  0.00    -0.237 OA
ATOM     86  O   UNL A   1      40.646  26.551  37.630  1.00  0.00    -0.237 OA
ATOM     87  O   UNL A   1      42.069  24.766  36.706  1.00  0.00    -0.744 OA
ENDBRANCH  83  84
ENDBRANCH  57  78
ENDBRANCH  31  32
ENDBRANCH  24  26
ENDBRANCH  23  24
ENDBRANCH  22  23
ENDBRANCH   1  22
TORSDOF 17
ENDMDL
MODEL 3
REMARK VINA RESULT:     -10.8      4.292      6.776
REMARK SMILES CCn1cc(Br)cc1C(=O)N[C@@H]1C=C[C@@H](C(=O)OCCOC(=O)c2ccc(-c3c4nc(c(-c5ccc(S(=O)(=O)[O-])cc5)c5ccc([nH]5)c(-c5ccc(S(=O)(=O)[O-])cc5)c5nc(c(-c6ccc(S(=O)(=O)[O-])cc6)c6ccc3[nH]6)C=C5)C=C4)cc2)C1
REMARK SMILES IDX 19 1 18 2 16 3 17 4 15 5 12 6 13 7 84 8 14 9 11 10 9 11
REMARK SMILES IDX 10 12 8 14 3 15 4 16 5 17 7 18 6 19 2 20 1 21 20 22 21 23
REMARK SMILES IDX 22 24 23 25 24 26 25 27 83 28 26 29 82 30 27 31 28 32 29 33
REMARK SMILES IDX 76 34 30 35 81 36 75 37 77 38 31 39 80 40 74 41 73 42 32 44
REMARK SMILES IDX 62 45 43 46 61 47 44 48 47 49 60 50 78 51 45 52 46 53 59 55
REMARK SMILES IDX 79 56 48 57 33 58 34 59 42 60 35 61 41 62 36 63 37 64 38 65
REMARK SMILES IDX 39 66 40 67 63 68 64 69 72 70 65 71 71 72 66 73 67 74 68 75
REMARK SMILES IDX 69 76 70 77 49 78 50 79 58 80 51 81 57 82 52 83 53 84 54 85
REMARK SMILES IDX 55 86 56 87
REMARK H PARENT 11 13 77 43 47 54
REMARK Flexibility Score: inf
ROOT
ATOM      1  C   UNL A   1      31.791  30.463  25.989  1.00  0.00     0.274 C 
ENDROOT
BRANCH   1   2
ATOM      2  O   UNL A   1      31.713  29.227  25.258  1.00  0.00    -0.462 OA
BRANCH   2   3
ATOM      3  C   UNL A   1      30.911  29.181  24.158  1.00  0.00     0.312 C 
ATOM      4  O   UNL A   1      30.084  30.041  23.871  1.00  0.00    -0.252 OA
BRANCH   3   5
ATOM      5  C   UNL A   1      31.140  27.920  23.310  1.00  0.00     0.124 C 
ATOM      6  C   UNL A   1      32.385  25.786  23.490  1.00  0.00     0.106 C 
ATOM      7  C   UNL A   1      30.902  25.600  23.612  1.00  0.00    -0.006 C 
ATOM      8  C   UNL A   1      32.516  27.291  23.499  1.00  0.00     0.048 C 
ATOM      9  C   UNL A   1      30.231  26.762  23.582  1.00  0.00    -0.014 C 
BRANCH   6  10
ATOM     10  N   UNL A   1      32.913  25.117  22.335  1.00  0.00    -0.345 N 
ATOM     11  C   UNL A   1      33.249  23.806  22.086  1.00  0.00     0.268 C 
ATOM     12  O   UNL A   1      33.350  23.535  20.885  1.00  0.00    -0.268 OA
ATOM     13  H   UNL A   1      33.065  25.716  21.568  1.00  0.00     0.164 HD
BRANCH  11  14
ATOM     14  C   UNL A   1      33.634  22.832  23.105  1.00  0.00     0.108 A 
ATOM     15  N   UNL A   1      34.649  22.785  24.062  1.00  0.00    -0.343 N 
ATOM     16  C   UNL A   1      34.591  21.587  24.749  1.00  0.00     0.102 A 
ATOM     17  C   UNL A   1      33.444  20.948  24.374  1.00  0.00     0.036 A 
ATOM     18  C   UNL A   1      32.844  21.705  23.364  1.00  0.00     0.049 A 
ATOM     19  Br  UNL A   1      32.737  19.372  25.090  1.00  0.00    -0.049 Br
BRANCH  15  20
ATOM     20  C   UNL A   1      35.516  23.861  24.518  1.00  0.00     0.119 C 
ATOM     21  C   UNL A   1      36.264  23.584  25.822  1.00  0.00     0.027 C 
ENDBRANCH  15  20
ENDBRANCH  11  14
ENDBRANCH   6  10
ENDBRANCH   3   5
ENDBRANCH   2   3
ENDBRANCH   1   2
BRANCH   1  22
ATOM     22  C   UNL A   1      32.703  30.328  27.206  1.00  0.00     0.275 C 
BRANCH  22  23
ATOM     23  O   UNL A   1      34.032  30.810  26.981  1.00  0.00    -0.458 OA
BRANCH  23  24
ATOM     24  C   UNL A   1      34.628  31.327  28.081  1.00  0.00     0.338 C 
ATOM     25  O   UNL A   1      34.159  32.167  28.821  1.00  0.00    -0.246 OA
BRANCH  24  26
ATOM     26  C   UNL A   1      36.040  30.927  28.147  1.00  0.00     0.060 A 
ATOM     27  C   UNL A   1      36.363  29.636  27.720  1.00  0.00     0.016 A 
ATOM     28  C   UNL A   1      36.982  31.736  28.797  1.00  0.00     0.016 A 
ATOM     29  C   UNL A   1      37.610  29.125  28.026  1.00  0.00     0.010 A 
ATOM     30  C   UNL A   1      38.227  31.220  29.106  1.00  0.00     0.010 A 
ATOM     31  C   UNL A   1      38.517  29.903  28.759  1.00  0.00    -0.014 A 
BRANCH  31  32
ATOM     32  C   UNL A   1      39.855  29.368  28.950  1.00  0.00     0.031 A 
ATOM     33  C   UNL A   1      40.165  29.172  30.385  1.00  0.00     0.074 A 
ATOM     34  C   UNL A   1      40.679  28.975  27.961  1.00  0.00     0.049 A 
ATOM     35  N   UNL A   1      40.928  29.903  31.125  1.00  0.00    -0.248 NA
ATOM     36  C   UNL A   1      39.364  28.186  31.132  1.00  0.00     0.031 C 
ATOM     37  C   UNL A   1      40.359  28.838  26.539  1.00  0.00     0.029 A 
ATOM     38  N   UNL A   1      41.957  28.505  28.036  1.00  0.00    -0.354 N 
ATOM     39  C   UNL A   1      40.898  29.305  32.377  1.00  0.00     0.074 A 
ATOM     40  C   UNL A   1      39.758  28.425  32.384  1.00  0.00     0.031 C 
ATOM     41  C   UNL A   1      41.314  28.089  25.939  1.00  0.00     0.029 A 
ATOM     42  C   UNL A   1      42.380  27.832  26.895  1.00  0.00     0.049 A 
ATOM     43  H   UNL A   1      42.529  28.630  28.828  1.00  0.00     0.167 HD
ATOM     44  C   UNL A   1      41.999  29.312  33.178  1.00  0.00     0.031 A 
ATOM     45  C   UNL A   1      43.499  27.073  26.771  1.00  0.00     0.031 A 
ATOM     46  C   UNL A   1      43.004  30.215  32.683  1.00  0.00     0.049 A 
ATOM     47  C   UNL A   1      44.452  27.511  27.816  1.00  0.00     0.074 A 
ATOM     48  C   UNL A   1      43.228  31.572  32.671  1.00  0.00     0.029 A 
ATOM     49  N   UNL A   1      43.801  29.656  31.719  1.00  0.00    -0.354 N 
ATOM     50  N   UNL A   1      44.984  28.703  27.840  1.00  0.00    -0.248 NA
ATOM     51  C   UNL A   1      44.558  26.756  29.060  1.00  0.00     0.031 C 
ATOM     52  C   UNL A   1      44.076  31.824  31.550  1.00  0.00     0.029 A 
ATOM     53  C   UNL A   1      44.385  30.611  30.934  1.00  0.00     0.049 A 
ATOM     54  H   UNL A   1      43.938  28.687  31.605  1.00  0.00     0.167 HD
ATOM     55  C   UNL A   1      45.094  29.002  29.184  1.00  0.00     0.074 A 
ATOM     56  C   UNL A   1      44.985  27.725  29.875  1.00  0.00     0.031 C 
ATOM     57  C   UNL A   1      44.938  30.279  29.636  1.00  0.00     0.031 A 
BRANCH  44  58
ATOM     58  C   UNL A   1      42.386  28.145  34.057  1.00  0.00    -0.014 A 
ATOM     59  C   UNL A   1      42.465  28.338  35.450  1.00  0.00     0.010 A 
ATOM     60  C   UNL A   1      42.950  26.957  33.544  1.00  0.00     0.010 A 
ATOM     61  C   UNL A   1      43.093  27.398  36.280  1.00  0.00     0.020 A 
ATOM     62  C   UNL A   1      43.541  25.997  34.364  1.00  0.00     0.020 A 
ATOM     63  C   UNL A   1      43.627  26.233  35.728  1.00  0.00     0.054 A 
BRANCH  63  64
ATOM     64  S   UNL A   1      44.475  25.046  36.798  1.00  0.00     0.124 S 
ATOM     65  O   UNL A   1      45.865  25.478  36.692  1.00  0.00    -0.237 OA
ATOM     66  O   UNL A   1      43.832  25.280  38.088  1.00  0.00    -0.237 OA
ATOM     67  O   UNL A   1      44.171  23.755  36.184  1.00  0.00    -0.744 OA
ENDBRANCH  63  64
ENDBRANCH  44  58
BRANCH  45  68
ATOM     68  C   UNL A   1      43.662  25.795  26.029  1.00  0.00    -0.014 A 
ATOM     69  C   UNL A   1      44.872  25.481  25.379  1.00  0.00     0.010 A 
ATOM     70  C   UNL A   1      42.733  24.752  26.220  1.00  0.00     0.010 A 
ATOM     71  C   UNL A   1      45.171  24.158  25.004  1.00  0.00     0.020 A 
ATOM     72  C   UNL A   1      43.022  23.434  25.844  1.00  0.00     0.020 A 
ATOM     73  C   UNL A   1      44.251  23.138  25.262  1.00  0.00     0.054 A 
BRANCH  73  74
ATOM     74  S   UNL A   1      44.722  21.407  24.958  1.00  0.00     0.124 S 
ATOM     75  O   UNL A   1      43.713  20.673  25.716  1.00  0.00    -0.237 OA
ATOM     76  O   UNL A   1      44.623  21.301  23.505  1.00  0.00    -0.237 OA
ATOM     77  O   UNL A   1      46.081  21.322  25.490  1.00  0.00    -0.744 OA
ENDBRANCH  73  74
ENDBRANCH  45  68
BRANCH  57  78
ATOM     78  C   UNL A   1      45.241  31.408  28.692  1.00  0.00    -0.014 A 
ATOM     79  C   UNL A   1      46.474  32.081  28.609  1.00  0.00     0.010 A 
ATOM     80  C   UNL A   1      44.222  31.750  27.784  1.00  0.00     0.010 A 
ATOM     81  C   UNL A   1      46.670  33.085  27.647  1.00  0.00     0.020 A 
ATOM     82  C   UNL A   1      44.416  32.732  26.816  1.00  0.00     0.020 A 
ATOM     83  C   UNL A   1      45.636  33.404  26.758  1.00  0.00     0.054 A 
BRANCH  83  84
ATOM     84  S   UNL A   1      45.894  34.688  25.502  1.00  0.00     0.124 S 
ATOM     85  O   UNL A   1      45.503  35.904  26.206  1.00  0.00    -0.237 OA
ATOM     86  O   UNL A   1      47.319  34.566  25.200  1.00  0.00    -0.237 OA
ATOM     87  O   UNL A   1      45.002  34.293  24.411  1.00  0.00    -0.744 OA
ENDBRANCH  83  84
ENDBRANCH  57  78
ENDBRANCH  31  32
ENDBRANCH  24  26
ENDBRANCH  23  24
ENDBRANCH  22  23
ENDBRANCH   1  22
TORSDOF 17
ENDMDL
