MODEL 1
REMARK VINA RESULT:     -11.4      0.000      0.000
REMARK SMILES CS(=O)(=O)c1ccc(/C=C(/C(=O)OCCOC(=O)c2ccc(-c3c4nc(c(-c5ccc(S(=O)(=O)[O-])cc5)c5ccc([nH]5)c(-c5ccc(S(=O)(=O)[O-])cc5)c5nc(c(-c6ccc(S(=O)(=O)[O-])cc6)c6ccc3[nH]6)C=C5)C=C4)cc2)c2cccc(Br)c2)cc1
REMARK SMILES IDX 15 1 14 2 13 3 11 4 12 5 10 6 9 7 8 8 5 9 6 10 87 11 7 12
REMARK SMILES IDX 86 13 2 14 1 15 3 16 4 17 79 18 80 19 85 20 81 21 83 22
REMARK SMILES IDX 82 23 84 24 16 25 17 26 18 27 19 28 20 29 78 30 21 31 77 32
REMARK SMILES IDX 22 33 23 34 24 35 71 36 25 37 76 38 70 39 72 40 26 41 75 42
REMARK SMILES IDX 69 43 68 44 27 46 57 47 38 48 56 49 39 50 42 51 55 52 73 53
REMARK SMILES IDX 40 54 41 55 54 57 74 58 43 59 28 60 29 61 37 62 30 63 36 64
REMARK SMILES IDX 31 65 32 66 33 67 34 68 35 69 58 70 59 71 67 72 60 73 66 74
REMARK SMILES IDX 61 75 62 76 63 77 64 78 65 79 44 80 45 81 53 82 46 83 52 84
REMARK SMILES IDX 47 85 48 86 49 87 50 88 51 89
REMARK H PARENT 72 45 42 56
REMARK Flexibility Score: inf
ROOT
ATOM      1  C   UNL A   1      41.289  22.464  26.074  1.00  0.00     0.275 C 
ENDROOT
BRANCH   1   2
ATOM      2  C   UNL A   1      40.177  21.424  26.215  1.00  0.00     0.275 C 
BRANCH   2   3
ATOM      3  O   UNL A   1      38.884  22.052  26.065  1.00  0.00    -0.458 OA
BRANCH   3   4
ATOM      4  C   UNL A   1      37.950  21.340  25.378  1.00  0.00     0.338 C 
ATOM      5  O   UNL A   1      38.109  20.210  24.939  1.00  0.00    -0.246 OA
BRANCH   4   6
ATOM      6  C   UNL A   1      36.658  22.089  25.237  1.00  0.00     0.067 C 
ATOM      7  C   UNL A   1      36.639  23.349  24.744  1.00  0.00     0.024 C 
BRANCH   7   8
ATOM      8  C   UNL A   1      35.415  24.106  24.425  1.00  0.00    -0.025 A 
ATOM      9  C   UNL A   1      32.907  25.221  23.893  1.00  0.00     0.067 A 
ATOM     10  C   UNL A   1      33.551  25.519  25.093  1.00  0.00     0.021 A 
ATOM     11  C   UNL A   1      33.538  24.435  22.925  1.00  0.00     0.021 A 
ATOM     12  C   UNL A   1      34.814  24.979  25.342  1.00  0.00     0.009 A 
ATOM     13  C   UNL A   1      34.791  23.880  23.193  1.00  0.00     0.009 A 
BRANCH   9  14
ATOM     14  S   UNL A   1      31.244  25.775  23.597  1.00  0.00     0.175 S 
ATOM     15  C   UNL A   1      31.310  26.745  22.113  1.00  0.00     0.163 C 
ATOM     16  O   UNL A   1      30.902  26.679  24.681  1.00  0.00    -0.224 OA
ATOM     17  O   UNL A   1      30.452  24.589  23.341  1.00  0.00    -0.224 OA
ENDBRANCH   9  14
ENDBRANCH   7   8
BRANCH   6  18
ATOM     18  C   UNL A   1      35.401  21.386  25.587  1.00  0.00    -0.010 A 
ATOM     19  C   UNL A   1      34.750  21.686  26.794  1.00  0.00     0.009 A 
ATOM     20  C   UNL A   1      34.802  20.484  24.701  1.00  0.00     0.024 A 
ATOM     21  C   UNL A   1      33.531  21.087  27.120  1.00  0.00     0.002 A 
ATOM     22  C   UNL A   1      33.576  19.898  25.028  1.00  0.00     0.018 A 
ATOM     23  C   UNL A   1      32.943  20.189  26.236  1.00  0.00     0.016 A 
ATOM     24  Br  UNL A   1      32.746  18.725  23.801  1.00  0.00    -0.051 Br
ENDBRANCH   6  18
ENDBRANCH   4   6
ENDBRANCH   3   4
ENDBRANCH   2   3
ENDBRANCH   1   2
BRANCH   1  25
ATOM     25  O   UNL A   1      40.959  23.591  26.896  1.00  0.00    -0.458 OA
BRANCH  25  26
ATOM     26  C   UNL A   1      41.401  24.797  26.468  1.00  0.00     0.338 C 
ATOM     27  O   UNL A   1      41.994  25.029  25.429  1.00  0.00    -0.246 OA
BRANCH  26  28
ATOM     28  C   UNL A   1      41.002  25.831  27.452  1.00  0.00     0.060 A 
ATOM     29  C   UNL A   1      41.698  27.036  27.507  1.00  0.00     0.016 A 
ATOM     30  C   UNL A   1      39.998  25.579  28.390  1.00  0.00     0.016 A 
ATOM     31  C   UNL A   1      41.459  27.937  28.539  1.00  0.00     0.010 A 
ATOM     32  C   UNL A   1      39.705  26.532  29.381  1.00  0.00     0.010 A 
ATOM     33  C   UNL A   1      40.469  27.705  29.503  1.00  0.00    -0.014 A 
BRANCH  33  34
ATOM     34  C   UNL A   1      40.337  28.654  30.653  1.00  0.00     0.031 A 
ATOM     35  C   UNL A   1      41.350  28.646  31.776  1.00  0.00     0.074 A 
ATOM     36  C   UNL A   1      39.392  29.622  30.646  1.00  0.00     0.049 A 
ATOM     37  N   UNL A   1      41.385  29.379  32.862  1.00  0.00    -0.248 NA
ATOM     38  C   UNL A   1      42.469  27.696  31.666  1.00  0.00     0.031 C 
ATOM     39  C   UNL A   1      38.384  29.818  29.602  1.00  0.00     0.029 A 
ATOM     40  N   UNL A   1      39.161  30.658  31.521  1.00  0.00    -0.354 N 
ATOM     41  C   UNL A   1      42.491  28.943  33.585  1.00  0.00     0.074 A 
ATOM     42  C   UNL A   1      43.102  27.882  32.816  1.00  0.00     0.031 C 
ATOM     43  C   UNL A   1      37.710  30.953  29.846  1.00  0.00     0.029 A 
ATOM     44  C   UNL A   1      38.161  31.512  31.116  1.00  0.00     0.049 A 
ATOM     45  H   UNL A   1      39.664  30.777  32.359  1.00  0.00     0.167 HD
ATOM     46  C   UNL A   1      42.959  29.377  34.781  1.00  0.00     0.031 A 
ATOM     47  C   UNL A   1      37.639  32.609  31.701  1.00  0.00     0.031 A 
ATOM     48  C   UNL A   1      42.386  30.452  35.546  1.00  0.00     0.049 A 
ATOM     49  C   UNL A   1      38.145  33.043  33.048  1.00  0.00     0.074 A 
ATOM     50  C   UNL A   1      42.775  30.928  36.788  1.00  0.00     0.029 A 
ATOM     51  N   UNL A   1      41.319  31.234  35.139  1.00  0.00    -0.354 N 
ATOM     52  N   UNL A   1      39.135  32.553  33.755  1.00  0.00    -0.248 NA
ATOM     53  C   UNL A   1      37.443  34.166  33.687  1.00  0.00     0.031 C 
ATOM     54  C   UNL A   1      41.919  31.976  37.146  1.00  0.00     0.029 A 
ATOM     55  C   UNL A   1      41.028  32.181  36.107  1.00  0.00     0.049 A 
ATOM     56  H   UNL A   1      40.836  31.131  34.287  1.00  0.00     0.167 HD
ATOM     57  C   UNL A   1      39.171  33.305  34.923  1.00  0.00     0.074 A 
ATOM     58  C   UNL A   1      38.131  34.307  34.812  1.00  0.00     0.031 C 
ATOM     59  C   UNL A   1      39.986  33.169  35.998  1.00  0.00     0.031 A 
BRANCH  46  60
ATOM     60  C   UNL A   1      44.131  28.638  35.369  1.00  0.00    -0.014 A 
ATOM     61  C   UNL A   1      45.454  29.048  35.131  1.00  0.00     0.010 A 
ATOM     62  C   UNL A   1      43.894  27.523  36.194  1.00  0.00     0.010 A 
ATOM     63  C   UNL A   1      46.523  28.330  35.676  1.00  0.00     0.020 A 
ATOM     64  C   UNL A   1      44.959  26.817  36.758  1.00  0.00     0.020 A 
ATOM     65  C   UNL A   1      46.268  27.214  36.479  1.00  0.00     0.054 A 
BRANCH  65  66
ATOM     66  S   UNL A   1      47.671  26.300  37.179  1.00  0.00     0.124 S 
ATOM     67  O   UNL A   1      47.549  25.008  36.507  1.00  0.00    -0.237 OA
ATOM     68  O   UNL A   1      48.817  27.110  36.779  1.00  0.00    -0.237 OA
ATOM     69  O   UNL A   1      47.392  26.285  38.614  1.00  0.00    -0.744 OA
ENDBRANCH  65  66
ENDBRANCH  46  60
BRANCH  47  70
ATOM     70  C   UNL A   1      36.525  33.349  31.044  1.00  0.00    -0.014 A 
ATOM     71  C   UNL A   1      35.276  33.481  31.676  1.00  0.00     0.010 A 
ATOM     72  C   UNL A   1      36.711  33.917  29.770  1.00  0.00     0.010 A 
ATOM     73  C   UNL A   1      34.229  34.153  31.039  1.00  0.00     0.020 A 
ATOM     74  C   UNL A   1      35.677  34.617  29.144  1.00  0.00     0.020 A 
ATOM     75  C   UNL A   1      34.437  34.718  29.776  1.00  0.00     0.054 A 
BRANCH  75  76
ATOM     76  S   UNL A   1      33.086  35.629  28.980  1.00  0.00     0.124 S 
ATOM     77  O   UNL A   1      32.310  36.083  30.128  1.00  0.00    -0.237 OA
ATOM     78  O   UNL A   1      33.793  36.670  28.240  1.00  0.00    -0.237 OA
ATOM     79  O   UNL A   1      32.441  34.615  28.147  1.00  0.00    -0.744 OA
ENDBRANCH  75  76
ENDBRANCH  47  70
BRANCH  59  80
ATOM     80  C   UNL A   1      39.795  34.139  37.132  1.00  0.00    -0.014 A 
ATOM     81  C   UNL A   1      39.061  33.780  38.278  1.00  0.00     0.010 A 
ATOM     82  C   UNL A   1      40.363  35.423  37.055  1.00  0.00     0.010 A 
ATOM     83  C   UNL A   1      38.860  34.705  39.306  1.00  0.00     0.020 A 
ATOM     84  C   UNL A   1      40.183  36.342  38.092  1.00  0.00     0.020 A 
ATOM     85  C   UNL A   1      39.415  35.984  39.203  1.00  0.00     0.054 A 
BRANCH  85  86
ATOM     86  S   UNL A   1      39.150  37.168  40.552  1.00  0.00     0.124 S 
ATOM     87  O   UNL A   1      38.537  36.327  41.576  1.00  0.00    -0.237 OA
ATOM     88  O   UNL A   1      40.502  37.634  40.846  1.00  0.00    -0.237 OA
ATOM     89  O   UNL A   1      38.267  38.171  39.960  1.00  0.00    -0.744 OA
ENDBRANCH  85  86
ENDBRANCH  59  80
ENDBRANCH  33  34
ENDBRANCH  26  28
ENDBRANCH  25  26
ENDBRANCH   1  25
TORSDOF 17
ENDMDL
MODEL 2
REMARK VINA RESULT:     -10.9      6.308     12.095
REMARK SMILES CS(=O)(=O)c1ccc(/C=C(/C(=O)OCCOC(=O)c2ccc(-c3c4nc(c(-c5ccc(S(=O)(=O)[O-])cc5)c5ccc([nH]5)c(-c5ccc(S(=O)(=O)[O-])cc5)c5nc(c(-c6ccc(S(=O)(=O)[O-])cc6)c6ccc3[nH]6)C=C5)C=C4)cc2)c2cccc(Br)c2)cc1
REMARK SMILES IDX 15 1 14 2 13 3 11 4 12 5 10 6 9 7 8 8 5 9 6 10 87 11 7 12
REMARK SMILES IDX 86 13 2 14 1 15 3 16 4 17 79 18 80 19 85 20 81 21 83 22
REMARK SMILES IDX 82 23 84 24 16 25 17 26 18 27 19 28 20 29 78 30 21 31 77 32
REMARK SMILES IDX 22 33 23 34 24 35 71 36 25 37 76 38 70 39 72 40 26 41 75 42
REMARK SMILES IDX 69 43 68 44 27 46 57 47 38 48 56 49 39 50 42 51 55 52 73 53
REMARK SMILES IDX 40 54 41 55 54 57 74 58 43 59 28 60 29 61 37 62 30 63 36 64
REMARK SMILES IDX 31 65 32 66 33 67 34 68 35 69 58 70 59 71 67 72 60 73 66 74
REMARK SMILES IDX 61 75 62 76 63 77 64 78 65 79 44 80 45 81 53 82 46 83 52 84
REMARK SMILES IDX 47 85 48 86 49 87 50 88 51 89
REMARK H PARENT 72 45 42 56
REMARK Flexibility Score: inf
ROOT
ATOM      1  C   UNL A   1      34.410  32.125  29.083  1.00  0.00     0.275 C 
ENDROOT
BRANCH   1   2
ATOM      2  C   UNL A   1      33.977  31.785  27.656  1.00  0.00     0.275 C 
BRANCH   2   3
ATOM      3  O   UNL A   1      33.338  30.489  27.624  1.00  0.00    -0.458 OA
BRANCH   3   4
ATOM      4  C   UNL A   1      32.323  30.345  26.729  1.00  0.00     0.338 C 
ATOM      5  O   UNL A   1      31.357  31.089  26.636  1.00  0.00    -0.246 OA
BRANCH   4   6
ATOM      6  C   UNL A   1      32.530  29.169  25.821  1.00  0.00     0.067 C 
ATOM      7  C   UNL A   1      33.681  28.458  25.862  1.00  0.00     0.024 C 
BRANCH   7   8
ATOM      8  C   UNL A   1      33.917  27.203  25.126  1.00  0.00    -0.025 A 
ATOM      9  C   UNL A   1      33.998  24.753  23.782  1.00  0.00     0.067 A 
ATOM     10  C   UNL A   1      34.012  25.939  23.049  1.00  0.00     0.021 A 
ATOM     11  C   UNL A   1      34.023  24.781  25.179  1.00  0.00     0.021 A 
ATOM     12  C   UNL A   1      33.997  27.160  23.727  1.00  0.00     0.009 A 
ATOM     13  C   UNL A   1      33.983  26.006  25.847  1.00  0.00     0.009 A 
BRANCH   9  14
ATOM     14  S   UNL A   1      33.878  23.183  22.958  1.00  0.00     0.175 S 
ATOM     15  C   UNL A   1      32.575  22.300  23.779  1.00  0.00     0.163 C 
ATOM     16  O   UNL A   1      35.112  22.468  23.230  1.00  0.00    -0.224 OA
ATOM     17  O   UNL A   1      33.464  23.460  21.597  1.00  0.00    -0.224 OA
ENDBRANCH   9  14
ENDBRANCH   7   8
BRANCH   6  18
ATOM     18  C   UNL A   1      31.415  28.769  24.930  1.00  0.00    -0.010 A 
ATOM     19  C   UNL A   1      30.746  27.557  25.157  1.00  0.00     0.009 A 
ATOM     20  C   UNL A   1      30.960  29.614  23.913  1.00  0.00     0.024 A 
ATOM     21  C   UNL A   1      29.649  27.185  24.375  1.00  0.00     0.002 A 
ATOM     22  C   UNL A   1      29.855  29.242  23.142  1.00  0.00     0.018 A 
ATOM     23  C   UNL A   1      29.204  28.028  23.362  1.00  0.00     0.016 A 
ATOM     24  Br  UNL A   1      29.211  30.414  21.807  1.00  0.00    -0.051 Br
ENDBRANCH   6  18
ENDBRANCH   4   6
ENDBRANCH   3   4
ENDBRANCH   2   3
ENDBRANCH   1   2
BRANCH   1  25
ATOM     25  O   UNL A   1      35.832  31.971  29.172  1.00  0.00    -0.458 OA
BRANCH  25  26
ATOM     26  C   UNL A   1      36.290  31.188  30.176  1.00  0.00     0.338 C 
ATOM     27  O   UNL A   1      35.772  31.024  31.267  1.00  0.00    -0.246 OA
BRANCH  26  28
ATOM     28  C   UNL A   1      37.522  30.500  29.724  1.00  0.00     0.060 A 
ATOM     29  C   UNL A   1      38.517  30.189  30.648  1.00  0.00     0.016 A 
ATOM     30  C   UNL A   1      37.743  30.241  28.369  1.00  0.00     0.016 A 
ATOM     31  C   UNL A   1      39.751  29.713  30.215  1.00  0.00     0.010 A 
ATOM     32  C   UNL A   1      38.963  29.682  27.948  1.00  0.00     0.010 A 
ATOM     33  C   UNL A   1      40.007  29.458  28.861  1.00  0.00    -0.014 A 
BRANCH  33  34
ATOM     34  C   UNL A   1      41.388  29.057  28.446  1.00  0.00     0.031 A 
ATOM     35  C   UNL A   1      42.542  30.027  28.576  1.00  0.00     0.074 A 
ATOM     36  C   UNL A   1      41.656  27.785  28.073  1.00  0.00     0.049 A 
ATOM     37  N   UNL A   1      43.800  29.862  28.248  1.00  0.00    -0.248 NA
ATOM     38  C   UNL A   1      42.248  31.349  29.152  1.00  0.00     0.031 C 
ATOM     39  C   UNL A   1      40.673  26.705  27.966  1.00  0.00     0.029 A 
ATOM     40  N   UNL A   1      42.848  27.170  27.767  1.00  0.00    -0.354 N 
ATOM     41  C   UNL A   1      44.431  31.071  28.524  1.00  0.00     0.074 A 
ATOM     42  C   UNL A   1      43.419  31.961  29.048  1.00  0.00     0.031 C 
ATOM     43  C   UNL A   1      41.309  25.550  27.714  1.00  0.00     0.029 A 
ATOM     44  C   UNL A   1      42.732  25.818  27.536  1.00  0.00     0.049 A 
ATOM     45  H   UNL A   1      43.705  27.653  27.717  1.00  0.00     0.167 HD
ATOM     46  C   UNL A   1      45.731  31.418  28.357  1.00  0.00     0.031 A 
ATOM     47  C   UNL A   1      43.651  24.894  27.194  1.00  0.00     0.031 A 
ATOM     48  C   UNL A   1      46.760  30.539  27.868  1.00  0.00     0.049 A 
ATOM     49  C   UNL A   1      45.077  25.313  26.971  1.00  0.00     0.074 A 
ATOM     50  C   UNL A   1      48.094  30.823  27.630  1.00  0.00     0.029 A 
ATOM     51  N   UNL A   1      46.579  29.200  27.563  1.00  0.00    -0.354 N 
ATOM     52  N   UNL A   1      45.630  26.488  27.150  1.00  0.00    -0.248 NA
ATOM     53  C   UNL A   1      45.999  24.281  26.472  1.00  0.00     0.031 C 
ATOM     54  C   UNL A   1      48.713  29.664  27.147  1.00  0.00     0.029 A 
ATOM     55  C   UNL A   1      47.773  28.647  27.130  1.00  0.00     0.049 A 
ATOM     56  H   UNL A   1      45.727  28.713  27.641  1.00  0.00     0.167 HD
ATOM     57  C   UNL A   1      46.962  26.337  26.783  1.00  0.00     0.074 A 
ATOM     58  C   UNL A   1      47.142  24.950  26.408  1.00  0.00     0.031 C 
ATOM     59  C   UNL A   1      47.946  27.270  26.748  1.00  0.00     0.031 A 
BRANCH  46  60
ATOM     60  C   UNL A   1      46.105  32.845  28.654  1.00  0.00    -0.014 A 
ATOM     61  C   UNL A   1      46.071  33.837  27.658  1.00  0.00     0.010 A 
ATOM     62  C   UNL A   1      46.476  33.198  29.965  1.00  0.00     0.010 A 
ATOM     63  C   UNL A   1      46.442  35.151  27.961  1.00  0.00     0.020 A 
ATOM     64  C   UNL A   1      46.826  34.514  30.275  1.00  0.00     0.020 A 
ATOM     65  C   UNL A   1      46.826  35.478  29.266  1.00  0.00     0.054 A 
BRANCH  65  66
ATOM     66  S   UNL A   1      47.299  37.190  29.636  1.00  0.00     0.124 S 
ATOM     67  O   UNL A   1      48.752  37.080  29.745  1.00  0.00    -0.237 OA
ATOM     68  O   UNL A   1      46.810  37.921  28.472  1.00  0.00    -0.237 OA
ATOM     69  O   UNL A   1      46.601  37.478  30.888  1.00  0.00    -0.744 OA
ENDBRANCH  65  66
ENDBRANCH  46  60
BRANCH  47  70
ATOM     70  C   UNL A   1      43.243  23.477  26.980  1.00  0.00    -0.014 A 
ATOM     71  C   UNL A   1      43.007  22.622  28.071  1.00  0.00     0.010 A 
ATOM     72  C   UNL A   1      43.100  22.974  25.673  1.00  0.00     0.010 A 
ATOM     73  C   UNL A   1      42.652  21.287  27.859  1.00  0.00     0.020 A 
ATOM     74  C   UNL A   1      42.714  21.650  25.458  1.00  0.00     0.020 A 
ATOM     75  C   UNL A   1      42.507  20.809  26.553  1.00  0.00     0.054 A 
BRANCH  75  76
ATOM     76  S   UNL A   1      42.000  19.088  26.289  1.00  0.00     0.124 S 
ATOM     77  O   UNL A   1      40.635  19.247  25.801  1.00  0.00    -0.237 OA
ATOM     78  O   UNL A   1      42.972  18.613  25.309  1.00  0.00    -0.237 OA
ATOM     79  O   UNL A   1      42.127  18.492  27.618  1.00  0.00    -0.744 OA
ENDBRANCH  75  76
ENDBRANCH  47  70
BRANCH  59  80
ATOM     80  C   UNL A   1      49.308  26.814  26.304  1.00  0.00    -0.014 A 
ATOM     81  C   UNL A   1      50.250  26.332  27.232  1.00  0.00     0.010 A 
ATOM     82  C   UNL A   1      49.650  26.858  24.940  1.00  0.00     0.010 A 
ATOM     83  C   UNL A   1      51.526  25.947  26.809  1.00  0.00     0.020 A 
ATOM     84  C   UNL A   1      50.916  26.453  24.511  1.00  0.00     0.020 A 
ATOM     85  C   UNL A   1      51.854  26.019  25.452  1.00  0.00     0.054 A 
BRANCH  85  86
ATOM     86  S   UNL A   1      53.512  25.507  24.921  1.00  0.00     0.124 S 
ATOM     87  O   UNL A   1      53.512  25.896  23.514  1.00  0.00    -0.237 OA
ATOM     88  O   UNL A   1      54.387  26.289  25.790  1.00  0.00    -0.237 OA
ATOM     89  O   UNL A   1      53.523  24.067  25.170  1.00  0.00    -0.744 OA
ENDBRANCH  85  86
ENDBRANCH  59  80
ENDBRANCH  33  34
ENDBRANCH  26  28
ENDBRANCH  25  26
ENDBRANCH   1  25
TORSDOF 17
ENDMDL
MODEL 3
REMARK VINA RESULT:     -10.5      7.161     12.711
REMARK SMILES CS(=O)(=O)c1ccc(/C=C(/C(=O)OCCOC(=O)c2ccc(-c3c4nc(c(-c5ccc(S(=O)(=O)[O-])cc5)c5ccc([nH]5)c(-c5ccc(S(=O)(=O)[O-])cc5)c5nc(c(-c6ccc(S(=O)(=O)[O-])cc6)c6ccc3[nH]6)C=C5)C=C4)cc2)c2cccc(Br)c2)cc1
REMARK SMILES IDX 15 1 14 2 13 3 11 4 12 5 10 6 9 7 8 8 5 9 6 10 87 11 7 12
REMARK SMILES IDX 86 13 2 14 1 15 3 16 4 17 79 18 80 19 85 20 81 21 83 22
REMARK SMILES IDX 82 23 84 24 16 25 17 26 18 27 19 28 20 29 78 30 21 31 77 32
REMARK SMILES IDX 22 33 23 34 24 35 71 36 25 37 76 38 70 39 72 40 26 41 75 42
REMARK SMILES IDX 69 43 68 44 27 46 57 47 38 48 56 49 39 50 42 51 55 52 73 53
REMARK SMILES IDX 40 54 41 55 54 57 74 58 43 59 28 60 29 61 37 62 30 63 36 64
REMARK SMILES IDX 31 65 32 66 33 67 34 68 35 69 58 70 59 71 67 72 60 73 66 74
REMARK SMILES IDX 61 75 62 76 63 77 64 78 65 79 44 80 45 81 53 82 46 83 52 84
REMARK SMILES IDX 47 85 48 86 49 87 50 88 51 89
REMARK H PARENT 72 45 42 56
REMARK Flexibility Score: inf
ROOT
ATOM      1  C   UNL A   1      35.607  30.868  28.476  1.00  0.00     0.275 C 
ENDROOT
BRANCH   1   2
ATOM      2  C   UNL A   1      34.600  30.934  27.328  1.00  0.00     0.275 C 
BRANCH   2   3
ATOM      3  O   UNL A   1      33.254  30.784  27.835  1.00  0.00    -0.458 OA
BRANCH   3   4
ATOM      4  C   UNL A   1      32.268  30.712  26.900  1.00  0.00     0.338 C 
ATOM      5  O   UNL A   1      31.524  31.631  26.589  1.00  0.00    -0.246 OA
BRANCH   4   6
ATOM      6  C   UNL A   1      32.203  29.362  26.248  1.00  0.00     0.067 C 
ATOM      7  C   UNL A   1      32.354  28.233  26.979  1.00  0.00     0.024 C 
BRANCH   7   8
ATOM      8  C   UNL A   1      32.155  26.867  26.462  1.00  0.00    -0.025 A 
ATOM      9  C   UNL A   1      31.876  24.160  25.824  1.00  0.00     0.067 A 
ATOM     10  C   UNL A   1      30.738  24.935  26.043  1.00  0.00     0.021 A 
ATOM     11  C   UNL A   1      33.146  24.742  25.844  1.00  0.00     0.021 A 
ATOM     12  C   UNL A   1      30.883  26.292  26.336  1.00  0.00     0.009 A 
ATOM     13  C   UNL A   1      33.283  26.095  26.162  1.00  0.00     0.009 A 
BRANCH   9  14
ATOM     14  S   UNL A   1      31.742  22.404  25.585  1.00  0.00     0.175 S 
ATOM     15  C   UNL A   1      31.989  22.128  23.849  1.00  0.00     0.163 C 
ATOM     16  O   UNL A   1      30.367  22.042  25.881  1.00  0.00    -0.224 OA
ATOM     17  O   UNL A   1      32.841  21.801  26.312  1.00  0.00    -0.224 OA
ENDBRANCH   9  14
ENDBRANCH   7   8
BRANCH   6  18
ATOM     18  C   UNL A   1      31.902  29.300  24.798  1.00  0.00    -0.010 A 
ATOM     19  C   UNL A   1      32.925  28.987  23.890  1.00  0.00     0.009 A 
ATOM     20  C   UNL A   1      30.598  29.468  24.320  1.00  0.00     0.024 A 
ATOM     21  C   UNL A   1      32.657  28.857  22.525  1.00  0.00     0.002 A 
ATOM     22  C   UNL A   1      30.336  29.325  22.954  1.00  0.00     0.018 A 
ATOM     23  C   UNL A   1      31.359  29.030  22.055  1.00  0.00     0.016 A 
ATOM     24  Br  UNL A   1      28.563  29.498  22.322  1.00  0.00    -0.051 Br
ENDBRANCH   6  18
ENDBRANCH   4   6
ENDBRANCH   3   4
ENDBRANCH   2   3
ENDBRANCH   1   2
BRANCH   1  25
ATOM     25  O   UNL A   1      36.529  29.804  28.206  1.00  0.00    -0.458 OA
BRANCH  25  26
ATOM     26  C   UNL A   1      37.288  29.389  29.247  1.00  0.00     0.338 C 
ATOM     27  O   UNL A   1      36.890  28.972  30.320  1.00  0.00    -0.246 OA
BRANCH  26  28
ATOM     28  C   UNL A   1      38.717  29.471  28.861  1.00  0.00     0.060 A 
ATOM     29  C   UNL A   1      39.085  29.266  27.533  1.00  0.00     0.016 A 
ATOM     30  C   UNL A   1      39.711  29.659  29.824  1.00  0.00     0.016 A 
ATOM     31  C   UNL A   1      40.428  29.156  27.188  1.00  0.00     0.010 A 
ATOM     32  C   UNL A   1      41.067  29.630  29.452  1.00  0.00     0.010 A 
ATOM     33  C   UNL A   1      41.447  29.325  28.134  1.00  0.00    -0.014 A 
BRANCH  33  34
ATOM     34  C   UNL A   1      42.866  29.082  27.725  1.00  0.00     0.031 A 
ATOM     35  C   UNL A   1      43.935  30.115  28.008  1.00  0.00     0.074 A 
ATOM     36  C   UNL A   1      43.244  27.888  27.216  1.00  0.00     0.049 A 
ATOM     37  N   UNL A   1      45.211  30.087  27.708  1.00  0.00    -0.248 NA
ATOM     38  C   UNL A   1      43.521  31.333  28.724  1.00  0.00     0.031 C 
ATOM     39  C   UNL A   1      42.354  26.756  26.949  1.00  0.00     0.029 A 
ATOM     40  N   UNL A   1      44.490  27.407  26.883  1.00  0.00    -0.354 N 
ATOM     41  C   UNL A   1      45.736  31.299  28.146  1.00  0.00     0.074 A 
ATOM     42  C   UNL A   1      44.642  32.040  28.734  1.00  0.00     0.031 C 
ATOM     43  C   UNL A   1      43.087  25.692  26.587  1.00  0.00     0.029 A 
ATOM     44  C   UNL A   1      44.487  26.087  26.492  1.00  0.00     0.049 A 
ATOM     45  H   UNL A   1      45.306  27.956  26.921  1.00  0.00     0.167 HD
ATOM     46  C   UNL A   1      47.007  31.761  28.067  1.00  0.00     0.031 A 
ATOM     47  C   UNL A   1      45.487  25.283  26.078  1.00  0.00     0.031 A 
ATOM     48  C   UNL A   1      48.115  31.027  27.516  1.00  0.00     0.049 A 
ATOM     49  C   UNL A   1      46.880  25.833  25.956  1.00  0.00     0.074 A 
ATOM     50  C   UNL A   1      49.429  31.439  27.360  1.00  0.00     0.029 A 
ATOM     51  N   UNL A   1      48.051  29.724  27.051  1.00  0.00    -0.354 N 
ATOM     52  N   UNL A   1      47.332  27.017  26.291  1.00  0.00    -0.248 NA
ATOM     53  C   UNL A   1      47.894  24.940  25.374  1.00  0.00     0.031 C 
ATOM     54  C   UNL A   1      50.151  30.395  26.769  1.00  0.00     0.029 A 
ATOM     55  C   UNL A   1      49.296  29.320  26.599  1.00  0.00     0.049 A 
ATOM     56  H   UNL A   1      47.238  29.168  27.041  1.00  0.00     0.167 HD
ATOM     57  C   UNL A   1      48.681  27.012  25.957  1.00  0.00     0.074 A 
ATOM     58  C   UNL A   1      48.981  25.697  25.429  1.00  0.00     0.031 C 
ATOM     59  C   UNL A   1      49.588  28.015  26.065  1.00  0.00     0.031 A 
BRANCH  46  60
ATOM     60  C   UNL A   1      47.258  33.167  28.542  1.00  0.00    -0.014 A 
ATOM     61  C   UNL A   1      47.643  33.439  29.866  1.00  0.00     0.010 A 
ATOM     62  C   UNL A   1      47.123  34.232  27.632  1.00  0.00     0.010 A 
ATOM     63  C   UNL A   1      47.851  34.757  30.282  1.00  0.00     0.020 A 
ATOM     64  C   UNL A   1      47.352  35.548  28.040  1.00  0.00     0.020 A 
ATOM     65  C   UNL A   1      47.695  35.804  29.368  1.00  0.00     0.054 A 
BRANCH  65  66
ATOM     66  S   UNL A   1      47.974  37.507  29.930  1.00  0.00     0.124 S 
ATOM     67  O   UNL A   1      48.811  37.298  31.109  1.00  0.00    -0.237 OA
ATOM     68  O   UNL A   1      48.641  38.120  28.786  1.00  0.00    -0.237 OA
ATOM     69  O   UNL A   1      46.627  38.005  30.202  1.00  0.00    -0.744 OA
ENDBRANCH  65  66
ENDBRANCH  46  60
BRANCH  47  70
ATOM     70  C   UNL A   1      45.199  23.874  25.686  1.00  0.00    -0.014 A 
ATOM     71  C   UNL A   1      45.048  23.520  24.334  1.00  0.00     0.010 A 
ATOM     72  C   UNL A   1      45.063  22.881  26.673  1.00  0.00     0.010 A 
ATOM     73  C   UNL A   1      44.750  22.201  23.977  1.00  0.00     0.020 A 
ATOM     74  C   UNL A   1      44.798  21.556  26.319  1.00  0.00     0.020 A 
ATOM     75  C   UNL A   1      44.628  21.227  24.973  1.00  0.00     0.054 A 
BRANCH  75  76
ATOM     76  S   UNL A   1      44.288  19.511  24.496  1.00  0.00     0.124 S 
ATOM     77  O   UNL A   1      45.318  18.784  25.231  1.00  0.00    -0.237 OA
ATOM     78  O   UNL A   1      42.918  19.313  24.963  1.00  0.00    -0.237 OA
ATOM     79  O   UNL A   1      44.445  19.526  23.043  1.00  0.00    -0.744 OA
ENDBRANCH  75  76
ENDBRANCH  47  70
BRANCH  59  80
ATOM     80  C   UNL A   1      50.994  27.720  25.620  1.00  0.00    -0.014 A 
ATOM     81  C   UNL A   1      51.909  27.082  26.479  1.00  0.00     0.010 A 
ATOM     82  C   UNL A   1      51.406  28.076  24.324  1.00  0.00     0.010 A 
ATOM     83  C   UNL A   1      53.223  26.849  26.065  1.00  0.00     0.020 A 
ATOM     84  C   UNL A   1      52.712  27.823  23.898  1.00  0.00     0.020 A 
ATOM     85  C   UNL A   1      53.619  27.229  24.779  1.00  0.00     0.054 A 
BRANCH  85  86
ATOM     86  S   UNL A   1      55.327  26.911  24.256  1.00  0.00     0.124 S 
ATOM     87  O   UNL A   1      55.192  26.852  22.804  1.00  0.00    -0.237 OA
ATOM     88  O   UNL A   1      56.047  28.071  24.775  1.00  0.00    -0.237 OA
ATOM     89  O   UNL A   1      55.654  25.642  24.904  1.00  0.00    -0.744 OA
ENDBRANCH  85  86
ENDBRANCH  59  80
ENDBRANCH  33  34
ENDBRANCH  26  28
ENDBRANCH  25  26
ENDBRANCH   1  25
TORSDOF 17
ENDMDL
