MODEL 1
REMARK VINA RESULT:     -10.2      0.000      0.000
REMARK SMILES COc1ccc(Nc2c(C(=O)OCCOC(=O)c3ccc(-c4c5nc(c(-c6ccc(S(=O)(=O)[O-])cc6)c6ccc([nH]6)c(-c6ccc(S(=O)(=O)[O-])cc6)c6nc(c(-c7ccc(S(=O)(=O)[O-])cc7)c7ccc4[nH]7)C=C6)C=C5)cc3)[nH]c(=O)[nH]c2=O)cc1
REMARK SMILES IDX 13 1 12 2 10 3 11 4 9 5 8 6 82 7 78 8 81 9 83 10 79 11 80 14
REMARK SMILES IDX 7 15 6 17 3 18 4 19 85 20 5 21 84 22 2 23 1 24 14 25 15 26
REMARK SMILES IDX 16 27 17 28 18 29 19 30 77 31 20 32 76 33 21 34 22 35 23 36
REMARK SMILES IDX 70 37 24 38 75 39 69 40 71 41 25 42 74 43 68 44 67 45 26 47
REMARK SMILES IDX 56 48 37 49 55 50 38 51 41 52 54 53 72 54 39 55 40 56 53 58
REMARK SMILES IDX 73 59 42 60 27 61 28 62 36 63 29 64 35 65 30 66 31 67 32 68
REMARK SMILES IDX 33 69 34 70 57 71 58 72 66 73 59 74 65 75 60 76 61 77 62 78
REMARK SMILES IDX 63 79 64 80 43 81 44 82 52 83 45 84 51 85 46 86 47 87 48 88
REMARK SMILES IDX 49 89 50 90
REMARK H PARENT 78 12 81 13 7 16 71 46 41 57
REMARK Flexibility Score: inf
ROOT
ATOM      1  C   UNL A   1      40.117  22.566  27.084  1.00  0.00     0.275 C 
ENDROOT
BRANCH   1   2
ATOM      2  O   UNL A   1      40.905  21.620  26.331  1.00  0.00    -0.457 OA
BRANCH   2   3
ATOM      3  C   UNL A   1      42.136  21.329  26.818  1.00  0.00     0.357 C 
ATOM      4  O   UNL A   1      42.382  21.003  27.974  1.00  0.00    -0.244 OA
BRANCH   3   5
ATOM      5  C   UNL A   1      43.213  21.351  25.775  1.00  0.00     0.158 A 
ATOM      6  C   UNL A   1      43.610  22.456  25.110  1.00  0.00     0.136 A 
ATOM      7  C   UNL A   1      44.734  22.232  24.112  1.00  0.00     0.278 A 
ATOM      8  N   UNL A   1      43.753  20.111  25.503  1.00  0.00    -0.299 N 
ATOM      9  N   UNL A   1      45.028  20.938  23.786  1.00  0.00    -0.272 N 
ATOM     10  O   UNL A   1      45.397  23.149  23.632  1.00  0.00    -0.267 OA
ATOM     11  C   UNL A   1      44.614  19.852  24.487  1.00  0.00     0.326 A 
ATOM     12  H   UNL A   1      43.496  19.361  26.087  1.00  0.00     0.172 HD
ATOM     13  H   UNL A   1      45.580  20.782  22.986  1.00  0.00     0.175 HD
ATOM     14  O   UNL A   1      45.004  18.720  24.235  1.00  0.00    -0.248 OA
BRANCH   6  15
ATOM     15  N   UNL A   1      43.162  23.750  25.339  1.00  0.00    -0.349 N 
ATOM     16  H   UNL A   1      42.346  24.008  24.851  1.00  0.00     0.167 HD
BRANCH  15  17
ATOM     17  C   UNL A   1      43.711  24.743  26.172  1.00  0.00     0.039 A 
ATOM     18  C   UNL A   1      44.776  26.650  27.959  1.00  0.00     0.119 A 
ATOM     19  C   UNL A   1      44.819  26.867  26.584  1.00  0.00     0.048 A 
ATOM     20  C   UNL A   1      44.192  25.485  28.449  1.00  0.00     0.048 A 
ATOM     21  C   UNL A   1      44.305  25.916  25.698  1.00  0.00     0.030 A 
ATOM     22  C   UNL A   1      43.675  24.537  27.559  1.00  0.00     0.030 A 
BRANCH  18  23
ATOM     23  O   UNL A   1      45.298  27.653  28.728  1.00  0.00    -0.497 OA
ATOM     24  C   UNL A   1      45.438  28.908  28.075  1.00  0.00     0.278 C 
ENDBRANCH  18  23
ENDBRANCH  15  17
ENDBRANCH   6  15
ENDBRANCH   3   5
ENDBRANCH   2   3
ENDBRANCH   1   2
BRANCH   1  25
ATOM     25  C   UNL A   1      39.111  23.312  26.198  1.00  0.00     0.275 C 
BRANCH  25  26
ATOM     26  O   UNL A   1      38.979  24.694  26.579  1.00  0.00    -0.458 OA
BRANCH  26  27
ATOM     27  C   UNL A   1      40.084  25.448  26.385  1.00  0.00     0.338 C 
ATOM     28  O   UNL A   1      40.716  25.563  25.343  1.00  0.00    -0.246 OA
BRANCH  27  29
ATOM     29  C   UNL A   1      40.341  26.293  27.560  1.00  0.00     0.060 A 
ATOM     30  C   UNL A   1      39.564  26.040  28.690  1.00  0.00     0.016 A 
ATOM     31  C   UNL A   1      41.224  27.372  27.543  1.00  0.00     0.016 A 
ATOM     32  C   UNL A   1      39.642  26.866  29.804  1.00  0.00     0.010 A 
ATOM     33  C   UNL A   1      41.310  28.205  28.670  1.00  0.00     0.010 A 
ATOM     34  C   UNL A   1      40.504  27.968  29.801  1.00  0.00    -0.014 A 
BRANCH  34  35
ATOM     35  C   UNL A   1      40.467  28.907  30.954  1.00  0.00     0.031 A 
ATOM     36  C   UNL A   1      39.422  29.988  31.005  1.00  0.00     0.074 A 
ATOM     37  C   UNL A   1      41.307  28.736  31.993  1.00  0.00     0.049 A 
ATOM     38  N   UNL A   1      39.247  30.927  31.900  1.00  0.00    -0.248 NA
ATOM     39  C   UNL A   1      38.447  30.020  29.902  1.00  0.00     0.031 C 
ATOM     40  C   UNL A   1      42.323  27.688  32.099  1.00  0.00     0.029 A 
ATOM     41  N   UNL A   1      41.421  29.431  33.173  1.00  0.00    -0.354 N 
ATOM     42  C   UNL A   1      38.173  31.686  31.449  1.00  0.00     0.074 A 
ATOM     43  C   UNL A   1      37.738  31.100  30.199  1.00  0.00     0.031 C 
ATOM     44  C   UNL A   1      42.933  27.787  33.291  1.00  0.00     0.029 A 
ATOM     45  C   UNL A   1      42.392  28.936  34.012  1.00  0.00     0.049 A 
ATOM     46  H   UNL A   1      40.860  30.208  33.397  1.00  0.00     0.167 HD
ATOM     47  C   UNL A   1      37.603  32.774  32.022  1.00  0.00     0.031 A 
ATOM     48  C   UNL A   1      42.813  29.368  35.217  1.00  0.00     0.031 A 
ATOM     49  C   UNL A   1      38.015  33.335  33.281  1.00  0.00     0.049 A 
ATOM     50  C   UNL A   1      42.172  30.583  35.828  1.00  0.00     0.074 A 
ATOM     51  C   UNL A   1      37.505  34.441  33.939  1.00  0.00     0.029 A 
ATOM     52  N   UNL A   1      39.023  32.823  34.083  1.00  0.00    -0.354 N 
ATOM     53  N   UNL A   1      41.195  31.322  35.359  1.00  0.00    -0.248 NA
ATOM     54  C   UNL A   1      42.694  31.026  37.128  1.00  0.00     0.031 C 
ATOM     55  C   UNL A   1      38.226  34.617  35.125  1.00  0.00     0.029 A 
ATOM     56  C   UNL A   1      39.155  33.594  35.226  1.00  0.00     0.049 A 
ATOM     57  H   UNL A   1      39.565  32.029  33.872  1.00  0.00     0.167 HD
ATOM     58  C   UNL A   1      40.979  32.311  36.311  1.00  0.00     0.074 A 
ATOM     59  C   UNL A   1      41.913  32.064  37.392  1.00  0.00     0.031 C 
ATOM     60  C   UNL A   1      40.091  33.336  36.291  1.00  0.00     0.031 A 
BRANCH  47  61
ATOM     61  C   UNL A   1      36.502  33.457  31.259  1.00  0.00    -0.014 A 
ATOM     62  C   UNL A   1      36.666  33.844  29.917  1.00  0.00     0.010 A 
ATOM     63  C   UNL A   1      35.270  33.697  31.896  1.00  0.00     0.010 A 
ATOM     64  C   UNL A   1      35.630  34.496  29.239  1.00  0.00     0.020 A 
ATOM     65  C   UNL A   1      34.225  34.326  31.214  1.00  0.00     0.020 A 
ATOM     66  C   UNL A   1      34.419  34.740  29.896  1.00  0.00     0.054 A 
BRANCH  66  67
ATOM     67  S   UNL A   1      33.087  35.580  28.995  1.00  0.00     0.124 S 
ATOM     68  O   UNL A   1      33.830  36.562  28.209  1.00  0.00    -0.237 OA
ATOM     69  O   UNL A   1      32.478  34.495  28.230  1.00  0.00    -0.237 OA
ATOM     70  O   UNL A   1      32.250  36.135  30.055  1.00  0.00    -0.744 OA
ENDBRANCH  66  67
ENDBRANCH  47  61
BRANCH  48  71
ATOM     71  C   UNL A   1      43.925  28.661  35.909  1.00  0.00    -0.014 A 
ATOM     72  C   UNL A   1      45.262  29.036  35.693  1.00  0.00     0.010 A 
ATOM     73  C   UNL A   1      43.643  27.615  36.806  1.00  0.00     0.010 A 
ATOM     74  C   UNL A   1      46.298  28.372  36.357  1.00  0.00     0.020 A 
ATOM     75  C   UNL A   1      44.673  26.967  37.491  1.00  0.00     0.020 A 
ATOM     76  C   UNL A   1      45.998  27.343  37.255  1.00  0.00     0.054 A 
BRANCH  76  77
ATOM     77  S   UNL A   1      47.347  26.538  38.162  1.00  0.00     0.124 S 
ATOM     78  O   UNL A   1      47.641  27.519  39.201  1.00  0.00    -0.237 OA
ATOM     79  O   UNL A   1      46.729  25.296  38.621  1.00  0.00    -0.237 OA
ATOM     80  O   UNL A   1      48.385  26.368  37.147  1.00  0.00    -0.744 OA
ENDBRANCH  76  77
ENDBRANCH  48  71
BRANCH  60  81
ATOM     81  C   UNL A   1      40.071  34.252  37.483  1.00  0.00    -0.014 A 
ATOM     82  C   UNL A   1      40.927  35.364  37.559  1.00  0.00     0.010 A 
ATOM     83  C   UNL A   1      39.157  34.015  38.526  1.00  0.00     0.010 A 
ATOM     84  C   UNL A   1      40.893  36.206  38.674  1.00  0.00     0.020 A 
ATOM     85  C   UNL A   1      39.105  34.867  39.632  1.00  0.00     0.020 A 
ATOM     86  C   UNL A   1      39.986  35.949  39.706  1.00  0.00     0.054 A 
BRANCH  86  87
ATOM     87  S   UNL A   1      39.938  37.069  41.132  1.00  0.00     0.124 S 
ATOM     88  O   UNL A   1      38.980  36.403  42.009  1.00  0.00    -0.237 OA
ATOM     89  O   UNL A   1      41.323  37.063  41.597  1.00  0.00    -0.237 OA
ATOM     90  O   UNL A   1      39.485  38.335  40.561  1.00  0.00    -0.744 OA
ENDBRANCH  86  87
ENDBRANCH  60  81
ENDBRANCH  34  35
ENDBRANCH  27  29
ENDBRANCH  26  27
ENDBRANCH  25  26
ENDBRANCH   1  25
TORSDOF 17
ENDMDL
MODEL 2
REMARK VINA RESULT:     -10.1      1.759      8.754
REMARK SMILES COc1ccc(Nc2c(C(=O)OCCOC(=O)c3ccc(-c4c5nc(c(-c6ccc(S(=O)(=O)[O-])cc6)c6ccc([nH]6)c(-c6ccc(S(=O)(=O)[O-])cc6)c6nc(c(-c7ccc(S(=O)(=O)[O-])cc7)c7ccc4[nH]7)C=C6)C=C5)cc3)[nH]c(=O)[nH]c2=O)cc1
REMARK SMILES IDX 13 1 12 2 10 3 11 4 9 5 8 6 82 7 78 8 81 9 83 10 79 11 80 14
REMARK SMILES IDX 7 15 6 17 3 18 4 19 85 20 5 21 84 22 2 23 1 24 14 25 15 26
REMARK SMILES IDX 16 27 17 28 18 29 19 30 77 31 20 32 76 33 21 34 22 35 23 36
REMARK SMILES IDX 70 37 24 38 75 39 69 40 71 41 25 42 74 43 68 44 67 45 26 47
REMARK SMILES IDX 56 48 37 49 55 50 38 51 41 52 54 53 72 54 39 55 40 56 53 58
REMARK SMILES IDX 73 59 42 60 27 61 28 62 36 63 29 64 35 65 30 66 31 67 32 68
REMARK SMILES IDX 33 69 34 70 57 71 58 72 66 73 59 74 65 75 60 76 61 77 62 78
REMARK SMILES IDX 63 79 64 80 43 81 44 82 52 83 45 84 51 85 46 86 47 87 48 88
REMARK SMILES IDX 49 89 50 90
REMARK H PARENT 78 12 81 13 7 16 71 46 41 57
REMARK Flexibility Score: inf
ROOT
ATOM      1  C   UNL A   1      43.499  24.843  25.622  1.00  0.00     0.275 C 
ENDROOT
BRANCH   1   2
ATOM      2  O   UNL A   1      43.144  23.465  25.383  1.00  0.00    -0.457 OA
BRANCH   2   3
ATOM      3  C   UNL A   1      43.191  22.630  26.450  1.00  0.00     0.357 C 
ATOM      4  O   UNL A   1      42.958  22.949  27.610  1.00  0.00    -0.244 OA
BRANCH   3   5
ATOM      5  C   UNL A   1      43.476  21.204  26.082  1.00  0.00     0.158 A 
ATOM      6  C   UNL A   1      42.663  20.165  26.363  1.00  0.00     0.136 A 
ATOM      7  C   UNL A   1      43.158  18.815  25.870  1.00  0.00     0.278 A 
ATOM      8  N   UNL A   1      44.692  21.023  25.456  1.00  0.00    -0.299 N 
ATOM      9  N   UNL A   1      44.460  18.742  25.462  1.00  0.00    -0.272 N 
ATOM     10  O   UNL A   1      42.435  17.824  25.790  1.00  0.00    -0.267 OA
ATOM     11  C   UNL A   1      45.243  19.813  25.182  1.00  0.00     0.326 A 
ATOM     12  H   UNL A   1      45.195  21.826  25.190  1.00  0.00     0.172 HD
ATOM     13  H   UNL A   1      44.858  17.847  25.363  1.00  0.00     0.175 HD
ATOM     14  O   UNL A   1      46.362  19.702  24.698  1.00  0.00    -0.248 OA
BRANCH   6  15
ATOM     15  N   UNL A   1      41.407  20.248  26.947  1.00  0.00    -0.349 N 
ATOM     16  H   UNL A   1      41.363  19.994  27.898  1.00  0.00     0.167 HD
BRANCH  15  17
ATOM     17  C   UNL A   1      40.186  20.648  26.370  1.00  0.00     0.039 A 
ATOM     18  C   UNL A   1      37.725  21.311  25.158  1.00  0.00     0.119 A 
ATOM     19  C   UNL A   1      38.423  22.256  25.907  1.00  0.00     0.048 A 
ATOM     20  C   UNL A   1      38.257  20.034  25.002  1.00  0.00     0.048 A 
ATOM     21  C   UNL A   1      39.635  21.923  26.519  1.00  0.00     0.030 A 
ATOM     22  C   UNL A   1      39.472  19.706  25.614  1.00  0.00     0.030 A 
BRANCH  18  23
ATOM     23  O   UNL A   1      36.558  21.752  24.597  1.00  0.00    -0.497 OA
ATOM     24  C   UNL A   1      36.712  22.593  23.461  1.00  0.00     0.278 C 
ENDBRANCH  18  23
ENDBRANCH  15  17
ENDBRANCH   6  15
ENDBRANCH   3   5
ENDBRANCH   2   3
ENDBRANCH   1   2
BRANCH   1  25
ATOM     25  C   UNL A   1      42.467  25.814  25.034  1.00  0.00     0.275 C 
BRANCH  25  26
ATOM     26  O   UNL A   1      41.949  26.718  26.029  1.00  0.00    -0.458 OA
BRANCH  26  27
ATOM     27  C   UNL A   1      40.747  26.374  26.542  1.00  0.00     0.338 C 
ATOM     28  O   UNL A   1      40.031  25.453  26.172  1.00  0.00    -0.246 OA
BRANCH  27  29
ATOM     29  C   UNL A   1      40.473  27.142  27.765  1.00  0.00     0.060 A 
ATOM     30  C   UNL A   1      41.097  28.384  27.873  1.00  0.00     0.016 A 
ATOM     31  C   UNL A   1      39.726  26.637  28.830  1.00  0.00     0.016 A 
ATOM     32  C   UNL A   1      41.004  29.126  29.043  1.00  0.00     0.010 A 
ATOM     33  C   UNL A   1      39.624  27.388  30.011  1.00  0.00     0.010 A 
ATOM     34  C   UNL A   1      40.279  28.629  30.133  1.00  0.00    -0.014 A 
BRANCH  34  35
ATOM     35  C   UNL A   1      40.309  29.384  31.413  1.00  0.00     0.031 A 
ATOM     36  C   UNL A   1      41.467  29.212  32.358  1.00  0.00     0.074 A 
ATOM     37  C   UNL A   1      39.349  30.288  31.689  1.00  0.00     0.049 A 
ATOM     38  N   UNL A   1      41.660  29.746  33.536  1.00  0.00    -0.248 NA
ATOM     39  C   UNL A   1      42.551  28.316  31.919  1.00  0.00     0.031 C 
ATOM     40  C   UNL A   1      38.205  30.600  30.828  1.00  0.00     0.029 A 
ATOM     41  N   UNL A   1      39.196  31.130  32.763  1.00  0.00    -0.354 N 
ATOM     42  C   UNL A   1      42.861  29.222  34.000  1.00  0.00     0.074 A 
ATOM     43  C   UNL A   1      43.352  28.324  32.976  1.00  0.00     0.031 C 
ATOM     44  C   UNL A   1      37.489  31.586  31.391  1.00  0.00     0.029 A 
ATOM     45  C   UNL A   1      38.088  31.940  32.675  1.00  0.00     0.049 A 
ATOM     46  H   UNL A   1      39.821  31.153  33.523  1.00  0.00     0.167 HD
ATOM     47  C   UNL A   1      43.496  29.464  35.172  1.00  0.00     0.031 A 
ATOM     48  C   UNL A   1      37.596  32.851  33.539  1.00  0.00     0.031 A 
ATOM     49  C   UNL A   1      43.025  30.383  36.174  1.00  0.00     0.049 A 
ATOM     50  C   UNL A   1      38.313  33.095  34.838  1.00  0.00     0.074 A 
ATOM     51  C   UNL A   1      43.594  30.688  37.398  1.00  0.00     0.029 A 
ATOM     52  N   UNL A   1      41.882  31.158  36.060  1.00  0.00    -0.354 N 
ATOM     53  N   UNL A   1      39.419  32.546  35.284  1.00  0.00    -0.248 NA
ATOM     54  C   UNL A   1      37.715  34.076  35.752  1.00  0.00     0.031 C 
ATOM     55  C   UNL A   1      42.778  31.627  38.039  1.00  0.00     0.029 A 
ATOM     56  C   UNL A   1      41.725  31.937  37.194  1.00  0.00     0.049 A 
ATOM     57  H   UNL A   1      41.272  31.156  35.288  1.00  0.00     0.167 HD
ATOM     58  C   UNL A   1      39.652  33.123  36.526  1.00  0.00     0.074 A 
ATOM     59  C   UNL A   1      38.585  34.078  36.752  1.00  0.00     0.031 C 
ATOM     60  C   UNL A   1      40.656  32.880  37.405  1.00  0.00     0.031 A 
BRANCH  47  61
ATOM     61  C   UNL A   1      44.749  28.679  35.453  1.00  0.00    -0.014 A 
ATOM     62  C   UNL A   1      46.016  29.151  35.066  1.00  0.00     0.010 A 
ATOM     63  C   UNL A   1      44.654  27.453  36.137  1.00  0.00     0.010 A 
ATOM     64  C   UNL A   1      47.161  28.390  35.323  1.00  0.00     0.020 A 
ATOM     65  C   UNL A   1      45.798  26.702  36.417  1.00  0.00     0.020 A 
ATOM     66  C   UNL A   1      47.043  27.165  35.990  1.00  0.00     0.054 A 
BRANCH  66  67
ATOM     67  S   UNL A   1      48.542  26.198  36.319  1.00  0.00     0.124 S 
ATOM     68  O   UNL A   1      48.009  25.070  37.080  1.00  0.00    -0.237 OA
ATOM     69  O   UNL A   1      49.023  25.878  34.978  1.00  0.00    -0.237 OA
ATOM     70  O   UNL A   1      49.386  27.117  37.078  1.00  0.00    -0.744 OA
ENDBRANCH  66  67
ENDBRANCH  47  61
BRANCH  48  71
ATOM     71  C   UNL A   1      36.339  33.576  33.212  1.00  0.00    -0.014 A 
ATOM     72  C   UNL A   1      36.375  34.873  32.674  1.00  0.00     0.010 A 
ATOM     73  C   UNL A   1      35.094  32.957  33.424  1.00  0.00     0.010 A 
ATOM     74  C   UNL A   1      35.187  35.542  32.360  1.00  0.00     0.020 A 
ATOM     75  C   UNL A   1      33.906  33.611  33.088  1.00  0.00     0.020 A 
ATOM     76  C   UNL A   1      33.960  34.905  32.566  1.00  0.00     0.054 A 
BRANCH  76  77
ATOM     77  S   UNL A   1      32.430  35.756  32.089  1.00  0.00     0.124 S 
ATOM     78  O   UNL A   1      32.639  37.090  32.644  1.00  0.00    -0.237 OA
ATOM     79  O   UNL A   1      32.455  35.666  30.631  1.00  0.00    -0.237 OA
ATOM     80  O   UNL A   1      31.385  34.964  32.735  1.00  0.00    -0.744 OA
ENDBRANCH  76  77
ENDBRANCH  48  71
BRANCH  60  81
ATOM     81  C   UNL A   1      40.662  33.678  38.680  1.00  0.00    -0.014 A 
ATOM     82  C   UNL A   1      40.050  33.186  39.846  1.00  0.00     0.010 A 
ATOM     83  C   UNL A   1      41.320  34.921  38.719  1.00  0.00     0.010 A 
ATOM     84  C   UNL A   1      40.067  33.940  41.023  1.00  0.00     0.020 A 
ATOM     85  C   UNL A   1      41.357  35.667  39.900  1.00  0.00     0.020 A 
ATOM     86  C   UNL A   1      40.716  35.179  41.040  1.00  0.00     0.054 A 
BRANCH  86  87
ATOM     87  S   UNL A   1      40.751  36.129  42.585  1.00  0.00     0.124 S 
ATOM     88  O   UNL A   1      39.496  36.871  42.513  1.00  0.00    -0.237 OA
ATOM     89  O   UNL A   1      40.804  35.086  43.607  1.00  0.00    -0.237 OA
ATOM     90  O   UNL A   1      41.962  36.937  42.465  1.00  0.00    -0.744 OA
ENDBRANCH  86  87
ENDBRANCH  60  81
ENDBRANCH  34  35
ENDBRANCH  27  29
ENDBRANCH  26  27
ENDBRANCH  25  26
ENDBRANCH   1  25
TORSDOF 17
ENDMDL
MODEL 3
REMARK VINA RESULT:     -10.1      5.428     14.067
REMARK SMILES COc1ccc(Nc2c(C(=O)OCCOC(=O)c3ccc(-c4c5nc(c(-c6ccc(S(=O)(=O)[O-])cc6)c6ccc([nH]6)c(-c6ccc(S(=O)(=O)[O-])cc6)c6nc(c(-c7ccc(S(=O)(=O)[O-])cc7)c7ccc4[nH]7)C=C6)C=C5)cc3)[nH]c(=O)[nH]c2=O)cc1
REMARK SMILES IDX 13 1 12 2 10 3 11 4 9 5 8 6 82 7 78 8 81 9 83 10 79 11 80 14
REMARK SMILES IDX 7 15 6 17 3 18 4 19 85 20 5 21 84 22 2 23 1 24 14 25 15 26
REMARK SMILES IDX 16 27 17 28 18 29 19 30 77 31 20 32 76 33 21 34 22 35 23 36
REMARK SMILES IDX 70 37 24 38 75 39 69 40 71 41 25 42 74 43 68 44 67 45 26 47
REMARK SMILES IDX 56 48 37 49 55 50 38 51 41 52 54 53 72 54 39 55 40 56 53 58
REMARK SMILES IDX 73 59 42 60 27 61 28 62 36 63 29 64 35 65 30 66 31 67 32 68
REMARK SMILES IDX 33 69 34 70 57 71 58 72 66 73 59 74 65 75 60 76 61 77 62 78
REMARK SMILES IDX 63 79 64 80 43 81 44 82 52 83 45 84 51 85 46 86 47 87 48 88
REMARK SMILES IDX 49 89 50 90
REMARK H PARENT 78 12 81 13 7 16 71 46 41 57
REMARK Flexibility Score: inf
ROOT
ATOM      1  C   UNL A   1      36.543  34.123  33.419  1.00  0.00     0.275 C 
ENDROOT
BRANCH   1   2
ATOM      2  O   UNL A   1      35.257  34.449  33.986  1.00  0.00    -0.457 OA
BRANCH   2   3
ATOM      3  C   UNL A   1      34.172  34.222  33.206  1.00  0.00     0.357 C 
ATOM      4  O   UNL A   1      33.470  33.219  33.243  1.00  0.00    -0.244 OA
BRANCH   3   5
ATOM      5  C   UNL A   1      33.825  35.377  32.313  1.00  0.00     0.158 A 
ATOM      6  C   UNL A   1      33.537  35.267  30.999  1.00  0.00     0.136 A 
ATOM      7  C   UNL A   1      33.196  36.577  30.308  1.00  0.00     0.278 A 
ATOM      8  N   UNL A   1      33.868  36.602  32.943  1.00  0.00    -0.299 N 
ATOM      9  N   UNL A   1      33.482  37.729  30.984  1.00  0.00    -0.272 N 
ATOM     10  O   UNL A   1      32.649  36.632  29.209  1.00  0.00    -0.267 OA
ATOM     11  C   UNL A   1      33.760  37.798  32.310  1.00  0.00     0.326 A 
ATOM     12  H   UNL A   1      33.986  36.612  33.921  1.00  0.00     0.172 HD
ATOM     13  H   UNL A   1      33.487  38.570  30.473  1.00  0.00     0.175 HD
ATOM     14  O   UNL A   1      33.886  38.862  32.901  1.00  0.00    -0.248 OA
BRANCH   6  15
ATOM     15  N   UNL A   1      33.426  34.081  30.286  1.00  0.00    -0.349 N 
ATOM     16  H   UNL A   1      32.511  33.727  30.192  1.00  0.00     0.167 HD
BRANCH  15  17
ATOM     17  C   UNL A   1      34.438  33.316  29.675  1.00  0.00     0.039 A 
ATOM     18  C   UNL A   1      36.459  31.688  28.567  1.00  0.00     0.119 A 
ATOM     19  C   UNL A   1      36.039  32.841  27.909  1.00  0.00     0.048 A 
ATOM     20  C   UNL A   1      35.880  31.348  29.786  1.00  0.00     0.048 A 
ATOM     21  C   UNL A   1      35.028  33.641  28.451  1.00  0.00     0.030 A 
ATOM     22  C   UNL A   1      34.871  32.152  30.327  1.00  0.00     0.030 A 
BRANCH  18  23
ATOM     23  O   UNL A   1      37.461  30.992  27.949  1.00  0.00    -0.497 OA
ATOM     24  C   UNL A   1      37.367  29.577  28.050  1.00  0.00     0.278 C 
ENDBRANCH  18  23
ENDBRANCH  15  17
ENDBRANCH   6  15
ENDBRANCH   3   5
ENDBRANCH   2   3
ENDBRANCH   1   2
BRANCH   1  25
ATOM     25  C   UNL A   1      37.318  33.123  34.286  1.00  0.00     0.275 C 
BRANCH  25  26
ATOM     26  O   UNL A   1      38.353  32.453  33.541  1.00  0.00    -0.458 OA
BRANCH  26  27
ATOM     27  C   UNL A   1      37.987  31.272  32.993  1.00  0.00     0.338 C 
ATOM     28  O   UNL A   1      36.887  30.742  33.067  1.00  0.00    -0.246 OA
BRANCH  27  29
ATOM     29  C   UNL A   1      39.047  30.769  32.106  1.00  0.00     0.060 A 
ATOM     30  C   UNL A   1      39.899  29.804  32.641  1.00  0.00     0.016 A 
ATOM     31  C   UNL A   1      39.285  31.290  30.835  1.00  0.00     0.016 A 
ATOM     32  C   UNL A   1      41.006  29.361  31.927  1.00  0.00     0.010 A 
ATOM     33  C   UNL A   1      40.399  30.840  30.108  1.00  0.00     0.010 A 
ATOM     34  C   UNL A   1      41.278  29.886  30.659  1.00  0.00    -0.014 A 
BRANCH  34  35
ATOM     35  C   UNL A   1      42.540  29.492  29.979  1.00  0.00     0.031 A 
ATOM     36  C   UNL A   1      42.630  28.161  29.282  1.00  0.00     0.074 A 
ATOM     37  C   UNL A   1      43.570  30.357  29.907  1.00  0.00     0.049 A 
ATOM     38  N   UNL A   1      43.650  27.616  28.668  1.00  0.00    -0.248 NA
ATOM     39  C   UNL A   1      41.414  27.331  29.279  1.00  0.00     0.031 C 
ATOM     40  C   UNL A   1      43.588  31.703  30.483  1.00  0.00     0.029 A 
ATOM     41  N   UNL A   1      44.794  30.240  29.295  1.00  0.00    -0.354 N 
ATOM     42  C   UNL A   1      43.214  26.367  28.244  1.00  0.00     0.074 A 
ATOM     43  C   UNL A   1      41.838  26.231  28.673  1.00  0.00     0.031 C 
ATOM     44  C   UNL A   1      44.750  32.299  30.169  1.00  0.00     0.029 A 
ATOM     45  C   UNL A   1      45.580  31.362  29.418  1.00  0.00     0.049 A 
ATOM     46  H   UNL A   1      45.081  29.431  28.814  1.00  0.00     0.167 HD
ATOM     47  C   UNL A   1      43.899  25.417  27.561  1.00  0.00     0.031 A 
ATOM     48  C   UNL A   1      46.836  31.603  28.991  1.00  0.00     0.031 A 
ATOM     49  C   UNL A   1      45.255  25.566  27.106  1.00  0.00     0.049 A 
ATOM     50  C   UNL A   1      47.579  30.530  28.244  1.00  0.00     0.074 A 
ATOM     51  C   UNL A   1      46.036  24.656  26.415  1.00  0.00     0.029 A 
ATOM     52  N   UNL A   1      46.026  26.704  27.278  1.00  0.00    -0.354 N 
ATOM     53  N   UNL A   1      47.169  29.332  27.901  1.00  0.00    -0.248 NA
ATOM     54  C   UNL A   1      48.954  30.840  27.831  1.00  0.00     0.031 C 
ATOM     55  C   UNL A   1      47.292  25.233  26.196  1.00  0.00     0.029 A 
ATOM     56  C   UNL A   1      47.277  26.519  26.712  1.00  0.00     0.049 A 
ATOM     57  H   UNL A   1      45.729  27.524  27.734  1.00  0.00     0.167 HD
ATOM     58  C   UNL A   1      48.234  28.748  27.225  1.00  0.00     0.074 A 
ATOM     59  C   UNL A   1      49.297  29.732  27.188  1.00  0.00     0.031 C 
ATOM     60  C   UNL A   1      48.325  27.506  26.687  1.00  0.00     0.031 A 
BRANCH  47  61
ATOM     61  C   UNL A   1      43.199  24.108  27.312  1.00  0.00    -0.014 A 
ATOM     62  C   UNL A   1      43.133  23.109  28.300  1.00  0.00     0.010 A 
ATOM     63  C   UNL A   1      42.578  23.886  26.069  1.00  0.00     0.010 A 
ATOM     64  C   UNL A   1      42.492  21.895  28.033  1.00  0.00     0.020 A 
ATOM     65  C   UNL A   1      41.916  22.683  25.808  1.00  0.00     0.020 A 
ATOM     66  C   UNL A   1      41.896  21.687  26.785  1.00  0.00     0.054 A 
BRANCH  66  67
ATOM     67  S   UNL A   1      41.064  20.107  26.463  1.00  0.00     0.124 S 
ATOM     68  O   UNL A   1      41.988  19.467  25.528  1.00  0.00    -0.237 OA
ATOM     69  O   UNL A   1      40.994  19.500  27.790  1.00  0.00    -0.237 OA
ATOM     70  O   UNL A   1      39.778  20.503  25.894  1.00  0.00    -0.744 OA
ENDBRANCH  66  67
ENDBRANCH  47  61
BRANCH  48  71
ATOM     71  C   UNL A   1      47.480  32.910  29.291  1.00  0.00    -0.014 A 
ATOM     72  C   UNL A   1      47.344  33.999  28.413  1.00  0.00     0.010 A 
ATOM     73  C   UNL A   1      48.222  33.074  30.476  1.00  0.00     0.010 A 
ATOM     74  C   UNL A   1      47.945  35.227  28.711  1.00  0.00     0.020 A 
ATOM     75  C   UNL A   1      48.801  34.305  30.789  1.00  0.00     0.020 A 
ATOM     76  C   UNL A   1      48.668  35.373  29.899  1.00  0.00     0.054 A 
BRANCH  76  77
ATOM     77  S   UNL A   1      49.381  36.991  30.307  1.00  0.00     0.124 S 
ATOM     78  O   UNL A   1      49.786  37.483  28.994  1.00  0.00    -0.237 OA
ATOM     79  O   UNL A   1      48.258  37.690  30.926  1.00  0.00    -0.237 OA
ATOM     80  O   UNL A   1      50.475  36.660  31.218  1.00  0.00    -0.744 OA
ENDBRANCH  76  77
ENDBRANCH  48  71
BRANCH  60  81
ATOM     81  C   UNL A   1      49.610  27.152  25.990  1.00  0.00    -0.014 A 
ATOM     82  C   UNL A   1      49.801  27.443  24.629  1.00  0.00     0.010 A 
ATOM     83  C   UNL A   1      50.652  26.551  26.719  1.00  0.00     0.010 A 
ATOM     84  C   UNL A   1      51.002  27.108  23.997  1.00  0.00     0.020 A 
ATOM     85  C   UNL A   1      51.863  26.235  26.096  1.00  0.00     0.020 A 
ATOM     86  C   UNL A   1      52.023  26.500  24.735  1.00  0.00     0.054 A 
BRANCH  86  87
ATOM     87  S   UNL A   1      53.585  26.099  23.904  1.00  0.00     0.124 S 
ATOM     88  O   UNL A   1      54.385  27.292  24.168  1.00  0.00    -0.237 OA
ATOM     89  O   UNL A   1      54.019  24.888  24.596  1.00  0.00    -0.237 OA
ATOM     90  O   UNL A   1      53.195  25.906  22.510  1.00  0.00    -0.744 OA
ENDBRANCH  86  87
ENDBRANCH  60  81
ENDBRANCH  34  35
ENDBRANCH  27  29
ENDBRANCH  26  27
ENDBRANCH  25  26
ENDBRANCH   1  25
TORSDOF 17
ENDMDL
