MODEL 1
REMARK VINA RESULT:      -9.6      0.000      0.000
REMARK SMILES C[C@@H](Oc1ccc(N)cc1)C(=O)OCCOC(=O)c1ccc(-c2c3nc(c(-c4ccc(S(=O)(=O)[O-])cc4)c4ccc([nH]4)c(-c4ccc(S(=O)(=O)[O-])cc4)c4nc(c(-c5ccc(S(=O)(=O)[O-])cc5)c5ccc2[nH]5)C=C4)C=C3)cc1
REMARK SMILES IDX 14 1 13 2 11 3 12 4 2 5 1 6 3 7 4 8 5 9 10 10 6 11 9 12 7 13
REMARK SMILES IDX 8 14 15 17 16 18 17 19 18 20 19 21 20 22 78 23 21 24 77 25
REMARK SMILES IDX 22 26 23 27 24 28 71 29 25 30 76 31 70 32 72 33 26 34 75 35
REMARK SMILES IDX 69 36 68 37 27 39 57 40 38 41 56 42 39 43 42 44 55 45 73 46
REMARK SMILES IDX 40 47 41 48 54 50 74 51 43 52 28 53 29 54 37 55 30 56 36 57
REMARK SMILES IDX 31 58 32 59 33 60 34 61 35 62 58 63 59 64 67 65 60 66 66 67
REMARK SMILES IDX 61 68 62 69 63 70 64 71 65 72 44 73 45 74 53 75 46 76 52 77
REMARK SMILES IDX 47 78 48 79 49 80 50 81 51 82
REMARK H PARENT 8 15 8 16 72 38 42 49
REMARK Flexibility Score: inf
ROOT
ATOM      1  C   UNL A   1      41.287  19.857  26.144  1.00  0.00     0.274 C 
ENDROOT
BRANCH   1   2
ATOM      2  O   UNL A   1      42.555  20.461  25.823  1.00  0.00    -0.459 OA
BRANCH   2   3
ATOM      3  C   UNL A   1      43.521  19.627  25.345  1.00  0.00     0.347 C 
ATOM      4  O   UNL A   1      43.369  18.426  25.150  1.00  0.00    -0.248 OA
BRANCH   3   5
ATOM      5  C   UNL A   1      44.839  20.355  25.074  1.00  0.00     0.279 C 
ATOM      6  C   UNL A   1      45.976  19.382  24.770  1.00  0.00     0.066 C 
BRANCH   5   7
ATOM      7  O   UNL A   1      44.646  21.256  23.975  1.00  0.00    -0.479 OA
BRANCH   7   8
ATOM      8  C   UNL A   1      44.889  22.549  24.359  1.00  0.00     0.120 A 
ATOM      9  C   UNL A   1      46.198  23.020  24.394  1.00  0.00     0.048 A 
ATOM     10  C   UNL A   1      43.826  23.397  24.647  1.00  0.00     0.048 A 
ATOM     11  C   UNL A   1      46.448  24.336  24.788  1.00  0.00     0.029 A 
ATOM     12  C   UNL A   1      44.085  24.717  25.029  1.00  0.00     0.029 A 
ATOM     13  C   UNL A   1      45.397  25.186  25.144  1.00  0.00     0.032 A 
BRANCH  13  14
ATOM     14  N   UNL A   1      45.647  26.514  25.459  1.00  0.00    -0.399 N 
ATOM     15  H   UNL A   1      46.417  26.749  26.027  1.00  0.00     0.156 HD
ATOM     16  H   UNL A   1      45.056  27.222  25.116  1.00  0.00     0.156 HD
ENDBRANCH  13  14
ENDBRANCH   7   8
ENDBRANCH   5   7
ENDBRANCH   3   5
ENDBRANCH   2   3
ENDBRANCH   1   2
BRANCH   1  17
ATOM     17  C   UNL A   1      40.374  20.860  26.848  1.00  0.00     0.275 C 
BRANCH  17  18
ATOM     18  O   UNL A   1      40.460  22.153  26.221  1.00  0.00    -0.458 OA
BRANCH  18  19
ATOM     19  C   UNL A   1      39.306  22.859  26.181  1.00  0.00     0.338 C 
ATOM     20  O   UNL A   1      38.219  22.486  25.778  1.00  0.00    -0.246 OA
BRANCH  19  21
ATOM     21  C   UNL A   1      39.523  24.178  26.791  1.00  0.00     0.060 A 
ATOM     22  C   UNL A   1      40.264  25.130  26.087  1.00  0.00     0.016 A 
ATOM     23  C   UNL A   1      39.094  24.429  28.095  1.00  0.00     0.016 A 
ATOM     24  C   UNL A   1      40.601  26.337  26.698  1.00  0.00     0.010 A 
ATOM     25  C   UNL A   1      39.420  25.646  28.701  1.00  0.00     0.010 A 
ATOM     26  C   UNL A   1      40.196  26.597  28.015  1.00  0.00    -0.014 A 
BRANCH  26  27
ATOM     27  C   UNL A   1      40.645  27.836  28.695  1.00  0.00     0.031 A 
ATOM     28  C   UNL A   1      42.054  27.939  29.209  1.00  0.00     0.074 A 
ATOM     29  C   UNL A   1      39.799  28.875  28.836  1.00  0.00     0.049 A 
ATOM     30  N   UNL A   1      42.626  28.918  29.864  1.00  0.00    -0.248 NA
ATOM     31  C   UNL A   1      42.936  26.790  28.952  1.00  0.00     0.031 C 
ATOM     32  C   UNL A   1      38.420  28.914  28.348  1.00  0.00     0.029 A 
ATOM     33  N   UNL A   1      39.981  30.098  29.428  1.00  0.00    -0.354 N 
ATOM     34  C   UNL A   1      43.925  28.497  30.116  1.00  0.00     0.074 A 
ATOM     35  C   UNL A   1      44.054  27.169  29.554  1.00  0.00     0.031 C 
ATOM     36  C   UNL A   1      37.884  30.109  28.651  1.00  0.00     0.029 A 
ATOM     37  C   UNL A   1      38.868  30.901  29.385  1.00  0.00     0.049 A 
ATOM     38  H   UNL A   1      40.830  30.374  29.844  1.00  0.00     0.167 HD
ATOM     39  C   UNL A   1      44.922  29.156  30.755  1.00  0.00     0.031 A 
ATOM     40  C   UNL A   1      38.658  32.131  29.892  1.00  0.00     0.031 A 
ATOM     41  C   UNL A   1      44.798  30.476  31.312  1.00  0.00     0.049 A 
ATOM     42  C   UNL A   1      39.765  32.824  30.637  1.00  0.00     0.074 A 
ATOM     43  C   UNL A   1      45.756  31.228  31.971  1.00  0.00     0.029 A 
ATOM     44  N   UNL A   1      43.644  31.242  31.277  1.00  0.00    -0.354 N 
ATOM     45  N   UNL A   1      40.988  32.409  30.868  1.00  0.00    -0.248 NA
ATOM     46  C   UNL A   1      39.463  34.152  31.189  1.00  0.00     0.031 C 
ATOM     47  C   UNL A   1      45.169  32.437  32.362  1.00  0.00     0.029 A 
ATOM     48  C   UNL A   1      43.858  32.452  31.914  1.00  0.00     0.049 A 
ATOM     49  H   UNL A   1      42.796  30.966  30.858  1.00  0.00     0.167 HD
ATOM     50  C   UNL A   1      41.606  33.432  31.577  1.00  0.00     0.074 A 
ATOM     51  C   UNL A   1      40.627  34.490  31.728  1.00  0.00     0.031 C 
ATOM     52  C   UNL A   1      42.872  33.492  32.059  1.00  0.00     0.031 A 
BRANCH  39  53
ATOM     53  C   UNL A   1      46.229  28.429  30.914  1.00  0.00    -0.014 A 
ATOM     54  C   UNL A   1      46.485  27.630  32.042  1.00  0.00     0.010 A 
ATOM     55  C   UNL A   1      47.213  28.544  29.914  1.00  0.00     0.010 A 
ATOM     56  C   UNL A   1      47.722  26.995  32.190  1.00  0.00     0.020 A 
ATOM     57  C   UNL A   1      48.443  27.895  30.050  1.00  0.00     0.020 A 
ATOM     58  C   UNL A   1      48.697  27.142  31.198  1.00  0.00     0.054 A 
BRANCH  58  59
ATOM     59  S   UNL A   1      50.298  26.316  31.413  1.00  0.00     0.124 S 
ATOM     60  O   UNL A   1      50.032  24.995  30.847  1.00  0.00    -0.237 OA
ATOM     61  O   UNL A   1      51.206  27.158  30.638  1.00  0.00    -0.237 OA
ATOM     62  O   UNL A   1      50.509  26.346  32.857  1.00  0.00    -0.744 OA
ENDBRANCH  58  59
ENDBRANCH  39  53
BRANCH  40  63
ATOM     63  C   UNL A   1      37.335  32.785  29.718  1.00  0.00    -0.014 A 
ATOM     64  C   UNL A   1      36.338  32.648  30.698  1.00  0.00     0.010 A 
ATOM     65  C   UNL A   1      37.074  33.563  28.575  1.00  0.00     0.010 A 
ATOM     66  C   UNL A   1      35.097  33.270  30.536  1.00  0.00     0.020 A 
ATOM     67  C   UNL A   1      35.842  34.204  28.420  1.00  0.00     0.020 A 
ATOM     68  C   UNL A   1      34.858  34.045  29.398  1.00  0.00     0.054 A 
BRANCH  68  69
ATOM     69  S   UNL A   1      33.266  34.901  29.233  1.00  0.00     0.124 S 
ATOM     70  O   UNL A   1      32.579  34.074  28.246  1.00  0.00    -0.237 OA
ATOM     71  O   UNL A   1      32.728  34.843  30.591  1.00  0.00    -0.237 OA
ATOM     72  O   UNL A   1      33.645  36.236  28.780  1.00  0.00    -0.744 OA
ENDBRANCH  68  69
ENDBRANCH  40  63
BRANCH  52  73
ATOM     73  C   UNL A   1      43.277  34.753  32.769  1.00  0.00    -0.014 A 
ATOM     74  C   UNL A   1      43.818  35.841  32.062  1.00  0.00     0.010 A 
ATOM     75  C   UNL A   1      43.081  34.862  34.158  1.00  0.00     0.010 A 
ATOM     76  C   UNL A   1      44.187  37.008  32.739  1.00  0.00     0.020 A 
ATOM     77  C   UNL A   1      43.430  36.034  34.833  1.00  0.00     0.020 A 
ATOM     78  C   UNL A   1      43.996  37.094  34.122  1.00  0.00     0.054 A 
BRANCH  78  79
ATOM     79  S   UNL A   1      44.449  38.628  34.979  1.00  0.00     0.124 S 
ATOM     80  O   UNL A   1      44.136  38.302  36.367  1.00  0.00    -0.237 OA
ATOM     81  O   UNL A   1      45.871  38.767  34.671  1.00  0.00    -0.237 OA
ATOM     82  O   UNL A   1      43.585  39.632  34.363  1.00  0.00    -0.744 OA
ENDBRANCH  78  79
ENDBRANCH  52  73
ENDBRANCH  26  27
ENDBRANCH  19  21
ENDBRANCH  18  19
ENDBRANCH  17  18
ENDBRANCH   1  17
TORSDOF 17
ENDMDL
MODEL 2
REMARK VINA RESULT:      -9.5      3.322     12.186
REMARK SMILES C[C@@H](Oc1ccc(N)cc1)C(=O)OCCOC(=O)c1ccc(-c2c3nc(c(-c4ccc(S(=O)(=O)[O-])cc4)c4ccc([nH]4)c(-c4ccc(S(=O)(=O)[O-])cc4)c4nc(c(-c5ccc(S(=O)(=O)[O-])cc5)c5ccc2[nH]5)C=C4)C=C3)cc1
REMARK SMILES IDX 14 1 13 2 11 3 12 4 2 5 1 6 3 7 4 8 5 9 10 10 6 11 9 12 7 13
REMARK SMILES IDX 8 14 15 17 16 18 17 19 18 20 19 21 20 22 78 23 21 24 77 25
REMARK SMILES IDX 22 26 23 27 24 28 71 29 25 30 76 31 70 32 72 33 26 34 75 35
REMARK SMILES IDX 69 36 68 37 27 39 57 40 38 41 56 42 39 43 42 44 55 45 73 46
REMARK SMILES IDX 40 47 41 48 54 50 74 51 43 52 28 53 29 54 37 55 30 56 36 57
REMARK SMILES IDX 31 58 32 59 33 60 34 61 35 62 58 63 59 64 67 65 60 66 66 67
REMARK SMILES IDX 61 68 62 69 63 70 64 71 65 72 44 73 45 74 53 75 46 76 52 77
REMARK SMILES IDX 47 78 48 79 49 80 50 81 51 82
REMARK H PARENT 8 15 8 16 72 38 42 49
REMARK Flexibility Score: inf
ROOT
ATOM      1  C   UNL A   1      33.759  34.861  28.956  1.00  0.00     0.274 C 
ENDROOT
BRANCH   1   2
ATOM      2  O   UNL A   1      32.670  35.099  29.867  1.00  0.00    -0.459 OA
BRANCH   2   3
ATOM      3  C   UNL A   1      32.800  36.169  30.701  1.00  0.00     0.347 C 
ATOM      4  O   UNL A   1      32.954  37.328  30.327  1.00  0.00    -0.248 OA
BRANCH   3   5
ATOM      5  C   UNL A   1      32.734  35.772  32.176  1.00  0.00     0.279 C 
ATOM      6  C   UNL A   1      31.419  36.200  32.824  1.00  0.00     0.066 C 
BRANCH   5   7
ATOM      7  O   UNL A   1      32.899  34.350  32.275  1.00  0.00    -0.479 OA
BRANCH   7   8
ATOM      8  C   UNL A   1      34.043  34.041  32.961  1.00  0.00     0.120 A 
ATOM      9  C   UNL A   1      34.475  34.874  33.988  1.00  0.00     0.048 A 
ATOM     10  C   UNL A   1      34.727  32.866  32.672  1.00  0.00     0.048 A 
ATOM     11  C   UNL A   1      35.643  34.561  34.687  1.00  0.00     0.029 A 
ATOM     12  C   UNL A   1      35.890  32.553  33.384  1.00  0.00     0.029 A 
ATOM     13  C   UNL A   1      36.381  33.418  34.367  1.00  0.00     0.032 A 
BRANCH  13  14
ATOM     14  N   UNL A   1      37.497  33.073  35.117  1.00  0.00    -0.399 N 
ATOM     15  H   UNL A   1      38.379  33.009  34.685  1.00  0.00     0.156 HD
ATOM     16  H   UNL A   1      37.407  32.892  36.080  1.00  0.00     0.156 HD
ENDBRANCH  13  14
ENDBRANCH   7   8
ENDBRANCH   5   7
ENDBRANCH   3   5
ENDBRANCH   2   3
ENDBRANCH   1   2
BRANCH   1  17
ATOM     17  C   UNL A   1      33.430  33.703  28.014  1.00  0.00     0.275 C 
BRANCH  17  18
ATOM     18  O   UNL A   1      34.613  32.940  27.712  1.00  0.00    -0.458 OA
BRANCH  18  19
ATOM     19  C   UNL A   1      34.502  31.602  27.879  1.00  0.00     0.338 C 
ATOM     20  O   UNL A   1      33.535  30.901  27.645  1.00  0.00    -0.246 OA
BRANCH  19  21
ATOM     21  C   UNL A   1      35.792  31.061  28.329  1.00  0.00     0.060 A 
ATOM     22  C   UNL A   1      35.820  29.799  28.928  1.00  0.00     0.016 A 
ATOM     23  C   UNL A   1      36.945  31.845  28.262  1.00  0.00     0.016 A 
ATOM     24  C   UNL A   1      37.005  29.323  29.486  1.00  0.00     0.010 A 
ATOM     25  C   UNL A   1      38.136  31.358  28.809  1.00  0.00     0.010 A 
ATOM     26  C   UNL A   1      38.167  30.104  29.446  1.00  0.00    -0.014 A 
BRANCH  26  27
ATOM     27  C   UNL A   1      39.396  29.637  30.132  1.00  0.00     0.031 A 
ATOM     28  C   UNL A   1      39.835  30.295  31.412  1.00  0.00     0.074 A 
ATOM     29  C   UNL A   1      40.108  28.614  29.623  1.00  0.00     0.049 A 
ATOM     30  N   UNL A   1      40.897  30.061  32.139  1.00  0.00    -0.248 NA
ATOM     31  C   UNL A   1      38.965  31.357  31.940  1.00  0.00     0.031 C 
ATOM     32  C   UNL A   1      39.768  27.868  28.411  1.00  0.00     0.029 A 
ATOM     33  N   UNL A   1      41.264  28.025  30.067  1.00  0.00    -0.354 N 
ATOM     34  C   UNL A   1      40.835  30.956  33.199  1.00  0.00     0.074 A 
ATOM     35  C   UNL A   1      39.637  31.748  33.013  1.00  0.00     0.031 C 
ATOM     36  C   UNL A   1      40.690  26.911  28.215  1.00  0.00     0.029 A 
ATOM     37  C   UNL A   1      41.703  27.001  29.263  1.00  0.00     0.049 A 
ATOM     38  H   UNL A   1      41.734  28.309  30.884  1.00  0.00     0.167 HD
ATOM     39  C   UNL A   1      41.696  31.107  34.235  1.00  0.00     0.031 A 
ATOM     40  C   UNL A   1      42.804  26.231  29.353  1.00  0.00     0.031 A 
ATOM     41  C   UNL A   1      42.885  30.321  34.425  1.00  0.00     0.049 A 
ATOM     42  C   UNL A   1      43.768  26.446  30.488  1.00  0.00     0.074 A 
ATOM     43  C   UNL A   1      43.814  30.395  35.449  1.00  0.00     0.029 A 
ATOM     44  N   UNL A   1      43.311  29.316  33.571  1.00  0.00    -0.354 N 
ATOM     45  N   UNL A   1      43.694  27.301  31.480  1.00  0.00    -0.248 NA
ATOM     46  C   UNL A   1      44.963  25.592  30.512  1.00  0.00     0.031 C 
ATOM     47  C   UNL A   1      44.820  29.455  35.196  1.00  0.00     0.029 A 
ATOM     48  C   UNL A   1      44.497  28.771  34.035  1.00  0.00     0.049 A 
ATOM     49  H   UNL A   1      42.840  29.030  32.755  1.00  0.00     0.167 HD
ATOM     50  C   UNL A   1      44.824  27.075  32.257  1.00  0.00     0.074 A 
ATOM     51  C   UNL A   1      45.559  25.997  31.626  1.00  0.00     0.031 C 
ATOM     52  C   UNL A   1      45.217  27.702  33.393  1.00  0.00     0.031 A 
BRANCH  39  53
ATOM     53  C   UNL A   1      41.389  32.196  35.226  1.00  0.00    -0.014 A 
ATOM     54  C   UNL A   1      40.676  31.925  36.407  1.00  0.00     0.010 A 
ATOM     55  C   UNL A   1      41.825  33.509  34.971  1.00  0.00     0.010 A 
ATOM     56  C   UNL A   1      40.365  32.959  37.295  1.00  0.00     0.020 A 
ATOM     57  C   UNL A   1      41.533  34.541  35.866  1.00  0.00     0.020 A 
ATOM     58  C   UNL A   1      40.785  34.262  37.013  1.00  0.00     0.054 A 
BRANCH  58  59
ATOM     59  S   UNL A   1      40.366  35.591  38.174  1.00  0.00     0.124 S 
ATOM     60  O   UNL A   1      39.299  34.976  38.960  1.00  0.00    -0.237 OA
ATOM     61  O   UNL A   1      41.622  35.811  38.887  1.00  0.00    -0.237 OA
ATOM     62  O   UNL A   1      39.948  36.688  37.306  1.00  0.00    -0.744 OA
ENDBRANCH  58  59
ENDBRANCH  39  53
BRANCH  40  63
ATOM     63  C   UNL A   1      43.059  25.185  28.329  1.00  0.00    -0.014 A 
ATOM     64  C   UNL A   1      43.811  25.482  27.180  1.00  0.00     0.010 A 
ATOM     65  C   UNL A   1      42.562  23.881  28.508  1.00  0.00     0.010 A 
ATOM     66  C   UNL A   1      44.056  24.495  26.221  1.00  0.00     0.020 A 
ATOM     67  C   UNL A   1      42.823  22.886  27.562  1.00  0.00     0.020 A 
ATOM     68  C   UNL A   1      43.561  23.203  26.419  1.00  0.00     0.054 A 
BRANCH  68  69
ATOM     69  S   UNL A   1      43.943  21.916  25.198  1.00  0.00     0.124 S 
ATOM     70  O   UNL A   1      45.301  21.537  25.572  1.00  0.00    -0.237 OA
ATOM     71  O   UNL A   1      42.912  20.912  25.457  1.00  0.00    -0.237 OA
ATOM     72  O   UNL A   1      43.813  22.613  23.921  1.00  0.00    -0.744 OA
ENDBRANCH  68  69
ENDBRANCH  40  63
BRANCH  52  73
ATOM     73  C   UNL A   1      46.486  27.219  34.039  1.00  0.00    -0.014 A 
ATOM     74  C   UNL A   1      46.466  26.175  34.980  1.00  0.00     0.010 A 
ATOM     75  C   UNL A   1      47.716  27.796  33.675  1.00  0.00     0.010 A 
ATOM     76  C   UNL A   1      47.656  25.736  35.569  1.00  0.00     0.020 A 
ATOM     77  C   UNL A   1      48.907  27.347  34.248  1.00  0.00     0.020 A 
ATOM     78  C   UNL A   1      48.869  26.329  35.204  1.00  0.00     0.054 A 
BRANCH  78  79
ATOM     79  S   UNL A   1      50.406  25.726  35.954  1.00  0.00     0.124 S 
ATOM     80  O   UNL A   1      50.464  24.352  35.463  1.00  0.00    -0.237 OA
ATOM     81  O   UNL A   1      51.414  26.631  35.406  1.00  0.00    -0.237 OA
ATOM     82  O   UNL A   1      50.166  25.867  37.388  1.00  0.00    -0.744 OA
ENDBRANCH  78  79
ENDBRANCH  52  73
ENDBRANCH  26  27
ENDBRANCH  19  21
ENDBRANCH  18  19
ENDBRANCH  17  18
ENDBRANCH   1  17
TORSDOF 17
ENDMDL
MODEL 3
REMARK VINA RESULT:      -9.4      2.614     11.889
REMARK SMILES C[C@@H](Oc1ccc(N)cc1)C(=O)OCCOC(=O)c1ccc(-c2c3nc(c(-c4ccc(S(=O)(=O)[O-])cc4)c4ccc([nH]4)c(-c4ccc(S(=O)(=O)[O-])cc4)c4nc(c(-c5ccc(S(=O)(=O)[O-])cc5)c5ccc2[nH]5)C=C4)C=C3)cc1
REMARK SMILES IDX 14 1 13 2 11 3 12 4 2 5 1 6 3 7 4 8 5 9 10 10 6 11 9 12 7 13
REMARK SMILES IDX 8 14 15 17 16 18 17 19 18 20 19 21 20 22 78 23 21 24 77 25
REMARK SMILES IDX 22 26 23 27 24 28 71 29 25 30 76 31 70 32 72 33 26 34 75 35
REMARK SMILES IDX 69 36 68 37 27 39 57 40 38 41 56 42 39 43 42 44 55 45 73 46
REMARK SMILES IDX 40 47 41 48 54 50 74 51 43 52 28 53 29 54 37 55 30 56 36 57
REMARK SMILES IDX 31 58 32 59 33 60 34 61 35 62 58 63 59 64 67 65 60 66 66 67
REMARK SMILES IDX 61 68 62 69 63 70 64 71 65 72 44 73 45 74 53 75 46 76 52 77
REMARK SMILES IDX 47 78 48 79 49 80 50 81 51 82
REMARK H PARENT 8 15 8 16 72 38 42 49
REMARK Flexibility Score: inf
ROOT
ATOM      1  C   UNL A   1      34.500  33.200  29.564  1.00  0.00     0.274 C 
ENDROOT
BRANCH   1   2
ATOM      2  O   UNL A   1      34.611  34.579  29.967  1.00  0.00    -0.459 OA
BRANCH   2   3
ATOM      3  C   UNL A   1      33.608  35.065  30.750  1.00  0.00     0.347 C 
ATOM      4  O   UNL A   1      32.478  35.328  30.350  1.00  0.00    -0.248 OA
BRANCH   3   5
ATOM      5  C   UNL A   1      34.042  35.255  32.204  1.00  0.00     0.279 C 
ATOM      6  C   UNL A   1      33.321  36.427  32.866  1.00  0.00     0.066 C 
BRANCH   5   7
ATOM      7  O   UNL A   1      33.782  34.040  32.921  1.00  0.00    -0.479 OA
BRANCH   7   8
ATOM      8  C   UNL A   1      34.947  33.497  33.394  1.00  0.00     0.120 A 
ATOM      9  C   UNL A   1      35.525  34.010  34.551  1.00  0.00     0.048 A 
ATOM     10  C   UNL A   1      35.508  32.398  32.754  1.00  0.00     0.048 A 
ATOM     11  C   UNL A   1      36.715  33.459  35.032  1.00  0.00     0.029 A 
ATOM     12  C   UNL A   1      36.693  31.844  33.250  1.00  0.00     0.029 A 
ATOM     13  C   UNL A   1      37.329  32.396  34.366  1.00  0.00     0.032 A 
BRANCH  13  14
ATOM     14  N   UNL A   1      38.468  31.804  34.894  1.00  0.00    -0.399 N 
ATOM     15  H   UNL A   1      38.433  30.877  35.224  1.00  0.00     0.156 HD
ATOM     16  H   UNL A   1      39.311  32.311  34.938  1.00  0.00     0.156 HD
ENDBRANCH  13  14
ENDBRANCH   7   8
ENDBRANCH   5   7
ENDBRANCH   3   5
ENDBRANCH   2   3
ENDBRANCH   1   2
BRANCH   1  17
ATOM     17  C   UNL A   1      34.054  33.098  28.106  1.00  0.00     0.275 C 
BRANCH  17  18
ATOM     18  O   UNL A   1      34.838  32.118  27.401  1.00  0.00    -0.458 OA
BRANCH  18  19
ATOM     19  C   UNL A   1      34.613  30.831  27.749  1.00  0.00     0.338 C 
ATOM     20  O   UNL A   1      33.553  30.231  27.737  1.00  0.00    -0.246 OA
BRANCH  19  21
ATOM     21  C   UNL A   1      35.891  30.189  28.085  1.00  0.00     0.060 A 
ATOM     22  C   UNL A   1      36.077  29.701  29.381  1.00  0.00     0.016 A 
ATOM     23  C   UNL A   1      36.935  30.173  27.160  1.00  0.00     0.016 A 
ATOM     24  C   UNL A   1      37.325  29.213  29.765  1.00  0.00     0.010 A 
ATOM     25  C   UNL A   1      38.182  29.670  27.544  1.00  0.00     0.010 A 
ATOM     26  C   UNL A   1      38.391  29.209  28.856  1.00  0.00    -0.014 A 
BRANCH  26  27
ATOM     27  C   UNL A   1      39.741  28.786  29.301  1.00  0.00     0.031 A 
ATOM     28  C   UNL A   1      40.562  29.699  30.169  1.00  0.00     0.074 A 
ATOM     29  C   UNL A   1      40.224  27.581  28.945  1.00  0.00     0.049 A 
ATOM     30  N   UNL A   1      41.776  29.531  30.629  1.00  0.00    -0.248 NA
ATOM     31  C   UNL A   1      39.935  30.967  30.574  1.00  0.00     0.031 C 
ATOM     32  C   UNL A   1      39.512  26.589  28.137  1.00  0.00     0.029 A 
ATOM     33  N   UNL A   1      41.429  26.987  29.222  1.00  0.00    -0.354 N 
ATOM     34  C   UNL A   1      42.067  30.677  31.358  1.00  0.00     0.074 A 
ATOM     35  C   UNL A   1      40.907  31.539  31.269  1.00  0.00     0.031 C 
ATOM     36  C   UNL A   1      40.290  25.503  27.995  1.00  0.00     0.029 A 
ATOM     37  C   UNL A   1      41.565  25.737  28.667  1.00  0.00     0.049 A 
ATOM     38  H   UNL A   1      42.127  27.415  29.767  1.00  0.00     0.167 HD
ATOM     39  C   UNL A   1      43.196  30.985  32.041  1.00  0.00     0.031 A 
ATOM     40  C   UNL A   1      42.606  24.884  28.685  1.00  0.00     0.031 A 
ATOM     41  C   UNL A   1      44.349  30.130  32.133  1.00  0.00     0.049 A 
ATOM     42  C   UNL A   1      43.866  25.266  29.413  1.00  0.00     0.074 A 
ATOM     43  C   UNL A   1      45.537  30.354  32.810  1.00  0.00     0.029 A 
ATOM     44  N   UNL A   1      44.461  28.888  31.530  1.00  0.00    -0.354 N 
ATOM     45  N   UNL A   1      44.124  26.356  30.095  1.00  0.00    -0.248 NA
ATOM     46  C   UNL A   1      44.974  24.302  29.372  1.00  0.00     0.031 C 
ATOM     47  C   UNL A   1      46.379  29.258  32.587  1.00  0.00     0.029 A 
ATOM     48  C   UNL A   1      45.701  28.337  31.804  1.00  0.00     0.049 A 
ATOM     49  H   UNL A   1      43.760  28.459  30.987  1.00  0.00     0.167 HD
ATOM     50  C   UNL A   1      45.417  26.201  30.579  1.00  0.00     0.074 A 
ATOM     51  C   UNL A   1      45.885  24.908  30.121  1.00  0.00     0.031 C 
ATOM     52  C   UNL A   1      46.152  27.052  31.337  1.00  0.00     0.031 A 
BRANCH  39  53
ATOM     53  C   UNL A   1      43.242  32.329  32.714  1.00  0.00    -0.014 A 
ATOM     54  C   UNL A   1      43.718  33.466  32.038  1.00  0.00     0.010 A 
ATOM     55  C   UNL A   1      42.796  32.456  34.042  1.00  0.00     0.010 A 
ATOM     56  C   UNL A   1      43.791  34.698  32.693  1.00  0.00     0.020 A 
ATOM     57  C   UNL A   1      42.850  33.690  34.695  1.00  0.00     0.020 A 
ATOM     58  C   UNL A   1      43.368  34.799  34.022  1.00  0.00     0.054 A 
BRANCH  58  59
ATOM     59  S   UNL A   1      43.477  36.405  34.859  1.00  0.00     0.124 S 
ATOM     60  O   UNL A   1      44.914  36.670  34.811  1.00  0.00    -0.237 OA
ATOM     61  O   UNL A   1      42.653  37.268  34.017  1.00  0.00    -0.237 OA
ATOM     62  O   UNL A   1      42.936  36.138  36.188  1.00  0.00    -0.744 OA
ENDBRANCH  58  59
ENDBRANCH  39  53
BRANCH  40  63
ATOM     63  C   UNL A   1      42.503  23.578  27.983  1.00  0.00    -0.014 A 
ATOM     64  C   UNL A   1      42.966  23.442  26.663  1.00  0.00     0.010 A 
ATOM     65  C   UNL A   1      41.954  22.461  28.638  1.00  0.00     0.010 A 
ATOM     66  C   UNL A   1      42.874  22.212  26.006  1.00  0.00     0.020 A 
ATOM     67  C   UNL A   1      41.881  21.224  27.992  1.00  0.00     0.020 A 
ATOM     68  C   UNL A   1      42.333  21.110  26.675  1.00  0.00     0.054 A 
BRANCH  68  69
ATOM     69  S   UNL A   1      42.281  19.504  25.832  1.00  0.00     0.124 S 
ATOM     70  O   UNL A   1      43.273  19.684  24.778  1.00  0.00    -0.237 OA
ATOM     71  O   UNL A   1      42.650  18.571  26.896  1.00  0.00    -0.237 OA
ATOM     72  O   UNL A   1      40.895  19.404  25.382  1.00  0.00    -0.744 OA
ENDBRANCH  68  69
ENDBRANCH  40  63
BRANCH  52  73
ATOM     73  C   UNL A   1      47.527  26.598  31.740  1.00  0.00    -0.014 A 
ATOM     74  C   UNL A   1      47.736  25.898  32.941  1.00  0.00     0.010 A 
ATOM     75  C   UNL A   1      48.619  26.846  30.888  1.00  0.00     0.010 A 
ATOM     76  C   UNL A   1      49.022  25.481  33.299  1.00  0.00     0.020 A 
ATOM     77  C   UNL A   1      49.901  26.414  31.235  1.00  0.00     0.020 A 
ATOM     78  C   UNL A   1      50.098  25.748  32.446  1.00  0.00     0.054 A 
BRANCH  78  79
ATOM     79  S   UNL A   1      51.754  25.170  32.910  1.00  0.00     0.124 S 
ATOM     80  O   UNL A   1      52.502  25.369  31.672  1.00  0.00    -0.237 OA
ATOM     81  O   UNL A   1      52.114  26.062  34.011  1.00  0.00    -0.237 OA
ATOM     82  O   UNL A   1      51.536  23.777  33.292  1.00  0.00    -0.744 OA
ENDBRANCH  78  79
ENDBRANCH  52  73
ENDBRANCH  26  27
ENDBRANCH  19  21
ENDBRANCH  18  19
ENDBRANCH  17  18
ENDBRANCH   1  17
TORSDOF 17
ENDMDL
