MODEL 1
REMARK VINA RESULT:      -9.4      0.000      0.000
REMARK SMILES C[C@](NC(=O)NCCC[NH3+])(C(=O)OCCOC(=O)c1ccc(-c2c3nc(c(-c4ccc(S(=O)(=O)[O-])cc4)c4ccc([nH]4)c(-c4ccc(S(=O)(=O)[O-])cc4)c4nc(c(-c5ccc(S(=O)(=O)[O-])cc5)c5ccc2[nH]5)C=C4)C=C3)cc1)C(F)(F)F
REMARK SMILES IDX 14 1 13 2 11 3 12 4 2 5 1 6 79 7 80 8 81 9 82 10 3 11 4 12
REMARK SMILES IDX 5 14 6 15 7 17 8 18 9 19 10 20 15 24 16 25 17 26 18 27 19 28
REMARK SMILES IDX 20 29 78 30 21 31 77 32 22 33 23 34 24 35 71 36 25 37 76 38
REMARK SMILES IDX 70 39 72 40 26 41 75 42 69 43 68 44 27 46 57 47 38 48 56 49
REMARK SMILES IDX 39 50 42 51 55 52 73 53 40 54 41 55 54 57 74 58 43 59 28 60
REMARK SMILES IDX 29 61 37 62 30 63 36 64 31 65 32 66 33 67 34 68 35 69 58 70
REMARK SMILES IDX 59 71 67 72 60 73 66 74 61 75 62 76 63 77 64 78 65 79 44 80
REMARK SMILES IDX 45 81 53 82 46 83 52 84 47 85 48 86 49 87 50 88 51 89
REMARK H PARENT 3 13 6 16 10 21 10 22 10 23 72 45 42 56
REMARK Flexibility Score: inf
ROOT
ATOM      1  C   UNL A   1      32.187  29.650  26.800  1.00  0.00     0.274 C 
ENDROOT
BRANCH   1   2
ATOM      2  O   UNL A   1      31.759  28.321  26.413  1.00  0.00    -0.460 OA
BRANCH   2   3
ATOM      3  C   UNL A   1      31.632  28.195  25.065  1.00  0.00     0.341 C 
ATOM      4  O   UNL A   1      31.135  29.069  24.355  1.00  0.00    -0.249 OA
BRANCH   3   5
ATOM      5  C   UNL A   1      32.147  26.878  24.467  1.00  0.00     0.232 C 
ATOM      6  C   UNL A   1      33.293  26.550  25.447  1.00  0.00     0.058 C 
BRANCH   5   7
ATOM      7  C   UNL A   1      30.805  26.120  24.503  1.00  0.00     0.422 C 
ATOM      8  F   UNL A   1      30.851  25.172  25.478  1.00  0.00    -0.168 F 
ATOM      9  F   UNL A   1      29.741  26.864  24.847  1.00  0.00    -0.168 F 
ATOM     10  F   UNL A   1      30.501  25.529  23.332  1.00  0.00    -0.168 F 
ENDBRANCH   5   7
BRANCH   5  11
ATOM     11  N   UNL A   1      32.712  26.822  23.101  1.00  0.00    -0.315 N 
ATOM     12  C   UNL A   1      33.271  25.791  22.433  1.00  0.00     0.315 C 
ATOM     13  H   UNL A   1      32.674  27.669  22.600  1.00  0.00     0.166 HD
ATOM     14  O   UNL A   1      33.534  25.970  21.240  1.00  0.00    -0.249 OA
ATOM     15  N   UNL A   1      33.566  24.583  22.954  1.00  0.00    -0.338 N 
ATOM     16  H   UNL A   1      33.841  23.962  22.241  1.00  0.00     0.165 HD
BRANCH  15  17
ATOM     17  C   UNL A   1      33.604  23.910  24.266  1.00  0.00     0.123 C 
BRANCH  17  18
ATOM     18  C   UNL A   1      32.720  22.660  24.386  1.00  0.00     0.082 C 
BRANCH  18  19
ATOM     19  C   UNL A   1      33.252  21.556  25.292  1.00  0.00     0.260 C 
BRANCH  19  20
ATOM     20  N   UNL A   1      32.267  20.505  25.527  1.00  0.00    -0.358 N 
ATOM     21  H   UNL A   1      32.555  19.942  26.328  1.00  0.00     0.344 HD
ATOM     22  H   UNL A   1      32.201  19.911  24.700  1.00  0.00     0.344 HD
ATOM     23  H   UNL A   1      31.358  20.927  25.716  1.00  0.00     0.344 HD
ENDBRANCH  19  20
ENDBRANCH  18  19
ENDBRANCH  17  18
ENDBRANCH  15  17
ENDBRANCH   5  11
ENDBRANCH   3   5
ENDBRANCH   2   3
ENDBRANCH   1   2
BRANCH   1  24
ATOM     24  C   UNL A   1      33.647  29.699  27.272  1.00  0.00     0.275 C 
BRANCH  24  25
ATOM     25  O   UNL A   1      34.138  31.044  27.407  1.00  0.00    -0.458 OA
BRANCH  25  26
ATOM     26  C   UNL A   1      34.816  31.276  28.567  1.00  0.00     0.338 C 
ATOM     27  O   UNL A   1      34.407  31.964  29.489  1.00  0.00    -0.246 OA
BRANCH  26  28
ATOM     28  C   UNL A   1      36.101  30.516  28.637  1.00  0.00     0.060 A 
ATOM     29  C   UNL A   1      36.558  29.928  29.812  1.00  0.00     0.016 A 
ATOM     30  C   UNL A   1      36.929  30.469  27.513  1.00  0.00     0.016 A 
ATOM     31  C   UNL A   1      37.887  29.495  29.928  1.00  0.00     0.010 A 
ATOM     32  C   UNL A   1      38.210  29.895  27.592  1.00  0.00     0.010 A 
ATOM     33  C   UNL A   1      38.743  29.456  28.818  1.00  0.00    -0.014 A 
BRANCH  33  34
ATOM     34  C   UNL A   1      40.180  29.020  28.912  1.00  0.00     0.031 A 
ATOM     35  C   UNL A   1      41.245  30.000  29.373  1.00  0.00     0.074 A 
ATOM     36  C   UNL A   1      40.585  27.772  28.585  1.00  0.00     0.049 A 
ATOM     37  N   UNL A   1      42.546  29.951  29.215  1.00  0.00    -0.248 NA
ATOM     38  C   UNL A   1      40.778  31.203  30.080  1.00  0.00     0.031 C 
ATOM     39  C   UNL A   1      39.720  26.659  28.190  1.00  0.00     0.029 A 
ATOM     40  N   UNL A   1      41.851  27.229  28.537  1.00  0.00    -0.354 N 
ATOM     41  C   UNL A   1      43.035  31.161  29.702  1.00  0.00     0.074 A 
ATOM     42  C   UNL A   1      41.895  31.912  30.181  1.00  0.00     0.031 C 
ATOM     43  C   UNL A   1      40.467  25.560  28.002  1.00  0.00     0.029 A 
ATOM     44  C   UNL A   1      41.875  25.912  28.138  1.00  0.00     0.049 A 
ATOM     45  H   UNL A   1      42.663  27.736  28.766  1.00  0.00     0.167 HD
ATOM     46  C   UNL A   1      44.314  31.615  29.734  1.00  0.00     0.031 A 
ATOM     47  C   UNL A   1      42.899  25.084  27.848  1.00  0.00     0.031 A 
ATOM     48  C   UNL A   1      45.466  30.839  29.351  1.00  0.00     0.049 A 
ATOM     49  C   UNL A   1      44.310  25.599  27.884  1.00  0.00     0.074 A 
ATOM     50  C   UNL A   1      46.801  31.211  29.363  1.00  0.00     0.029 A 
ATOM     51  N   UNL A   1      45.427  29.520  28.929  1.00  0.00    -0.354 N 
ATOM     52  N   UNL A   1      44.745  26.790  28.216  1.00  0.00    -0.248 NA
ATOM     53  C   UNL A   1      45.367  24.661  27.474  1.00  0.00     0.031 C 
ATOM     54  C   UNL A   1      47.566  30.125  28.925  1.00  0.00     0.029 A 
ATOM     55  C   UNL A   1      46.711  29.064  28.679  1.00  0.00     0.049 A 
ATOM     56  H   UNL A   1      44.607  28.986  28.822  1.00  0.00     0.167 HD
ATOM     57  C   UNL A   1      46.126  26.743  28.058  1.00  0.00     0.074 A 
ATOM     58  C   UNL A   1      46.457  25.402  27.624  1.00  0.00     0.031 C 
ATOM     59  C   UNL A   1      47.035  27.730  28.248  1.00  0.00     0.031 A 
BRANCH  46  60
ATOM     60  C   UNL A   1      44.537  33.047  30.147  1.00  0.00    -0.014 A 
ATOM     61  C   UNL A   1      44.806  33.407  31.479  1.00  0.00     0.010 A 
ATOM     62  C   UNL A   1      44.511  34.052  29.160  1.00  0.00     0.010 A 
ATOM     63  C   UNL A   1      44.996  34.750  31.823  1.00  0.00     0.020 A 
ATOM     64  C   UNL A   1      44.727  35.392  29.496  1.00  0.00     0.020 A 
ATOM     65  C   UNL A   1      44.947  35.734  30.830  1.00  0.00     0.054 A 
BRANCH  65  66
ATOM     66  S   UNL A   1      45.204  37.469  31.297  1.00  0.00     0.124 S 
ATOM     67  O   UNL A   1      46.294  37.361  32.263  1.00  0.00    -0.237 OA
ATOM     68  O   UNL A   1      45.553  38.100  30.026  1.00  0.00    -0.237 OA
ATOM     69  O   UNL A   1      43.915  37.872  31.854  1.00  0.00    -0.744 OA
ENDBRANCH  65  66
ENDBRANCH  46  60
BRANCH  47  70
ATOM     70  C   UNL A   1      42.621  23.683  27.427  1.00  0.00    -0.014 A 
ATOM     71  C   UNL A   1      42.548  23.352  26.063  1.00  0.00     0.010 A 
ATOM     72  C   UNL A   1      42.448  22.670  28.389  1.00  0.00     0.010 A 
ATOM     73  C   UNL A   1      42.308  22.033  25.668  1.00  0.00     0.020 A 
ATOM     74  C   UNL A   1      42.238  21.346  27.997  1.00  0.00     0.020 A 
ATOM     75  C   UNL A   1      42.161  21.036  26.638  1.00  0.00     0.054 A 
BRANCH  75  76
ATOM     76  S   UNL A   1      41.935  19.316  26.108  1.00  0.00     0.124 S 
ATOM     77  O   UNL A   1      42.839  19.229  24.967  1.00  0.00    -0.237 OA
ATOM     78  O   UNL A   1      42.336  18.560  27.292  1.00  0.00    -0.237 OA
ATOM     79  O   UNL A   1      40.511  19.245  25.789  1.00  0.00    -0.744 OA
ENDBRANCH  75  76
ENDBRANCH  47  70
BRANCH  59  80
ATOM     80  C   UNL A   1      48.483  27.384  28.025  1.00  0.00    -0.014 A 
ATOM     81  C   UNL A   1      49.283  26.894  29.072  1.00  0.00     0.010 A 
ATOM     82  C   UNL A   1      49.044  27.534  26.743  1.00  0.00     0.010 A 
ATOM     83  C   UNL A   1      50.630  26.593  28.849  1.00  0.00     0.020 A 
ATOM     84  C   UNL A   1      50.384  27.216  26.513  1.00  0.00     0.020 A 
ATOM     85  C   UNL A   1      51.174  26.763  27.573  1.00  0.00     0.054 A 
BRANCH  85  86
ATOM     86  S   UNL A   1      52.919  26.347  27.298  1.00  0.00     0.124 S 
ATOM     87  O   UNL A   1      53.456  26.382  28.655  1.00  0.00    -0.237 OA
ATOM     88  O   UNL A   1      52.845  25.023  26.686  1.00  0.00    -0.237 OA
ATOM     89  O   UNL A   1      53.391  27.409  26.412  1.00  0.00    -0.744 OA
ENDBRANCH  85  86
ENDBRANCH  59  80
ENDBRANCH  33  34
ENDBRANCH  26  28
ENDBRANCH  25  26
ENDBRANCH  24  25
ENDBRANCH   1  24
TORSDOF 20
ENDMDL
MODEL 2
REMARK VINA RESULT:      -9.4      4.251     10.166
REMARK SMILES C[C@](NC(=O)NCCC[NH3+])(C(=O)OCCOC(=O)c1ccc(-c2c3nc(c(-c4ccc(S(=O)(=O)[O-])cc4)c4ccc([nH]4)c(-c4ccc(S(=O)(=O)[O-])cc4)c4nc(c(-c5ccc(S(=O)(=O)[O-])cc5)c5ccc2[nH]5)C=C4)C=C3)cc1)C(F)(F)F
REMARK SMILES IDX 14 1 13 2 11 3 12 4 2 5 1 6 79 7 80 8 81 9 82 10 3 11 4 12
REMARK SMILES IDX 5 14 6 15 7 17 8 18 9 19 10 20 15 24 16 25 17 26 18 27 19 28
REMARK SMILES IDX 20 29 78 30 21 31 77 32 22 33 23 34 24 35 71 36 25 37 76 38
REMARK SMILES IDX 70 39 72 40 26 41 75 42 69 43 68 44 27 46 57 47 38 48 56 49
REMARK SMILES IDX 39 50 42 51 55 52 73 53 40 54 41 55 54 57 74 58 43 59 28 60
REMARK SMILES IDX 29 61 37 62 30 63 36 64 31 65 32 66 33 67 34 68 35 69 58 70
REMARK SMILES IDX 59 71 67 72 60 73 66 74 61 75 62 76 63 77 64 78 65 79 44 80
REMARK SMILES IDX 45 81 53 82 46 83 52 84 47 85 48 86 49 87 50 88 51 89
REMARK H PARENT 3 13 6 16 10 21 10 22 10 23 72 45 42 56
REMARK Flexibility Score: inf
ROOT
ATOM      1  C   UNL A   1      36.686  20.645  25.331  1.00  0.00     0.274 C 
ENDROOT
BRANCH   1   2
ATOM      2  O   UNL A   1      35.834  21.456  24.485  1.00  0.00    -0.460 OA
BRANCH   2   3
ATOM      3  C   UNL A   1      34.593  21.623  25.014  1.00  0.00     0.341 C 
ATOM      4  O   UNL A   1      34.158  20.929  25.934  1.00  0.00    -0.249 OA
BRANCH   3   5
ATOM      5  C   UNL A   1      33.745  22.741  24.389  1.00  0.00     0.232 C 
ATOM      6  C   UNL A   1      32.324  22.241  24.725  1.00  0.00     0.058 C 
BRANCH   5   7
ATOM      7  C   UNL A   1      34.395  23.912  25.153  1.00  0.00     0.422 C 
ATOM      8  F   UNL A   1      33.430  24.798  25.522  1.00  0.00    -0.168 F 
ATOM      9  F   UNL A   1      34.972  23.582  26.320  1.00  0.00    -0.168 F 
ATOM     10  F   UNL A   1      35.329  24.560  24.431  1.00  0.00    -0.168 F 
ENDBRANCH   5   7
BRANCH   5  11
ATOM     11  N   UNL A   1      33.781  23.015  22.937  1.00  0.00    -0.315 N 
ATOM     12  C   UNL A   1      33.005  23.823  22.185  1.00  0.00     0.315 C 
ATOM     13  H   UNL A   1      34.481  22.533  22.440  1.00  0.00     0.166 HD
ATOM     14  O   UNL A   1      33.338  23.987  21.007  1.00  0.00    -0.249 OA
ATOM     15  N   UNL A   1      31.899  24.467  22.607  1.00  0.00    -0.338 N 
ATOM     16  H   UNL A   1      31.585  25.096  21.917  1.00  0.00     0.165 HD
BRANCH  15  17
ATOM     17  C   UNL A   1      31.015  24.516  23.787  1.00  0.00     0.123 C 
BRANCH  17  18
ATOM     18  C   UNL A   1      30.704  25.924  24.315  1.00  0.00     0.082 C 
BRANCH  18  19
ATOM     19  C   UNL A   1      30.251  26.004  25.768  1.00  0.00     0.260 C 
BRANCH  19  20
ATOM     20  N   UNL A   1      29.614  24.771  26.221  1.00  0.00    -0.358 N 
ATOM     21  H   UNL A   1      29.488  24.142  25.427  1.00  0.00     0.344 HD
ATOM     22  H   UNL A   1      28.704  24.990  26.628  1.00  0.00     0.344 HD
ATOM     23  H   UNL A   1      30.202  24.321  26.922  1.00  0.00     0.344 HD
ENDBRANCH  19  20
ENDBRANCH  18  19
ENDBRANCH  17  18
ENDBRANCH  15  17
ENDBRANCH   5  11
ENDBRANCH   3   5
ENDBRANCH   2   3
ENDBRANCH   1   2
BRANCH   1  24
ATOM     24  C   UNL A   1      38.153  21.098  25.318  1.00  0.00     0.275 C 
BRANCH  24  25
ATOM     25  O   UNL A   1      38.308  22.474  25.709  1.00  0.00    -0.458 OA
BRANCH  25  26
ATOM     26  C   UNL A   1      39.578  22.809  26.076  1.00  0.00     0.338 C 
ATOM     27  O   UNL A   1      40.571  22.136  25.845  1.00  0.00    -0.246 OA
BRANCH  26  28
ATOM     28  C   UNL A   1      39.648  24.153  26.725  1.00  0.00     0.060 A 
ATOM     29  C   UNL A   1      40.389  25.203  26.191  1.00  0.00     0.016 A 
ATOM     30  C   UNL A   1      39.031  24.346  27.963  1.00  0.00     0.016 A 
ATOM     31  C   UNL A   1      40.686  26.336  26.962  1.00  0.00     0.010 A 
ATOM     32  C   UNL A   1      39.207  25.548  28.670  1.00  0.00     0.010 A 
ATOM     33  C   UNL A   1      40.093  26.543  28.216  1.00  0.00    -0.014 A 
BRANCH  33  34
ATOM     34  C   UNL A   1      40.408  27.735  29.079  1.00  0.00     0.031 A 
ATOM     35  C   UNL A   1      41.698  27.777  29.878  1.00  0.00     0.074 A 
ATOM     36  C   UNL A   1      39.573  28.792  29.192  1.00  0.00     0.049 A 
ATOM     37  N   UNL A   1      42.013  28.519  30.913  1.00  0.00    -0.248 NA
ATOM     38  C   UNL A   1      42.760  26.841  29.475  1.00  0.00     0.031 C 
ATOM     39  C   UNL A   1      38.321  28.988  28.458  1.00  0.00     0.029 A 
ATOM     40  N   UNL A   1      39.660  29.918  29.984  1.00  0.00    -0.354 N 
ATOM     41  C   UNL A   1      43.256  28.063  31.346  1.00  0.00     0.074 A 
ATOM     42  C   UNL A   1      43.647  26.998  30.448  1.00  0.00     0.031 C 
ATOM     43  C   UNL A   1      37.795  30.178  28.784  1.00  0.00     0.029 A 
ATOM     44  C   UNL A   1      38.598  30.781  29.841  1.00  0.00     0.049 A 
ATOM     45  H   UNL A   1      40.413  30.088  30.595  1.00  0.00     0.167 HD
ATOM     46  C   UNL A   1      43.999  28.481  32.403  1.00  0.00     0.031 A 
ATOM     47  C   UNL A   1      38.257  31.898  30.515  1.00  0.00     0.031 A 
ATOM     48  C   UNL A   1      43.666  29.603  33.242  1.00  0.00     0.049 A 
ATOM     49  C   UNL A   1      39.086  32.349  31.684  1.00  0.00     0.074 A 
ATOM     50  C   UNL A   1      44.366  30.107  34.328  1.00  0.00     0.029 A 
ATOM     51  N   UNL A   1      42.564  30.423  33.067  1.00  0.00    -0.354 N 
ATOM     52  N   UNL A   1      40.186  31.824  32.166  1.00  0.00    -0.248 NA
ATOM     53  C   UNL A   1      38.604  33.527  32.422  1.00  0.00     0.031 C 
ATOM     54  C   UNL A   1      43.673  31.217  34.822  1.00  0.00     0.029 A 
ATOM     55  C   UNL A   1      42.564  31.429  34.021  1.00  0.00     0.049 A 
ATOM     56  H   UNL A   1      41.881  30.308  32.368  1.00  0.00     0.167 HD
ATOM     57  C   UNL A   1      40.530  32.611  33.259  1.00  0.00     0.074 A 
ATOM     58  C   UNL A   1      39.536  33.659  33.356  1.00  0.00     0.031 C 
ATOM     59  C   UNL A   1      41.574  32.469  34.112  1.00  0.00     0.031 A 
BRANCH  46  60
ATOM     60  C   UNL A   1      45.227  27.680  32.753  1.00  0.00    -0.014 A 
ATOM     61  C   UNL A   1      45.162  26.523  33.549  1.00  0.00     0.010 A 
ATOM     62  C   UNL A   1      46.473  28.085  32.235  1.00  0.00     0.010 A 
ATOM     63  C   UNL A   1      46.328  25.814  33.860  1.00  0.00     0.020 A 
ATOM     64  C   UNL A   1      47.636  27.363  32.522  1.00  0.00     0.020 A 
ATOM     65  C   UNL A   1      47.558  26.244  33.351  1.00  0.00     0.054 A 
BRANCH  65  66
ATOM     66  S   UNL A   1      49.057  25.306  33.761  1.00  0.00     0.124 S 
ATOM     67  O   UNL A   1      48.533  24.284  34.663  1.00  0.00    -0.237 OA
ATOM     68  O   UNL A   1      49.504  24.822  32.457  1.00  0.00    -0.237 OA
ATOM     69  O   UNL A   1      49.927  26.299  34.383  1.00  0.00    -0.744 OA
ENDBRANCH  65  66
ENDBRANCH  46  60
BRANCH  47  70
ATOM     70  C   UNL A   1      37.023  32.641  30.138  1.00  0.00    -0.014 A 
ATOM     71  C   UNL A   1      35.843  32.483  30.886  1.00  0.00     0.010 A 
ATOM     72  C   UNL A   1      37.028  33.524  29.042  1.00  0.00     0.010 A 
ATOM     73  C   UNL A   1      34.690  33.197  30.545  1.00  0.00     0.020 A 
ATOM     74  C   UNL A   1      35.887  34.261  28.718  1.00  0.00     0.020 A 
ATOM     75  C   UNL A   1      34.721  34.087  29.467  1.00  0.00     0.054 A 
BRANCH  75  76
ATOM     76  S   UNL A   1      33.242  35.067  29.090  1.00  0.00     0.124 S 
ATOM     77  O   UNL A   1      32.568  34.232  28.103  1.00  0.00    -0.237 OA
ATOM     78  O   UNL A   1      32.583  35.167  30.390  1.00  0.00    -0.237 OA
ATOM     79  O   UNL A   1      33.790  36.323  28.582  1.00  0.00    -0.744 OA
ENDBRANCH  75  76
ENDBRANCH  47  70
BRANCH  59  80
ATOM     80  C   UNL A   1      41.717  33.495  35.203  1.00  0.00    -0.014 A 
ATOM     81  C   UNL A   1      42.562  34.607  35.048  1.00  0.00     0.010 A 
ATOM     82  C   UNL A   1      40.978  33.354  36.392  1.00  0.00     0.010 A 
ATOM     83  C   UNL A   1      42.694  35.543  36.079  1.00  0.00     0.020 A 
ATOM     84  C   UNL A   1      41.093  34.296  37.416  1.00  0.00     0.020 A 
ATOM     85  C   UNL A   1      41.964  35.377  37.259  1.00  0.00     0.054 A 
BRANCH  85  86
ATOM     86  S   UNL A   1      42.132  36.613  38.578  1.00  0.00     0.124 S 
ATOM     87  O   UNL A   1      40.738  36.919  38.886  1.00  0.00    -0.237 OA
ATOM     88  O   UNL A   1      42.859  35.886  39.615  1.00  0.00    -0.237 OA
ATOM     89  O   UNL A   1      42.882  37.694  37.943  1.00  0.00    -0.744 OA
ENDBRANCH  85  86
ENDBRANCH  59  80
ENDBRANCH  33  34
ENDBRANCH  26  28
ENDBRANCH  25  26
ENDBRANCH  24  25
ENDBRANCH   1  24
TORSDOF 20
ENDMDL
MODEL 3
REMARK VINA RESULT:      -9.4      6.312     11.930
REMARK SMILES C[C@](NC(=O)NCCC[NH3+])(C(=O)OCCOC(=O)c1ccc(-c2c3nc(c(-c4ccc(S(=O)(=O)[O-])cc4)c4ccc([nH]4)c(-c4ccc(S(=O)(=O)[O-])cc4)c4nc(c(-c5ccc(S(=O)(=O)[O-])cc5)c5ccc2[nH]5)C=C4)C=C3)cc1)C(F)(F)F
REMARK SMILES IDX 14 1 13 2 11 3 12 4 2 5 1 6 79 7 80 8 81 9 82 10 3 11 4 12
REMARK SMILES IDX 5 14 6 15 7 17 8 18 9 19 10 20 15 24 16 25 17 26 18 27 19 28
REMARK SMILES IDX 20 29 78 30 21 31 77 32 22 33 23 34 24 35 71 36 25 37 76 38
REMARK SMILES IDX 70 39 72 40 26 41 75 42 69 43 68 44 27 46 57 47 38 48 56 49
REMARK SMILES IDX 39 50 42 51 55 52 73 53 40 54 41 55 54 57 74 58 43 59 28 60
REMARK SMILES IDX 29 61 37 62 30 63 36 64 31 65 32 66 33 67 34 68 35 69 58 70
REMARK SMILES IDX 59 71 67 72 60 73 66 74 61 75 62 76 63 77 64 78 65 79 44 80
REMARK SMILES IDX 45 81 53 82 46 83 52 84 47 85 48 86 49 87 50 88 51 89
REMARK H PARENT 3 13 6 16 10 21 10 22 10 23 72 45 42 56
REMARK Flexibility Score: inf
ROOT
ATOM      1  C   UNL A   1      44.964  23.560  25.807  1.00  0.00     0.274 C 
ENDROOT
BRANCH   1   2
ATOM      2  O   UNL A   1      43.717  23.510  26.541  1.00  0.00    -0.460 OA
BRANCH   2   3
ATOM      3  C   UNL A   1      42.762  22.797  25.885  1.00  0.00     0.341 C 
ATOM      4  O   UNL A   1      42.810  22.567  24.677  1.00  0.00    -0.249 OA
BRANCH   3   5
ATOM      5  C   UNL A   1      41.598  22.288  26.748  1.00  0.00     0.232 C 
ATOM      6  C   UNL A   1      42.368  21.733  27.965  1.00  0.00     0.058 C 
BRANCH   5   7
ATOM      7  C   UNL A   1      40.823  23.619  26.817  1.00  0.00     0.422 C 
ATOM      8  F   UNL A   1      39.526  23.403  26.468  1.00  0.00    -0.168 F 
ATOM      9  F   UNL A   1      40.726  24.160  28.042  1.00  0.00    -0.168 F 
ATOM     10  F   UNL A   1      41.338  24.572  26.015  1.00  0.00    -0.168 F 
ENDBRANCH   5   7
BRANCH   5  11
ATOM     11  N   UNL A   1      40.699  21.215  26.273  1.00  0.00    -0.315 N 
ATOM     12  C   UNL A   1      40.970  19.934  25.946  1.00  0.00     0.315 C 
ATOM     13  H   UNL A   1      39.753  21.475  26.180  1.00  0.00     0.166 HD
ATOM     14  O   UNL A   1      40.009  19.196  25.715  1.00  0.00    -0.249 OA
ATOM     15  N   UNL A   1      42.200  19.390  25.851  1.00  0.00    -0.338 N 
ATOM     16  H   UNL A   1      42.134  18.415  25.731  1.00  0.00     0.165 HD
BRANCH  15  17
ATOM     17  C   UNL A   1      43.614  19.812  25.873  1.00  0.00     0.123 C 
BRANCH  17  18
ATOM     18  C   UNL A   1      44.528  19.091  24.870  1.00  0.00     0.082 C 
BRANCH  18  19
ATOM     19  C   UNL A   1      46.021  19.348  25.030  1.00  0.00     0.260 C 
BRANCH  19  20
ATOM     20  N   UNL A   1      46.627  18.492  26.046  1.00  0.00    -0.358 N 
ATOM     21  H   UNL A   1      46.916  17.611  25.619  1.00  0.00     0.344 HD
ATOM     22  H   UNL A   1      45.947  18.306  26.783  1.00  0.00     0.344 HD
ATOM     23  H   UNL A   1      47.441  18.960  26.444  1.00  0.00     0.344 HD
ENDBRANCH  19  20
ENDBRANCH  18  19
ENDBRANCH  17  18
ENDBRANCH  15  17
ENDBRANCH   5  11
ENDBRANCH   3   5
ENDBRANCH   2   3
ENDBRANCH   1   2
BRANCH   1  24
ATOM     24  C   UNL A   1      45.337  24.978  25.352  1.00  0.00     0.275 C 
BRANCH  24  25
ATOM     25  O   UNL A   1      44.210  25.872  25.354  1.00  0.00    -0.458 OA
BRANCH  25  26
ATOM     26  C   UNL A   1      44.534  27.176  25.590  1.00  0.00     0.338 C 
ATOM     27  O   UNL A   1      45.310  27.834  24.916  1.00  0.00    -0.246 OA
BRANCH  26  28
ATOM     28  C   UNL A   1      43.761  27.758  26.730  1.00  0.00     0.060 A 
ATOM     29  C   UNL A   1      43.715  29.126  26.979  1.00  0.00     0.016 A 
ATOM     30  C   UNL A   1      43.139  26.902  27.640  1.00  0.00     0.016 A 
ATOM     31  C   UNL A   1      43.249  29.616  28.208  1.00  0.00     0.010 A 
ATOM     32  C   UNL A   1      42.536  27.412  28.803  1.00  0.00     0.010 A 
ATOM     33  C   UNL A   1      42.638  28.773  29.146  1.00  0.00    -0.014 A 
BRANCH  33  34
ATOM     34  C   UNL A   1      42.149  29.261  30.483  1.00  0.00     0.031 A 
ATOM     35  C   UNL A   1      40.802  29.953  30.596  1.00  0.00     0.074 A 
ATOM     36  C   UNL A   1      42.874  29.126  31.616  1.00  0.00     0.049 A 
ATOM     37  N   UNL A   1      40.341  30.729  31.547  1.00  0.00    -0.248 NA
ATOM     38  C   UNL A   1      39.864  29.765  29.477  1.00  0.00     0.031 C 
ATOM     39  C   UNL A   1      44.157  28.432  31.744  1.00  0.00     0.029 A 
ATOM     40  N   UNL A   1      42.623  29.576  32.895  1.00  0.00    -0.354 N 
ATOM     41  C   UNL A   1      39.114  31.206  31.090  1.00  0.00     0.074 A 
ATOM     42  C   UNL A   1      38.893  30.613  29.789  1.00  0.00     0.031 C 
ATOM     43  C   UNL A   1      44.546  28.448  33.028  1.00  0.00     0.029 A 
ATOM     44  C   UNL A   1      43.611  29.259  33.799  1.00  0.00     0.049 A 
ATOM     45  H   UNL A   1      41.813  30.079  33.139  1.00  0.00     0.167 HD
ATOM     46  C   UNL A   1      38.257  32.070  31.690  1.00  0.00     0.031 A 
ATOM     47  C   UNL A   1      43.796  29.620  35.085  1.00  0.00     0.031 A 
ATOM     48  C   UNL A   1      38.419  32.588  33.025  1.00  0.00     0.049 A 
ATOM     49  C   UNL A   1      42.841  30.579  35.737  1.00  0.00     0.074 A 
ATOM     50  C   UNL A   1      37.594  33.459  33.719  1.00  0.00     0.029 A 
ATOM     51  N   UNL A   1      39.453  32.254  33.883  1.00  0.00    -0.354 N 
ATOM     52  N   UNL A   1      41.758  31.128  35.243  1.00  0.00    -0.248 NA
ATOM     53  C   UNL A   1      43.154  30.992  37.114  1.00  0.00     0.031 C 
ATOM     54  C   UNL A   1      38.143  33.668  34.989  1.00  0.00     0.029 A 
ATOM     55  C   UNL A   1      39.287  32.897  35.099  1.00  0.00     0.049 A 
ATOM     56  H   UNL A   1      40.197  31.648  33.661  1.00  0.00     0.167 HD
ATOM     57  C   UNL A   1      41.259  31.947  36.250  1.00  0.00     0.074 A 
ATOM     58  C   UNL A   1      42.144  31.806  37.387  1.00  0.00     0.031 C 
ATOM     59  C   UNL A   1      40.169  32.753  36.227  1.00  0.00     0.031 A 
BRANCH  46  60
ATOM     60  C   UNL A   1      37.082  32.561  30.883  1.00  0.00    -0.014 A 
ATOM     61  C   UNL A   1      35.813  31.965  30.973  1.00  0.00     0.010 A 
ATOM     62  C   UNL A   1      37.255  33.676  30.040  1.00  0.00     0.010 A 
ATOM     63  C   UNL A   1      34.751  32.445  30.198  1.00  0.00     0.020 A 
ATOM     64  C   UNL A   1      36.190  34.175  29.284  1.00  0.00     0.020 A 
ATOM     65  C   UNL A   1      34.949  33.542  29.352  1.00  0.00     0.054 A 
BRANCH  65  66
ATOM     66  S   UNL A   1      33.557  34.153  28.362  1.00  0.00     0.124 S 
ATOM     67  O   UNL A   1      34.213  35.123  27.489  1.00  0.00    -0.237 OA
ATOM     68  O   UNL A   1      33.071  32.944  27.701  1.00  0.00    -0.237 OA
ATOM     69  O   UNL A   1      32.650  34.722  29.355  1.00  0.00    -0.744 OA
ENDBRANCH  65  66
ENDBRANCH  46  60
BRANCH  47  70
ATOM     70  C   UNL A   1      44.984  29.118  35.831  1.00  0.00    -0.014 A 
ATOM     71  C   UNL A   1      46.209  29.803  35.756  1.00  0.00     0.010 A 
ATOM     72  C   UNL A   1      44.889  27.966  36.633  1.00  0.00     0.010 A 
ATOM     73  C   UNL A   1      47.319  29.345  36.473  1.00  0.00     0.020 A 
ATOM     74  C   UNL A   1      45.987  27.524  37.374  1.00  0.00     0.020 A 
ATOM     75  C   UNL A   1      47.199  28.212  37.283  1.00  0.00     0.054 A 
BRANCH  75  76
ATOM     76  S   UNL A   1      48.623  27.679  38.271  1.00  0.00     0.124 S 
ATOM     77  O   UNL A   1      47.980  26.983  39.380  1.00  0.00    -0.237 OA
ATOM     78  O   UNL A   1      49.363  26.833  37.338  1.00  0.00    -0.237 OA
ATOM     79  O   UNL A   1      49.285  28.936  38.616  1.00  0.00    -0.744 OA
ENDBRANCH  75  76
ENDBRANCH  47  70
BRANCH  59  80
ATOM     80  C   UNL A   1      39.849  33.514  37.485  1.00  0.00    -0.014 A 
ATOM     81  C   UNL A   1      39.026  32.960  38.480  1.00  0.00     0.010 A 
ATOM     82  C   UNL A   1      40.397  34.795  37.680  1.00  0.00     0.010 A 
ATOM     83  C   UNL A   1      38.727  33.690  39.636  1.00  0.00     0.020 A 
ATOM     84  C   UNL A   1      40.116  35.519  38.841  1.00  0.00     0.020 A 
ATOM     85  C   UNL A   1      39.268  34.967  39.805  1.00  0.00     0.054 A 
BRANCH  85  86
ATOM     86  S   UNL A   1      38.886  35.890  41.320  1.00  0.00     0.124 S 
ATOM     87  O   UNL A   1      39.989  35.506  42.196  1.00  0.00    -0.237 OA
ATOM     88  O   UNL A   1      38.898  37.279  40.867  1.00  0.00    -0.237 OA
ATOM     89  O   UNL A   1      37.573  35.382  41.711  1.00  0.00    -0.744 OA
ENDBRANCH  85  86
ENDBRANCH  59  80
ENDBRANCH  33  34
ENDBRANCH  26  28
ENDBRANCH  25  26
ENDBRANCH  24  25
ENDBRANCH   1  24
TORSDOF 20
ENDMDL
