MODEL 1
REMARK VINA RESULT:     -10.5      0.000      0.000
REMARK SMILES CC[C@](C)(NS(=O)(=O)c1ccc(C(=O)OC)cc1)C(=O)OCCOC(=O)c1ccc(-c2c3nc(c(-c4ccc(S(=O)(=O)[O-])cc4)c4ccc([nH]4)c(-c4ccc(S(=O)(=O)[O-])cc4)c4nc(c(-c5ccc(S(=O)(=O)[O-])cc5)c5ccc2[nH]5)C=C4)C=C3)cc1
REMARK SMILES IDX 22 1 21 2 19 3 20 4 3 5 4 6 2 7 1 8 5 9 6 11 7 12 8 13 9 14
REMARK SMILES IDX 10 15 18 16 11 17 17 18 12 19 13 20 14 21 15 22 16 23 23 24
REMARK SMILES IDX 24 25 25 26 26 27 27 28 28 29 86 30 29 31 85 32 30 33 31 34
REMARK SMILES IDX 32 35 79 36 33 37 84 38 78 39 80 40 34 41 83 42 77 43 76 44
REMARK SMILES IDX 35 46 65 47 46 48 64 49 47 50 50 51 63 52 81 53 48 54 49 55
REMARK SMILES IDX 62 57 82 58 51 59 36 60 37 61 45 62 38 63 44 64 39 65 40 66
REMARK SMILES IDX 41 67 42 68 43 69 66 70 67 71 75 72 68 73 74 74 69 75 70 76
REMARK SMILES IDX 71 77 72 78 73 79 52 80 53 81 61 82 54 83 60 84 55 85 56 86
REMARK SMILES IDX 57 87 58 88 59 89
REMARK H PARENT 5 10 80 45 50 56
REMARK Flexibility Score: inf
ROOT
ATOM      1  C   UNL A   1      33.443  30.180  26.868  1.00  0.00     0.274 C 
ENDROOT
BRANCH   1   2
ATOM      2  O   UNL A   1      33.383  29.804  25.474  1.00  0.00    -0.461 OA
BRANCH   2   3
ATOM      3  C   UNL A   1      32.538  28.791  25.164  1.00  0.00     0.327 C 
ATOM      4  O   UNL A   1      31.714  28.346  25.959  1.00  0.00    -0.250 OA
BRANCH   3   5
ATOM      5  C   UNL A   1      32.750  28.197  23.760  1.00  0.00     0.127 C 
ATOM      6  C   UNL A   1      34.091  28.745  23.200  1.00  0.00     0.042 C 
BRANCH   5   7
ATOM      7  C   UNL A   1      31.600  28.700  22.851  1.00  0.00     0.032 C 
ATOM      8  C   UNL A   1      30.266  28.984  23.553  1.00  0.00     0.006 C 
ENDBRANCH   5   7
BRANCH   5   9
ATOM      9  N   UNL A   1      32.935  26.720  23.678  1.00  0.00    -0.194 NA
ATOM     10  H   UNL A   1      32.401  26.358  24.468  1.00  0.00     0.142 HD
BRANCH   9  11
ATOM     11  S   UNL A   1      32.590  25.672  22.437  1.00  0.00     0.241 S 
ATOM     12  O   UNL A   1      31.164  25.609  22.235  1.00  0.00    -0.207 OA
ATOM     13  O   UNL A   1      33.478  26.045  21.353  1.00  0.00    -0.207 OA
BRANCH  11  14
ATOM     14  C   UNL A   1      33.147  24.084  22.990  1.00  0.00     0.082 A 
ATOM     15  C   UNL A   1      34.391  23.974  23.618  1.00  0.00     0.022 A 
ATOM     16  C   UNL A   1      32.330  22.964  22.821  1.00  0.00     0.022 A 
ATOM     17  C   UNL A   1      34.775  22.749  24.167  1.00  0.00     0.017 A 
ATOM     18  C   UNL A   1      32.719  21.740  23.369  1.00  0.00     0.017 A 
ATOM     19  C   UNL A   1      33.921  21.639  24.084  1.00  0.00     0.060 A 
BRANCH  19  20
ATOM     20  C   UNL A   1      34.253  20.435  24.891  1.00  0.00     0.337 C 
ATOM     21  O   UNL A   1      35.364  19.930  24.914  1.00  0.00    -0.246 OA
BRANCH  20  22
ATOM     22  O   UNL A   1      33.190  20.053  25.642  1.00  0.00    -0.465 OA
ATOM     23  C   UNL A   1      32.806  18.690  25.453  1.00  0.00     0.282 C 
ENDBRANCH  20  22
ENDBRANCH  19  20
ENDBRANCH  11  14
ENDBRANCH   9  11
ENDBRANCH   5   9
ENDBRANCH   3   5
ENDBRANCH   2   3
ENDBRANCH   1   2
BRANCH   1  24
ATOM     24  C   UNL A   1      34.601  29.518  27.618  1.00  0.00     0.275 C 
BRANCH  24  25
ATOM     25  O   UNL A   1      35.731  30.392  27.738  1.00  0.00    -0.458 OA
BRANCH  25  26
ATOM     26  C   UNL A   1      36.288  30.445  28.968  1.00  0.00     0.338 C 
ATOM     27  O   UNL A   1      35.747  30.679  30.035  1.00  0.00    -0.246 OA
BRANCH  26  28
ATOM     28  C   UNL A   1      37.695  30.063  28.852  1.00  0.00     0.060 A 
ATOM     29  C   UNL A   1      38.202  29.809  27.581  1.00  0.00     0.016 A 
ATOM     30  C   UNL A   1      38.482  29.890  29.985  1.00  0.00     0.016 A 
ATOM     31  C   UNL A   1      39.485  29.319  27.426  1.00  0.00     0.010 A 
ATOM     32  C   UNL A   1      39.806  29.480  29.825  1.00  0.00     0.010 A 
ATOM     33  C   UNL A   1      40.310  29.183  28.545  1.00  0.00    -0.014 A 
BRANCH  33  34
ATOM     34  C   UNL A   1      41.709  28.740  28.368  1.00  0.00     0.031 A 
ATOM     35  C   UNL A   1      42.821  29.739  28.481  1.00  0.00     0.074 A 
ATOM     36  C   UNL A   1      41.956  27.442  28.101  1.00  0.00     0.049 A 
ATOM     37  N   UNL A   1      44.084  29.601  28.182  1.00  0.00    -0.248 NA
ATOM     38  C   UNL A   1      42.459  31.077  28.978  1.00  0.00     0.031 C 
ATOM     39  C   UNL A   1      40.943  26.384  28.024  1.00  0.00     0.029 A 
ATOM     40  N   UNL A   1      43.133  26.790  27.845  1.00  0.00    -0.354 N 
ATOM     41  C   UNL A   1      44.659  30.847  28.397  1.00  0.00     0.074 A 
ATOM     42  C   UNL A   1      43.607  31.729  28.852  1.00  0.00     0.031 C 
ATOM     43  C   UNL A   1      41.545  25.213  27.769  1.00  0.00     0.029 A 
ATOM     44  C   UNL A   1      42.968  25.451  27.576  1.00  0.00     0.049 A 
ATOM     45  H   UNL A   1      44.011  27.235  27.855  1.00  0.00     0.167 HD
ATOM     46  C   UNL A   1      45.949  31.215  28.217  1.00  0.00     0.031 A 
ATOM     47  C   UNL A   1      43.860  24.529  27.169  1.00  0.00     0.031 A 
ATOM     48  C   UNL A   1      46.975  30.304  27.777  1.00  0.00     0.049 A 
ATOM     49  C   UNL A   1      45.279  24.967  26.950  1.00  0.00     0.074 A 
ATOM     50  C   UNL A   1      48.315  30.555  27.555  1.00  0.00     0.029 A 
ATOM     51  N   UNL A   1      46.767  28.958  27.504  1.00  0.00    -0.354 N 
ATOM     52  N   UNL A   1      45.803  26.160  27.110  1.00  0.00    -0.248 NA
ATOM     53  C   UNL A   1      46.223  23.946  26.486  1.00  0.00     0.031 C 
ATOM     54  C   UNL A   1      48.909  29.370  27.106  1.00  0.00     0.029 A 
ATOM     55  C   UNL A   1      47.951  28.368  27.104  1.00  0.00     0.049 A 
ATOM     56  H   UNL A   1      45.902  28.493  27.583  1.00  0.00     0.167 HD
ATOM     57  C   UNL A   1      47.145  26.031  26.781  1.00  0.00     0.074 A 
ATOM     58  C   UNL A   1      47.353  24.638  26.431  1.00  0.00     0.031 C 
ATOM     59  C   UNL A   1      48.118  26.975  26.763  1.00  0.00     0.031 A 
BRANCH  46  60
ATOM     60  C   UNL A   1      46.299  32.663  28.438  1.00  0.00    -0.014 A 
ATOM     61  C   UNL A   1      46.241  33.604  27.394  1.00  0.00     0.010 A 
ATOM     62  C   UNL A   1      46.690  33.092  29.720  1.00  0.00     0.010 A 
ATOM     63  C   UNL A   1      46.614  34.934  27.617  1.00  0.00     0.020 A 
ATOM     64  C   UNL A   1      47.036  34.427  29.954  1.00  0.00     0.020 A 
ATOM     65  C   UNL A   1      47.016  35.335  28.895  1.00  0.00     0.054 A 
BRANCH  65  66
ATOM     66  S   UNL A   1      47.493  37.066  29.157  1.00  0.00     0.124 S 
ATOM     67  O   UNL A   1      48.041  37.428  27.852  1.00  0.00    -0.237 OA
ATOM     68  O   UNL A   1      46.223  37.700  29.503  1.00  0.00    -0.237 OA
ATOM     69  O   UNL A   1      48.467  36.997  30.244  1.00  0.00    -0.744 OA
ENDBRANCH  65  66
ENDBRANCH  46  60
BRANCH  47  70
ATOM     70  C   UNL A   1      43.417  23.131  26.909  1.00  0.00    -0.014 A 
ATOM     71  C   UNL A   1      43.533  22.571  25.626  1.00  0.00     0.010 A 
ATOM     72  C   UNL A   1      42.923  22.335  27.959  1.00  0.00     0.010 A 
ATOM     73  C   UNL A   1      43.159  21.242  25.397  1.00  0.00     0.020 A 
ATOM     74  C   UNL A   1      42.577  20.998  27.741  1.00  0.00     0.020 A 
ATOM     75  C   UNL A   1      42.689  20.462  26.457  1.00  0.00     0.054 A 
BRANCH  75  76
ATOM     76  S   UNL A   1      42.276  18.722  26.152  1.00  0.00     0.124 S 
ATOM     77  O   UNL A   1      40.876  18.808  25.748  1.00  0.00    -0.237 OA
ATOM     78  O   UNL A   1      43.217  18.354  25.096  1.00  0.00    -0.237 OA
ATOM     79  O   UNL A   1      42.518  18.080  27.442  1.00  0.00    -0.744 OA
ENDBRANCH  75  76
ENDBRANCH  47  70
BRANCH  59  80
ATOM     80  C   UNL A   1      49.499  26.517  26.387  1.00  0.00    -0.014 A 
ATOM     81  C   UNL A   1      50.015  26.742  25.100  1.00  0.00     0.010 A 
ATOM     82  C   UNL A   1      50.305  25.896  27.358  1.00  0.00     0.010 A 
ATOM     83  C   UNL A   1      51.307  26.325  24.779  1.00  0.00     0.020 A 
ATOM     84  C   UNL A   1      51.608  25.504  27.049  1.00  0.00     0.020 A 
ATOM     85  C   UNL A   1      52.095  25.708  25.757  1.00  0.00     0.054 A 
BRANCH  85  86
ATOM     86  S   UNL A   1      53.787  25.217  25.330  1.00  0.00     0.124 S 
ATOM     87  O   UNL A   1      54.568  25.883  26.369  1.00  0.00    -0.237 OA
ATOM     88  O   UNL A   1      53.731  23.760  25.421  1.00  0.00    -0.237 OA
ATOM     89  O   UNL A   1      53.969  25.743  23.979  1.00  0.00    -0.744 OA
ENDBRANCH  85  86
ENDBRANCH  59  80
ENDBRANCH  33  34
ENDBRANCH  26  28
ENDBRANCH  25  26
ENDBRANCH  24  25
ENDBRANCH   1  24
TORSDOF 20
ENDMDL
MODEL 2
REMARK VINA RESULT:     -10.4      4.159     10.246
REMARK SMILES CC[C@](C)(NS(=O)(=O)c1ccc(C(=O)OC)cc1)C(=O)OCCOC(=O)c1ccc(-c2c3nc(c(-c4ccc(S(=O)(=O)[O-])cc4)c4ccc([nH]4)c(-c4ccc(S(=O)(=O)[O-])cc4)c4nc(c(-c5ccc(S(=O)(=O)[O-])cc5)c5ccc2[nH]5)C=C4)C=C3)cc1
REMARK SMILES IDX 22 1 21 2 19 3 20 4 3 5 4 6 2 7 1 8 5 9 6 11 7 12 8 13 9 14
REMARK SMILES IDX 10 15 18 16 11 17 17 18 12 19 13 20 14 21 15 22 16 23 23 24
REMARK SMILES IDX 24 25 25 26 26 27 27 28 28 29 86 30 29 31 85 32 30 33 31 34
REMARK SMILES IDX 32 35 79 36 33 37 84 38 78 39 80 40 34 41 83 42 77 43 76 44
REMARK SMILES IDX 35 46 65 47 46 48 64 49 47 50 50 51 63 52 81 53 48 54 49 55
REMARK SMILES IDX 62 57 82 58 51 59 36 60 37 61 45 62 38 63 44 64 39 65 40 66
REMARK SMILES IDX 41 67 42 68 43 69 66 70 67 71 75 72 68 73 74 74 69 75 70 76
REMARK SMILES IDX 71 77 72 78 73 79 52 80 53 81 61 82 54 83 60 84 55 85 56 86
REMARK SMILES IDX 57 87 58 88 59 89
REMARK H PARENT 5 10 80 45 50 56
REMARK Flexibility Score: inf
ROOT
ATOM      1  C   UNL A   1      35.536  23.131  26.274  1.00  0.00     0.274 C 
ENDROOT
BRANCH   1   2
ATOM      2  O   UNL A   1      34.654  23.039  25.133  1.00  0.00    -0.461 OA
BRANCH   2   3
ATOM      3  C   UNL A   1      33.887  21.923  25.059  1.00  0.00     0.327 C 
ATOM      4  O   UNL A   1      34.297  20.812  25.385  1.00  0.00    -0.250 OA
BRANCH   3   5
ATOM      5  C   UNL A   1      32.488  22.156  24.461  1.00  0.00     0.127 C 
ATOM      6  C   UNL A   1      32.084  20.884  23.665  1.00  0.00     0.042 C 
BRANCH   5   7
ATOM      7  C   UNL A   1      32.586  23.342  23.468  1.00  0.00     0.032 C 
ATOM      8  C   UNL A   1      33.379  23.078  22.183  1.00  0.00     0.006 C 
ENDBRANCH   5   7
BRANCH   5   9
ATOM      9  N   UNL A   1      31.364  22.314  25.427  1.00  0.00    -0.194 NA
ATOM     10  H   UNL A   1      31.195  21.369  25.769  1.00  0.00     0.142 HD
BRANCH   9  11
ATOM     11  S   UNL A   1      31.253  23.265  26.783  1.00  0.00     0.241 S 
ATOM     12  O   UNL A   1      29.916  23.199  27.317  1.00  0.00    -0.207 OA
ATOM     13  O   UNL A   1      32.398  22.912  27.601  1.00  0.00    -0.207 OA
BRANCH  11  14
ATOM     14  C   UNL A   1      31.553  24.920  26.226  1.00  0.00     0.082 A 
ATOM     15  C   UNL A   1      32.807  25.499  26.439  1.00  0.00     0.022 A 
ATOM     16  C   UNL A   1      30.546  25.620  25.556  1.00  0.00     0.022 A 
ATOM     17  C   UNL A   1      33.085  26.752  25.888  1.00  0.00     0.017 A 
ATOM     18  C   UNL A   1      30.827  26.874  25.009  1.00  0.00     0.017 A 
ATOM     19  C   UNL A   1      32.112  27.424  25.134  1.00  0.00     0.060 A 
BRANCH  19  20
ATOM     20  C   UNL A   1      32.526  28.626  24.364  1.00  0.00     0.337 C 
ATOM     21  O   UNL A   1      32.979  29.632  24.886  1.00  0.00    -0.246 OA
BRANCH  20  22
ATOM     22  O   UNL A   1      32.410  28.405  23.031  1.00  0.00    -0.465 OA
ATOM     23  C   UNL A   1      33.611  27.940  22.412  1.00  0.00     0.282 C 
ENDBRANCH  20  22
ENDBRANCH  19  20
ENDBRANCH  11  14
ENDBRANCH   9  11
ENDBRANCH   5   9
ENDBRANCH   3   5
ENDBRANCH   2   3
ENDBRANCH   1   2
BRANCH   1  24
ATOM     24  C   UNL A   1      36.715  24.079  26.046  1.00  0.00     0.275 C 
BRANCH  24  25
ATOM     25  O   UNL A   1      37.829  23.413  25.440  1.00  0.00    -0.458 OA
BRANCH  25  26
ATOM     26  C   UNL A   1      38.819  23.060  26.290  1.00  0.00     0.338 C 
ATOM     27  O   UNL A   1      39.277  21.950  26.499  1.00  0.00    -0.246 OA
BRANCH  26  28
ATOM     28  C   UNL A   1      39.366  24.276  26.890  1.00  0.00     0.060 A 
ATOM     29  C   UNL A   1      39.095  24.523  28.233  1.00  0.00     0.016 A 
ATOM     30  C   UNL A   1      40.073  25.194  26.121  1.00  0.00     0.016 A 
ATOM     31  C   UNL A   1      39.475  25.719  28.814  1.00  0.00     0.010 A 
ATOM     32  C   UNL A   1      40.535  26.362  26.729  1.00  0.00     0.010 A 
ATOM     33  C   UNL A   1      40.229  26.634  28.075  1.00  0.00    -0.014 A 
BRANCH  33  34
ATOM     34  C   UNL A   1      40.707  27.873  28.724  1.00  0.00     0.031 A 
ATOM     35  C   UNL A   1      42.112  27.943  29.240  1.00  0.00     0.074 A 
ATOM     36  C   UNL A   1      39.863  28.917  28.843  1.00  0.00     0.049 A 
ATOM     37  N   UNL A   1      42.667  28.852  29.994  1.00  0.00    -0.248 NA
ATOM     38  C   UNL A   1      43.007  26.831  28.874  1.00  0.00     0.031 C 
ATOM     39  C   UNL A   1      38.491  28.963  28.324  1.00  0.00     0.029 A 
ATOM     40  N   UNL A   1      40.031  30.140  29.437  1.00  0.00    -0.354 N 
ATOM     41  C   UNL A   1      43.956  28.397  30.244  1.00  0.00     0.074 A 
ATOM     42  C   UNL A   1      44.101  27.131  29.560  1.00  0.00     0.031 C 
ATOM     43  C   UNL A   1      37.955  30.162  28.598  1.00  0.00     0.029 A 
ATOM     44  C   UNL A   1      38.907  30.931  29.386  1.00  0.00     0.049 A 
ATOM     45  H   UNL A   1      40.874  30.426  29.858  1.00  0.00     0.167 HD
ATOM     46  C   UNL A   1      44.921  28.986  30.989  1.00  0.00     0.031 A 
ATOM     47  C   UNL A   1      38.656  32.125  29.955  1.00  0.00     0.031 A 
ATOM     48  C   UNL A   1      44.746  30.257  31.643  1.00  0.00     0.049 A 
ATOM     49  C   UNL A   1      39.732  32.745  30.798  1.00  0.00     0.074 A 
ATOM     50  C   UNL A   1      45.645  30.956  32.427  1.00  0.00     0.029 A 
ATOM     51  N   UNL A   1      43.589  31.023  31.577  1.00  0.00    -0.354 N 
ATOM     52  N   UNL A   1      40.931  32.283  31.068  1.00  0.00    -0.248 NA
ATOM     53  C   UNL A   1      39.423  34.035  31.423  1.00  0.00     0.031 C 
ATOM     54  C   UNL A   1      45.016  32.125  32.869  1.00  0.00     0.029 A 
ATOM     55  C   UNL A   1      43.746  32.182  32.314  1.00  0.00     0.049 A 
ATOM     56  H   UNL A   1      42.776  30.776  31.079  1.00  0.00     0.167 HD
ATOM     57  C   UNL A   1      41.528  33.235  31.884  1.00  0.00     0.074 A 
ATOM     58  C   UNL A   1      40.562  34.306  32.046  1.00  0.00     0.031 C 
ATOM     59  C   UNL A   1      42.759  33.226  32.452  1.00  0.00     0.031 A 
BRANCH  46  60
ATOM     60  C   UNL A   1      46.213  28.234  31.177  1.00  0.00    -0.014 A 
ATOM     61  C   UNL A   1      47.265  28.331  30.249  1.00  0.00     0.010 A 
ATOM     62  C   UNL A   1      46.377  27.415  32.310  1.00  0.00     0.010 A 
ATOM     63  C   UNL A   1      48.437  27.586  30.426  1.00  0.00     0.020 A 
ATOM     64  C   UNL A   1      47.557  26.692  32.506  1.00  0.00     0.020 A 
ATOM     65  C   UNL A   1      48.571  26.765  31.550  1.00  0.00     0.054 A 
BRANCH  65  66
ATOM     66  S   UNL A   1      50.101  25.811  31.757  1.00  0.00     0.124 S 
ATOM     67  O   UNL A   1      50.362  25.363  30.391  1.00  0.00    -0.237 OA
ATOM     68  O   UNL A   1      51.033  26.808  32.279  1.00  0.00    -0.237 OA
ATOM     69  O   UNL A   1      49.729  24.757  32.697  1.00  0.00    -0.744 OA
ENDBRANCH  65  66
ENDBRANCH  46  60
BRANCH  47  70
ATOM     70  C   UNL A   1      37.327  32.770  29.773  1.00  0.00    -0.014 A 
ATOM     71  C   UNL A   1      36.384  32.772  30.814  1.00  0.00     0.010 A 
ATOM     72  C   UNL A   1      37.016  33.432  28.570  1.00  0.00     0.010 A 
ATOM     73  C   UNL A   1      35.154  33.419  30.655  1.00  0.00     0.020 A 
ATOM     74  C   UNL A   1      35.801  34.106  28.418  1.00  0.00     0.020 A 
ATOM     75  C   UNL A   1      34.873  34.088  29.460  1.00  0.00     0.054 A 
BRANCH  75  76
ATOM     76  S   UNL A   1      33.300  34.980  29.301  1.00  0.00     0.124 S 
ATOM     77  O   UNL A   1      33.745  36.311  28.901  1.00  0.00    -0.237 OA
ATOM     78  O   UNL A   1      32.603  34.210  28.273  1.00  0.00    -0.237 OA
ATOM     79  O   UNL A   1      32.717  34.888  30.638  1.00  0.00    -0.744 OA
ENDBRANCH  75  76
ENDBRANCH  47  70
BRANCH  59  80
ATOM     80  C   UNL A   1      43.136  34.429  33.269  1.00  0.00    -0.014 A 
ATOM     81  C   UNL A   1      42.920  34.462  34.657  1.00  0.00     0.010 A 
ATOM     82  C   UNL A   1      43.760  35.520  32.638  1.00  0.00     0.010 A 
ATOM     83  C   UNL A   1      43.297  35.583  35.399  1.00  0.00     0.020 A 
ATOM     84  C   UNL A   1      44.163  36.631  33.382  1.00  0.00     0.020 A 
ATOM     85  C   UNL A   1      43.915  36.660  34.755  1.00  0.00     0.054 A 
BRANCH  85  86
ATOM     86  S   UNL A   1      44.436  38.086  35.747  1.00  0.00     0.124 S 
ATOM     87  O   UNL A   1      43.689  37.884  36.985  1.00  0.00    -0.237 OA
ATOM     88  O   UNL A   1      45.881  37.897  35.846  1.00  0.00    -0.237 OA
ATOM     89  O   UNL A   1      44.019  39.234  34.946  1.00  0.00    -0.744 OA
ENDBRANCH  85  86
ENDBRANCH  59  80
ENDBRANCH  33  34
ENDBRANCH  26  28
ENDBRANCH  25  26
ENDBRANCH  24  25
ENDBRANCH   1  24
TORSDOF 20
ENDMDL
MODEL 3
REMARK VINA RESULT:     -10.4      2.249      2.931
REMARK SMILES CC[C@](C)(NS(=O)(=O)c1ccc(C(=O)OC)cc1)C(=O)OCCOC(=O)c1ccc(-c2c3nc(c(-c4ccc(S(=O)(=O)[O-])cc4)c4ccc([nH]4)c(-c4ccc(S(=O)(=O)[O-])cc4)c4nc(c(-c5ccc(S(=O)(=O)[O-])cc5)c5ccc2[nH]5)C=C4)C=C3)cc1
REMARK SMILES IDX 22 1 21 2 19 3 20 4 3 5 4 6 2 7 1 8 5 9 6 11 7 12 8 13 9 14
REMARK SMILES IDX 10 15 18 16 11 17 17 18 12 19 13 20 14 21 15 22 16 23 23 24
REMARK SMILES IDX 24 25 25 26 26 27 27 28 28 29 86 30 29 31 85 32 30 33 31 34
REMARK SMILES IDX 32 35 79 36 33 37 84 38 78 39 80 40 34 41 83 42 77 43 76 44
REMARK SMILES IDX 35 46 65 47 46 48 64 49 47 50 50 51 63 52 81 53 48 54 49 55
REMARK SMILES IDX 62 57 82 58 51 59 36 60 37 61 45 62 38 63 44 64 39 65 40 66
REMARK SMILES IDX 41 67 42 68 43 69 66 70 67 71 75 72 68 73 74 74 69 75 70 76
REMARK SMILES IDX 71 77 72 78 73 79 52 80 53 81 61 82 54 83 60 84 55 85 56 86
REMARK SMILES IDX 57 87 58 88 59 89
REMARK H PARENT 5 10 80 45 50 56
REMARK Flexibility Score: inf
ROOT
ATOM      1  C   UNL A   1      32.100  27.782  26.881  1.00  0.00     0.274 C 
ENDROOT
BRANCH   1   2
ATOM      2  O   UNL A   1      31.324  27.837  25.664  1.00  0.00    -0.461 OA
BRANCH   2   3
ATOM      3  C   UNL A   1      30.977  26.643  25.123  1.00  0.00     0.327 C 
ATOM      4  O   UNL A   1      31.045  25.587  25.745  1.00  0.00    -0.250 OA
BRANCH   3   5
ATOM      5  C   UNL A   1      30.566  26.716  23.641  1.00  0.00     0.127 C 
ATOM      6  C   UNL A   1      30.316  28.206  23.281  1.00  0.00     0.042 C 
BRANCH   5   7
ATOM      7  C   UNL A   1      29.232  25.944  23.479  1.00  0.00     0.032 C 
ATOM      8  C   UNL A   1      27.970  26.681  23.940  1.00  0.00     0.006 C 
ENDBRANCH   5   7
BRANCH   5   9
ATOM      9  N   UNL A   1      31.589  26.300  22.640  1.00  0.00    -0.194 NA
ATOM     10  H   UNL A   1      31.719  27.126  22.057  1.00  0.00     0.142 HD
BRANCH   9  11
ATOM     11  S   UNL A   1      33.128  25.718  22.871  1.00  0.00     0.241 S 
ATOM     12  O   UNL A   1      33.813  25.639  21.605  1.00  0.00    -0.207 OA
ATOM     13  O   UNL A   1      33.677  26.494  23.966  1.00  0.00    -0.207 OA
BRANCH  11  14
ATOM     14  C   UNL A   1      32.923  24.076  23.501  1.00  0.00     0.082 A 
ATOM     15  C   UNL A   1      31.799  23.333  23.130  1.00  0.00     0.022 A 
ATOM     16  C   UNL A   1      33.899  23.526  24.337  1.00  0.00     0.022 A 
ATOM     17  C   UNL A   1      31.701  21.996  23.522  1.00  0.00     0.017 A 
ATOM     18  C   UNL A   1      33.796  22.190  24.729  1.00  0.00     0.017 A 
ATOM     19  C   UNL A   1      32.720  21.407  24.285  1.00  0.00     0.060 A 
BRANCH  19  20
ATOM     20  C   UNL A   1      32.698  19.932  24.466  1.00  0.00     0.337 C 
ATOM     21  O   UNL A   1      32.934  19.384  25.531  1.00  0.00    -0.246 OA
BRANCH  20  22
ATOM     22  O   UNL A   1      32.301  19.315  23.325  1.00  0.00    -0.465 OA
ATOM     23  C   UNL A   1      32.830  17.998  23.162  1.00  0.00     0.282 C 
ENDBRANCH  20  22
ENDBRANCH  19  20
ENDBRANCH  11  14
ENDBRANCH   9  11
ENDBRANCH   5   9
ENDBRANCH   3   5
ENDBRANCH   2   3
ENDBRANCH   1   2
BRANCH   1  24
ATOM     24  C   UNL A   1      32.688  29.138  27.279  1.00  0.00     0.275 C 
BRANCH  24  25
ATOM     25  O   UNL A   1      34.071  29.037  27.642  1.00  0.00    -0.458 OA
BRANCH  25  26
ATOM     26  C   UNL A   1      34.653  30.198  28.015  1.00  0.00     0.338 C 
ATOM     27  O   UNL A   1      34.135  31.291  28.161  1.00  0.00    -0.246 OA
BRANCH  26  28
ATOM     28  C   UNL A   1      36.054  29.928  28.335  1.00  0.00     0.060 A 
ATOM     29  C   UNL A   1      36.996  30.070  27.320  1.00  0.00     0.016 A 
ATOM     30  C   UNL A   1      36.422  29.474  29.597  1.00  0.00     0.016 A 
ATOM     31  C   UNL A   1      38.312  29.702  27.532  1.00  0.00     0.010 A 
ATOM     32  C   UNL A   1      37.766  29.187  29.839  1.00  0.00     0.010 A 
ATOM     33  C   UNL A   1      38.715  29.289  28.804  1.00  0.00    -0.014 A 
BRANCH  33  34
ATOM     34  C   UNL A   1      40.138  28.978  29.051  1.00  0.00     0.031 A 
ATOM     35  C   UNL A   1      41.040  30.036  29.611  1.00  0.00     0.074 A 
ATOM     36  C   UNL A   1      40.599  27.745  28.761  1.00  0.00     0.049 A 
ATOM     37  N   UNL A   1      42.341  30.031  29.727  1.00  0.00    -0.248 NA
ATOM     38  C   UNL A   1      40.396  31.272  30.084  1.00  0.00     0.031 C 
ATOM     39  C   UNL A   1      39.785  26.631  28.262  1.00  0.00     0.029 A 
ATOM     40  N   UNL A   1      41.861  27.220  28.842  1.00  0.00    -0.354 N 
ATOM     41  C   UNL A   1      42.677  31.282  30.231  1.00  0.00     0.074 A 
ATOM     42  C   UNL A   1      41.445  32.019  30.399  1.00  0.00     0.031 C 
ATOM     43  C   UNL A   1      40.562  25.549  28.109  1.00  0.00     0.029 A 
ATOM     44  C   UNL A   1      41.939  25.915  28.411  1.00  0.00     0.049 A 
ATOM     45  H   UNL A   1      42.637  27.724  29.177  1.00  0.00     0.167 HD
ATOM     46  C   UNL A   1      43.910  31.764  30.514  1.00  0.00     0.031 A 
ATOM     47  C   UNL A   1      43.009  25.120  28.232  1.00  0.00     0.031 A 
ATOM     48  C   UNL A   1      45.116  30.994  30.349  1.00  0.00     0.049 A 
ATOM     49  C   UNL A   1      44.368  25.687  28.528  1.00  0.00     0.074 A 
ATOM     50  C   UNL A   1      46.422  31.371  30.598  1.00  0.00     0.029 A 
ATOM     51  N   UNL A   1      45.154  29.681  29.900  1.00  0.00    -0.354 N 
ATOM     52  N   UNL A   1      44.679  26.888  28.958  1.00  0.00    -0.248 NA
ATOM     53  C   UNL A   1      45.517  24.804  28.303  1.00  0.00     0.031 C 
ATOM     54  C   UNL A   1      47.254  30.298  30.259  1.00  0.00     0.029 A 
ATOM     55  C   UNL A   1      46.462  29.234  29.854  1.00  0.00     0.049 A 
ATOM     56  H   UNL A   1      44.366  29.145  29.651  1.00  0.00     0.167 HD
ATOM     57  C   UNL A   1      46.062  26.901  29.072  1.00  0.00     0.074 A 
ATOM     58  C   UNL A   1      46.523  25.581  28.682  1.00  0.00     0.031 C 
ATOM     59  C   UNL A   1      46.881  27.911  29.458  1.00  0.00     0.031 A 
BRANCH  46  60
ATOM     60  C   UNL A   1      44.009  33.197  30.969  1.00  0.00    -0.014 A 
ATOM     61  C   UNL A   1      44.107  34.258  30.051  1.00  0.00     0.010 A 
ATOM     62  C   UNL A   1      44.001  33.487  32.346  1.00  0.00     0.010 A 
ATOM     63  C   UNL A   1      44.243  35.575  30.502  1.00  0.00     0.020 A 
ATOM     64  C   UNL A   1      44.109  34.805  32.801  1.00  0.00     0.020 A 
ATOM     65  C   UNL A   1      44.251  35.839  31.875  1.00  0.00     0.054 A 
BRANCH  65  66
ATOM     66  S   UNL A   1      44.427  37.557  32.433  1.00  0.00     0.124 S 
ATOM     67  O   UNL A   1      45.796  37.567  32.945  1.00  0.00    -0.237 OA
ATOM     68  O   UNL A   1      44.211  38.318  31.205  1.00  0.00    -0.237 OA
ATOM     69  O   UNL A   1      43.383  37.702  33.445  1.00  0.00    -0.744 OA
ENDBRANCH  65  66
ENDBRANCH  46  60
BRANCH  47  70
ATOM     70  C   UNL A   1      42.829  23.735  27.715  1.00  0.00    -0.014 A 
ATOM     71  C   UNL A   1      42.494  22.684  28.585  1.00  0.00     0.010 A 
ATOM     72  C   UNL A   1      42.942  23.471  26.337  1.00  0.00     0.010 A 
ATOM     73  C   UNL A   1      42.279  21.394  28.088  1.00  0.00     0.020 A 
ATOM     74  C   UNL A   1      42.699  22.190  25.832  1.00  0.00     0.020 A 
ATOM     75  C   UNL A   1      42.378  21.156  26.714  1.00  0.00     0.054 A 
BRANCH  75  76
ATOM     76  S   UNL A   1      42.027  19.491  26.083  1.00  0.00     0.124 S 
ATOM     77  O   UNL A   1      40.577  19.525  25.925  1.00  0.00    -0.237 OA
ATOM     78  O   UNL A   1      42.799  19.454  24.842  1.00  0.00    -0.237 OA
ATOM     79  O   UNL A   1      42.523  18.613  27.141  1.00  0.00    -0.744 OA
ENDBRANCH  75  76
ENDBRANCH  47  70
BRANCH  59  80
ATOM     80  C   UNL A   1      48.352  27.608  29.511  1.00  0.00    -0.014 A 
ATOM     81  C   UNL A   1      49.197  27.919  28.433  1.00  0.00     0.010 A 
ATOM     82  C   UNL A   1      48.896  27.046  30.679  1.00  0.00     0.010 A 
ATOM     83  C   UNL A   1      50.564  27.647  28.512  1.00  0.00     0.020 A 
ATOM     84  C   UNL A   1      50.267  26.798  30.772  1.00  0.00     0.020 A 
ATOM     85  C   UNL A   1      51.089  27.087  29.682  1.00  0.00     0.054 A 
BRANCH  85  86
ATOM     86  S   UNL A   1      52.874  26.784  29.778  1.00  0.00     0.124 S 
ATOM     87  O   UNL A   1      52.965  25.866  30.909  1.00  0.00    -0.237 OA
ATOM     88  O   UNL A   1      53.172  26.204  28.471  1.00  0.00    -0.237 OA
ATOM     89  O   UNL A   1      53.438  28.113  30.005  1.00  0.00    -0.744 OA
ENDBRANCH  85  86
ENDBRANCH  59  80
ENDBRANCH  33  34
ENDBRANCH  26  28
ENDBRANCH  25  26
ENDBRANCH  24  25
ENDBRANCH   1  24
TORSDOF 20
ENDMDL
