MODEL 1
REMARK VINA RESULT:     -10.1      0.000      0.000
REMARK SMILES CCC[C@]1(C(=O)NC[C@@H]2CC[C@H](C(=O)OCCOC(=O)c3ccc(-c4c5nc(c(-c6ccc(S(=O)(=O)[O-])cc6)c6ccc([nH]6)c(-c6ccc(S(=O)(=O)[O-])cc6)c6nc(c(-c7ccc(S(=O)(=O)[O-])cc7)c7ccc4[nH]7)C=C6)C=C5)cc3)O2)CCC[NH2+]C1
REMARK SMILES IDX 16 1 15 2 13 3 14 4 12 5 9 6 10 7 81 8 11 9 8 10 7 11 5 12
REMARK SMILES IDX 6 13 4 15 82 16 86 17 83 18 85 19 84 20 3 23 2 24 1 25 17 26
REMARK SMILES IDX 18 27 19 28 20 29 21 30 22 31 80 32 23 33 79 34 24 35 25 36
REMARK SMILES IDX 26 37 73 38 27 39 78 40 72 41 74 42 28 43 77 44 71 45 70 46
REMARK SMILES IDX 29 48 59 49 40 50 58 51 41 52 44 53 57 54 75 55 42 56 43 57
REMARK SMILES IDX 56 59 76 60 45 61 30 62 31 63 39 64 32 65 38 66 33 67 34 68
REMARK SMILES IDX 35 69 36 70 37 71 60 72 61 73 69 74 62 75 68 76 63 77 64 78
REMARK SMILES IDX 65 79 66 80 67 81 46 82 47 83 55 84 48 85 54 86 49 87 50 88
REMARK SMILES IDX 51 89 52 90 53 91
REMARK H PARENT 7 14 85 21 85 22 74 47 44 58
REMARK Flexibility Score: inf
ROOT
ATOM      1  C   UNL A   1      34.523  29.363  26.288  1.00  0.00     0.274 C 
ENDROOT
BRANCH   1   2
ATOM      2  O   UNL A   1      33.993  28.085  25.872  1.00  0.00    -0.460 OA
BRANCH   2   3
ATOM      3  C   UNL A   1      33.190  28.093  24.775  1.00  0.00     0.335 C 
ATOM      4  O   UNL A   1      33.607  28.006  23.624  1.00  0.00    -0.249 OA
BRANCH   3   5
ATOM      5  C   UNL A   1      31.689  28.207  25.106  1.00  0.00     0.228 C 
ATOM      6  C   UNL A   1      30.304  26.324  24.992  1.00  0.00     0.138 C 
ATOM      7  C   UNL A   1      30.144  27.081  23.683  1.00  0.00     0.037 C 
ATOM      8  O   UNL A   1      31.227  27.052  25.812  1.00  0.00    -0.361 OA
ATOM      9  C   UNL A   1      30.716  28.444  23.967  1.00  0.00     0.047 C 
BRANCH   6  10
ATOM     10  C   UNL A   1      30.839  24.896  24.846  1.00  0.00     0.147 C 
BRANCH  10  11
ATOM     11  N   UNL A   1      30.963  24.195  26.111  1.00  0.00    -0.353 N 
ATOM     12  C   UNL A   1      31.947  23.436  26.661  1.00  0.00     0.232 C 
ATOM     13  O   UNL A   1      31.692  23.009  27.793  1.00  0.00    -0.274 OA
ATOM     14  H   UNL A   1      30.171  24.288  26.689  1.00  0.00     0.163 HD
BRANCH  12  15
ATOM     15  C   UNL A   1      33.303  23.135  25.968  1.00  0.00     0.098 C 
ATOM     16  C   UNL A   1      34.044  24.415  25.531  1.00  0.00     0.028 C 
ATOM     17  C   UNL A   1      34.193  22.325  26.957  1.00  0.00     0.277 C 
ATOM     18  C   UNL A   1      35.464  24.111  25.063  1.00  0.00     0.063 C 
ATOM     19  N   UNL A   1      35.578  22.126  26.500  1.00  0.00    -0.345 N 
ATOM     20  C   UNL A   1      36.231  23.392  26.166  1.00  0.00     0.260 C 
ATOM     21  H   UNL A   1      36.107  21.668  27.242  1.00  0.00     0.346 HD
ATOM     22  H   UNL A   1      35.553  21.553  25.657  1.00  0.00     0.346 HD
BRANCH  15  23
ATOM     23  C   UNL A   1      33.028  22.214  24.720  1.00  0.00     0.022 C 
BRANCH  23  24
ATOM     24  C   UNL A   1      32.158  20.962  24.949  1.00  0.00    -0.002 C 
ATOM     25  C   UNL A   1      32.950  19.703  25.280  1.00  0.00     0.004 C 
ENDBRANCH  23  24
ENDBRANCH  15  23
ENDBRANCH  12  15
ENDBRANCH  10  11
ENDBRANCH   6  10
ENDBRANCH   3   5
ENDBRANCH   2   3
ENDBRANCH   1   2
BRANCH   1  26
ATOM     26  C   UNL A   1      35.047  29.276  27.722  1.00  0.00     0.275 C 
BRANCH  26  27
ATOM     27  O   UNL A   1      36.371  29.832  27.789  1.00  0.00    -0.458 OA
BRANCH  27  28
ATOM     28  C   UNL A   1      37.050  29.542  28.924  1.00  0.00     0.338 C 
ATOM     29  O   UNL A   1      36.596  29.389  30.043  1.00  0.00    -0.246 OA
BRANCH  28  30
ATOM     30  C   UNL A   1      38.438  29.229  28.571  1.00  0.00     0.060 A 
ATOM     31  C   UNL A   1      39.303  28.889  29.612  1.00  0.00     0.016 A 
ATOM     32  C   UNL A   1      38.903  29.329  27.261  1.00  0.00     0.016 A 
ATOM     33  C   UNL A   1      40.648  28.664  29.361  1.00  0.00     0.010 A 
ATOM     34  C   UNL A   1      40.257  29.092  27.005  1.00  0.00     0.010 A 
ATOM     35  C   UNL A   1      41.138  28.773  28.055  1.00  0.00    -0.014 A 
BRANCH  35  36
ATOM     36  C   UNL A   1      42.589  28.605  27.809  1.00  0.00     0.031 A 
ATOM     37  C   UNL A   1      43.524  29.747  28.081  1.00  0.00     0.074 A 
ATOM     38  C   UNL A   1      43.060  27.421  27.375  1.00  0.00     0.049 A 
ATOM     39  N   UNL A   1      44.807  29.836  27.847  1.00  0.00    -0.248 NA
ATOM     40  C   UNL A   1      42.939  30.951  28.697  1.00  0.00     0.031 C 
ATOM     41  C   UNL A   1      42.249  26.225  27.129  1.00  0.00     0.029 A 
ATOM     42  N   UNL A   1      44.336  27.028  27.064  1.00  0.00    -0.354 N 
ATOM     43  C   UNL A   1      45.177  31.113  28.250  1.00  0.00     0.074 A 
ATOM     44  C   UNL A   1      43.984  31.767  28.742  1.00  0.00     0.031 C 
ATOM     45  C   UNL A   1      43.049  25.232  26.712  1.00  0.00     0.029 A 
ATOM     46  C   UNL A   1      44.415  25.735  26.608  1.00  0.00     0.049 A 
ATOM     47  H   UNL A   1      45.120  27.616  27.160  1.00  0.00     0.167 HD
ATOM     48  C   UNL A   1      46.403  31.688  28.207  1.00  0.00     0.031 A 
ATOM     49  C   UNL A   1      45.465  25.043  26.125  1.00  0.00     0.031 A 
ATOM     50  C   UNL A   1      47.585  31.021  27.730  1.00  0.00     0.049 A 
ATOM     51  C   UNL A   1      46.807  25.717  26.050  1.00  0.00     0.074 A 
ATOM     52  C   UNL A   1      48.878  31.511  27.653  1.00  0.00     0.029 A 
ATOM     53  N   UNL A   1      47.621  29.720  27.252  1.00  0.00    -0.354 N 
ATOM     54  N   UNL A   1      47.137  26.933  26.417  1.00  0.00    -0.248 NA
ATOM     55  C   UNL A   1      47.914  24.931  25.492  1.00  0.00     0.031 C 
ATOM     56  C   UNL A   1      49.687  30.518  27.090  1.00  0.00     0.029 A 
ATOM     57  C   UNL A   1      48.908  29.395  26.859  1.00  0.00     0.049 A 
ATOM     58  H   UNL A   1      46.845  29.116  27.199  1.00  0.00     0.167 HD
ATOM     59  C   UNL A   1      48.494  27.054  26.143  1.00  0.00     0.074 A 
ATOM     60  C   UNL A   1      48.926  25.780  25.602  1.00  0.00     0.031 C 
ATOM     61  C   UNL A   1      49.310  28.122  26.318  1.00  0.00     0.031 A 
BRANCH  48  62
ATOM     62  C   UNL A   1      46.517  33.121  28.646  1.00  0.00    -0.014 A 
ATOM     63  C   UNL A   1      47.019  33.463  29.913  1.00  0.00     0.010 A 
ATOM     64  C   UNL A   1      46.149  34.146  27.755  1.00  0.00     0.010 A 
ATOM     65  C   UNL A   1      47.125  34.804  30.292  1.00  0.00     0.020 A 
ATOM     66  C   UNL A   1      46.274  35.489  28.122  1.00  0.00     0.020 A 
ATOM     67  C   UNL A   1      46.748  35.809  29.396  1.00  0.00     0.054 A 
BRANCH  67  68
ATOM     68  S   UNL A   1      46.922  37.543  29.901  1.00  0.00     0.124 S 
ATOM     69  O   UNL A   1      48.086  37.484  30.782  1.00  0.00    -0.237 OA
ATOM     70  O   UNL A   1      47.132  38.229  28.628  1.00  0.00    -0.237 OA
ATOM     71  O   UNL A   1      45.654  37.840  30.562  1.00  0.00    -0.744 OA
ENDBRANCH  67  68
ENDBRANCH  48  62
BRANCH  49  72
ATOM     72  C   UNL A   1      45.275  23.654  25.629  1.00  0.00    -0.014 A 
ATOM     73  C   UNL A   1      45.313  22.561  26.512  1.00  0.00     0.010 A 
ATOM     74  C   UNL A   1      45.043  23.420  24.261  1.00  0.00     0.010 A 
ATOM     75  C   UNL A   1      45.138  21.258  26.034  1.00  0.00     0.020 A 
ATOM     76  C   UNL A   1      44.840  22.122  23.783  1.00  0.00     0.020 A 
ATOM     77  C   UNL A   1      44.902  21.047  24.671  1.00  0.00     0.054 A 
BRANCH  77  78
ATOM     78  S   UNL A   1      44.626  19.355  24.076  1.00  0.00     0.124 S 
ATOM     79  O   UNL A   1      43.369  19.007  24.729  1.00  0.00    -0.237 OA
ATOM     80  O   UNL A   1      44.561  19.534  22.627  1.00  0.00    -0.237 OA
ATOM     81  O   UNL A   1      45.803  18.632  24.553  1.00  0.00    -0.744 OA
ENDBRANCH  77  78
ENDBRANCH  49  72
BRANCH  61  82
ATOM     82  C   UNL A   1      50.754  27.948  25.938  1.00  0.00    -0.014 A 
ATOM     83  C   UNL A   1      51.699  27.492  26.874  1.00  0.00     0.010 A 
ATOM     84  C   UNL A   1      51.161  28.208  24.617  1.00  0.00     0.010 A 
ATOM     85  C   UNL A   1      53.036  27.332  26.504  1.00  0.00     0.020 A 
ATOM     86  C   UNL A   1      52.493  28.026  24.237  1.00  0.00     0.020 A 
ATOM     87  C   UNL A   1      53.426  27.604  25.188  1.00  0.00     0.054 A 
BRANCH  87  88
ATOM     88  S   UNL A   1      55.160  27.359  24.721  1.00  0.00     0.124 S 
ATOM     89  O   UNL A   1      55.226  25.910  24.549  1.00  0.00    -0.237 OA
ATOM     90  O   UNL A   1      55.278  28.143  23.494  1.00  0.00    -0.237 OA
ATOM     91  O   UNL A   1      55.903  27.886  25.864  1.00  0.00    -0.744 OA
ENDBRANCH  87  88
ENDBRANCH  61  82
ENDBRANCH  35  36
ENDBRANCH  28  30
ENDBRANCH  27  28
ENDBRANCH  26  27
ENDBRANCH   1  26
TORSDOF 19
ENDMDL
MODEL 2
REMARK VINA RESULT:     -10.1      3.346      4.110
REMARK SMILES CCC[C@]1(C(=O)NC[C@@H]2CC[C@H](C(=O)OCCOC(=O)c3ccc(-c4c5nc(c(-c6ccc(S(=O)(=O)[O-])cc6)c6ccc([nH]6)c(-c6ccc(S(=O)(=O)[O-])cc6)c6nc(c(-c7ccc(S(=O)(=O)[O-])cc7)c7ccc4[nH]7)C=C6)C=C5)cc3)O2)CCC[NH2+]C1
REMARK SMILES IDX 16 1 15 2 13 3 14 4 12 5 9 6 10 7 81 8 11 9 8 10 7 11 5 12
REMARK SMILES IDX 6 13 4 15 82 16 86 17 83 18 85 19 84 20 3 23 2 24 1 25 17 26
REMARK SMILES IDX 18 27 19 28 20 29 21 30 22 31 80 32 23 33 79 34 24 35 25 36
REMARK SMILES IDX 26 37 73 38 27 39 78 40 72 41 74 42 28 43 77 44 71 45 70 46
REMARK SMILES IDX 29 48 59 49 40 50 58 51 41 52 44 53 57 54 75 55 42 56 43 57
REMARK SMILES IDX 56 59 76 60 45 61 30 62 31 63 39 64 32 65 38 66 33 67 34 68
REMARK SMILES IDX 35 69 36 70 37 71 60 72 61 73 69 74 62 75 68 76 63 77 64 78
REMARK SMILES IDX 65 79 66 80 67 81 46 82 47 83 55 84 48 85 54 86 49 87 50 88
REMARK SMILES IDX 51 89 52 90 53 91
REMARK H PARENT 7 14 85 21 85 22 74 47 44 58
REMARK Flexibility Score: inf
ROOT
ATOM      1  C   UNL A   1      33.508  27.755  25.737  1.00  0.00     0.274 C 
ENDROOT
BRANCH   1   2
ATOM      2  O   UNL A   1      32.779  26.532  25.986  1.00  0.00    -0.460 OA
BRANCH   2   3
ATOM      3  C   UNL A   1      31.424  26.634  26.016  1.00  0.00     0.335 C 
ATOM      4  O   UNL A   1      30.768  26.695  27.052  1.00  0.00    -0.249 OA
BRANCH   3   5
ATOM      5  C   UNL A   1      30.774  26.683  24.619  1.00  0.00     0.228 C 
ATOM      6  C   UNL A   1      30.584  24.737  23.332  1.00  0.00     0.138 C 
ATOM      7  C   UNL A   1      31.828  25.473  22.858  1.00  0.00     0.037 C 
ATOM      8  O   UNL A   1      29.985  25.515  24.377  1.00  0.00    -0.361 OA
ATOM      9  C   UNL A   1      31.675  26.864  23.413  1.00  0.00     0.047 C 
BRANCH   6  10
ATOM     10  C   UNL A   1      30.843  23.334  23.890  1.00  0.00     0.147 C 
BRANCH  10  11
ATOM     11  N   UNL A   1      30.984  23.304  25.333  1.00  0.00    -0.353 N 
ATOM     12  C   UNL A   1      31.995  22.930  26.162  1.00  0.00     0.232 C 
ATOM     13  O   UNL A   1      31.748  23.065  27.366  1.00  0.00    -0.274 OA
ATOM     14  H   UNL A   1      30.183  23.621  25.812  1.00  0.00     0.163 HD
BRANCH  12  15
ATOM     15  C   UNL A   1      33.370  22.400  25.671  1.00  0.00     0.098 C 
ATOM     16  C   UNL A   1      34.185  23.471  24.920  1.00  0.00     0.028 C 
ATOM     17  C   UNL A   1      34.174  21.898  26.907  1.00  0.00     0.277 C 
ATOM     18  C   UNL A   1      35.612  23.004  24.648  1.00  0.00     0.063 C 
ATOM     19  N   UNL A   1      35.569  21.536  26.613  1.00  0.00    -0.345 N 
ATOM     20  C   UNL A   1      36.292  22.627  25.959  1.00  0.00     0.260 C 
ATOM     21  H   UNL A   1      36.041  21.306  27.488  1.00  0.00     0.346 HD
ATOM     22  H   UNL A   1      35.561  20.738  25.978  1.00  0.00     0.346 HD
BRANCH  15  23
ATOM     23  C   UNL A   1      33.117  21.156  24.738  1.00  0.00     0.022 C 
BRANCH  23  24
ATOM     24  C   UNL A   1      32.799  19.814  25.427  1.00  0.00    -0.002 C 
ATOM     25  C   UNL A   1      32.615  18.646  24.464  1.00  0.00     0.004 C 
ENDBRANCH  23  24
ENDBRANCH  15  23
ENDBRANCH  12  15
ENDBRANCH  10  11
ENDBRANCH   6  10
ENDBRANCH   3   5
ENDBRANCH   2   3
ENDBRANCH   1   2
BRANCH   1  26
ATOM     26  C   UNL A   1      33.453  28.663  26.966  1.00  0.00     0.275 C 
BRANCH  26  27
ATOM     27  O   UNL A   1      34.070  29.926  26.664  1.00  0.00    -0.458 OA
BRANCH  27  28
ATOM     28  C   UNL A   1      34.576  30.579  27.736  1.00  0.00     0.338 C 
ATOM     29  O   UNL A   1      33.996  31.349  28.479  1.00  0.00    -0.246 OA
BRANCH  28  30
ATOM     30  C   UNL A   1      35.919  30.058  28.010  1.00  0.00     0.060 A 
ATOM     31  C   UNL A   1      36.184  29.624  29.310  1.00  0.00     0.016 A 
ATOM     32  C   UNL A   1      36.917  30.053  27.038  1.00  0.00     0.016 A 
ATOM     33  C   UNL A   1      37.458  29.199  29.660  1.00  0.00     0.010 A 
ATOM     34  C   UNL A   1      38.198  29.615  27.387  1.00  0.00     0.010 A 
ATOM     35  C   UNL A   1      38.477  29.199  28.702  1.00  0.00    -0.014 A 
BRANCH  35  36
ATOM     36  C   UNL A   1      39.850  28.816  29.105  1.00  0.00     0.031 A 
ATOM     37  C   UNL A   1      40.707  29.799  29.848  1.00  0.00     0.074 A 
ATOM     38  C   UNL A   1      40.305  27.578  28.831  1.00  0.00     0.049 A 
ATOM     39  N   UNL A   1      41.959  29.694  30.207  1.00  0.00    -0.248 NA
ATOM     40  C   UNL A   1      40.073  31.071  30.236  1.00  0.00     0.031 C 
ATOM     41  C   UNL A   1      39.538  26.522  28.164  1.00  0.00     0.029 A 
ATOM     42  N   UNL A   1      41.522  26.999  29.083  1.00  0.00    -0.354 N 
ATOM     43  C   UNL A   1      42.276  30.895  30.829  1.00  0.00     0.074 A 
ATOM     44  C   UNL A   1      41.086  31.718  30.797  1.00  0.00     0.031 C 
ATOM     45  C   UNL A   1      40.302  25.423  28.064  1.00  0.00     0.029 A 
ATOM     46  C   UNL A   1      41.625  25.713  28.609  1.00  0.00     0.049 A 
ATOM     47  H   UNL A   1      42.250  27.459  29.557  1.00  0.00     0.167 HD
ATOM     48  C   UNL A   1      43.456  31.277  31.373  1.00  0.00     0.031 A 
ATOM     49  C   UNL A   1      42.679  24.875  28.584  1.00  0.00     0.031 A 
ATOM     50  C   UNL A   1      44.628  30.443  31.412  1.00  0.00     0.049 A 
ATOM     51  C   UNL A   1      43.989  25.338  29.157  1.00  0.00     0.074 A 
ATOM     52  C   UNL A   1      45.871  30.732  31.948  1.00  0.00     0.029 A 
ATOM     53  N   UNL A   1      44.702  29.157  30.899  1.00  0.00    -0.354 N 
ATOM     54  N   UNL A   1      44.278  26.486  29.724  1.00  0.00    -0.248 NA
ATOM     55  C   UNL A   1      45.115  24.399  29.082  1.00  0.00     0.031 C 
ATOM     56  C   UNL A   1      46.709  29.633  31.722  1.00  0.00     0.029 A 
ATOM     57  C   UNL A   1      45.974  28.644  31.088  1.00  0.00     0.049 A 
ATOM     58  H   UNL A   1      43.959  28.679  30.465  1.00  0.00     0.167 HD
ATOM     59  C   UNL A   1      45.618  26.402  30.083  1.00  0.00     0.074 A 
ATOM     60  C   UNL A   1      46.074  25.083  29.690  1.00  0.00     0.031 C 
ATOM     61  C   UNL A   1      46.403  27.332  30.680  1.00  0.00     0.031 A 
BRANCH  48  62
ATOM     62  C   UNL A   1      43.551  32.672  31.926  1.00  0.00    -0.014 A 
ATOM     63  C   UNL A   1      43.319  32.938  33.287  1.00  0.00     0.010 A 
ATOM     64  C   UNL A   1      43.916  33.729  31.073  1.00  0.00     0.010 A 
ATOM     65  C   UNL A   1      43.424  34.243  33.778  1.00  0.00     0.020 A 
ATOM     66  C   UNL A   1      44.044  35.031  31.565  1.00  0.00     0.020 A 
ATOM     67  C   UNL A   1      43.781  35.282  32.914  1.00  0.00     0.054 A 
BRANCH  67  68
ATOM     68  S   UNL A   1      43.939  36.962  33.581  1.00  0.00     0.124 S 
ATOM     69  O   UNL A   1      45.138  36.845  34.406  1.00  0.00    -0.237 OA
ATOM     70  O   UNL A   1      44.082  37.775  32.376  1.00  0.00    -0.237 OA
ATOM     71  O   UNL A   1      42.693  37.161  34.317  1.00  0.00    -0.744 OA
ENDBRANCH  67  68
ENDBRANCH  48  62
BRANCH  49  72
ATOM     72  C   UNL A   1      42.548  23.537  27.948  1.00  0.00    -0.014 A 
ATOM     73  C   UNL A   1      43.040  23.303  26.653  1.00  0.00     0.010 A 
ATOM     74  C   UNL A   1      41.934  22.481  28.648  1.00  0.00     0.010 A 
ATOM     75  C   UNL A   1      42.907  22.041  26.063  1.00  0.00     0.020 A 
ATOM     76  C   UNL A   1      41.824  21.213  28.072  1.00  0.00     0.020 A 
ATOM     77  C   UNL A   1      42.299  21.004  26.777  1.00  0.00     0.054 A 
BRANCH  77  78
ATOM     78  S   UNL A   1      42.181  19.361  26.017  1.00  0.00     0.124 S 
ATOM     79  O   UNL A   1      40.743  19.226  25.811  1.00  0.00    -0.237 OA
ATOM     80  O   UNL A   1      42.984  19.511  24.805  1.00  0.00    -0.237 OA
ATOM     81  O   UNL A   1      42.756  18.476  27.029  1.00  0.00    -0.744 OA
ENDBRANCH  77  78
ENDBRANCH  49  72
BRANCH  61  82
ATOM     82  C   UNL A   1      47.829  26.944  30.960  1.00  0.00    -0.014 A 
ATOM     83  C   UNL A   1      48.204  26.417  32.209  1.00  0.00     0.010 A 
ATOM     84  C   UNL A   1      48.796  27.073  29.947  1.00  0.00     0.010 A 
ATOM     85  C   UNL A   1      49.531  26.058  32.451  1.00  0.00     0.020 A 
ATOM     86  C   UNL A   1      50.119  26.693  30.178  1.00  0.00     0.020 A 
ATOM     87  C   UNL A   1      50.482  26.202  31.435  1.00  0.00     0.054 A 
BRANCH  87  88
ATOM     88  S   UNL A   1      52.193  25.700  31.761  1.00  0.00     0.124 S 
ATOM     89  O   UNL A   1      52.556  26.566  32.879  1.00  0.00    -0.237 OA
ATOM     90  O   UNL A   1      52.059  24.281  32.082  1.00  0.00    -0.237 OA
ATOM     91  O   UNL A   1      52.881  25.984  30.503  1.00  0.00    -0.744 OA
ENDBRANCH  87  88
ENDBRANCH  61  82
ENDBRANCH  35  36
ENDBRANCH  28  30
ENDBRANCH  27  28
ENDBRANCH  26  27
ENDBRANCH   1  26
TORSDOF 19
ENDMDL
MODEL 3
REMARK VINA RESULT:     -10.0      5.326     12.319
REMARK SMILES CCC[C@]1(C(=O)NC[C@@H]2CC[C@H](C(=O)OCCOC(=O)c3ccc(-c4c5nc(c(-c6ccc(S(=O)(=O)[O-])cc6)c6ccc([nH]6)c(-c6ccc(S(=O)(=O)[O-])cc6)c6nc(c(-c7ccc(S(=O)(=O)[O-])cc7)c7ccc4[nH]7)C=C6)C=C5)cc3)O2)CCC[NH2+]C1
REMARK SMILES IDX 16 1 15 2 13 3 14 4 12 5 9 6 10 7 81 8 11 9 8 10 7 11 5 12
REMARK SMILES IDX 6 13 4 15 82 16 86 17 83 18 85 19 84 20 3 23 2 24 1 25 17 26
REMARK SMILES IDX 18 27 19 28 20 29 21 30 22 31 80 32 23 33 79 34 24 35 25 36
REMARK SMILES IDX 26 37 73 38 27 39 78 40 72 41 74 42 28 43 77 44 71 45 70 46
REMARK SMILES IDX 29 48 59 49 40 50 58 51 41 52 44 53 57 54 75 55 42 56 43 57
REMARK SMILES IDX 56 59 76 60 45 61 30 62 31 63 39 64 32 65 38 66 33 67 34 68
REMARK SMILES IDX 35 69 36 70 37 71 60 72 61 73 69 74 62 75 68 76 63 77 64 78
REMARK SMILES IDX 65 79 66 80 67 81 46 82 47 83 55 84 48 85 54 86 49 87 50 88
REMARK SMILES IDX 51 89 52 90 53 91
REMARK H PARENT 7 14 85 21 85 22 74 47 44 58
REMARK Flexibility Score: inf
ROOT
ATOM      1  C   UNL A   1      41.388  20.326  26.102  1.00  0.00     0.274 C 
ENDROOT
BRANCH   1   2
ATOM      2  O   UNL A   1      42.779  20.174  25.742  1.00  0.00    -0.460 OA
BRANCH   2   3
ATOM      3  C   UNL A   1      43.208  18.904  25.514  1.00  0.00     0.335 C 
ATOM      4  O   UNL A   1      42.542  17.904  25.768  1.00  0.00    -0.249 OA
BRANCH   3   5
ATOM      5  C   UNL A   1      44.613  18.827  24.885  1.00  0.00     0.228 C 
ATOM      6  C   UNL A   1      46.029  20.690  24.919  1.00  0.00     0.138 C 
ATOM      7  C   UNL A   1      45.344  20.669  23.561  1.00  0.00     0.037 C 
ATOM      8  O   UNL A   1      45.566  19.556  25.663  1.00  0.00    -0.361 OA
ATOM      9  C   UNL A   1      44.784  19.276  23.447  1.00  0.00     0.047 C 
BRANCH   6  10
ATOM     10  C   UNL A   1      45.751  21.941  25.758  1.00  0.00     0.147 C 
BRANCH  10  11
ATOM     11  N   UNL A   1      44.524  22.621  25.388  1.00  0.00    -0.353 N 
ATOM     12  C   UNL A   1      44.178  23.933  25.298  1.00  0.00     0.232 C 
ATOM     13  O   UNL A   1      43.016  24.132  24.924  1.00  0.00    -0.274 OA
ATOM     14  H   UNL A   1      43.790  22.007  25.155  1.00  0.00     0.163 HD
BRANCH  12  15
ATOM     15  C   UNL A   1      45.145  25.110  25.602  1.00  0.00     0.098 C 
ATOM     16  C   UNL A   1      46.553  24.889  25.014  1.00  0.00     0.028 C 
ATOM     17  C   UNL A   1      44.530  26.416  25.019  1.00  0.00     0.277 C 
ATOM     18  C   UNL A   1      47.412  26.144  25.126  1.00  0.00     0.063 C 
ATOM     19  N   UNL A   1      45.426  27.582  25.074  1.00  0.00    -0.345 N 
ATOM     20  C   UNL A   1      46.716  27.313  24.438  1.00  0.00     0.260 C 
ATOM     21  H   UNL A   1      44.979  28.364  24.593  1.00  0.00     0.346 HD
ATOM     22  H   UNL A   1      45.597  27.802  26.054  1.00  0.00     0.346 HD
BRANCH  15  23
ATOM     23  C   UNL A   1      45.231  25.288  27.165  1.00  0.00     0.022 C 
BRANCH  23  24
ATOM     24  C   UNL A   1      46.201  24.362  27.926  1.00  0.00    -0.002 C 
ATOM     25  C   UNL A   1      47.314  25.096  28.665  1.00  0.00     0.004 C 
ENDBRANCH  23  24
ENDBRANCH  15  23
ENDBRANCH  12  15
ENDBRANCH  10  11
ENDBRANCH   6  10
ENDBRANCH   3   5
ENDBRANCH   2   3
ENDBRANCH   1   2
BRANCH   1  26
ATOM     26  C   UNL A   1      40.987  21.801  26.047  1.00  0.00     0.275 C 
BRANCH  26  27
ATOM     27  O   UNL A   1      39.719  21.983  26.700  1.00  0.00    -0.458 OA
BRANCH  27  28
ATOM     28  C   UNL A   1      38.959  22.981  26.191  1.00  0.00     0.338 C 
ATOM     29  O   UNL A   1      38.059  22.889  25.376  1.00  0.00    -0.246 OA
BRANCH  28  30
ATOM     30  C   UNL A   1      39.245  24.212  26.934  1.00  0.00     0.060 A 
ATOM     31  C   UNL A   1      40.022  25.179  26.296  1.00  0.00     0.016 A 
ATOM     32  C   UNL A   1      38.821  24.391  28.249  1.00  0.00     0.016 A 
ATOM     33  C   UNL A   1      40.402  26.330  26.972  1.00  0.00     0.010 A 
ATOM     34  C   UNL A   1      39.194  25.555  28.927  1.00  0.00     0.010 A 
ATOM     35  C   UNL A   1      39.998  26.523  28.296  1.00  0.00    -0.014 A 
BRANCH  35  36
ATOM     36  C   UNL A   1      40.472  27.717  29.033  1.00  0.00     0.031 A 
ATOM     37  C   UNL A   1      41.851  27.725  29.624  1.00  0.00     0.074 A 
ATOM     38  C   UNL A   1      39.674  28.797  29.136  1.00  0.00     0.049 A 
ATOM     39  N   UNL A   1      42.419  28.628  30.379  1.00  0.00    -0.248 NA
ATOM     40  C   UNL A   1      42.706  26.561  29.331  1.00  0.00     0.031 C 
ATOM     41  C   UNL A   1      38.336  28.921  28.552  1.00  0.00     0.029 A 
ATOM     42  N   UNL A   1      39.875  29.997  29.768  1.00  0.00    -0.354 N 
ATOM     43  C   UNL A   1      43.680  28.130  30.682  1.00  0.00     0.074 A 
ATOM     44  C   UNL A   1      43.795  26.842  30.032  1.00  0.00     0.031 C 
ATOM     45  C   UNL A   1      37.839  30.132  28.850  1.00  0.00     0.029 A 
ATOM     46  C   UNL A   1      38.797  30.846  29.688  1.00  0.00     0.049 A 
ATOM     47  H   UNL A   1      40.711  30.229  30.234  1.00  0.00     0.167 HD
ATOM     48  C   UNL A   1      44.650  28.695  31.439  1.00  0.00     0.031 A 
ATOM     49  C   UNL A   1      38.591  32.049  30.256  1.00  0.00     0.031 A 
ATOM     50  C   UNL A   1      44.529  29.984  32.066  1.00  0.00     0.049 A 
ATOM     51  C   UNL A   1      39.667  32.637  31.125  1.00  0.00     0.074 A 
ATOM     52  C   UNL A   1      45.457  30.652  32.846  1.00  0.00     0.029 A 
ATOM     53  N   UNL A   1      43.413  30.803  31.983  1.00  0.00    -0.354 N 
ATOM     54  N   UNL A   1      40.847  32.143  31.418  1.00  0.00    -0.248 NA
ATOM     55  C   UNL A   1      39.384  33.938  31.743  1.00  0.00     0.031 C 
ATOM     56  C   UNL A   1      44.885  31.858  33.269  1.00  0.00     0.029 A 
ATOM     57  C   UNL A   1      43.619  31.961  32.713  1.00  0.00     0.049 A 
ATOM     58  H   UNL A   1      42.594  30.591  31.479  1.00  0.00     0.167 HD
ATOM     59  C   UNL A   1      41.452  33.080  32.248  1.00  0.00     0.074 A 
ATOM     60  C   UNL A   1      40.517  34.178  32.391  1.00  0.00     0.031 C 
ATOM     61  C   UNL A   1      42.669  33.035  32.844  1.00  0.00     0.031 A 
BRANCH  48  62
ATOM     62  C   UNL A   1      45.908  27.904  31.666  1.00  0.00    -0.014 A 
ATOM     63  C   UNL A   1      47.068  28.134  30.907  1.00  0.00     0.010 A 
ATOM     64  C   UNL A   1      45.938  26.936  32.688  1.00  0.00     0.010 A 
ATOM     65  C   UNL A   1      48.228  27.392  31.146  1.00  0.00     0.020 A 
ATOM     66  C   UNL A   1      47.103  26.207  32.944  1.00  0.00     0.020 A 
ATOM     67  C   UNL A   1      48.237  26.429  32.160  1.00  0.00     0.054 A 
BRANCH  67  68
ATOM     68  S   UNL A   1      49.763  25.498  32.471  1.00  0.00     0.124 S 
ATOM     69  O   UNL A   1      50.122  25.054  31.126  1.00  0.00    -0.237 OA
ATOM     70  O   UNL A   1      50.643  26.508  33.055  1.00  0.00    -0.237 OA
ATOM     71  O   UNL A   1      49.343  24.440  33.385  1.00  0.00    -0.744 OA
ENDBRANCH  67  68
ENDBRANCH  48  62
BRANCH  49  72
ATOM     72  C   UNL A   1      37.293  32.749  30.062  1.00  0.00    -0.014 A 
ATOM     73  C   UNL A   1      36.214  32.522  30.933  1.00  0.00     0.010 A 
ATOM     74  C   UNL A   1      37.135  33.659  29.000  1.00  0.00     0.010 A 
ATOM     75  C   UNL A   1      34.996  33.182  30.738  1.00  0.00     0.020 A 
ATOM     76  C   UNL A   1      35.928  34.341  28.818  1.00  0.00     0.020 A 
ATOM     77  C   UNL A   1      34.861  34.088  29.681  1.00  0.00     0.054 A 
BRANCH  77  78
ATOM     78  S   UNL A   1      33.291  34.973  29.472  1.00  0.00     0.124 S 
ATOM     79  O   UNL A   1      32.538  34.056  28.623  1.00  0.00    -0.237 OA
ATOM     80  O   UNL A   1      32.813  35.102  30.847  1.00  0.00    -0.237 OA
ATOM     81  O   UNL A   1      33.691  36.229  28.841  1.00  0.00    -0.744 OA
ENDBRANCH  77  78
ENDBRANCH  49  72
BRANCH  61  82
ATOM     82  C   UNL A   1      43.061  34.218  33.686  1.00  0.00    -0.014 A 
ATOM     83  C   UNL A   1      43.553  35.395  33.095  1.00  0.00     0.010 A 
ATOM     84  C   UNL A   1      42.899  34.161  35.081  1.00  0.00     0.010 A 
ATOM     85  C   UNL A   1      43.909  36.486  33.891  1.00  0.00     0.020 A 
ATOM     86  C   UNL A   1      43.231  35.259  35.878  1.00  0.00     0.020 A 
ATOM     87  C   UNL A   1      43.750  36.410  35.278  1.00  0.00     0.054 A 
BRANCH  87  88
ATOM     88  S   UNL A   1      44.188  37.849  36.289  1.00  0.00     0.124 S 
ATOM     89  O   UNL A   1      44.053  38.944  35.334  1.00  0.00    -0.237 OA
ATOM     90  O   UNL A   1      43.186  37.815  37.352  1.00  0.00    -0.237 OA
ATOM     91  O   UNL A   1      45.555  37.563  36.722  1.00  0.00    -0.744 OA
ENDBRANCH  87  88
ENDBRANCH  61  82
ENDBRANCH  35  36
ENDBRANCH  28  30
ENDBRANCH  27  28
ENDBRANCH  26  27
ENDBRANCH   1  26
TORSDOF 19
ENDMDL
