MODEL 1
REMARK VINA RESULT:     -13.1      0.000      0.000
REMARK SMILES O=C(OCCOC(=O)c1ccc([C@@H]2CC(O)=Nc3c2ncn3-c2cccc(Cl)c2)cc1)c1ccc(-c2c3nc(c(-c4ccc(S(=O)(=O)[O-])cc4)c4ccc([nH]4)c(-c4ccc(S(=O)(=O)[O-])cc4)c4nc(c(-c5ccc(S(=O)(=O)[O-])cc5)c5ccc2[nH]5)C=C4)C=C3)cc1
REMARK SMILES IDX 4 1 3 2 2 3 1 4 32 5 33 6 91 7 34 8 90 9 35 10 36 11 37 12
REMARK SMILES IDX 84 13 38 14 89 15 83 16 85 17 39 18 88 19 82 20 81 21 40 23
REMARK SMILES IDX 70 24 51 25 69 26 52 27 55 28 68 29 86 30 53 31 54 32 67 34
REMARK SMILES IDX 87 35 56 36 41 37 42 38 50 39 43 40 49 41 44 42 45 43 46 44
REMARK SMILES IDX 47 45 48 46 71 47 72 48 80 49 73 50 79 51 74 52 75 53 76 54
REMARK SMILES IDX 77 55 78 56 57 57 58 58 66 59 59 60 65 61 60 62 61 63 62 64
REMARK SMILES IDX 63 65 64 66 5 67 6 68 7 69 8 70 9 71 10 72 31 73 11 74 30 75
REMARK SMILES IDX 12 76 13 77 14 78 19 79 15 80 18 81 20 82 17 83 22 84 21 85
REMARK SMILES IDX 16 86 23 88 24 89 29 90 25 91 27 92 26 93 28 94
REMARK H PARENT 85 22 55 33 16 87
REMARK Flexibility Score: inf
ROOT
ATOM      1  C   UNL A   1      37.881  21.035  24.799  1.00  0.00     0.275 C 
ENDROOT
BRANCH   1   2
ATOM      2  O   UNL A   1      38.169  21.980  25.850  1.00  0.00    -0.458 OA
BRANCH   2   3
ATOM      3  C   UNL A   1      39.371  21.930  26.470  1.00  0.00     0.338 C 
ATOM      4  O   UNL A   1      40.125  20.970  26.438  1.00  0.00    -0.246 OA
BRANCH   3   5
ATOM      5  C   UNL A   1      39.762  23.253  27.010  1.00  0.00     0.060 A 
ATOM      6  C   UNL A   1      40.936  23.428  27.745  1.00  0.00     0.016 A 
ATOM      7  C   UNL A   1      38.929  24.351  26.751  1.00  0.00     0.016 A 
ATOM      8  C   UNL A   1      41.248  24.678  28.263  1.00  0.00     0.010 A 
ATOM      9  C   UNL A   1      39.247  25.606  27.263  1.00  0.00     0.010 A 
ATOM     10  C   UNL A   1      40.393  25.765  28.044  1.00  0.00    -0.014 A 
BRANCH  10  11
ATOM     11  C   UNL A   1      40.797  27.058  28.597  1.00  0.00     0.031 A 
ATOM     12  C   UNL A   1      42.002  27.688  27.982  1.00  0.00     0.074 A 
ATOM     13  C   UNL A   1      40.122  27.754  29.532  1.00  0.00     0.049 A 
ATOM     14  N   UNL A   1      43.166  27.880  28.514  1.00  0.00    -0.248 NA
ATOM     15  C   UNL A   1      41.906  28.104  26.579  1.00  0.00     0.031 C 
ATOM     16  C   UNL A   1      38.780  27.520  30.066  1.00  0.00     0.029 A 
ATOM     17  N   UNL A   1      40.501  28.912  30.145  1.00  0.00    -0.354 N 
ATOM     18  C   UNL A   1      43.914  28.588  27.573  1.00  0.00     0.074 A 
ATOM     19  C   UNL A   1      43.121  28.610  26.370  1.00  0.00     0.031 C 
ATOM     20  C   UNL A   1      38.375  28.620  30.744  1.00  0.00     0.029 A 
ATOM     21  C   UNL A   1      39.482  29.559  30.824  1.00  0.00     0.049 A 
ATOM     22  H   UNL A   1      41.421  29.259  30.105  1.00  0.00     0.167 HD
ATOM     23  C   UNL A   1      45.067  29.246  27.887  1.00  0.00     0.031 A 
ATOM     24  C   UNL A   1      39.539  30.797  31.373  1.00  0.00     0.031 A 
ATOM     25  C   UNL A   1      45.574  28.871  29.181  1.00  0.00     0.049 A 
ATOM     26  C   UNL A   1      40.967  31.134  31.584  1.00  0.00     0.074 A 
ATOM     27  C   UNL A   1      45.981  27.687  29.763  1.00  0.00     0.029 A 
ATOM     28  N   UNL A   1      45.381  29.749  30.221  1.00  0.00    -0.354 N 
ATOM     29  N   UNL A   1      41.727  30.536  32.458  1.00  0.00    -0.248 NA
ATOM     30  C   UNL A   1      41.671  31.867  30.545  1.00  0.00     0.031 C 
ATOM     31  C   UNL A   1      45.501  27.761  31.105  1.00  0.00     0.029 A 
ATOM     32  C   UNL A   1      44.888  29.005  31.263  1.00  0.00     0.049 A 
ATOM     33  H   UNL A   1      45.560  30.717  30.219  1.00  0.00     0.167 HD
ATOM     34  C   UNL A   1      42.974  30.461  31.856  1.00  0.00     0.074 A 
ATOM     35  C   UNL A   1      42.903  31.384  30.726  1.00  0.00     0.031 C 
ATOM     36  C   UNL A   1      43.857  29.466  32.168  1.00  0.00     0.031 A 
BRANCH  23  37
ATOM     37  C   UNL A   1      45.574  30.476  27.173  1.00  0.00    -0.014 A 
ATOM     38  C   UNL A   1      46.964  30.722  27.131  1.00  0.00     0.010 A 
ATOM     39  C   UNL A   1      44.727  31.532  26.784  1.00  0.00     0.010 A 
ATOM     40  C   UNL A   1      47.473  31.984  26.797  1.00  0.00     0.020 A 
ATOM     41  C   UNL A   1      45.226  32.783  26.406  1.00  0.00     0.020 A 
ATOM     42  C   UNL A   1      46.596  33.012  26.455  1.00  0.00     0.054 A 
BRANCH  42  43
ATOM     43  S   UNL A   1      47.252  34.672  26.152  1.00  0.00     0.124 S 
ATOM     44  O   UNL A   1      48.232  34.418  25.100  1.00  0.00    -0.237 OA
ATOM     45  O   UNL A   1      46.058  35.408  25.742  1.00  0.00    -0.237 OA
ATOM     46  O   UNL A   1      47.806  35.063  27.446  1.00  0.00    -0.744 OA
ENDBRANCH  42  43
ENDBRANCH  23  37
BRANCH  24  47
ATOM     47  C   UNL A   1      38.462  31.809  31.478  1.00  0.00    -0.014 A 
ATOM     48  C   UNL A   1      37.834  32.319  30.326  1.00  0.00     0.010 A 
ATOM     49  C   UNL A   1      37.851  32.057  32.725  1.00  0.00     0.010 A 
ATOM     50  C   UNL A   1      36.605  32.993  30.413  1.00  0.00     0.020 A 
ATOM     51  C   UNL A   1      36.631  32.735  32.819  1.00  0.00     0.020 A 
ATOM     52  C   UNL A   1      35.999  33.177  31.658  1.00  0.00     0.054 A 
BRANCH  52  53
ATOM     53  S   UNL A   1      34.322  33.872  31.743  1.00  0.00     0.124 S 
ATOM     54  O   UNL A   1      34.565  35.200  32.297  1.00  0.00    -0.237 OA
ATOM     55  O   UNL A   1      33.893  33.837  30.348  1.00  0.00    -0.237 OA
ATOM     56  O   UNL A   1      33.613  32.950  32.628  1.00  0.00    -0.744 OA
ENDBRANCH  52  53
ENDBRANCH  24  47
BRANCH  36  57
ATOM     57  C   UNL A   1      43.604  28.611  33.388  1.00  0.00    -0.014 A 
ATOM     58  C   UNL A   1      44.105  28.906  34.671  1.00  0.00     0.010 A 
ATOM     59  C   UNL A   1      42.700  27.541  33.256  1.00  0.00     0.010 A 
ATOM     60  C   UNL A   1      43.743  28.127  35.780  1.00  0.00     0.020 A 
ATOM     61  C   UNL A   1      42.317  26.776  34.358  1.00  0.00     0.020 A 
ATOM     62  C   UNL A   1      42.851  27.063  35.614  1.00  0.00     0.054 A 
BRANCH  62  63
ATOM     63  S   UNL A   1      42.357  26.080  37.057  1.00  0.00     0.124 S 
ATOM     64  O   UNL A   1      43.203  26.625  38.116  1.00  0.00    -0.237 OA
ATOM     65  O   UNL A   1      40.929  26.373  37.177  1.00  0.00    -0.237 OA
ATOM     66  O   UNL A   1      42.665  24.705  36.665  1.00  0.00    -0.744 OA
ENDBRANCH  62  63
ENDBRANCH  36  57
ENDBRANCH  10  11
ENDBRANCH   3   5
ENDBRANCH   2   3
ENDBRANCH   1   2
BRANCH   1  67
ATOM     67  C   UNL A   1      36.764  20.023  25.051  1.00  0.00     0.275 C 
BRANCH  67  68
ATOM     68  O   UNL A   1      35.557  20.714  25.412  1.00  0.00    -0.458 OA
BRANCH  68  69
ATOM     69  C   UNL A   1      34.451  20.343  24.725  1.00  0.00     0.338 C 
ATOM     70  O   UNL A   1      34.065  19.214  24.467  1.00  0.00    -0.246 OA
BRANCH  69  71
ATOM     71  C   UNL A   1      33.747  21.561  24.310  1.00  0.00     0.060 A 
ATOM     72  C   UNL A   1      34.443  22.766  24.220  1.00  0.00     0.016 A 
ATOM     73  C   UNL A   1      32.377  21.505  24.059  1.00  0.00     0.016 A 
ATOM     74  C   UNL A   1      33.759  23.926  23.852  1.00  0.00     0.005 A 
ATOM     75  C   UNL A   1      31.691  22.674  23.724  1.00  0.00     0.005 A 
ATOM     76  C   UNL A   1      32.371  23.900  23.606  1.00  0.00    -0.038 A 
BRANCH  76  77
ATOM     77  C   UNL A   1      31.665  25.220  23.329  1.00  0.00     0.081 C 
ATOM     78  C   UNL A   1      32.303  25.952  22.131  1.00  0.00     0.111 C 
ATOM     79  C   UNL A   1      31.721  26.053  24.554  1.00  0.00     0.093 A 
ATOM     80  C   UNL A   1      33.144  27.167  22.495  1.00  0.00     0.188 C 
ATOM     81  C   UNL A   1      32.388  27.259  24.584  1.00  0.00     0.164 A 
ATOM     82  N   UNL A   1      31.195  25.732  25.772  1.00  0.00    -0.238 NA
ATOM     83  N   UNL A   1      33.151  27.821  23.613  1.00  0.00    -0.198 NA
ATOM     84  N   UNL A   1      32.253  27.712  25.883  1.00  0.00    -0.283 N 
ATOM     85  C   UNL A   1      31.554  26.730  26.555  1.00  0.00     0.206 A 
BRANCH  80  86
ATOM     86  O   UNL A   1      33.922  27.612  21.487  1.00  0.00    -0.496 OA
ATOM     87  H   UNL A   1      33.762  28.454  21.109  1.00  0.00     0.294 HD
ENDBRANCH  80  86
BRANCH  84  88
ATOM     88  C   UNL A   1      32.738  28.918  26.438  1.00  0.00     0.050 A 
ATOM     89  C   UNL A   1      31.921  30.057  26.447  1.00  0.00     0.027 A 
ATOM     90  C   UNL A   1      34.039  28.973  26.953  1.00  0.00     0.047 A 
ATOM     91  C   UNL A   1      32.401  31.246  26.998  1.00  0.00     0.004 A 
ATOM     92  C   UNL A   1      34.522  30.181  27.451  1.00  0.00     0.043 A 
ATOM     93  C   UNL A   1      33.706  31.312  27.488  1.00  0.00     0.020 A 
ATOM     94  Cl  UNL A   1      36.146  30.288  28.013  1.00  0.00    -0.084 Cl
ENDBRANCH  84  88
ENDBRANCH  76  77
ENDBRANCH  69  71
ENDBRANCH  68  69
ENDBRANCH  67  68
ENDBRANCH   1  67
TORSDOF 17
ENDMDL
MODEL 2
REMARK VINA RESULT:     -12.9      1.826      2.418
REMARK SMILES O=C(OCCOC(=O)c1ccc([C@@H]2CC(O)=Nc3c2ncn3-c2cccc(Cl)c2)cc1)c1ccc(-c2c3nc(c(-c4ccc(S(=O)(=O)[O-])cc4)c4ccc([nH]4)c(-c4ccc(S(=O)(=O)[O-])cc4)c4nc(c(-c5ccc(S(=O)(=O)[O-])cc5)c5ccc2[nH]5)C=C4)C=C3)cc1
REMARK SMILES IDX 4 1 3 2 2 3 1 4 32 5 33 6 91 7 34 8 90 9 35 10 36 11 37 12
REMARK SMILES IDX 84 13 38 14 89 15 83 16 85 17 39 18 88 19 82 20 81 21 40 23
REMARK SMILES IDX 70 24 51 25 69 26 52 27 55 28 68 29 86 30 53 31 54 32 67 34
REMARK SMILES IDX 87 35 56 36 41 37 42 38 50 39 43 40 49 41 44 42 45 43 46 44
REMARK SMILES IDX 47 45 48 46 71 47 72 48 80 49 73 50 79 51 74 52 75 53 76 54
REMARK SMILES IDX 77 55 78 56 57 57 58 58 66 59 59 60 65 61 60 62 61 63 62 64
REMARK SMILES IDX 63 65 64 66 5 67 6 68 7 69 8 70 9 71 10 72 31 73 11 74 30 75
REMARK SMILES IDX 12 76 13 77 14 78 19 79 15 80 18 81 20 82 17 83 22 84 21 85
REMARK SMILES IDX 16 86 23 88 24 89 29 90 25 91 27 92 26 93 28 94
REMARK H PARENT 85 22 55 33 16 87
REMARK Flexibility Score: inf
ROOT
ATOM      1  C   UNL A   1      37.733  21.047  24.961  1.00  0.00     0.275 C 
ENDROOT
BRANCH   1   2
ATOM      2  O   UNL A   1      38.601  22.137  25.341  1.00  0.00    -0.458 OA
BRANCH   2   3
ATOM      3  C   UNL A   1      39.366  22.014  26.450  1.00  0.00     0.338 C 
ATOM      4  O   UNL A   1      39.828  20.960  26.857  1.00  0.00    -0.246 OA
BRANCH   3   5
ATOM      5  C   UNL A   1      39.758  23.336  26.991  1.00  0.00     0.060 A 
ATOM      6  C   UNL A   1      40.944  23.514  27.707  1.00  0.00     0.016 A 
ATOM      7  C   UNL A   1      38.913  24.430  26.755  1.00  0.00     0.016 A 
ATOM      8  C   UNL A   1      41.256  24.763  28.228  1.00  0.00     0.010 A 
ATOM      9  C   UNL A   1      39.232  25.684  27.269  1.00  0.00     0.010 A 
ATOM     10  C   UNL A   1      40.391  25.846  28.031  1.00  0.00    -0.014 A 
BRANCH  10  11
ATOM     11  C   UNL A   1      40.796  27.138  28.585  1.00  0.00     0.031 A 
ATOM     12  C   UNL A   1      42.022  27.750  27.996  1.00  0.00     0.074 A 
ATOM     13  C   UNL A   1      40.107  27.847  29.499  1.00  0.00     0.049 A 
ATOM     14  N   UNL A   1      43.176  27.932  28.554  1.00  0.00    -0.248 NA
ATOM     15  C   UNL A   1      41.965  28.158  26.588  1.00  0.00     0.031 C 
ATOM     16  C   UNL A   1      38.750  27.632  30.002  1.00  0.00     0.029 A 
ATOM     17  N   UNL A   1      40.484  29.005  30.113  1.00  0.00    -0.354 N 
ATOM     18  C   UNL A   1      43.954  28.625  27.627  1.00  0.00     0.074 A 
ATOM     19  C   UNL A   1      43.190  28.649  26.404  1.00  0.00     0.031 C 
ATOM     20  C   UNL A   1      38.341  28.741  30.663  1.00  0.00     0.029 A 
ATOM     21  C   UNL A   1      39.456  29.668  30.764  1.00  0.00     0.049 A 
ATOM     22  H   UNL A   1      41.409  29.341  30.094  1.00  0.00     0.167 HD
ATOM     23  C   UNL A   1      45.106  29.273  27.964  1.00  0.00     0.031 A 
ATOM     24  C   UNL A   1      39.514  30.909  31.306  1.00  0.00     0.031 A 
ATOM     25  C   UNL A   1      45.578  28.901  29.271  1.00  0.00     0.049 A 
ATOM     26  C   UNL A   1      40.941  31.232  31.549  1.00  0.00     0.074 A 
ATOM     27  C   UNL A   1      45.957  27.716  29.872  1.00  0.00     0.029 A 
ATOM     28  N   UNL A   1      45.370  29.788  30.301  1.00  0.00    -0.354 N 
ATOM     29  N   UNL A   1      41.673  30.631  32.445  1.00  0.00    -0.248 NA
ATOM     30  C   UNL A   1      41.677  31.950  30.522  1.00  0.00     0.031 C 
ATOM     31  C   UNL A   1      45.447  27.805  31.200  1.00  0.00     0.029 A 
ATOM     32  C   UNL A   1      44.844  29.057  31.336  1.00  0.00     0.049 A 
ATOM     33  H   UNL A   1      45.560  30.754  30.297  1.00  0.00     0.167 HD
ATOM     34  C   UNL A   1      42.932  30.537  31.874  1.00  0.00     0.074 A 
ATOM     35  C   UNL A   1      42.899  31.454  30.736  1.00  0.00     0.031 C 
ATOM     36  C   UNL A   1      43.797  29.535  32.213  1.00  0.00     0.031 A 
BRANCH  23  37
ATOM     37  C   UNL A   1      45.644  30.492  27.254  1.00  0.00    -0.014 A 
ATOM     38  C   UNL A   1      47.041  30.689  27.190  1.00  0.00     0.010 A 
ATOM     39  C   UNL A   1      44.829  31.583  26.893  1.00  0.00     0.010 A 
ATOM     40  C   UNL A   1      47.589  31.937  26.861  1.00  0.00     0.020 A 
ATOM     41  C   UNL A   1      45.366  32.819  26.519  1.00  0.00     0.020 A 
ATOM     42  C   UNL A   1      46.743  32.999  26.546  1.00  0.00     0.054 A 
BRANCH  42  43
ATOM     43  S   UNL A   1      47.453  34.638  26.249  1.00  0.00     0.124 S 
ATOM     44  O   UNL A   1      46.270  35.415  25.892  1.00  0.00    -0.237 OA
ATOM     45  O   UNL A   1      48.053  34.956  27.543  1.00  0.00    -0.237 OA
ATOM     46  O   UNL A   1      48.404  34.407  25.165  1.00  0.00    -0.744 OA
ENDBRANCH  42  43
ENDBRANCH  23  37
BRANCH  24  47
ATOM     47  C   UNL A   1      38.446  31.934  31.379  1.00  0.00    -0.014 A 
ATOM     48  C   UNL A   1      37.665  32.244  30.250  1.00  0.00     0.010 A 
ATOM     49  C   UNL A   1      38.003  32.397  32.634  1.00  0.00     0.010 A 
ATOM     50  C   UNL A   1      36.448  32.934  30.383  1.00  0.00     0.020 A 
ATOM     51  C   UNL A   1      36.797  33.092  32.773  1.00  0.00     0.020 A 
ATOM     52  C   UNL A   1      36.010  33.334  31.648  1.00  0.00     0.054 A 
BRANCH  52  53
ATOM     53  S   UNL A   1      34.350  34.049  31.835  1.00  0.00     0.124 S 
ATOM     54  O   UNL A   1      34.644  35.395  32.317  1.00  0.00    -0.237 OA
ATOM     55  O   UNL A   1      33.814  33.966  30.479  1.00  0.00    -0.237 OA
ATOM     56  O   UNL A   1      33.704  33.168  32.806  1.00  0.00    -0.744 OA
ENDBRANCH  52  53
ENDBRANCH  24  47
BRANCH  36  57
ATOM     57  C   UNL A   1      43.504  28.691  33.432  1.00  0.00    -0.014 A 
ATOM     58  C   UNL A   1      44.128  28.876  34.682  1.00  0.00     0.010 A 
ATOM     59  C   UNL A   1      42.449  27.765  33.344  1.00  0.00     0.010 A 
ATOM     60  C   UNL A   1      43.731  28.126  35.800  1.00  0.00     0.020 A 
ATOM     61  C   UNL A   1      42.034  27.032  34.456  1.00  0.00     0.020 A 
ATOM     62  C   UNL A   1      42.686  27.205  35.677  1.00  0.00     0.054 A 
BRANCH  62  63
ATOM     63  S   UNL A   1      42.152  26.262  37.132  1.00  0.00     0.124 S 
ATOM     64  O   UNL A   1      43.182  26.588  38.115  1.00  0.00    -0.237 OA
ATOM     65  O   UNL A   1      40.825  26.809  37.406  1.00  0.00    -0.237 OA
ATOM     66  O   UNL A   1      42.156  24.875  36.671  1.00  0.00    -0.744 OA
ENDBRANCH  62  63
ENDBRANCH  36  57
ENDBRANCH  10  11
ENDBRANCH   3   5
ENDBRANCH   2   3
ENDBRANCH   1   2
BRANCH   1  67
ATOM     67  C   UNL A   1      36.409  20.912  25.710  1.00  0.00     0.275 C 
BRANCH  67  68
ATOM     68  O   UNL A   1      35.346  20.670  24.774  1.00  0.00    -0.458 OA
BRANCH  68  69
ATOM     69  C   UNL A   1      34.107  21.003  25.206  1.00  0.00     0.338 C 
ATOM     70  O   UNL A   1      33.219  20.263  25.600  1.00  0.00    -0.246 OA
BRANCH  69  71
ATOM     71  C   UNL A   1      33.976  22.462  25.125  1.00  0.00     0.060 A 
ATOM     72  C   UNL A   1      34.620  23.158  24.103  1.00  0.00     0.016 A 
ATOM     73  C   UNL A   1      33.249  23.137  26.104  1.00  0.00     0.016 A 
ATOM     74  C   UNL A   1      34.515  24.549  24.050  1.00  0.00     0.005 A 
ATOM     75  C   UNL A   1      33.174  24.531  26.065  1.00  0.00     0.005 A 
ATOM     76  C   UNL A   1      33.796  25.258  25.034  1.00  0.00    -0.038 A 
BRANCH  76  77
ATOM     77  C   UNL A   1      33.823  26.780  24.987  1.00  0.00     0.081 C 
ATOM     78  C   UNL A   1      33.636  27.384  26.393  1.00  0.00     0.111 C 
ATOM     79  C   UNL A   1      32.761  27.243  24.061  1.00  0.00     0.093 A 
ATOM     80  C   UNL A   1      32.274  28.013  26.645  1.00  0.00     0.188 C 
ATOM     81  C   UNL A   1      31.699  28.007  24.498  1.00  0.00     0.164 A 
ATOM     82  N   UNL A   1      32.664  26.948  22.733  1.00  0.00    -0.238 NA
ATOM     83  N   UNL A   1      31.386  28.361  25.769  1.00  0.00    -0.198 NA
ATOM     84  N   UNL A   1      30.915  28.205  23.377  1.00  0.00    -0.283 N 
ATOM     85  C   UNL A   1      31.534  27.513  22.355  1.00  0.00     0.206 A 
BRANCH  80  86
ATOM     86  O   UNL A   1      32.024  28.266  27.946  1.00  0.00    -0.496 OA
ATOM     87  H   UNL A   1      31.819  27.562  28.530  1.00  0.00     0.294 HD
ENDBRANCH  80  86
BRANCH  84  88
ATOM     88  C   UNL A   1      29.715  28.943  23.275  1.00  0.00     0.050 A 
ATOM     89  C   UNL A   1      28.489  28.270  23.193  1.00  0.00     0.027 A 
ATOM     90  C   UNL A   1      29.761  30.342  23.232  1.00  0.00     0.047 A 
ATOM     91  C   UNL A   1      27.304  29.002  23.095  1.00  0.00     0.004 A 
ATOM     92  C   UNL A   1      28.575  31.058  23.081  1.00  0.00     0.043 A 
ATOM     93  C   UNL A   1      27.348  30.395  23.026  1.00  0.00     0.020 A 
ATOM     94  Cl  UNL A   1      28.620  32.774  22.945  1.00  0.00    -0.084 Cl
ENDBRANCH  84  88
ENDBRANCH  76  77
ENDBRANCH  69  71
ENDBRANCH  68  69
ENDBRANCH  67  68
ENDBRANCH   1  67
TORSDOF 17
ENDMDL
MODEL 3
REMARK VINA RESULT:     -12.6      2.056      3.191
REMARK SMILES O=C(OCCOC(=O)c1ccc([C@@H]2CC(O)=Nc3c2ncn3-c2cccc(Cl)c2)cc1)c1ccc(-c2c3nc(c(-c4ccc(S(=O)(=O)[O-])cc4)c4ccc([nH]4)c(-c4ccc(S(=O)(=O)[O-])cc4)c4nc(c(-c5ccc(S(=O)(=O)[O-])cc5)c5ccc2[nH]5)C=C4)C=C3)cc1
REMARK SMILES IDX 4 1 3 2 2 3 1 4 32 5 33 6 91 7 34 8 90 9 35 10 36 11 37 12
REMARK SMILES IDX 84 13 38 14 89 15 83 16 85 17 39 18 88 19 82 20 81 21 40 23
REMARK SMILES IDX 70 24 51 25 69 26 52 27 55 28 68 29 86 30 53 31 54 32 67 34
REMARK SMILES IDX 87 35 56 36 41 37 42 38 50 39 43 40 49 41 44 42 45 43 46 44
REMARK SMILES IDX 47 45 48 46 71 47 72 48 80 49 73 50 79 51 74 52 75 53 76 54
REMARK SMILES IDX 77 55 78 56 57 57 58 58 66 59 59 60 65 61 60 62 61 63 62 64
REMARK SMILES IDX 63 65 64 66 5 67 6 68 7 69 8 70 9 71 10 72 31 73 11 74 30 75
REMARK SMILES IDX 12 76 13 77 14 78 19 79 15 80 18 81 20 82 17 83 22 84 21 85
REMARK SMILES IDX 16 86 23 88 24 89 29 90 25 91 27 92 26 93 28 94
REMARK H PARENT 85 22 55 33 16 87
REMARK Flexibility Score: inf
ROOT
ATOM      1  C   UNL A   1      41.335  19.864  26.088  1.00  0.00     0.275 C 
ENDROOT
BRANCH   1   2
ATOM      2  O   UNL A   1      42.650  20.230  26.556  1.00  0.00    -0.458 OA
BRANCH   2   3
ATOM      3  C   UNL A   1      43.334  21.201  25.909  1.00  0.00     0.338 C 
ATOM      4  O   UNL A   1      43.951  21.036  24.868  1.00  0.00    -0.246 OA
BRANCH   3   5
ATOM      5  C   UNL A   1      43.067  22.537  26.491  1.00  0.00     0.060 A 
ATOM      6  C   UNL A   1      42.805  23.649  25.688  1.00  0.00     0.016 A 
ATOM      7  C   UNL A   1      43.064  22.666  27.887  1.00  0.00     0.016 A 
ATOM      8  C   UNL A   1      42.594  24.891  26.273  1.00  0.00     0.010 A 
ATOM      9  C   UNL A   1      42.843  23.911  28.474  1.00  0.00     0.010 A 
ATOM     10  C   UNL A   1      42.636  25.030  27.666  1.00  0.00    -0.014 A 
BRANCH  10  11
ATOM     11  C   UNL A   1      42.379  26.362  28.215  1.00  0.00     0.031 A 
ATOM     12  C   UNL A   1      43.458  27.373  28.019  1.00  0.00     0.074 A 
ATOM     13  C   UNL A   1      41.227  26.763  28.784  1.00  0.00     0.049 A 
ATOM     14  N   UNL A   1      44.223  27.913  28.913  1.00  0.00    -0.248 NA
ATOM     15  C   UNL A   1      43.754  27.789  26.644  1.00  0.00     0.031 C 
ATOM     16  C   UNL A   1      39.931  26.085  28.822  1.00  0.00     0.029 A 
ATOM     17  N   UNL A   1      40.969  27.957  29.391  1.00  0.00    -0.354 N 
ATOM     18  C   UNL A   1      44.997  28.861  28.244  1.00  0.00     0.074 A 
ATOM     19  C   UNL A   1      44.735  28.670  26.840  1.00  0.00     0.031 C 
ATOM     20  C   UNL A   1      38.981  26.966  29.216  1.00  0.00     0.029 A 
ATOM     21  C   UNL A   1      39.623  28.210  29.605  1.00  0.00     0.049 A 
ATOM     22  H   UNL A   1      41.679  28.586  29.654  1.00  0.00     0.167 HD
ATOM     23  C   UNL A   1      45.684  29.847  28.891  1.00  0.00     0.031 A 
ATOM     24  C   UNL A   1      39.080  29.377  30.031  1.00  0.00     0.031 A 
ATOM     25  C   UNL A   1      45.775  29.607  30.307  1.00  0.00     0.049 A 
ATOM     26  C   UNL A   1      40.148  30.153  30.708  1.00  0.00     0.074 A 
ATOM     27  C   UNL A   1      46.294  28.599  31.095  1.00  0.00     0.029 A 
ATOM     28  N   UNL A   1      44.949  30.334  31.132  1.00  0.00    -0.354 N 
ATOM     29  N   UNL A   1      40.684  29.802  31.843  1.00  0.00    -0.248 NA
ATOM     30  C   UNL A   1      40.911  31.114  29.930  1.00  0.00     0.031 C 
ATOM     31  C   UNL A   1      45.361  28.461  32.166  1.00  0.00     0.029 A 
ATOM     32  C   UNL A   1      44.372  29.430  31.989  1.00  0.00     0.049 A 
ATOM     33  H   UNL A   1      44.800  31.307  31.111  1.00  0.00     0.167 HD
ATOM     34  C   UNL A   1      42.019  30.159  31.734  1.00  0.00     0.074 A 
ATOM     35  C   UNL A   1      42.077  31.052  30.578  1.00  0.00     0.031 C 
ATOM     36  C   UNL A   1      42.994  29.495  32.424  1.00  0.00     0.031 A 
BRANCH  23  37
ATOM     37  C   UNL A   1      45.999  31.201  28.303  1.00  0.00    -0.014 A 
ATOM     38  C   UNL A   1      44.941  32.098  28.039  1.00  0.00     0.010 A 
ATOM     39  C   UNL A   1      47.254  31.514  27.746  1.00  0.00     0.010 A 
ATOM     40  C   UNL A   1      45.114  33.204  27.196  1.00  0.00     0.020 A 
ATOM     41  C   UNL A   1      47.449  32.640  26.940  1.00  0.00     0.020 A 
ATOM     42  C   UNL A   1      46.365  33.455  26.637  1.00  0.00     0.054 A 
BRANCH  42  43
ATOM     43  S   UNL A   1      46.549  34.808  25.448  1.00  0.00     0.124 S 
ATOM     44  O   UNL A   1      47.924  34.624  24.995  1.00  0.00    -0.237 OA
ATOM     45  O   UNL A   1      45.512  34.502  24.466  1.00  0.00    -0.237 OA
ATOM     46  O   UNL A   1      46.307  36.004  26.251  1.00  0.00    -0.744 OA
ENDBRANCH  42  43
ENDBRANCH  23  37
BRANCH  24  47
ATOM     47  C   UNL A   1      37.779  29.978  29.658  1.00  0.00    -0.014 A 
ATOM     48  C   UNL A   1      36.913  30.496  30.640  1.00  0.00     0.010 A 
ATOM     49  C   UNL A   1      37.518  30.306  28.312  1.00  0.00     0.010 A 
ATOM     50  C   UNL A   1      35.867  31.365  30.293  1.00  0.00     0.020 A 
ATOM     51  C   UNL A   1      36.472  31.166  27.959  1.00  0.00     0.020 A 
ATOM     52  C   UNL A   1      35.666  31.713  28.955  1.00  0.00     0.054 A 
BRANCH  52  53
ATOM     53  S   UNL A   1      34.440  32.987  28.537  1.00  0.00     0.124 S 
ATOM     54  O   UNL A   1      33.384  32.205  27.901  1.00  0.00    -0.237 OA
ATOM     55  O   UNL A   1      34.110  33.552  29.842  1.00  0.00    -0.237 OA
ATOM     56  O   UNL A   1      35.169  33.886  27.643  1.00  0.00    -0.744 OA
ENDBRANCH  52  53
ENDBRANCH  24  47
BRANCH  36  57
ATOM     57  C   UNL A   1      42.598  28.558  33.541  1.00  0.00    -0.014 A 
ATOM     58  C   UNL A   1      42.474  27.163  33.389  1.00  0.00     0.010 A 
ATOM     59  C   UNL A   1      42.484  29.100  34.834  1.00  0.00     0.010 A 
ATOM     60  C   UNL A   1      42.205  26.341  34.494  1.00  0.00     0.020 A 
ATOM     61  C   UNL A   1      42.240  28.287  35.942  1.00  0.00     0.020 A 
ATOM     62  C   UNL A   1      42.087  26.912  35.765  1.00  0.00     0.054 A 
BRANCH  62  63
ATOM     63  S   UNL A   1      41.775  25.842  37.197  1.00  0.00     0.124 S 
ATOM     64  O   UNL A   1      41.972  24.505  36.642  1.00  0.00    -0.237 OA
ATOM     65  O   UNL A   1      42.785  26.280  38.158  1.00  0.00    -0.237 OA
ATOM     66  O   UNL A   1      40.398  26.157  37.575  1.00  0.00    -0.744 OA
ENDBRANCH  62  63
ENDBRANCH  36  57
ENDBRANCH  10  11
ENDBRANCH   3   5
ENDBRANCH   2   3
ENDBRANCH   1   2
BRANCH   1  67
ATOM     67  C   UNL A   1      40.139  20.531  26.764  1.00  0.00     0.275 C 
BRANCH  67  68
ATOM     68  O   UNL A   1      39.307  21.154  25.772  1.00  0.00    -0.458 OA
BRANCH  68  69
ATOM     69  C   UNL A   1      38.869  22.397  26.082  1.00  0.00     0.338 C 
ATOM     70  O   UNL A   1      39.499  23.317  26.580  1.00  0.00    -0.246 OA
BRANCH  69  71
ATOM     71  C   UNL A   1      37.451  22.482  25.716  1.00  0.00     0.060 A 
ATOM     72  C   UNL A   1      36.773  21.335  25.307  1.00  0.00     0.016 A 
ATOM     73  C   UNL A   1      36.815  23.722  25.736  1.00  0.00     0.016 A 
ATOM     74  C   UNL A   1      35.431  21.430  24.933  1.00  0.00     0.005 A 
ATOM     75  C   UNL A   1      35.483  23.818  25.329  1.00  0.00     0.005 A 
ATOM     76  C   UNL A   1      34.767  22.673  24.931  1.00  0.00    -0.038 A 
BRANCH  76  77
ATOM     77  C   UNL A   1      33.343  22.727  24.396  1.00  0.00     0.081 C 
ATOM     78  C   UNL A   1      33.324  22.684  22.855  1.00  0.00     0.111 C 
ATOM     79  C   UNL A   1      32.693  23.960  24.903  1.00  0.00     0.093 A 
ATOM     80  C   UNL A   1      32.989  24.007  22.180  1.00  0.00     0.188 C 
ATOM     81  C   UNL A   1      32.267  24.960  24.054  1.00  0.00     0.164 A 
ATOM     82  N   UNL A   1      32.486  24.282  26.213  1.00  0.00    -0.238 NA
ATOM     83  N   UNL A   1      32.444  25.054  22.713  1.00  0.00    -0.198 NA
ATOM     84  N   UNL A   1      31.759  25.942  24.884  1.00  0.00    -0.283 N 
ATOM     85  C   UNL A   1      31.952  25.486  26.172  1.00  0.00     0.206 A 
BRANCH  80  86
ATOM     86  O   UNL A   1      33.263  24.028  20.860  1.00  0.00    -0.496 OA
ATOM     87  H   UNL A   1      34.084  23.704  20.546  1.00  0.00     0.294 HD
ENDBRANCH  80  86
BRANCH  84  88
ATOM     88  C   UNL A   1      31.174  27.174  24.514  1.00  0.00     0.050 A 
ATOM     89  C   UNL A   1      31.772  28.376  24.916  1.00  0.00     0.027 A 
ATOM     90  C   UNL A   1      29.989  27.185  23.770  1.00  0.00     0.047 A 
ATOM     91  C   UNL A   1      31.194  29.592  24.548  1.00  0.00     0.004 A 
ATOM     92  C   UNL A   1      29.395  28.405  23.454  1.00  0.00     0.043 A 
ATOM     93  C   UNL A   1      29.998  29.607  23.828  1.00  0.00     0.020 A 
ATOM     94  Cl  UNL A   1      27.894  28.436  22.610  1.00  0.00    -0.084 Cl
ENDBRANCH  84  88
ENDBRANCH  76  77
ENDBRANCH  69  71
ENDBRANCH  68  69
ENDBRANCH  67  68
ENDBRANCH   1  67
TORSDOF 17
ENDMDL
