MODEL 1
REMARK VINA RESULT:     -11.9      0.000      0.000
REMARK SMILES O=C(OCCOC(=O)c1ccsc1NC(=O)c1cc2c(F)cccc2s1)c1ccc(-c2c3nc(c(-c4ccc(S(=O)(=O)[O-])cc4)c4ccc([nH]4)c(-c4ccc(S(=O)(=O)[O-])cc4)c4nc(c(-c5ccc(S(=O)(=O)[O-])cc5)c5ccc2[nH]5)C=C4)C=C3)cc1
REMARK SMILES IDX 4 1 3 2 2 3 1 4 27 5 28 6 86 7 29 8 85 9 30 10 31 11 32 12
REMARK SMILES IDX 79 13 33 14 84 15 78 16 80 17 34 18 83 19 77 20 76 21 35 23
REMARK SMILES IDX 65 24 46 25 64 26 47 27 50 28 63 29 81 30 48 31 49 32 62 34
REMARK SMILES IDX 82 35 51 36 36 37 37 38 45 39 38 40 44 41 39 42 40 43 41 44
REMARK SMILES IDX 42 45 43 46 66 47 67 48 75 49 68 50 74 51 69 52 70 53 71 54
REMARK SMILES IDX 72 55 73 56 52 57 53 58 61 59 54 60 60 61 55 62 56 63 57 64
REMARK SMILES IDX 58 65 59 66 5 67 6 68 7 69 8 70 9 71 10 72 13 73 11 74 12 75
REMARK SMILES IDX 14 76 15 77 16 79 17 80 18 81 26 82 19 83 25 84 20 85 24 86
REMARK SMILES IDX 21 87 22 88 23 89
REMARK H PARENT 80 22 50 33 14 78
REMARK Flexibility Score: inf
ROOT
ATOM      1  C   UNL A   1      38.891  21.912  25.927  1.00  0.00     0.275 C 
ENDROOT
BRANCH   1   2
ATOM      2  O   UNL A   1      39.847  22.176  26.964  1.00  0.00    -0.458 OA
BRANCH   2   3
ATOM      3  C   UNL A   1      40.981  22.822  26.642  1.00  0.00     0.338 C 
ATOM      4  O   UNL A   1      41.790  22.410  25.821  1.00  0.00    -0.246 OA
BRANCH   3   5
ATOM      5  C   UNL A   1      41.108  24.182  27.199  1.00  0.00     0.060 A 
ATOM      6  C   UNL A   1      41.857  24.540  28.326  1.00  0.00     0.016 A 
ATOM      7  C   UNL A   1      40.485  25.166  26.434  1.00  0.00     0.016 A 
ATOM      8  C   UNL A   1      41.895  25.871  28.729  1.00  0.00     0.010 A 
ATOM      9  C   UNL A   1      40.635  26.493  26.760  1.00  0.00     0.010 A 
ATOM     10  C   UNL A   1      41.243  26.836  27.958  1.00  0.00    -0.014 A 
BRANCH  10  11
ATOM     11  C   UNL A   1      41.127  28.208  28.425  1.00  0.00     0.031 A 
ATOM     12  C   UNL A   1      42.232  29.142  28.070  1.00  0.00     0.074 A 
ATOM     13  C   UNL A   1      40.017  28.623  29.072  1.00  0.00     0.049 A 
ATOM     14  N   UNL A   1      43.120  29.660  28.852  1.00  0.00    -0.248 NA
ATOM     15  C   UNL A   1      42.439  29.475  26.660  1.00  0.00     0.031 C 
ATOM     16  C   UNL A   1      38.743  27.927  29.312  1.00  0.00     0.029 A 
ATOM     17  N   UNL A   1      39.786  29.841  29.615  1.00  0.00    -0.354 N 
ATOM     18  C   UNL A   1      43.890  30.520  28.071  1.00  0.00     0.074 A 
ATOM     19  C   UNL A   1      43.489  30.294  26.706  1.00  0.00     0.031 C 
ATOM     20  C   UNL A   1      37.813  28.806  29.748  1.00  0.00     0.029 A 
ATOM     21  C   UNL A   1      38.476  30.066  30.011  1.00  0.00     0.049 A 
ATOM     22  H   UNL A   1      40.494  30.517  29.721  1.00  0.00     0.167 HD
ATOM     23  C   UNL A   1      44.705  31.467  28.614  1.00  0.00     0.031 A 
ATOM     24  C   UNL A   1      37.982  31.208  30.545  1.00  0.00     0.031 A 
ATOM     25  C   UNL A   1      44.894  31.258  30.024  1.00  0.00     0.049 A 
ATOM     26  C   UNL A   1      39.149  31.915  31.135  1.00  0.00     0.074 A 
ATOM     27  C   UNL A   1      45.495  30.265  30.773  1.00  0.00     0.029 A 
ATOM     28  N   UNL A   1      44.031  31.903  30.881  1.00  0.00    -0.354 N 
ATOM     29  N   UNL A   1      39.844  31.425  32.127  1.00  0.00    -0.248 NA
ATOM     30  C   UNL A   1      39.840  32.898  30.316  1.00  0.00     0.031 C 
ATOM     31  C   UNL A   1      44.596  30.037  31.858  1.00  0.00     0.029 A 
ATOM     32  C   UNL A   1      43.548  30.956  31.754  1.00  0.00     0.049 A 
ATOM     33  H   UNL A   1      43.803  32.861  30.872  1.00  0.00     0.167 HD
ATOM     34  C   UNL A   1      41.168  31.713  31.819  1.00  0.00     0.074 A 
ATOM     35  C   UNL A   1      41.095  32.689  30.731  1.00  0.00     0.031 C 
ATOM     36  C   UNL A   1      42.198  30.942  32.282  1.00  0.00     0.031 A 
BRANCH  23  37
ATOM     37  C   UNL A   1      45.103  32.744  27.928  1.00  0.00    -0.014 A 
ATOM     38  C   UNL A   1      46.460  33.123  27.898  1.00  0.00     0.010 A 
ATOM     39  C   UNL A   1      44.154  33.710  27.535  1.00  0.00     0.010 A 
ATOM     40  C   UNL A   1      46.843  34.423  27.539  1.00  0.00     0.020 A 
ATOM     41  C   UNL A   1      44.529  35.001  27.145  1.00  0.00     0.020 A 
ATOM     42  C   UNL A   1      45.872  35.358  27.177  1.00  0.00     0.054 A 
BRANCH  42  43
ATOM     43  S   UNL A   1      46.374  37.069  26.854  1.00  0.00     0.124 S 
ATOM     44  O   UNL A   1      46.984  36.967  25.531  1.00  0.00    -0.237 OA
ATOM     45  O   UNL A   1      45.099  37.777  26.910  1.00  0.00    -0.237 OA
ATOM     46  O   UNL A   1      47.299  37.369  27.945  1.00  0.00    -0.744 OA
ENDBRANCH  42  43
ENDBRANCH  23  37
BRANCH  24  47
ATOM     47  C   UNL A   1      36.709  31.879  30.176  1.00  0.00    -0.014 A 
ATOM     48  C   UNL A   1      35.887  32.447  31.167  1.00  0.00     0.010 A 
ATOM     49  C   UNL A   1      36.446  32.221  28.832  1.00  0.00     0.010 A 
ATOM     50  C   UNL A   1      34.900  33.391  30.834  1.00  0.00     0.020 A 
ATOM     51  C   UNL A   1      35.461  33.159  28.493  1.00  0.00     0.020 A 
ATOM     52  C   UNL A   1      34.718  33.766  29.501  1.00  0.00     0.054 A 
BRANCH  52  53
ATOM     53  S   UNL A   1      33.578  35.128  29.109  1.00  0.00     0.124 S 
ATOM     54  O   UNL A   1      33.216  35.627  30.433  1.00  0.00    -0.237 OA
ATOM     55  O   UNL A   1      34.419  36.012  28.309  1.00  0.00    -0.237 OA
ATOM     56  O   UNL A   1      32.495  34.475  28.377  1.00  0.00    -0.744 OA
ENDBRANCH  52  53
ENDBRANCH  24  47
BRANCH  36  57
ATOM     57  C   UNL A   1      41.871  29.829  33.262  1.00  0.00    -0.014 A 
ATOM     58  C   UNL A   1      41.496  28.528  32.861  1.00  0.00     0.010 A 
ATOM     59  C   UNL A   1      42.113  30.056  34.626  1.00  0.00     0.010 A 
ATOM     60  C   UNL A   1      41.350  27.493  33.801  1.00  0.00     0.020 A 
ATOM     61  C   UNL A   1      41.982  29.028  35.566  1.00  0.00     0.020 A 
ATOM     62  C   UNL A   1      41.599  27.750  35.151  1.00  0.00     0.054 A 
BRANCH  62  63
ATOM     63  S   UNL A   1      41.438  26.406  36.362  1.00  0.00     0.124 S 
ATOM     64  O   UNL A   1      40.714  25.381  35.616  1.00  0.00    -0.237 OA
ATOM     65  O   UNL A   1      42.831  26.089  36.675  1.00  0.00    -0.237 OA
ATOM     66  O   UNL A   1      40.688  27.013  37.461  1.00  0.00    -0.744 OA
ENDBRANCH  62  63
ENDBRANCH  36  57
ENDBRANCH  10  11
ENDBRANCH   3   5
ENDBRANCH   2   3
ENDBRANCH   1   2
BRANCH   1  67
ATOM     67  C   UNL A   1      37.745  22.920  25.786  1.00  0.00     0.275 C 
BRANCH  67  68
ATOM     68  O   UNL A   1      36.510  22.270  25.436  1.00  0.00    -0.458 OA
BRANCH  68  69
ATOM     69  C   UNL A   1      35.338  22.911  25.728  1.00  0.00     0.341 C 
ATOM     70  O   UNL A   1      34.949  23.217  26.850  1.00  0.00    -0.246 OA
BRANCH  69  71
ATOM     71  C   UNL A   1      34.551  23.106  24.527  1.00  0.00     0.094 A 
ATOM     72  C   UNL A   1      35.135  22.902  23.223  1.00  0.00     0.029 A 
ATOM     73  C   UNL A   1      33.214  23.497  24.451  1.00  0.00     0.110 A 
ATOM     74  C   UNL A   1      34.270  23.208  22.208  1.00  0.00     0.068 A 
ATOM     75  S   UNL A   1      32.790  23.732  22.826  1.00  0.00    -0.126 S 
BRANCH  73  76
ATOM     76  N   UNL A   1      32.320  23.776  25.488  1.00  0.00    -0.312 N 
ATOM     77  C   UNL A   1      32.059  24.909  26.271  1.00  0.00     0.266 C 
ATOM     78  H   UNL A   1      31.747  23.009  25.719  1.00  0.00     0.171 HD
ATOM     79  O   UNL A   1      31.311  24.768  27.243  1.00  0.00    -0.268 OA
BRANCH  77  80
ATOM     80  C   UNL A   1      32.548  26.213  25.906  1.00  0.00     0.094 A 
ATOM     81  C   UNL A   1      33.687  26.868  26.334  1.00  0.00     0.037 A 
ATOM     82  S   UNL A   1      31.819  27.162  24.683  1.00  0.00    -0.130 S 
ATOM     83  C   UNL A   1      33.482  28.289  26.246  1.00  0.00     0.029 A 
ATOM     84  C   UNL A   1      32.286  28.570  25.577  1.00  0.00     0.038 A 
ATOM     85  C   UNL A   1      34.114  29.334  26.936  1.00  0.00     0.131 A 
ATOM     86  C   UNL A   1      31.595  29.778  25.765  1.00  0.00     0.020 A 
ATOM     87  F   UNL A   1      35.330  29.161  27.473  1.00  0.00    -0.206 F 
ATOM     88  C   UNL A   1      33.364  30.454  27.279  1.00  0.00     0.040 A 
ATOM     89  C   UNL A   1      32.091  30.641  26.748  1.00  0.00     0.005 A 
ENDBRANCH  77  80
ENDBRANCH  73  76
ENDBRANCH  69  71
ENDBRANCH  68  69
ENDBRANCH  67  68
ENDBRANCH   1  67
TORSDOF 16
ENDMDL
MODEL 2
REMARK VINA RESULT:     -11.5      1.666      2.208
REMARK SMILES O=C(OCCOC(=O)c1ccsc1NC(=O)c1cc2c(F)cccc2s1)c1ccc(-c2c3nc(c(-c4ccc(S(=O)(=O)[O-])cc4)c4ccc([nH]4)c(-c4ccc(S(=O)(=O)[O-])cc4)c4nc(c(-c5ccc(S(=O)(=O)[O-])cc5)c5ccc2[nH]5)C=C4)C=C3)cc1
REMARK SMILES IDX 4 1 3 2 2 3 1 4 27 5 28 6 86 7 29 8 85 9 30 10 31 11 32 12
REMARK SMILES IDX 79 13 33 14 84 15 78 16 80 17 34 18 83 19 77 20 76 21 35 23
REMARK SMILES IDX 65 24 46 25 64 26 47 27 50 28 63 29 81 30 48 31 49 32 62 34
REMARK SMILES IDX 82 35 51 36 36 37 37 38 45 39 38 40 44 41 39 42 40 43 41 44
REMARK SMILES IDX 42 45 43 46 66 47 67 48 75 49 68 50 74 51 69 52 70 53 71 54
REMARK SMILES IDX 72 55 73 56 52 57 53 58 61 59 54 60 60 61 55 62 56 63 57 64
REMARK SMILES IDX 58 65 59 66 5 67 6 68 7 69 8 70 9 71 10 72 13 73 11 74 12 75
REMARK SMILES IDX 14 76 15 77 16 79 17 80 18 81 26 82 19 83 25 84 20 85 24 86
REMARK SMILES IDX 21 87 22 88 23 89
REMARK H PARENT 80 22 50 33 14 78
REMARK Flexibility Score: inf
ROOT
ATOM      1  C   UNL A   1      38.100  21.671  25.860  1.00  0.00     0.275 C 
ENDROOT
BRANCH   1   2
ATOM      2  O   UNL A   1      39.203  22.581  25.985  1.00  0.00    -0.458 OA
BRANCH   2   3
ATOM      3  C   UNL A   1      39.929  22.556  27.116  1.00  0.00     0.338 C 
ATOM      4  O   UNL A   1      40.412  21.538  27.593  1.00  0.00    -0.246 OA
BRANCH   3   5
ATOM      5  C   UNL A   1      40.286  23.880  27.660  1.00  0.00     0.060 A 
ATOM      6  C   UNL A   1      41.465  24.194  28.346  1.00  0.00     0.016 A 
ATOM      7  C   UNL A   1      39.377  24.885  27.342  1.00  0.00     0.016 A 
ATOM      8  C   UNL A   1      41.674  25.496  28.792  1.00  0.00     0.010 A 
ATOM      9  C   UNL A   1      39.649  26.193  27.667  1.00  0.00     0.010 A 
ATOM     10  C   UNL A   1      40.735  26.481  28.479  1.00  0.00    -0.014 A 
BRANCH  10  11
ATOM     11  C   UNL A   1      40.836  27.812  29.055  1.00  0.00     0.031 A 
ATOM     12  C   UNL A   1      41.907  28.702  28.525  1.00  0.00     0.074 A 
ATOM     13  C   UNL A   1      39.933  28.241  29.963  1.00  0.00     0.049 A 
ATOM     14  N   UNL A   1      42.984  29.094  29.120  1.00  0.00    -0.248 NA
ATOM     15  C   UNL A   1      41.825  29.141  27.130  1.00  0.00     0.031 C 
ATOM     16  C   UNL A   1      38.690  27.608  30.435  1.00  0.00     0.029 A 
ATOM     17  N   UNL A   1      39.926  29.420  30.626  1.00  0.00    -0.354 N 
ATOM     18  C   UNL A   1      43.630  29.968  28.246  1.00  0.00     0.074 A 
ATOM     19  C   UNL A   1      42.922  29.884  26.995  1.00  0.00     0.031 C 
ATOM     20  C   UNL A   1      37.954  28.504  31.130  1.00  0.00     0.029 A 
ATOM     21  C   UNL A   1      38.757  29.693  31.322  1.00  0.00     0.049 A 
ATOM     22  H   UNL A   1      40.692  30.038  30.616  1.00  0.00     0.167 HD
ATOM     23  C   UNL A   1      44.618  30.811  28.655  1.00  0.00     0.031 A 
ATOM     24  C   UNL A   1      38.487  30.814  32.032  1.00  0.00     0.031 A 
ATOM     25  C   UNL A   1      45.096  30.471  29.969  1.00  0.00     0.049 A 
ATOM     26  C   UNL A   1      39.808  31.392  32.390  1.00  0.00     0.074 A 
ATOM     27  C   UNL A   1      45.765  29.381  30.492  1.00  0.00     0.029 A 
ATOM     28  N   UNL A   1      44.498  31.094  31.041  1.00  0.00    -0.354 N 
ATOM     29  N   UNL A   1      40.663  30.777  33.163  1.00  0.00    -0.248 NA
ATOM     30  C   UNL A   1      40.380  32.396  31.507  1.00  0.00     0.031 C 
ATOM     31  C   UNL A   1      45.112  29.119  31.734  1.00  0.00     0.029 A 
ATOM     32  C   UNL A   1      44.144  30.108  31.933  1.00  0.00     0.049 A 
ATOM     33  H   UNL A   1      44.351  32.062  31.150  1.00  0.00     0.167 HD
ATOM     34  C   UNL A   1      41.905  31.005  32.586  1.00  0.00     0.074 A 
ATOM     35  C   UNL A   1      41.673  32.074  31.612  1.00  0.00     0.031 C 
ATOM     36  C   UNL A   1      42.946  30.134  32.750  1.00  0.00     0.031 A 
BRANCH  23  37
ATOM     37  C   UNL A   1      44.958  32.114  27.987  1.00  0.00    -0.014 A 
ATOM     38  C   UNL A   1      46.174  32.240  27.287  1.00  0.00     0.010 A 
ATOM     39  C   UNL A   1      44.234  33.297  28.243  1.00  0.00     0.010 A 
ATOM     40  C   UNL A   1      46.666  33.497  26.906  1.00  0.00     0.020 A 
ATOM     41  C   UNL A   1      44.701  34.553  27.838  1.00  0.00     0.020 A 
ATOM     42  C   UNL A   1      45.931  34.647  27.196  1.00  0.00     0.054 A 
BRANCH  42  43
ATOM     43  S   UNL A   1      46.648  36.269  26.822  1.00  0.00     0.124 S 
ATOM     44  O   UNL A   1      47.366  36.580  28.055  1.00  0.00    -0.237 OA
ATOM     45  O   UNL A   1      47.482  35.974  25.661  1.00  0.00    -0.237 OA
ATOM     46  O   UNL A   1      45.482  37.107  26.551  1.00  0.00    -0.744 OA
ENDBRANCH  42  43
ENDBRANCH  23  37
BRANCH  24  47
ATOM     47  C   UNL A   1      37.223  31.593  32.007  1.00  0.00    -0.014 A 
ATOM     48  C   UNL A   1      36.574  31.941  33.207  1.00  0.00     0.010 A 
ATOM     49  C   UNL A   1      36.810  32.246  30.826  1.00  0.00     0.010 A 
ATOM     50  C   UNL A   1      35.615  32.967  33.238  1.00  0.00     0.020 A 
ATOM     51  C   UNL A   1      35.851  33.268  30.849  1.00  0.00     0.020 A 
ATOM     52  C   UNL A   1      35.285  33.648  32.063  1.00  0.00     0.054 A 
BRANCH  52  53
ATOM     53  S   UNL A   1      34.194  35.099  32.153  1.00  0.00     0.124 S 
ATOM     54  O   UNL A   1      34.037  35.464  30.748  1.00  0.00    -0.237 OA
ATOM     55  O   UNL A   1      33.005  34.551  32.800  1.00  0.00    -0.237 OA
ATOM     56  O   UNL A   1      34.951  36.055  32.960  1.00  0.00    -0.744 OA
ENDBRANCH  52  53
ENDBRANCH  24  47
BRANCH  36  57
ATOM     57  C   UNL A   1      42.754  28.965  33.698  1.00  0.00    -0.014 A 
ATOM     58  C   UNL A   1      43.263  28.943  35.015  1.00  0.00     0.010 A 
ATOM     59  C   UNL A   1      41.891  27.929  33.307  1.00  0.00     0.010 A 
ATOM     60  C   UNL A   1      42.933  27.906  35.904  1.00  0.00     0.020 A 
ATOM     61  C   UNL A   1      41.548  26.899  34.190  1.00  0.00     0.020 A 
ATOM     62  C   UNL A   1      42.071  26.890  35.485  1.00  0.00     0.054 A 
BRANCH  62  63
ATOM     63  S   UNL A   1      41.621  25.564  36.642  1.00  0.00     0.124 S 
ATOM     64  O   UNL A   1      41.129  24.512  35.757  1.00  0.00    -0.237 OA
ATOM     65  O   UNL A   1      42.889  25.279  37.312  1.00  0.00    -0.237 OA
ATOM     66  O   UNL A   1      40.603  26.175  37.496  1.00  0.00    -0.744 OA
ENDBRANCH  62  63
ENDBRANCH  36  57
ENDBRANCH  10  11
ENDBRANCH   3   5
ENDBRANCH   2   3
ENDBRANCH   1   2
BRANCH   1  67
ATOM     67  C   UNL A   1      37.446  21.582  24.476  1.00  0.00     0.275 C 
BRANCH  67  68
ATOM     68  O   UNL A   1      36.021  21.764  24.553  1.00  0.00    -0.458 OA
BRANCH  68  69
ATOM     69  C   UNL A   1      35.428  22.605  23.653  1.00  0.00     0.341 C 
ATOM     70  O   UNL A   1      36.009  23.250  22.786  1.00  0.00    -0.246 OA
BRANCH  69  71
ATOM     71  C   UNL A   1      34.008  22.715  23.916  1.00  0.00     0.094 A 
ATOM     72  C   UNL A   1      33.432  22.131  25.104  1.00  0.00     0.029 A 
ATOM     73  C   UNL A   1      33.050  23.346  23.122  1.00  0.00     0.110 A 
ATOM     74  C   UNL A   1      32.070  22.264  25.146  1.00  0.00     0.068 A 
ATOM     75  S   UNL A   1      31.510  23.074  23.776  1.00  0.00    -0.126 S 
BRANCH  73  76
ATOM     76  N   UNL A   1      33.222  24.025  21.912  1.00  0.00    -0.312 N 
ATOM     77  C   UNL A   1      32.936  25.327  21.476  1.00  0.00     0.266 C 
ATOM     78  H   UNL A   1      33.634  23.468  21.213  1.00  0.00     0.171 HD
ATOM     79  O   UNL A   1      33.050  25.559  20.270  1.00  0.00    -0.268 OA
BRANCH  77  80
ATOM     80  C   UNL A   1      32.626  26.386  22.401  1.00  0.00     0.094 A 
ATOM     81  C   UNL A   1      33.486  27.213  23.099  1.00  0.00     0.037 A 
ATOM     82  S   UNL A   1      31.026  26.920  22.689  1.00  0.00    -0.130 S 
ATOM     83  C   UNL A   1      32.847  27.653  24.310  1.00  0.00     0.029 A 
ATOM     84  C   UNL A   1      31.500  27.277  24.316  1.00  0.00     0.038 A 
ATOM     85  C   UNL A   1      33.412  28.110  25.510  1.00  0.00     0.131 A 
ATOM     86  C   UNL A   1      30.776  27.125  25.510  1.00  0.00     0.020 A 
ATOM     87  F   UNL A   1      34.652  28.616  25.532  1.00  0.00    -0.206 F 
ATOM     88  C   UNL A   1      32.777  27.793  26.707  1.00  0.00     0.040 A 
ATOM     89  C   UNL A   1      31.496  27.246  26.703  1.00  0.00     0.005 A 
ENDBRANCH  77  80
ENDBRANCH  73  76
ENDBRANCH  69  71
ENDBRANCH  68  69
ENDBRANCH  67  68
ENDBRANCH   1  67
TORSDOF 16
ENDMDL
MODEL 3
REMARK VINA RESULT:     -11.5      1.560      2.028
REMARK SMILES O=C(OCCOC(=O)c1ccsc1NC(=O)c1cc2c(F)cccc2s1)c1ccc(-c2c3nc(c(-c4ccc(S(=O)(=O)[O-])cc4)c4ccc([nH]4)c(-c4ccc(S(=O)(=O)[O-])cc4)c4nc(c(-c5ccc(S(=O)(=O)[O-])cc5)c5ccc2[nH]5)C=C4)C=C3)cc1
REMARK SMILES IDX 4 1 3 2 2 3 1 4 27 5 28 6 86 7 29 8 85 9 30 10 31 11 32 12
REMARK SMILES IDX 79 13 33 14 84 15 78 16 80 17 34 18 83 19 77 20 76 21 35 23
REMARK SMILES IDX 65 24 46 25 64 26 47 27 50 28 63 29 81 30 48 31 49 32 62 34
REMARK SMILES IDX 82 35 51 36 36 37 37 38 45 39 38 40 44 41 39 42 40 43 41 44
REMARK SMILES IDX 42 45 43 46 66 47 67 48 75 49 68 50 74 51 69 52 70 53 71 54
REMARK SMILES IDX 72 55 73 56 52 57 53 58 61 59 54 60 60 61 55 62 56 63 57 64
REMARK SMILES IDX 58 65 59 66 5 67 6 68 7 69 8 70 9 71 10 72 13 73 11 74 12 75
REMARK SMILES IDX 14 76 15 77 16 79 17 80 18 81 26 82 19 83 25 84 20 85 24 86
REMARK SMILES IDX 21 87 22 88 23 89
REMARK H PARENT 80 22 50 33 14 78
REMARK Flexibility Score: inf
ROOT
ATOM      1  C   UNL A   1      38.651  21.421  25.643  1.00  0.00     0.275 C 
ENDROOT
BRANCH   1   2
ATOM      2  O   UNL A   1      39.955  21.957  25.912  1.00  0.00    -0.458 OA
BRANCH   2   3
ATOM      3  C   UNL A   1      40.313  22.164  27.191  1.00  0.00     0.338 C 
ATOM      4  O   UNL A   1      40.767  21.293  27.921  1.00  0.00    -0.246 OA
BRANCH   3   5
ATOM      5  C   UNL A   1      40.311  23.575  27.621  1.00  0.00     0.060 A 
ATOM      6  C   UNL A   1      39.232  24.461  27.523  1.00  0.00     0.016 A 
ATOM      7  C   UNL A   1      41.482  23.971  28.264  1.00  0.00     0.016 A 
ATOM      8  C   UNL A   1      39.372  25.766  27.984  1.00  0.00     0.010 A 
ATOM      9  C   UNL A   1      41.569  25.217  28.836  1.00  0.00     0.010 A 
ATOM     10  C   UNL A   1      40.565  26.145  28.605  1.00  0.00    -0.014 A 
BRANCH  10  11
ATOM     11  C   UNL A   1      40.809  27.534  28.959  1.00  0.00     0.031 A 
ATOM     12  C   UNL A   1      42.041  28.167  28.410  1.00  0.00     0.074 A 
ATOM     13  C   UNL A   1      39.905  28.231  29.679  1.00  0.00     0.049 A 
ATOM     14  N   UNL A   1      43.109  28.517  29.046  1.00  0.00    -0.248 NA
ATOM     15  C   UNL A   1      42.144  28.355  26.961  1.00  0.00     0.031 C 
ATOM     16  C   UNL A   1      38.547  27.860  30.110  1.00  0.00     0.029 A 
ATOM     17  N   UNL A   1      40.014  29.501  30.132  1.00  0.00    -0.354 N 
ATOM     18  C   UNL A   1      43.948  29.129  28.116  1.00  0.00     0.074 A 
ATOM     19  C   UNL A   1      43.346  28.914  26.826  1.00  0.00     0.031 C 
ATOM     20  C   UNL A   1      37.893  28.954  30.562  1.00  0.00     0.029 A 
ATOM     21  C   UNL A   1      38.843  30.044  30.641  1.00  0.00     0.049 A 
ATOM     22  H   UNL A   1      40.861  30.003  30.104  1.00  0.00     0.167 HD
ATOM     23  C   UNL A   1      45.011  29.896  28.485  1.00  0.00     0.031 A 
ATOM     24  C   UNL A   1      38.680  31.300  31.121  1.00  0.00     0.031 A 
ATOM     25  C   UNL A   1      45.319  29.739  29.881  1.00  0.00     0.049 A 
ATOM     26  C   UNL A   1      40.036  31.757  31.521  1.00  0.00     0.074 A 
ATOM     27  C   UNL A   1      45.774  28.684  30.648  1.00  0.00     0.029 A 
ATOM     28  N   UNL A   1      44.730  30.616  30.763  1.00  0.00    -0.354 N 
ATOM     29  N   UNL A   1      40.723  31.185  32.475  1.00  0.00    -0.248 NA
ATOM     30  C   UNL A   1      40.822  32.503  30.551  1.00  0.00     0.031 C 
ATOM     31  C   UNL A   1      44.986  28.736  31.837  1.00  0.00     0.029 A 
ATOM     32  C   UNL A   1      44.160  29.861  31.762  1.00  0.00     0.049 A 
ATOM     33  H   UNL A   1      44.718  31.599  30.693  1.00  0.00     0.167 HD
ATOM     34  C   UNL A   1      42.029  31.143  32.007  1.00  0.00     0.074 A 
ATOM     35  C   UNL A   1      42.041  32.040  30.850  1.00  0.00     0.031 C 
ATOM     36  C   UNL A   1      42.913  30.188  32.427  1.00  0.00     0.031 A 
BRANCH  23  37
ATOM     37  C   UNL A   1      45.594  31.003  27.651  1.00  0.00    -0.014 A 
ATOM     38  C   UNL A   1      46.982  31.239  27.681  1.00  0.00     0.010 A 
ATOM     39  C   UNL A   1      44.786  31.983  27.037  1.00  0.00     0.010 A 
ATOM     40  C   UNL A   1      47.530  32.422  27.165  1.00  0.00     0.020 A 
ATOM     41  C   UNL A   1      45.326  33.152  26.491  1.00  0.00     0.020 A 
ATOM     42  C   UNL A   1      46.695  33.377  26.584  1.00  0.00     0.054 A 
BRANCH  42  43
ATOM     43  S   UNL A   1      47.402  34.958  26.051  1.00  0.00     0.124 S 
ATOM     44  O   UNL A   1      46.208  35.752  25.774  1.00  0.00    -0.237 OA
ATOM     45  O   UNL A   1      48.172  35.360  27.224  1.00  0.00    -0.237 OA
ATOM     46  O   UNL A   1      48.198  34.601  24.878  1.00  0.00    -0.744 OA
ENDBRANCH  42  43
ENDBRANCH  23  37
BRANCH  24  47
ATOM     47  C   UNL A   1      37.551  32.219  30.829  1.00  0.00    -0.014 A 
ATOM     48  C   UNL A   1      37.718  33.296  29.938  1.00  0.00     0.010 A 
ATOM     49  C   UNL A   1      36.233  31.869  31.193  1.00  0.00     0.010 A 
ATOM     50  C   UNL A   1      36.607  33.937  29.363  1.00  0.00     0.020 A 
ATOM     51  C   UNL A   1      35.120  32.507  30.626  1.00  0.00     0.020 A 
ATOM     52  C   UNL A   1      35.316  33.514  29.685  1.00  0.00     0.054 A 
BRANCH  52  53
ATOM     53  S   UNL A   1      33.900  34.218  28.787  1.00  0.00     0.124 S 
ATOM     54  O   UNL A   1      34.522  35.280  28.000  1.00  0.00    -0.237 OA
ATOM     55  O   UNL A   1      33.416  33.069  28.026  1.00  0.00    -0.237 OA
ATOM     56  O   UNL A   1      33.007  34.677  29.849  1.00  0.00    -0.744 OA
ENDBRANCH  52  53
ENDBRANCH  24  47
BRANCH  36  57
ATOM     57  C   UNL A   1      42.472  29.243  33.529  1.00  0.00    -0.014 A 
ATOM     58  C   UNL A   1      41.841  28.004  33.283  1.00  0.00     0.010 A 
ATOM     59  C   UNL A   1      42.857  29.538  34.847  1.00  0.00     0.010 A 
ATOM     60  C   UNL A   1      41.588  27.098  34.327  1.00  0.00     0.020 A 
ATOM     61  C   UNL A   1      42.619  28.636  35.890  1.00  0.00     0.020 A 
ATOM     62  C   UNL A   1      41.984  27.420  35.627  1.00  0.00     0.054 A 
BRANCH  62  63
ATOM     63  S   UNL A   1      41.682  26.237  36.973  1.00  0.00     0.124 S 
ATOM     64  O   UNL A   1      41.569  24.964  36.268  1.00  0.00    -0.237 OA
ATOM     65  O   UNL A   1      42.874  26.390  37.806  1.00  0.00    -0.237 OA
ATOM     66  O   UNL A   1      40.443  26.714  37.586  1.00  0.00    -0.744 OA
ENDBRANCH  62  63
ENDBRANCH  36  57
ENDBRANCH  10  11
ENDBRANCH   3   5
ENDBRANCH   2   3
ENDBRANCH   1   2
BRANCH   1  67
ATOM     67  C   UNL A   1      37.712  22.303  24.811  1.00  0.00     0.275 C 
BRANCH  67  68
ATOM     68  O   UNL A   1      36.491  21.614  24.487  1.00  0.00    -0.458 OA
BRANCH  68  69
ATOM     69  C   UNL A   1      35.452  22.346  23.985  1.00  0.00     0.341 C 
ATOM     70  O   UNL A   1      35.547  23.268  23.181  1.00  0.00    -0.246 OA
BRANCH  69  71
ATOM     71  C   UNL A   1      34.203  21.951  24.604  1.00  0.00     0.094 A 
ATOM     72  C   UNL A   1      34.171  20.892  25.584  1.00  0.00     0.029 A 
ATOM     73  C   UNL A   1      32.937  22.486  24.364  1.00  0.00     0.110 A 
ATOM     74  C   UNL A   1      32.900  20.602  26.001  1.00  0.00     0.068 A 
ATOM     75  S   UNL A   1      31.778  21.590  25.218  1.00  0.00    -0.126 S 
BRANCH  73  76
ATOM     76  N   UNL A   1      32.570  23.520  23.499  1.00  0.00    -0.312 N 
ATOM     77  C   UNL A   1      32.289  24.883  23.673  1.00  0.00     0.266 C 
ATOM     78  H   UNL A   1      32.493  23.229  22.562  1.00  0.00     0.171 HD
ATOM     79  O   UNL A   1      31.812  25.492  22.711  1.00  0.00    -0.268 OA
BRANCH  77  80
ATOM     80  C   UNL A   1      32.639  25.581  24.883  1.00  0.00     0.094 A 
ATOM     81  C   UNL A   1      31.820  26.004  25.913  1.00  0.00     0.037 A 
ATOM     82  S   UNL A   1      34.261  25.888  25.335  1.00  0.00    -0.130 S 
ATOM     83  C   UNL A   1      32.416  27.143  26.558  1.00  0.00     0.029 A 
ATOM     84  C   UNL A   1      33.715  27.350  26.084  1.00  0.00     0.038 A 
ATOM     85  C   UNL A   1      31.819  28.161  27.317  1.00  0.00     0.131 A 
ATOM     86  C   UNL A   1      34.337  28.608  26.143  1.00  0.00     0.020 A 
ATOM     87  F   UNL A   1      30.636  27.963  27.915  1.00  0.00    -0.206 F 
ATOM     88  C   UNL A   1      32.335  29.450  27.224  1.00  0.00     0.040 A 
ATOM     89  C   UNL A   1      33.552  29.678  26.586  1.00  0.00     0.005 A 
ENDBRANCH  77  80
ENDBRANCH  73  76
ENDBRANCH  69  71
ENDBRANCH  68  69
ENDBRANCH  67  68
ENDBRANCH   1  67
TORSDOF 16
ENDMDL
