MODEL 1
REMARK VINA RESULT:      -9.6      0.000      0.000
REMARK SMILES CC(C)[C@H]([NH2+]Cc1ccc(N(C)C)cc1)C(=O)OCCOC(=O)c1ccc(-c2c3nc(c(-c4ccc(S(=O)(=O)[O-])cc4)c4ccc([nH]4)c(-c4ccc(S(=O)(=O)[O-])cc4)c4nc(c(-c5ccc(S(=O)(=O)[O-])cc5)c5ccc2[nH]5)C=C4)C=C3)cc1
REMARK SMILES IDX 19 1 18 2 16 3 17 4 4 5 2 6 1 7 3 8 5 9 6 12 7 13 8 14 15 15
REMARK SMILES IDX 9 16 14 17 10 18 11 19 12 20 13 21 20 22 21 23 22 24 23 25
REMARK SMILES IDX 24 26 25 27 83 28 26 29 82 30 27 31 28 32 29 33 76 34 30 35
REMARK SMILES IDX 81 36 75 37 77 38 31 39 80 40 74 41 73 42 32 44 62 45 43 46
REMARK SMILES IDX 61 47 44 48 47 49 60 50 78 51 45 52 46 53 59 55 79 56 48 57
REMARK SMILES IDX 33 58 34 59 42 60 35 61 41 62 36 63 37 64 38 65 39 66 40 67
REMARK SMILES IDX 63 68 64 69 72 70 65 71 71 72 66 73 67 74 68 75 69 76 70 77
REMARK SMILES IDX 49 78 50 79 58 80 51 81 57 82 52 83 53 84 54 85 55 86 56 87
REMARK H PARENT 5 10 5 11 77 43 47 54
REMARK Flexibility Score: inf
ROOT
ATOM      1  C   UNL A   1      33.761  27.374  26.144  1.00  0.00     0.274 C 
ENDROOT
BRANCH   1   2
ATOM      2  O   UNL A   1      32.627  26.495  26.033  1.00  0.00    -0.458 OA
BRANCH   2   3
ATOM      3  C   UNL A   1      32.397  25.949  24.804  1.00  0.00     0.365 C 
ATOM      4  O   UNL A   1      31.326  25.471  24.447  1.00  0.00    -0.245 OA
BRANCH   3   5
ATOM      5  C   UNL A   1      33.663  25.897  23.920  1.00  0.00     0.296 C 
BRANCH   5   6
ATOM      6  C   UNL A   1      33.443  26.752  22.634  1.00  0.00     0.053 C 
ATOM      7  C   UNL A   1      32.847  25.955  21.467  1.00  0.00     0.014 C 
ATOM      8  C   UNL A   1      32.626  28.030  22.843  1.00  0.00     0.014 C 
ENDBRANCH   5   6
BRANCH   5   9
ATOM      9  N   UNL A   1      34.114  24.501  23.682  1.00  0.00    -0.331 N 
ATOM     10  H   UNL A   1      34.983  24.520  23.149  1.00  0.00     0.347 HD
ATOM     11  H   UNL A   1      33.382  24.011  23.167  1.00  0.00     0.347 HD
BRANCH   9  12
ATOM     12  C   UNL A   1      34.345  23.784  24.951  1.00  0.00     0.298 C 
BRANCH  12  13
ATOM     13  C   UNL A   1      34.086  22.302  24.829  1.00  0.00     0.006 A 
ATOM     14  C   UNL A   1      32.797  21.802  24.663  1.00  0.00     0.012 A 
ATOM     15  C   UNL A   1      35.129  21.380  24.954  1.00  0.00     0.012 A 
ATOM     16  C   UNL A   1      32.566  20.422  24.558  1.00  0.00     0.026 A 
ATOM     17  C   UNL A   1      34.882  20.000  24.860  1.00  0.00     0.026 A 
ATOM     18  C   UNL A   1      33.597  19.473  24.635  1.00  0.00     0.036 A 
BRANCH  18  19
ATOM     19  N   UNL A   1      33.366  18.105  24.533  1.00  0.00    -0.378 N 
ATOM     20  C   UNL A   1      32.693  17.332  25.569  1.00  0.00     0.143 C 
ATOM     21  C   UNL A   1      33.545  17.422  23.254  1.00  0.00     0.143 C 
ENDBRANCH  18  19
ENDBRANCH  12  13
ENDBRANCH   9  12
ENDBRANCH   5   9
ENDBRANCH   3   5
ENDBRANCH   2   3
ENDBRANCH   1   2
BRANCH   1  22
ATOM     22  C   UNL A   1      33.324  28.783  26.535  1.00  0.00     0.275 C 
BRANCH  22  23
ATOM     23  O   UNL A   1      33.738  29.057  27.884  1.00  0.00    -0.458 OA
BRANCH  23  24
ATOM     24  C   UNL A   1      34.448  30.194  28.060  1.00  0.00     0.338 C 
ATOM     25  O   UNL A   1      34.041  31.341  28.064  1.00  0.00    -0.246 OA
BRANCH  24  26
ATOM     26  C   UNL A   1      35.854  29.833  28.281  1.00  0.00     0.060 A 
ATOM     27  C   UNL A   1      36.266  29.405  29.545  1.00  0.00     0.016 A 
ATOM     28  C   UNL A   1      36.774  29.986  27.247  1.00  0.00     0.016 A 
ATOM     29  C   UNL A   1      37.609  29.139  29.789  1.00  0.00     0.010 A 
ATOM     30  C   UNL A   1      38.116  29.678  27.480  1.00  0.00     0.010 A 
ATOM     31  C   UNL A   1      38.542  29.261  28.753  1.00  0.00    -0.014 A 
BRANCH  31  32
ATOM     32  C   UNL A   1      39.971  28.959  28.999  1.00  0.00     0.031 A 
ATOM     33  C   UNL A   1      40.883  30.030  29.521  1.00  0.00     0.074 A 
ATOM     34  C   UNL A   1      40.444  27.726  28.737  1.00  0.00     0.049 A 
ATOM     35  N   UNL A   1      42.182  30.009  29.661  1.00  0.00    -0.248 NA
ATOM     36  C   UNL A   1      40.250  31.292  29.937  1.00  0.00     0.031 C 
ATOM     37  C   UNL A   1      39.640  26.590  28.277  1.00  0.00     0.029 A 
ATOM     38  N   UNL A   1      41.717  27.224  28.812  1.00  0.00    -0.354 N 
ATOM     39  C   UNL A   1      42.529  31.262  30.152  1.00  0.00     0.074 A 
ATOM     40  C   UNL A   1      41.304  32.021  30.280  1.00  0.00     0.031 C 
ATOM     41  C   UNL A   1      40.441  25.526  28.114  1.00  0.00     0.029 A 
ATOM     42  C   UNL A   1      41.818  25.921  28.393  1.00  0.00     0.049 A 
ATOM     43  H   UNL A   1      42.486  27.749  29.135  1.00  0.00     0.167 HD
ATOM     44  C   UNL A   1      43.760  31.733  30.460  1.00  0.00     0.031 A 
ATOM     45  C   UNL A   1      42.901  25.142  28.209  1.00  0.00     0.031 A 
ATOM     46  C   UNL A   1      44.972  30.969  30.325  1.00  0.00     0.049 A 
ATOM     47  C   UNL A   1      44.263  25.714  28.485  1.00  0.00     0.074 A 
ATOM     48  C   UNL A   1      46.270  31.352  30.616  1.00  0.00     0.029 A 
ATOM     49  N   UNL A   1      45.036  29.665  29.858  1.00  0.00    -0.354 N 
ATOM     50  N   UNL A   1      44.579  26.907  28.929  1.00  0.00    -0.248 NA
ATOM     51  C   UNL A   1      45.414  24.840  28.222  1.00  0.00     0.031 C 
ATOM     52  C   UNL A   1      47.123  30.294  30.281  1.00  0.00     0.029 A 
ATOM     53  C   UNL A   1      46.352  29.236  29.828  1.00  0.00     0.049 A 
ATOM     54  H   UNL A   1      44.260  29.123  29.588  1.00  0.00     0.167 HD
ATOM     55  C   UNL A   1      45.967  26.925  29.006  1.00  0.00     0.074 A 
ATOM     56  C   UNL A   1      46.427  25.617  28.583  1.00  0.00     0.031 C 
ATOM     57  C   UNL A   1      46.788  27.934  29.390  1.00  0.00     0.031 A 
BRANCH  44  58
ATOM     58  C   UNL A   1      43.859  33.160  30.926  1.00  0.00    -0.014 A 
ATOM     59  C   UNL A   1      43.717  33.496  32.285  1.00  0.00     0.010 A 
ATOM     60  C   UNL A   1      44.124  34.178  29.993  1.00  0.00     0.010 A 
ATOM     61  C   UNL A   1      43.802  34.830  32.695  1.00  0.00     0.020 A 
ATOM     62  C   UNL A   1      44.233  35.510  30.402  1.00  0.00     0.020 A 
ATOM     63  C   UNL A   1      44.054  35.829  31.750  1.00  0.00     0.054 A 
BRANCH  63  64
ATOM     64  S   UNL A   1      44.175  37.550  32.310  1.00  0.00     0.124 S 
ATOM     65  O   UNL A   1      43.212  37.578  33.407  1.00  0.00    -0.237 OA
ATOM     66  O   UNL A   1      45.578  37.663  32.703  1.00  0.00    -0.237 OA
ATOM     67  O   UNL A   1      43.799  38.326  31.131  1.00  0.00    -0.744 OA
ENDBRANCH  63  64
ENDBRANCH  44  58
BRANCH  45  68
ATOM     68  C   UNL A   1      42.738  23.758  27.691  1.00  0.00    -0.014 A 
ATOM     69  C   UNL A   1      42.546  22.681  28.572  1.00  0.00     0.010 A 
ATOM     70  C   UNL A   1      42.751  23.514  26.305  1.00  0.00     0.010 A 
ATOM     71  C   UNL A   1      42.374  21.384  28.078  1.00  0.00     0.020 A 
ATOM     72  C   UNL A   1      42.555  22.224  25.805  1.00  0.00     0.020 A 
ATOM     73  C   UNL A   1      42.377  21.165  26.697  1.00  0.00     0.054 A 
BRANCH  73  74
ATOM     74  S   UNL A   1      42.087  19.486  26.074  1.00  0.00     0.124 S 
ATOM     75  O   UNL A   1      40.648  19.496  25.836  1.00  0.00    -0.237 OA
ATOM     76  O   UNL A   1      42.926  19.440  24.879  1.00  0.00    -0.237 OA
ATOM     77  O   UNL A   1      42.536  18.632  27.172  1.00  0.00    -0.744 OA
ENDBRANCH  73  74
ENDBRANCH  45  68
BRANCH  57  78
ATOM     78  C   UNL A   1      48.265  27.654  29.381  1.00  0.00    -0.014 A 
ATOM     79  C   UNL A   1      48.872  26.944  30.430  1.00  0.00     0.010 A 
ATOM     80  C   UNL A   1      49.046  28.071  28.287  1.00  0.00     0.010 A 
ATOM     81  C   UNL A   1      50.243  26.678  30.401  1.00  0.00     0.020 A 
ATOM     82  C   UNL A   1      50.413  27.787  28.244  1.00  0.00     0.020 A 
ATOM     83  C   UNL A   1      51.006  27.104  29.309  1.00  0.00     0.054 A 
BRANCH  83  84
ATOM     84  S   UNL A   1      52.776  26.713  29.272  1.00  0.00     0.124 S 
ATOM     85  O   UNL A   1      52.875  25.869  28.084  1.00  0.00    -0.237 OA
ATOM     86  O   UNL A   1      53.396  28.031  29.158  1.00  0.00    -0.237 OA
ATOM     87  O   UNL A   1      53.006  26.031  30.543  1.00  0.00    -0.744 OA
ENDBRANCH  83  84
ENDBRANCH  57  78
ENDBRANCH  31  32
ENDBRANCH  24  26
ENDBRANCH  23  24
ENDBRANCH  22  23
ENDBRANCH   1  22
TORSDOF 19
ENDMDL
MODEL 2
REMARK VINA RESULT:      -9.5      4.172      9.823
REMARK SMILES CC(C)[C@H]([NH2+]Cc1ccc(N(C)C)cc1)C(=O)OCCOC(=O)c1ccc(-c2c3nc(c(-c4ccc(S(=O)(=O)[O-])cc4)c4ccc([nH]4)c(-c4ccc(S(=O)(=O)[O-])cc4)c4nc(c(-c5ccc(S(=O)(=O)[O-])cc5)c5ccc2[nH]5)C=C4)C=C3)cc1
REMARK SMILES IDX 19 1 18 2 16 3 17 4 4 5 2 6 1 7 3 8 5 9 6 12 7 13 8 14 15 15
REMARK SMILES IDX 9 16 14 17 10 18 11 19 12 20 13 21 20 22 21 23 22 24 23 25
REMARK SMILES IDX 24 26 25 27 83 28 26 29 82 30 27 31 28 32 29 33 76 34 30 35
REMARK SMILES IDX 81 36 75 37 77 38 31 39 80 40 74 41 73 42 32 44 62 45 43 46
REMARK SMILES IDX 61 47 44 48 47 49 60 50 78 51 45 52 46 53 59 55 79 56 48 57
REMARK SMILES IDX 33 58 34 59 42 60 35 61 41 62 36 63 37 64 38 65 39 66 40 67
REMARK SMILES IDX 63 68 64 69 72 70 65 71 71 72 66 73 67 74 68 75 69 76 70 77
REMARK SMILES IDX 49 78 50 79 58 80 51 81 57 82 52 83 53 84 54 85 55 86 56 87
REMARK H PARENT 5 10 5 11 77 43 47 54
REMARK Flexibility Score: inf
ROOT
ATOM      1  C   UNL A   1      32.268  28.300  26.980  1.00  0.00     0.274 C 
ENDROOT
BRANCH   1   2
ATOM      2  O   UNL A   1      32.252  27.714  25.666  1.00  0.00    -0.458 OA
BRANCH   2   3
ATOM      3  C   UNL A   1      32.417  26.362  25.600  1.00  0.00     0.365 C 
ATOM      4  O   UNL A   1      33.396  25.761  26.028  1.00  0.00    -0.245 OA
BRANCH   3   5
ATOM      5  C   UNL A   1      31.281  25.651  24.830  1.00  0.00     0.296 C 
BRANCH   5   6
ATOM      6  C   UNL A   1      31.740  25.355  23.369  1.00  0.00     0.053 C 
ATOM      7  C   UNL A   1      32.874  26.268  22.889  1.00  0.00     0.014 C 
ATOM      8  C   UNL A   1      32.115  23.895  23.096  1.00  0.00     0.014 C 
ENDBRANCH   5   6
BRANCH   5   9
ATOM      9  N   UNL A   1      29.991  26.376  24.953  1.00  0.00    -0.331 N 
ATOM     10  H   UNL A   1      30.172  27.323  25.287  1.00  0.00     0.347 HD
ATOM     11  H   UNL A   1      29.399  25.867  25.610  1.00  0.00     0.347 HD
BRANCH   9  12
ATOM     12  C   UNL A   1      29.286  26.450  23.659  1.00  0.00     0.298 C 
BRANCH  12  13
ATOM     13  C   UNL A   1      29.050  27.873  23.213  1.00  0.00     0.006 A 
ATOM     14  C   UNL A   1      27.780  28.444  23.249  1.00  0.00     0.012 A 
ATOM     15  C   UNL A   1      30.090  28.638  22.680  1.00  0.00     0.012 A 
ATOM     16  C   UNL A   1      27.569  29.764  22.825  1.00  0.00     0.026 A 
ATOM     17  C   UNL A   1      29.863  29.956  22.247  1.00  0.00     0.026 A 
ATOM     18  C   UNL A   1      28.601  30.574  22.326  1.00  0.00     0.036 A 
BRANCH  18  19
ATOM     19  N   UNL A   1      28.391  31.883  21.905  1.00  0.00    -0.378 N 
ATOM     20  C   UNL A   1      28.845  33.044  22.659  1.00  0.00     0.143 C 
ATOM     21  C   UNL A   1      27.943  32.154  20.541  1.00  0.00     0.143 C 
ENDBRANCH  18  19
ENDBRANCH  12  13
ENDBRANCH   9  12
ENDBRANCH   5   9
ENDBRANCH   3   5
ENDBRANCH   2   3
ENDBRANCH   1   2
BRANCH   1  22
ATOM     22  C   UNL A   1      32.525  29.803  26.905  1.00  0.00     0.275 C 
BRANCH  22  23
ATOM     23  O   UNL A   1      33.940  30.050  26.905  1.00  0.00    -0.458 OA
BRANCH  23  24
ATOM     24  C   UNL A   1      34.339  31.183  27.525  1.00  0.00     0.338 C 
ATOM     25  O   UNL A   1      33.801  32.274  27.513  1.00  0.00    -0.246 OA
BRANCH  24  26
ATOM     26  C   UNL A   1      35.569  30.894  28.272  1.00  0.00     0.060 A 
ATOM     27  C   UNL A   1      36.610  31.826  28.274  1.00  0.00     0.016 A 
ATOM     28  C   UNL A   1      35.712  29.667  28.915  1.00  0.00     0.016 A 
ATOM     29  C   UNL A   1      37.811  31.530  28.909  1.00  0.00     0.010 A 
ATOM     30  C   UNL A   1      36.902  29.387  29.590  1.00  0.00     0.010 A 
ATOM     31  C   UNL A   1      37.961  30.313  29.584  1.00  0.00    -0.014 A 
BRANCH  31  32
ATOM     32  C   UNL A   1      39.229  29.999  30.281  1.00  0.00     0.031 A 
ATOM     33  C   UNL A   1      40.107  28.892  29.776  1.00  0.00     0.074 A 
ATOM     34  C   UNL A   1      39.577  30.702  31.376  1.00  0.00     0.049 A 
ATOM     35  N   UNL A   1      41.171  28.370  30.324  1.00  0.00    -0.248 NA
ATOM     36  C   UNL A   1      39.736  28.292  28.483  1.00  0.00     0.031 C 
ATOM     37  C   UNL A   1      38.829  31.834  31.928  1.00  0.00     0.029 A 
ATOM     38  N   UNL A   1      40.645  30.562  32.224  1.00  0.00    -0.354 N 
ATOM     39  C   UNL A   1      41.583  27.360  29.464  1.00  0.00     0.074 A 
ATOM     40  C   UNL A   1      40.649  27.339  28.359  1.00  0.00     0.031 C 
ATOM     41  C   UNL A   1      39.463  32.286  33.022  1.00  0.00     0.029 A 
ATOM     42  C   UNL A   1      40.621  31.437  33.283  1.00  0.00     0.049 A 
ATOM     43  H   UNL A   1      41.359  29.898  32.087  1.00  0.00     0.167 HD
ATOM     44  C   UNL A   1      42.640  26.524  29.592  1.00  0.00     0.031 A 
ATOM     45  C   UNL A   1      41.415  31.518  34.367  1.00  0.00     0.031 A 
ATOM     46  C   UNL A   1      43.560  26.554  30.698  1.00  0.00     0.049 A 
ATOM     47  C   UNL A   1      42.536  30.530  34.524  1.00  0.00     0.074 A 
ATOM     48  C   UNL A   1      44.669  25.754  30.918  1.00  0.00     0.029 A 
ATOM     49  N   UNL A   1      43.479  27.428  31.771  1.00  0.00    -0.354 N 
ATOM     50  N   UNL A   1      42.902  29.566  33.713  1.00  0.00    -0.248 NA
ATOM     51  C   UNL A   1      43.342  30.631  35.748  1.00  0.00     0.031 C 
ATOM     52  C   UNL A   1      45.229  26.115  32.148  1.00  0.00     0.029 A 
ATOM     53  C   UNL A   1      44.500  27.172  32.669  1.00  0.00     0.049 A 
ATOM     54  H   UNL A   1      42.795  28.128  31.877  1.00  0.00     0.167 HD
ATOM     55  C   UNL A   1      43.987  28.949  34.325  1.00  0.00     0.074 A 
ATOM     56  C   UNL A   1      44.230  29.664  35.563  1.00  0.00     0.031 C 
ATOM     57  C   UNL A   1      44.715  27.887  33.903  1.00  0.00     0.031 A 
BRANCH  44  58
ATOM     58  C   UNL A   1      42.826  25.476  28.529  1.00  0.00    -0.014 A 
ATOM     59  C   UNL A   1      43.535  25.752  27.346  1.00  0.00     0.010 A 
ATOM     60  C   UNL A   1      42.306  24.184  28.730  1.00  0.00     0.010 A 
ATOM     61  C   UNL A   1      43.688  24.765  26.367  1.00  0.00     0.020 A 
ATOM     62  C   UNL A   1      42.476  23.189  27.765  1.00  0.00     0.020 A 
ATOM     63  C   UNL A   1      43.152  23.491  26.581  1.00  0.00     0.054 A 
BRANCH  63  64
ATOM     64  S   UNL A   1      43.377  22.224  25.302  1.00  0.00     0.124 S 
ATOM     65  O   UNL A   1      43.431  23.031  24.086  1.00  0.00    -0.237 OA
ATOM     66  O   UNL A   1      44.636  21.593  25.693  1.00  0.00    -0.237 OA
ATOM     67  O   UNL A   1      42.193  21.380  25.438  1.00  0.00    -0.744 OA
ENDBRANCH  63  64
ENDBRANCH  44  58
BRANCH  45  68
ATOM     68  C   UNL A   1      41.142  32.543  35.409  1.00  0.00    -0.014 A 
ATOM     69  C   UNL A   1      41.728  33.817  35.332  1.00  0.00     0.010 A 
ATOM     70  C   UNL A   1      40.268  32.254  36.475  1.00  0.00     0.010 A 
ATOM     71  C   UNL A   1      41.452  34.783  36.305  1.00  0.00     0.020 A 
ATOM     72  C   UNL A   1      39.970  33.224  37.435  1.00  0.00     0.020 A 
ATOM     73  C   UNL A   1      40.572  34.480  37.349  1.00  0.00     0.054 A 
BRANCH  73  74
ATOM     74  S   UNL A   1      40.175  35.768  38.564  1.00  0.00     0.124 S 
ATOM     75  O   UNL A   1      39.804  36.889  37.707  1.00  0.00    -0.237 OA
ATOM     76  O   UNL A   1      39.084  35.164  39.324  1.00  0.00    -0.237 OA
ATOM     77  O   UNL A   1      41.423  35.932  39.306  1.00  0.00    -0.744 OA
ENDBRANCH  73  74
ENDBRANCH  45  68
BRANCH  57  78
ATOM     78  C   UNL A   1      45.850  27.443  34.783  1.00  0.00    -0.014 A 
ATOM     79  C   UNL A   1      47.132  28.000  34.643  1.00  0.00     0.010 A 
ATOM     80  C   UNL A   1      45.619  26.487  35.789  1.00  0.00     0.010 A 
ATOM     81  C   UNL A   1      48.174  27.589  35.478  1.00  0.00     0.020 A 
ATOM     82  C   UNL A   1      46.653  26.090  36.640  1.00  0.00     0.020 A 
ATOM     83  C   UNL A   1      47.928  26.634  36.470  1.00  0.00     0.054 A 
BRANCH  83  84
ATOM     84  S   UNL A   1      49.285  26.144  37.569  1.00  0.00     0.124 S 
ATOM     85  O   UNL A   1      49.883  27.433  37.906  1.00  0.00    -0.237 OA
ATOM     86  O   UNL A   1      48.588  25.471  38.663  1.00  0.00    -0.237 OA
ATOM     87  O   UNL A   1      50.109  25.273  36.734  1.00  0.00    -0.744 OA
ENDBRANCH  83  84
ENDBRANCH  57  78
ENDBRANCH  31  32
ENDBRANCH  24  26
ENDBRANCH  23  24
ENDBRANCH  22  23
ENDBRANCH   1  22
TORSDOF 19
ENDMDL
MODEL 3
REMARK VINA RESULT:      -9.5      2.845      9.508
REMARK SMILES CC(C)[C@H]([NH2+]Cc1ccc(N(C)C)cc1)C(=O)OCCOC(=O)c1ccc(-c2c3nc(c(-c4ccc(S(=O)(=O)[O-])cc4)c4ccc([nH]4)c(-c4ccc(S(=O)(=O)[O-])cc4)c4nc(c(-c5ccc(S(=O)(=O)[O-])cc5)c5ccc2[nH]5)C=C4)C=C3)cc1
REMARK SMILES IDX 19 1 18 2 16 3 17 4 4 5 2 6 1 7 3 8 5 9 6 12 7 13 8 14 15 15
REMARK SMILES IDX 9 16 14 17 10 18 11 19 12 20 13 21 20 22 21 23 22 24 23 25
REMARK SMILES IDX 24 26 25 27 83 28 26 29 82 30 27 31 28 32 29 33 76 34 30 35
REMARK SMILES IDX 81 36 75 37 77 38 31 39 80 40 74 41 73 42 32 44 62 45 43 46
REMARK SMILES IDX 61 47 44 48 47 49 60 50 78 51 45 52 46 53 59 55 79 56 48 57
REMARK SMILES IDX 33 58 34 59 42 60 35 61 41 62 36 63 37 64 38 65 39 66 40 67
REMARK SMILES IDX 63 68 64 69 72 70 65 71 71 72 66 73 67 74 68 75 69 76 70 77
REMARK SMILES IDX 49 78 50 79 58 80 51 81 57 82 52 83 53 84 54 85 55 86 56 87
REMARK H PARENT 5 10 5 11 77 43 47 54
REMARK Flexibility Score: inf
ROOT
ATOM      1  C   UNL A   1      35.788  21.585  25.539  1.00  0.00     0.274 C 
ENDROOT
BRANCH   1   2
ATOM      2  O   UNL A   1      35.060  20.871  24.523  1.00  0.00    -0.458 OA
BRANCH   2   3
ATOM      3  C   UNL A   1      33.758  21.233  24.339  1.00  0.00     0.365 C 
ATOM      4  O   UNL A   1      33.370  22.013  23.475  1.00  0.00    -0.245 OA
BRANCH   3   5
ATOM      5  C   UNL A   1      32.809  20.638  25.403  1.00  0.00     0.296 C 
BRANCH   5   6
ATOM      6  C   UNL A   1      32.324  19.228  24.946  1.00  0.00     0.053 C 
ATOM      7  C   UNL A   1      32.525  18.970  23.448  1.00  0.00     0.014 C 
ATOM      8  C   UNL A   1      32.907  18.058  25.744  1.00  0.00     0.014 C 
ENDBRANCH   5   6
BRANCH   5   9
ATOM      9  N   UNL A   1      31.729  21.588  25.775  1.00  0.00    -0.331 N 
ATOM     10  H   UNL A   1      30.911  21.060  26.078  1.00  0.00     0.347 HD
ATOM     11  H   UNL A   1      31.510  22.160  24.958  1.00  0.00     0.347 HD
BRANCH   9  12
ATOM     12  C   UNL A   1      32.152  22.486  26.866  1.00  0.00     0.298 C 
BRANCH  12  13
ATOM     13  C   UNL A   1      32.272  23.923  26.416  1.00  0.00     0.006 A 
ATOM     14  C   UNL A   1      33.495  24.459  26.022  1.00  0.00     0.012 A 
ATOM     15  C   UNL A   1      31.169  24.779  26.451  1.00  0.00     0.012 A 
ATOM     16  C   UNL A   1      33.599  25.797  25.613  1.00  0.00     0.026 A 
ATOM     17  C   UNL A   1      31.288  26.120  26.050  1.00  0.00     0.026 A 
ATOM     18  C   UNL A   1      32.501  26.671  25.594  1.00  0.00     0.036 A 
BRANCH  18  19
ATOM     19  N   UNL A   1      32.604  27.998  25.189  1.00  0.00    -0.378 N 
ATOM     20  C   UNL A   1      33.834  28.575  24.662  1.00  0.00     0.143 C 
ATOM     21  C   UNL A   1      31.403  28.810  25.014  1.00  0.00     0.143 C 
ENDBRANCH  18  19
ENDBRANCH  12  13
ENDBRANCH   9  12
ENDBRANCH   5   9
ENDBRANCH   3   5
ENDBRANCH   2   3
ENDBRANCH   1   2
BRANCH   1  22
ATOM     22  C   UNL A   1      36.830  22.509  24.916  1.00  0.00     0.275 C 
BRANCH  22  23
ATOM     23  O   UNL A   1      37.377  23.369  25.928  1.00  0.00    -0.458 OA
BRANCH  23  24
ATOM     24  C   UNL A   1      38.656  23.118  26.286  1.00  0.00     0.338 C 
ATOM     25  O   UNL A   1      39.289  22.089  26.136  1.00  0.00    -0.246 OA
BRANCH  24  26
ATOM     26  C   UNL A   1      39.215  24.331  26.895  1.00  0.00     0.060 A 
ATOM     27  C   UNL A   1      38.910  24.639  28.223  1.00  0.00     0.016 A 
ATOM     28  C   UNL A   1      39.988  25.195  26.124  1.00  0.00     0.016 A 
ATOM     29  C   UNL A   1      39.365  25.826  28.787  1.00  0.00     0.010 A 
ATOM     30  C   UNL A   1      40.481  26.366  26.703  1.00  0.00     0.010 A 
ATOM     31  C   UNL A   1      40.166  26.693  28.034  1.00  0.00    -0.014 A 
BRANCH  31  32
ATOM     32  C   UNL A   1      40.673  27.948  28.634  1.00  0.00     0.031 A 
ATOM     33  C   UNL A   1      42.095  28.031  29.105  1.00  0.00     0.074 A 
ATOM     34  C   UNL A   1      39.846  29.003  28.765  1.00  0.00     0.049 A 
ATOM     35  N   UNL A   1      42.683  28.979  29.784  1.00  0.00    -0.248 NA
ATOM     36  C   UNL A   1      42.969  26.894  28.771  1.00  0.00     0.031 C 
ATOM     37  C   UNL A   1      38.460  29.056  28.295  1.00  0.00     0.029 A 
ATOM     38  N   UNL A   1      40.051  30.230  29.340  1.00  0.00    -0.354 N 
ATOM     39  C   UNL A   1      43.987  28.545  29.987  1.00  0.00     0.074 A 
ATOM     40  C   UNL A   1      44.102  27.244  29.363  1.00  0.00     0.031 C 
ATOM     41  C   UNL A   1      37.940  30.256  28.600  1.00  0.00     0.029 A 
ATOM     42  C   UNL A   1      38.932  31.027  29.341  1.00  0.00     0.049 A 
ATOM     43  H   UNL A   1      40.916  30.513  29.716  1.00  0.00     0.167 HD
ATOM     44  C   UNL A   1      44.991  29.175  30.641  1.00  0.00     0.031 A 
ATOM     45  C   UNL A   1      38.714  32.227  29.914  1.00  0.00     0.031 A 
ATOM     46  C   UNL A   1      44.863  30.468  31.259  1.00  0.00     0.049 A 
ATOM     47  C   UNL A   1      39.821  32.870  30.700  1.00  0.00     0.074 A 
ATOM     48  C   UNL A   1      45.823  31.197  31.940  1.00  0.00     0.029 A 
ATOM     49  N   UNL A   1      43.702  31.226  31.273  1.00  0.00    -0.354 N 
ATOM     50  N   UNL A   1      41.044  32.440  30.901  1.00  0.00    -0.248 NA
ATOM     51  C   UNL A   1      39.517  34.154  31.345  1.00  0.00     0.031 C 
ATOM     52  C   UNL A   1      45.228  32.374  32.406  1.00  0.00     0.029 A 
ATOM     53  C   UNL A   1      43.912  32.402  31.973  1.00  0.00     0.049 A 
ATOM     54  H   UNL A   1      42.854  30.966  30.848  1.00  0.00     0.167 HD
ATOM     55  C   UNL A   1      41.658  33.404  31.692  1.00  0.00     0.074 A 
ATOM     56  C   UNL A   1      40.678  34.449  31.913  1.00  0.00     0.031 C 
ATOM     57  C   UNL A   1      42.918  33.422  32.193  1.00  0.00     0.031 A 
BRANCH  44  58
ATOM     58  C   UNL A   1      46.303  28.448  30.760  1.00  0.00    -0.014 A 
ATOM     59  C   UNL A   1      46.552  27.560  31.822  1.00  0.00     0.010 A 
ATOM     60  C   UNL A   1      47.293  28.637  29.779  1.00  0.00     0.010 A 
ATOM     61  C   UNL A   1      47.782  26.902  31.919  1.00  0.00     0.020 A 
ATOM     62  C   UNL A   1      48.515  27.965  29.860  1.00  0.00     0.020 A 
ATOM     63  C   UNL A   1      48.758  27.114  30.940  1.00  0.00     0.054 A 
BRANCH  63  64
ATOM     64  S   UNL A   1      50.340  26.236  31.080  1.00  0.00     0.124 S 
ATOM     65  O   UNL A   1      49.988  25.119  31.952  1.00  0.00    -0.237 OA
ATOM     66  O   UNL A   1      50.636  25.881  29.694  1.00  0.00    -0.237 OA
ATOM     67  O   UNL A   1      51.236  27.228  31.670  1.00  0.00    -0.744 OA
ENDBRANCH  63  64
ENDBRANCH  44  58
BRANCH  45  68
ATOM     68  C   UNL A   1      37.376  32.865  29.806  1.00  0.00    -0.014 A 
ATOM     69  C   UNL A   1      36.481  32.842  30.888  1.00  0.00     0.010 A 
ATOM     70  C   UNL A   1      36.999  33.524  28.620  1.00  0.00     0.010 A 
ATOM     71  C   UNL A   1      35.231  33.460  30.787  1.00  0.00     0.020 A 
ATOM     72  C   UNL A   1      35.762  34.165  28.523  1.00  0.00     0.020 A 
ATOM     73  C   UNL A   1      34.881  34.120  29.605  1.00  0.00     0.054 A 
BRANCH  73  74
ATOM     74  S   UNL A   1      33.282  34.974  29.516  1.00  0.00     0.124 S 
ATOM     75  O   UNL A   1      32.535  34.122  28.596  1.00  0.00    -0.237 OA
ATOM     76  O   UNL A   1      32.832  34.953  30.906  1.00  0.00    -0.237 OA
ATOM     77  O   UNL A   1      33.630  36.297  29.003  1.00  0.00    -0.744 OA
ENDBRANCH  73  74
ENDBRANCH  45  68
BRANCH  57  78
ATOM     78  C   UNL A   1      43.308  34.617  33.017  1.00  0.00    -0.014 A 
ATOM     79  C   UNL A   1      43.858  35.761  32.415  1.00  0.00     0.010 A 
ATOM     80  C   UNL A   1      43.082  34.609  34.406  1.00  0.00     0.010 A 
ATOM     81  C   UNL A   1      44.202  36.870  33.192  1.00  0.00     0.020 A 
ATOM     82  C   UNL A   1      43.404  35.725  35.182  1.00  0.00     0.020 A 
ATOM     83  C   UNL A   1      43.976  36.844  34.571  1.00  0.00     0.054 A 
BRANCH  83  84
ATOM     84  S   UNL A   1      44.392  38.309  35.556  1.00  0.00     0.124 S 
ATOM     85  O   UNL A   1      45.852  38.279  35.541  1.00  0.00    -0.237 OA
ATOM     86  O   UNL A   1      43.778  39.395  34.794  1.00  0.00    -0.237 OA
ATOM     87  O   UNL A   1      43.775  38.040  36.853  1.00  0.00    -0.744 OA
ENDBRANCH  83  84
ENDBRANCH  57  78
ENDBRANCH  31  32
ENDBRANCH  24  26
ENDBRANCH  23  24
ENDBRANCH  22  23
ENDBRANCH   1  22
TORSDOF 19
ENDMDL
