MODEL 1
REMARK VINA RESULT:     -10.6      0.000      0.000
REMARK SMILES Cn1ncc(C(=O)OCCOC(=O)c2ccc(-c3c4nc(c(-c5ccc(S(=O)(=O)[O-])cc5)c5ccc([nH]5)c(-c5ccc(S(=O)(=O)[O-])cc5)c5nc(c(-c6ccc(S(=O)(=O)[O-])cc6)c6ccc3[nH]6)C=C5)C=C4)cc2)c1C(=O)Nc1ccccn1
REMARK SMILES IDX 10 1 9 2 8 3 6 4 7 5 5 6 1 7 2 8 3 9 74 10 4 11 75 12 76 13
REMARK SMILES IDX 77 14 78 16 79 17 83 18 80 19 82 20 81 21 11 22 12 23 13 24
REMARK SMILES IDX 14 25 15 26 73 27 16 28 72 29 17 30 18 31 19 32 66 33 20 34
REMARK SMILES IDX 71 35 65 36 67 37 21 38 70 39 64 40 63 41 22 43 52 44 33 45
REMARK SMILES IDX 51 46 34 47 37 48 50 49 68 50 35 51 36 52 49 54 69 55 38 56
REMARK SMILES IDX 23 57 24 58 32 59 25 60 31 61 26 62 27 63 28 64 29 65 30 66
REMARK SMILES IDX 53 67 54 68 62 69 55 70 61 71 56 72 57 73 58 74 59 75 60 76
REMARK SMILES IDX 39 77 40 78 48 79 41 80 47 81 42 82 43 83 44 84 45 85 46 86
REMARK H PARENT 77 15 67 42 37 53
REMARK Flexibility Score: inf
ROOT
ATOM      1  C   UNL A   1      33.887  33.039  28.415  1.00  0.00     0.275 C 
ENDROOT
BRANCH   1   2
ATOM      2  C   UNL A   1      34.615  33.669  29.602  1.00  0.00     0.275 C 
BRANCH   2   3
ATOM      3  O   UNL A   1      34.402  32.899  30.803  1.00  0.00    -0.458 OA
BRANCH   3   4
ATOM      4  C   UNL A   1      35.525  32.406  31.394  1.00  0.00     0.342 C 
ATOM      5  O   UNL A   1      35.779  31.209  31.499  1.00  0.00    -0.246 OA
BRANCH   4   6
ATOM      6  C   UNL A   1      36.487  33.412  31.808  1.00  0.00     0.111 A 
ATOM      7  C   UNL A   1      38.891  34.712  33.998  1.00  0.00     0.174 C 
ATOM      8  N   UNL A   1      37.886  34.610  32.963  1.00  0.00    -0.262 N 
ATOM      9  N   UNL A   1      38.374  34.677  31.715  1.00  0.00    -0.180 NA
ATOM     10  C   UNL A   1      36.594  34.110  33.021  1.00  0.00     0.140 A 
ATOM     11  C   UNL A   1      37.629  33.789  31.072  1.00  0.00     0.151 A 
BRANCH  10  12
ATOM     12  C   UNL A   1      35.666  34.043  34.136  1.00  0.00     0.275 C 
ATOM     13  O   UNL A   1      35.903  33.338  35.122  1.00  0.00    -0.267 OA
ATOM     14  N   UNL A   1      34.537  34.814  34.237  1.00  0.00    -0.305 N 
ATOM     15  H   UNL A   1      34.074  34.723  35.102  1.00  0.00     0.171 HD
BRANCH  14  16
ATOM     16  C   UNL A   1      33.917  35.692  33.367  1.00  0.00     0.132 A 
ATOM     17  C   UNL A   1      32.973  35.306  32.428  1.00  0.00     0.047 A 
ATOM     18  N   UNL A   1      34.393  36.951  33.462  1.00  0.00    -0.239 NA
ATOM     19  C   UNL A   1      32.571  36.247  31.480  1.00  0.00     0.005 A 
ATOM     20  C   UNL A   1      34.028  37.825  32.501  1.00  0.00     0.113 A 
ATOM     21  C   UNL A   1      33.138  37.518  31.490  1.00  0.00     0.020 A 
ENDBRANCH  14  16
ENDBRANCH  10  12
ENDBRANCH   4   6
ENDBRANCH   3   4
ENDBRANCH   2   3
ENDBRANCH   1   2
BRANCH   1  22
ATOM     22  O   UNL A   1      34.824  32.391  27.534  1.00  0.00    -0.458 OA
BRANCH  22  23
ATOM     23  C   UNL A   1      34.852  31.040  27.627  1.00  0.00     0.338 C 
ATOM     24  O   UNL A   1      33.968  30.259  27.329  1.00  0.00    -0.246 OA
BRANCH  23  25
ATOM     25  C   UNL A   1      36.185  30.594  28.059  1.00  0.00     0.060 A 
ATOM     26  C   UNL A   1      36.294  29.328  28.618  1.00  0.00     0.016 A 
ATOM     27  C   UNL A   1      37.264  31.470  28.103  1.00  0.00     0.016 A 
ATOM     28  C   UNL A   1      37.417  28.982  29.362  1.00  0.00     0.010 A 
ATOM     29  C   UNL A   1      38.453  31.060  28.725  1.00  0.00     0.010 A 
ATOM     30  C   UNL A   1      38.530  29.830  29.408  1.00  0.00    -0.014 A 
BRANCH  30  31
ATOM     31  C   UNL A   1      39.750  29.435  30.179  1.00  0.00     0.031 A 
ATOM     32  C   UNL A   1      40.654  28.337  29.669  1.00  0.00     0.074 A 
ATOM     33  C   UNL A   1      40.063  30.062  31.333  1.00  0.00     0.049 A 
ATOM     34  N   UNL A   1      41.642  27.729  30.279  1.00  0.00    -0.248 NA
ATOM     35  C   UNL A   1      40.406  27.845  28.304  1.00  0.00     0.031 C 
ATOM     36  C   UNL A   1      39.322  31.179  31.927  1.00  0.00     0.029 A 
ATOM     37  N   UNL A   1      41.095  29.854  32.218  1.00  0.00    -0.354 N 
ATOM     38  C   UNL A   1      42.090  26.748  29.399  1.00  0.00     0.074 A 
ATOM     39  C   UNL A   1      41.259  26.834  28.217  1.00  0.00     0.031 C 
ATOM     40  C   UNL A   1      39.945  31.585  33.041  1.00  0.00     0.029 A 
ATOM     41  C   UNL A   1      41.063  30.691  33.310  1.00  0.00     0.049 A 
ATOM     42  H   UNL A   1      41.792  29.171  32.082  1.00  0.00     0.167 HD
ATOM     43  C   UNL A   1      43.098  25.856  29.562  1.00  0.00     0.031 A 
ATOM     44  C   UNL A   1      41.805  30.712  34.435  1.00  0.00     0.031 A 
ATOM     45  C   UNL A   1      43.949  25.803  30.724  1.00  0.00     0.049 A 
ATOM     46  C   UNL A   1      42.875  29.675  34.620  1.00  0.00     0.074 A 
ATOM     47  C   UNL A   1      45.007  24.947  30.975  1.00  0.00     0.029 A 
ATOM     48  N   UNL A   1      43.848  26.644  31.821  1.00  0.00    -0.354 N 
ATOM     49  N   UNL A   1      43.255  28.727  33.797  1.00  0.00    -0.248 NA
ATOM     50  C   UNL A   1      43.609  29.701  35.892  1.00  0.00     0.031 C 
ATOM     51  C   UNL A   1      45.509  25.232  32.249  1.00  0.00     0.029 A 
ATOM     52  C   UNL A   1      44.807  26.310  32.764  1.00  0.00     0.049 A 
ATOM     53  H   UNL A   1      43.191  27.370  31.917  1.00  0.00     0.167 HD
ATOM     54  C   UNL A   1      44.283  28.054  34.445  1.00  0.00     0.074 A 
ATOM     55  C   UNL A   1      44.483  28.719  35.717  1.00  0.00     0.031 C 
ATOM     56  C   UNL A   1      44.995  26.980  34.026  1.00  0.00     0.031 A 
BRANCH  43  57
ATOM     57  C   UNL A   1      43.316  24.831  28.476  1.00  0.00    -0.014 A 
ATOM     58  C   UNL A   1      42.607  23.615  28.451  1.00  0.00     0.010 A 
ATOM     59  C   UNL A   1      44.214  25.115  27.429  1.00  0.00     0.010 A 
ATOM     60  C   UNL A   1      42.824  22.691  27.424  1.00  0.00     0.020 A 
ATOM     61  C   UNL A   1      44.409  24.208  26.384  1.00  0.00     0.020 A 
ATOM     62  C   UNL A   1      43.725  22.992  26.398  1.00  0.00     0.054 A 
BRANCH  62  63
ATOM     63  S   UNL A   1      43.966  21.784  25.065  1.00  0.00     0.124 S 
ATOM     64  O   UNL A   1      43.651  22.578  23.879  1.00  0.00    -0.237 OA
ATOM     65  O   UNL A   1      45.372  21.416  25.218  1.00  0.00    -0.237 OA
ATOM     66  O   UNL A   1      43.010  20.724  25.376  1.00  0.00    -0.744 OA
ENDBRANCH  62  63
ENDBRANCH  43  57
BRANCH  44  67
ATOM     67  C   UNL A   1      41.514  31.712  35.502  1.00  0.00    -0.014 A 
ATOM     68  C   UNL A   1      42.326  32.847  35.664  1.00  0.00     0.010 A 
ATOM     69  C   UNL A   1      40.410  31.536  36.357  1.00  0.00     0.010 A 
ATOM     70  C   UNL A   1      42.049  33.778  36.671  1.00  0.00     0.020 A 
ATOM     71  C   UNL A   1      40.108  32.482  37.340  1.00  0.00     0.020 A 
ATOM     72  C   UNL A   1      40.939  33.591  37.500  1.00  0.00     0.054 A 
BRANCH  72  73
ATOM     73  S   UNL A   1      40.571  34.836  38.768  1.00  0.00     0.124 S 
ATOM     74  O   UNL A   1      41.366  34.364  39.896  1.00  0.00    -0.237 OA
ATOM     75  O   UNL A   1      41.033  36.071  38.139  1.00  0.00    -0.237 OA
ATOM     76  O   UNL A   1      39.124  34.736  38.936  1.00  0.00    -0.744 OA
ENDBRANCH  72  73
ENDBRANCH  44  67
BRANCH  56  77
ATOM     77  C   UNL A   1      46.085  26.477  34.936  1.00  0.00    -0.014 A 
ATOM     78  C   UNL A   1      47.385  27.008  34.882  1.00  0.00     0.010 A 
ATOM     79  C   UNL A   1      45.786  25.488  35.891  1.00  0.00     0.010 A 
ATOM     80  C   UNL A   1      48.376  26.534  35.746  1.00  0.00     0.020 A 
ATOM     81  C   UNL A   1      46.766  25.035  36.778  1.00  0.00     0.020 A 
ATOM     82  C   UNL A   1      48.060  25.552  36.689  1.00  0.00     0.054 A 
BRANCH  82  83
ATOM     83  S   UNL A   1      49.353  24.988  37.828  1.00  0.00     0.124 S 
ATOM     84  O   UNL A   1      50.530  24.966  36.966  1.00  0.00    -0.237 OA
ATOM     85  O   UNL A   1      49.348  26.026  38.857  1.00  0.00    -0.237 OA
ATOM     86  O   UNL A   1      48.880  23.678  38.271  1.00  0.00    -0.744 OA
ENDBRANCH  82  83
ENDBRANCH  56  77
ENDBRANCH  30  31
ENDBRANCH  23  25
ENDBRANCH  22  23
ENDBRANCH   1  22
TORSDOF 16
ENDMDL
MODEL 2
REMARK VINA RESULT:     -10.6      5.292     11.022
REMARK SMILES Cn1ncc(C(=O)OCCOC(=O)c2ccc(-c3c4nc(c(-c5ccc(S(=O)(=O)[O-])cc5)c5ccc([nH]5)c(-c5ccc(S(=O)(=O)[O-])cc5)c5nc(c(-c6ccc(S(=O)(=O)[O-])cc6)c6ccc3[nH]6)C=C5)C=C4)cc2)c1C(=O)Nc1ccccn1
REMARK SMILES IDX 10 1 9 2 8 3 6 4 7 5 5 6 1 7 2 8 3 9 74 10 4 11 75 12 76 13
REMARK SMILES IDX 77 14 78 16 79 17 83 18 80 19 82 20 81 21 11 22 12 23 13 24
REMARK SMILES IDX 14 25 15 26 73 27 16 28 72 29 17 30 18 31 19 32 66 33 20 34
REMARK SMILES IDX 71 35 65 36 67 37 21 38 70 39 64 40 63 41 22 43 52 44 33 45
REMARK SMILES IDX 51 46 34 47 37 48 50 49 68 50 35 51 36 52 49 54 69 55 38 56
REMARK SMILES IDX 23 57 24 58 32 59 25 60 31 61 26 62 27 63 28 64 29 65 30 66
REMARK SMILES IDX 53 67 54 68 62 69 55 70 61 71 56 72 57 73 58 74 59 75 60 76
REMARK SMILES IDX 39 77 40 78 48 79 41 80 47 81 42 82 43 83 44 84 45 85 46 86
REMARK H PARENT 77 15 67 42 37 53
REMARK Flexibility Score: inf
ROOT
ATOM      1  C   UNL A   1      39.275  23.447  26.870  1.00  0.00     0.275 C 
ENDROOT
BRANCH   1   2
ATOM      2  C   UNL A   1      38.366  22.607  25.974  1.00  0.00     0.275 C 
BRANCH   2   3
ATOM      3  O   UNL A   1      37.059  23.207  25.860  1.00  0.00    -0.458 OA
BRANCH   3   4
ATOM      4  C   UNL A   1      36.026  22.340  25.679  1.00  0.00     0.342 C 
ATOM      5  O   UNL A   1      35.702  21.475  26.489  1.00  0.00    -0.246 OA
BRANCH   4   6
ATOM      6  C   UNL A   1      35.235  22.575  24.484  1.00  0.00     0.111 A 
ATOM      7  C   UNL A   1      32.494  23.930  22.776  1.00  0.00     0.174 C 
ATOM      8  N   UNL A   1      33.632  23.103  23.114  1.00  0.00    -0.262 N 
ATOM      9  N   UNL A   1      34.743  23.386  22.417  1.00  0.00    -0.180 NA
ATOM     10  C   UNL A   1      33.873  22.338  24.245  1.00  0.00     0.140 A 
ATOM     11  C   UNL A   1      35.693  23.247  23.331  1.00  0.00     0.151 A 
BRANCH  10  12
ATOM     12  C   UNL A   1      32.942  21.687  25.150  1.00  0.00     0.275 C 
ATOM     13  O   UNL A   1      32.319  22.333  25.998  1.00  0.00    -0.267 OA
ATOM     14  N   UNL A   1      32.603  20.361  25.073  1.00  0.00    -0.305 N 
ATOM     15  H   UNL A   1      31.881  20.103  25.692  1.00  0.00     0.171 HD
BRANCH  14  16
ATOM     16  C   UNL A   1      33.073  19.314  24.302  1.00  0.00     0.132 A 
ATOM     17  C   UNL A   1      32.364  18.758  23.247  1.00  0.00     0.047 A 
ATOM     18  N   UNL A   1      34.252  18.825  24.738  1.00  0.00    -0.239 NA
ATOM     19  C   UNL A   1      32.855  17.583  22.677  1.00  0.00     0.005 A 
ATOM     20  C   UNL A   1      34.675  17.661  24.206  1.00  0.00     0.113 A 
ATOM     21  C   UNL A   1      34.010  16.999  23.192  1.00  0.00     0.020 A 
ENDBRANCH  14  16
ENDBRANCH  10  12
ENDBRANCH   4   6
ENDBRANCH   3   4
ENDBRANCH   2   3
ENDBRANCH   1   2
BRANCH   1  22
ATOM     22  O   UNL A   1      38.814  24.811  26.921  1.00  0.00    -0.458 OA
BRANCH  22  23
ATOM     23  C   UNL A   1      39.792  25.745  26.866  1.00  0.00     0.338 C 
ATOM     24  O   UNL A   1      40.646  25.874  26.009  1.00  0.00    -0.246 OA
BRANCH  23  25
ATOM     25  C   UNL A   1      39.636  26.702  27.972  1.00  0.00     0.060 A 
ATOM     26  C   UNL A   1      40.219  27.954  27.833  1.00  0.00     0.016 A 
ATOM     27  C   UNL A   1      39.106  26.314  29.198  1.00  0.00     0.016 A 
ATOM     28  C   UNL A   1      40.423  28.762  28.946  1.00  0.00     0.010 A 
ATOM     29  C   UNL A   1      39.178  27.197  30.285  1.00  0.00     0.010 A 
ATOM     30  C   UNL A   1      39.883  28.413  30.189  1.00  0.00    -0.014 A 
BRANCH  30  31
ATOM     31  C   UNL A   1      40.072  29.306  31.374  1.00  0.00     0.031 A 
ATOM     32  C   UNL A   1      41.270  29.134  32.278  1.00  0.00     0.074 A 
ATOM     33  C   UNL A   1      39.180  30.284  31.643  1.00  0.00     0.049 A 
ATOM     34  N   UNL A   1      41.511  29.678  33.445  1.00  0.00    -0.248 NA
ATOM     35  C   UNL A   1      42.328  28.218  31.820  1.00  0.00     0.031 C 
ATOM     36  C   UNL A   1      38.004  30.614  30.833  1.00  0.00     0.029 A 
ATOM     37  N   UNL A   1      39.126  31.192  32.675  1.00  0.00    -0.354 N 
ATOM     38  C   UNL A   1      42.710  29.126  33.886  1.00  0.00     0.074 A 
ATOM     39  C   UNL A   1      43.144  28.196  32.866  1.00  0.00     0.031 C 
ATOM     40  C   UNL A   1      37.377  31.671  31.367  1.00  0.00     0.029 A 
ATOM     41  C   UNL A   1      38.033  32.027  32.618  1.00  0.00     0.049 A 
ATOM     42  H   UNL A   1      39.805  31.240  33.386  1.00  0.00     0.167 HD
ATOM     43  C   UNL A   1      43.387  29.370  35.036  1.00  0.00     0.031 A 
ATOM     44  C   UNL A   1      37.566  32.939  33.493  1.00  0.00     0.031 A 
ATOM     45  C   UNL A   1      42.972  30.329  36.029  1.00  0.00     0.049 A 
ATOM     46  C   UNL A   1      38.298  33.147  34.787  1.00  0.00     0.074 A 
ATOM     47  C   UNL A   1      43.598  30.659  37.218  1.00  0.00     0.029 A 
ATOM     48  N   UNL A   1      41.834  31.117  35.945  1.00  0.00    -0.354 N 
ATOM     49  N   UNL A   1      39.405  32.583  35.207  1.00  0.00    -0.248 NA
ATOM     50  C   UNL A   1      37.710  34.104  35.734  1.00  0.00     0.031 C 
ATOM     51  C   UNL A   1      42.809  31.605  37.881  1.00  0.00     0.029 A 
ATOM     52  C   UNL A   1      41.726  31.914  37.073  1.00  0.00     0.049 A 
ATOM     53  H   UNL A   1      41.197  31.111  35.195  1.00  0.00     0.167 HD
ATOM     54  C   UNL A   1      39.656  33.130  36.459  1.00  0.00     0.074 A 
ATOM     55  C   UNL A   1      38.598  34.087  36.718  1.00  0.00     0.031 C 
ATOM     56  C   UNL A   1      40.669  32.861  37.319  1.00  0.00     0.031 A 
BRANCH  43  57
ATOM     57  C   UNL A   1      44.629  28.558  35.310  1.00  0.00    -0.014 A 
ATOM     58  C   UNL A   1      45.908  29.010  34.935  1.00  0.00     0.010 A 
ATOM     59  C   UNL A   1      44.515  27.338  36.004  1.00  0.00     0.010 A 
ATOM     60  C   UNL A   1      47.041  28.238  35.214  1.00  0.00     0.020 A 
ATOM     61  C   UNL A   1      45.648  26.580  36.313  1.00  0.00     0.020 A 
ATOM     62  C   UNL A   1      46.904  27.027  35.900  1.00  0.00     0.054 A 
BRANCH  62  63
ATOM     63  S   UNL A   1      48.394  26.060  36.270  1.00  0.00     0.124 S 
ATOM     64  O   UNL A   1      49.309  27.091  36.756  1.00  0.00    -0.237 OA
ATOM     65  O   UNL A   1      47.921  25.117  37.280  1.00  0.00    -0.237 OA
ATOM     66  O   UNL A   1      48.753  25.465  34.985  1.00  0.00    -0.744 OA
ENDBRANCH  62  63
ENDBRANCH  43  57
BRANCH  44  67
ATOM     67  C   UNL A   1      36.304  33.676  33.199  1.00  0.00    -0.014 A 
ATOM     68  C   UNL A   1      36.333  34.924  32.553  1.00  0.00     0.010 A 
ATOM     69  C   UNL A   1      35.059  33.124  33.559  1.00  0.00     0.010 A 
ATOM     70  C   UNL A   1      35.145  35.611  32.286  1.00  0.00     0.020 A 
ATOM     71  C   UNL A   1      33.868  33.790  33.261  1.00  0.00     0.020 A 
ATOM     72  C   UNL A   1      33.919  35.038  32.638  1.00  0.00     0.054 A 
BRANCH  72  73
ATOM     73  S   UNL A   1      32.388  35.926  32.239  1.00  0.00     0.124 S 
ATOM     74  O   UNL A   1      32.528  36.140  30.802  1.00  0.00    -0.237 OA
ATOM     75  O   UNL A   1      31.357  34.972  32.640  1.00  0.00    -0.237 OA
ATOM     76  O   UNL A   1      32.466  37.129  33.062  1.00  0.00    -0.744 OA
ENDBRANCH  72  73
ENDBRANCH  44  67
BRANCH  56  77
ATOM     77  C   UNL A   1      40.704  33.639  38.608  1.00  0.00    -0.014 A 
ATOM     78  C   UNL A   1      41.401  34.856  38.708  1.00  0.00     0.010 A 
ATOM     79  C   UNL A   1      39.988  33.164  39.723  1.00  0.00     0.010 A 
ATOM     80  C   UNL A   1      41.408  35.568  39.911  1.00  0.00     0.020 A 
ATOM     81  C   UNL A   1      39.968  33.888  40.917  1.00  0.00     0.020 A 
ATOM     82  C   UNL A   1      40.690  35.079  41.008  1.00  0.00     0.054 A 
BRANCH  82  83
ATOM     83  S   UNL A   1      40.679  36.045  42.542  1.00  0.00     0.124 S 
ATOM     84  O   UNL A   1      40.796  37.411  42.043  1.00  0.00    -0.237 OA
ATOM     85  O   UNL A   1      39.386  35.698  43.129  1.00  0.00    -0.237 OA
ATOM     86  O   UNL A   1      41.842  35.548  43.275  1.00  0.00    -0.744 OA
ENDBRANCH  82  83
ENDBRANCH  56  77
ENDBRANCH  30  31
ENDBRANCH  23  25
ENDBRANCH  22  23
ENDBRANCH   1  22
TORSDOF 16
ENDMDL
MODEL 3
REMARK VINA RESULT:     -10.6      6.715      8.662
REMARK SMILES Cn1ncc(C(=O)OCCOC(=O)c2ccc(-c3c4nc(c(-c5ccc(S(=O)(=O)[O-])cc5)c5ccc([nH]5)c(-c5ccc(S(=O)(=O)[O-])cc5)c5nc(c(-c6ccc(S(=O)(=O)[O-])cc6)c6ccc3[nH]6)C=C5)C=C4)cc2)c1C(=O)Nc1ccccn1
REMARK SMILES IDX 10 1 9 2 8 3 6 4 7 5 5 6 1 7 2 8 3 9 74 10 4 11 75 12 76 13
REMARK SMILES IDX 77 14 78 16 79 17 83 18 80 19 82 20 81 21 11 22 12 23 13 24
REMARK SMILES IDX 14 25 15 26 73 27 16 28 72 29 17 30 18 31 19 32 66 33 20 34
REMARK SMILES IDX 71 35 65 36 67 37 21 38 70 39 64 40 63 41 22 43 52 44 33 45
REMARK SMILES IDX 51 46 34 47 37 48 50 49 68 50 35 51 36 52 49 54 69 55 38 56
REMARK SMILES IDX 23 57 24 58 32 59 25 60 31 61 26 62 27 63 28 64 29 65 30 66
REMARK SMILES IDX 53 67 54 68 62 69 55 70 61 71 56 72 57 73 58 74 59 75 60 76
REMARK SMILES IDX 39 77 40 78 48 79 41 80 47 81 42 82 43 83 44 84 45 85 46 86
REMARK H PARENT 77 15 67 42 37 53
REMARK Flexibility Score: inf
ROOT
ATOM      1  C   UNL A   1      36.114  31.107  28.025  1.00  0.00     0.275 C 
ENDROOT
BRANCH   1   2
ATOM      2  C   UNL A   1      34.631  31.357  27.754  1.00  0.00     0.275 C 
BRANCH   2   3
ATOM      3  O   UNL A   1      33.956  30.129  27.410  1.00  0.00    -0.458 OA
BRANCH   3   4
ATOM      4  C   UNL A   1      32.667  30.261  26.995  1.00  0.00     0.342 C 
ATOM      5  O   UNL A   1      32.124  31.339  26.766  1.00  0.00    -0.246 OA
BRANCH   4   6
ATOM      6  C   UNL A   1      31.983  29.009  26.724  1.00  0.00     0.111 A 
ATOM      7  C   UNL A   1      31.822  25.762  25.420  1.00  0.00     0.174 C 
ATOM      8  N   UNL A   1      31.437  27.058  25.934  1.00  0.00    -0.262 N 
ATOM      9  N   UNL A   1      30.959  27.032  27.187  1.00  0.00    -0.180 NA
ATOM     10  C   UNL A   1      31.798  28.328  25.510  1.00  0.00     0.140 A 
ATOM     11  C   UNL A   1      31.470  28.138  27.709  1.00  0.00     0.151 A 
BRANCH  10  12
ATOM     12  C   UNL A   1      32.185  28.800  24.193  1.00  0.00     0.275 C 
ATOM     13  O   UNL A   1      33.334  28.641  23.770  1.00  0.00    -0.267 OA
ATOM     14  N   UNL A   1      31.310  29.347  23.290  1.00  0.00    -0.305 N 
ATOM     15  H   UNL A   1      31.711  29.517  22.407  1.00  0.00     0.171 HD
BRANCH  14  16
ATOM     16  C   UNL A   1      29.978  29.708  23.373  1.00  0.00     0.132 A 
ATOM     17  C   UNL A   1      28.942  28.947  22.855  1.00  0.00     0.047 A 
ATOM     18  N   UNL A   1      29.795  30.925  23.927  1.00  0.00    -0.239 NA
ATOM     19  C   UNL A   1      27.666  29.512  22.825  1.00  0.00     0.005 A 
ATOM     20  C   UNL A   1      28.564  31.468  23.837  1.00  0.00     0.113 A 
ATOM     21  C   UNL A   1      27.480  30.812  23.286  1.00  0.00     0.020 A 
ENDBRANCH  14  16
ENDBRANCH  10  12
ENDBRANCH   4   6
ENDBRANCH   3   4
ENDBRANCH   2   3
ENDBRANCH   1   2
BRANCH   1  22
ATOM     22  O   UNL A   1      36.391  29.694  28.053  1.00  0.00    -0.458 OA
BRANCH  22  23
ATOM     23  C   UNL A   1      37.193  29.291  29.067  1.00  0.00     0.338 C 
ATOM     24  O   UNL A   1      36.888  29.128  30.233  1.00  0.00    -0.246 OA
BRANCH  23  25
ATOM     25  C   UNL A   1      38.529  28.958  28.548  1.00  0.00     0.060 A 
ATOM     26  C   UNL A   1      39.472  28.480  29.448  1.00  0.00     0.016 A 
ATOM     27  C   UNL A   1      38.910  29.296  27.254  1.00  0.00     0.016 A 
ATOM     28  C   UNL A   1      40.824  28.487  29.119  1.00  0.00     0.010 A 
ATOM     29  C   UNL A   1      40.254  29.157  26.878  1.00  0.00     0.010 A 
ATOM     30  C   UNL A   1      41.240  28.799  27.819  1.00  0.00    -0.014 A 
BRANCH  30  31
ATOM     31  C   UNL A   1      42.691  28.766  27.462  1.00  0.00     0.031 A 
ATOM     32  C   UNL A   1      43.307  27.517  26.875  1.00  0.00     0.074 A 
ATOM     33  C   UNL A   1      43.467  29.856  27.650  1.00  0.00     0.049 A 
ATOM     34  N   UNL A   1      44.570  27.232  26.678  1.00  0.00    -0.248 NA
ATOM     35  C   UNL A   1      42.385  26.442  26.474  1.00  0.00     0.031 C 
ATOM     36  C   UNL A   1      43.009  31.154  28.154  1.00  0.00     0.029 A 
ATOM     37  N   UNL A   1      44.811  30.051  27.433  1.00  0.00    -0.354 N 
ATOM     38  C   UNL A   1      44.597  25.929  26.189  1.00  0.00     0.074 A 
ATOM     39  C   UNL A   1      43.225  25.474  26.131  1.00  0.00     0.031 C 
ATOM     40  C   UNL A   1      44.035  32.016  28.161  1.00  0.00     0.029 A 
ATOM     41  C   UNL A   1      45.249  31.310  27.775  1.00  0.00     0.049 A 
ATOM     42  H   UNL A   1      45.405  29.355  27.068  1.00  0.00     0.167 HD
ATOM     43  C   UNL A   1      45.667  25.179  25.826  1.00  0.00     0.031 A 
ATOM     44  C   UNL A   1      46.489  31.834  27.831  1.00  0.00     0.031 A 
ATOM     45  C   UNL A   1      47.028  25.651  25.847  1.00  0.00     0.049 A 
ATOM     46  C   UNL A   1      47.663  30.966  27.484  1.00  0.00     0.074 A 
ATOM     47  C   UNL A   1      48.178  24.972  25.483  1.00  0.00     0.029 A 
ATOM     48  N   UNL A   1      47.423  26.920  26.243  1.00  0.00    -0.354 N 
ATOM     49  N   UNL A   1      47.673  29.722  27.069  1.00  0.00    -0.248 NA
ATOM     50  C   UNL A   1      48.996  31.566  27.628  1.00  0.00     0.031 C 
ATOM     51  C   UNL A   1      49.274  25.811  25.712  1.00  0.00     0.029 A 
ATOM     52  C   UNL A   1      48.801  27.036  26.157  1.00  0.00     0.049 A 
ATOM     53  H   UNL A   1      46.814  27.633  26.542  1.00  0.00     0.167 HD
ATOM     54  C   UNL A   1      49.011  29.396  26.884  1.00  0.00     0.074 A 
ATOM     55  C   UNL A   1      49.779  30.581  27.210  1.00  0.00     0.031 C 
ATOM     56  C   UNL A   1      49.553  28.220  26.484  1.00  0.00     0.031 A 
BRANCH  43  57
ATOM     57  C   UNL A   1      45.419  23.749  25.413  1.00  0.00    -0.014 A 
ATOM     58  C   UNL A   1      45.173  23.396  24.073  1.00  0.00     0.010 A 
ATOM     59  C   UNL A   1      45.485  22.730  26.383  1.00  0.00     0.010 A 
ATOM     60  C   UNL A   1      44.958  22.059  23.722  1.00  0.00     0.020 A 
ATOM     61  C   UNL A   1      45.303  21.390  26.030  1.00  0.00     0.020 A 
ATOM     62  C   UNL A   1      45.022  21.064  24.702  1.00  0.00     0.054 A 
BRANCH  62  63
ATOM     63  S   UNL A   1      44.765  19.336  24.212  1.00  0.00     0.124 S 
ATOM     64  O   UNL A   1      43.660  18.938  25.083  1.00  0.00    -0.237 OA
ATOM     65  O   UNL A   1      44.435  19.451  22.794  1.00  0.00    -0.237 OA
ATOM     66  O   UNL A   1      46.046  18.696  24.501  1.00  0.00    -0.744 OA
ENDBRANCH  62  63
ENDBRANCH  43  57
BRANCH  44  67
ATOM     67  C   UNL A   1      46.685  33.237  28.299  1.00  0.00    -0.014 A 
ATOM     68  C   UNL A   1      46.698  34.304  27.384  1.00  0.00     0.010 A 
ATOM     69  C   UNL A   1      46.849  33.512  29.670  1.00  0.00     0.010 A 
ATOM     70  C   UNL A   1      46.888  35.616  27.830  1.00  0.00     0.020 A 
ATOM     71  C   UNL A   1      47.002  34.824  30.123  1.00  0.00     0.020 A 
ATOM     72  C   UNL A   1      47.035  35.868  29.198  1.00  0.00     0.054 A 
BRANCH  72  73
ATOM     73  S   UNL A   1      47.231  37.583  29.758  1.00  0.00     0.124 S 
ATOM     74  O   UNL A   1      48.157  37.433  30.875  1.00  0.00    -0.237 OA
ATOM     75  O   UNL A   1      47.770  38.242  28.570  1.00  0.00    -0.237 OA
ATOM     76  O   UNL A   1      45.873  37.982  30.119  1.00  0.00    -0.744 OA
ENDBRANCH  72  73
ENDBRANCH  44  67
BRANCH  56  77
ATOM     77  C   UNL A   1      51.052  28.166  26.340  1.00  0.00    -0.014 A 
ATOM     78  C   UNL A   1      51.870  27.719  27.392  1.00  0.00     0.010 A 
ATOM     79  C   UNL A   1      51.643  28.527  25.115  1.00  0.00     0.010 A 
ATOM     80  C   UNL A   1      53.258  27.664  27.231  1.00  0.00     0.020 A 
ATOM     81  C   UNL A   1      53.026  28.443  24.940  1.00  0.00     0.020 A 
ATOM     82  C   UNL A   1      53.826  28.026  26.006  1.00  0.00     0.054 A 
BRANCH  82  83
ATOM     83  S   UNL A   1      55.625  27.903  25.809  1.00  0.00     0.124 S 
ATOM     84  O   UNL A   1      55.780  26.555  25.270  1.00  0.00    -0.237 OA
ATOM     85  O   UNL A   1      55.920  28.989  24.877  1.00  0.00    -0.237 OA
ATOM     86  O   UNL A   1      56.137  28.095  27.164  1.00  0.00    -0.744 OA
ENDBRANCH  82  83
ENDBRANCH  56  77
ENDBRANCH  30  31
ENDBRANCH  23  25
ENDBRANCH  22  23
ENDBRANCH   1  22
TORSDOF 16
ENDMDL
