MODEL 1
REMARK VINA RESULT:     -12.3      0.000      0.000
REMARK SMILES Cc1cccc(C(=O)OCCOC(=O)c2ccc(-c3c4nc(c(-c5ccc(S(=O)(=O)[O-])cc5)c5ccc([nH]5)c(-c5ccc(S(=O)(=O)[O-])cc5)c5nc(c(-c6ccc(S(=O)(=O)[O-])cc6)c6ccc3[nH]6)C=C5)C=C4)cc2)c1OC[C@@H]1C[C@H]2CC[C@@H]1C2
REMARK SMILES IDX 10 1 9 2 7 3 8 4 6 5 1 6 2 7 3 8 75 9 4 10 5 11 76 12 77 13
REMARK SMILES IDX 78 14 79 15 83 16 80 17 82 18 84 19 81 20 11 21 12 22 13 23
REMARK SMILES IDX 14 24 15 25 16 26 74 27 17 28 73 29 18 30 19 31 20 32 67 33
REMARK SMILES IDX 21 34 72 35 66 36 68 37 22 38 71 39 65 40 64 41 23 43 53 44
REMARK SMILES IDX 34 45 52 46 35 47 38 48 51 49 69 50 36 51 37 52 50 54 70 55
REMARK SMILES IDX 39 56 24 57 25 58 33 59 26 60 32 61 27 62 28 63 29 64 30 65
REMARK SMILES IDX 31 66 54 67 55 68 63 69 56 70 62 71 57 72 58 73 59 74 60 75
REMARK SMILES IDX 61 76 40 77 41 78 49 79 42 80 48 81 43 82 44 83 45 84 46 85
REMARK SMILES IDX 47 86
REMARK H PARENT 68 42 38 53
REMARK Flexibility Score: inf
ROOT
ATOM      1  C   UNL A   1      33.116  30.376  26.832  1.00  0.00     0.275 C 
ENDROOT
BRANCH   1   2
ATOM      2  O   UNL A   1      33.391  29.030  26.402  1.00  0.00    -0.458 OA
BRANCH   2   3
ATOM      3  C   UNL A   1      32.271  28.248  26.387  1.00  0.00     0.342 C 
ATOM      4  O   UNL A   1      31.657  27.879  27.353  1.00  0.00    -0.246 OA
BRANCH   3   5
ATOM      5  C   UNL A   1      31.916  27.846  25.007  1.00  0.00     0.102 A 
ATOM      6  C   UNL A   1      33.161  25.663  22.136  1.00  0.00     0.048 C 
ATOM      7  C   UNL A   1      32.314  26.573  22.982  1.00  0.00    -0.008 A 
ATOM      8  C   UNL A   1      31.210  27.193  22.375  1.00  0.00     0.007 A 
ATOM      9  C   UNL A   1      32.618  26.842  24.334  1.00  0.00     0.136 A 
ATOM     10  C   UNL A   1      30.460  28.126  23.076  1.00  0.00     0.001 A 
ATOM     11  C   UNL A   1      30.832  28.466  24.375  1.00  0.00     0.019 A 
BRANCH   9  12
ATOM     12  O   UNL A   1      33.680  26.162  24.858  1.00  0.00    -0.492 OA
BRANCH  12  13
ATOM     13  C   UNL A   1      33.426  25.068  25.751  1.00  0.00     0.233 C 
BRANCH  13  14
ATOM     14  C   UNL A   1      34.392  23.862  25.777  1.00  0.00     0.030 C 
ATOM     15  C   UNL A   1      35.477  24.015  24.675  1.00  0.00     0.011 C 
ATOM     16  C   UNL A   1      33.787  22.485  25.417  1.00  0.00    -0.004 C 
ATOM     17  C   UNL A   1      35.374  22.699  23.882  1.00  0.00    -0.010 C 
ATOM     18  C   UNL A   1      34.797  21.388  25.807  1.00  0.00     0.004 C 
ATOM     19  C   UNL A   1      33.869  22.452  23.893  1.00  0.00     0.007 C 
ATOM     20  C   UNL A   1      35.896  21.543  24.750  1.00  0.00     0.004 C 
ENDBRANCH  13  14
ENDBRANCH  12  13
ENDBRANCH   9  12
ENDBRANCH   3   5
ENDBRANCH   2   3
ENDBRANCH   1   2
BRANCH   1  21
ATOM     21  C   UNL A   1      34.027  30.835  27.988  1.00  0.00     0.275 C 
BRANCH  21  22
ATOM     22  O   UNL A   1      35.223  30.076  28.270  1.00  0.00    -0.458 OA
BRANCH  22  23
ATOM     23  C   UNL A   1      36.410  30.704  28.056  1.00  0.00     0.338 C 
ATOM     24  O   UNL A   1      36.544  31.912  28.042  1.00  0.00    -0.246 OA
BRANCH  23  25
ATOM     25  C   UNL A   1      37.483  29.674  28.106  1.00  0.00     0.060 A 
ATOM     26  C   UNL A   1      38.506  29.711  27.155  1.00  0.00     0.016 A 
ATOM     27  C   UNL A   1      37.629  28.913  29.267  1.00  0.00     0.016 A 
ATOM     28  C   UNL A   1      39.750  29.142  27.439  1.00  0.00     0.010 A 
ATOM     29  C   UNL A   1      38.871  28.422  29.585  1.00  0.00     0.010 A 
ATOM     30  C   UNL A   1      39.936  28.540  28.680  1.00  0.00    -0.014 A 
BRANCH  30  31
ATOM     31  C   UNL A   1      41.097  27.755  29.069  1.00  0.00     0.031 A 
ATOM     32  C   UNL A   1      41.308  26.343  28.669  1.00  0.00     0.074 A 
ATOM     33  C   UNL A   1      42.054  28.524  29.640  1.00  0.00     0.049 A 
ATOM     34  N   UNL A   1      42.405  25.705  28.895  1.00  0.00    -0.248 NA
ATOM     35  C   UNL A   1      40.322  25.500  27.995  1.00  0.00     0.031 C 
ATOM     36  C   UNL A   1      43.466  28.256  29.852  1.00  0.00     0.029 A 
ATOM     37  N   UNL A   1      41.888  29.751  30.291  1.00  0.00    -0.354 N 
ATOM     38  C   UNL A   1      42.364  24.495  28.237  1.00  0.00     0.074 A 
ATOM     39  C   UNL A   1      41.032  24.398  27.709  1.00  0.00     0.031 C 
ATOM     40  C   UNL A   1      43.894  29.050  30.853  1.00  0.00     0.029 A 
ATOM     41  C   UNL A   1      42.705  29.685  31.413  1.00  0.00     0.049 A 
ATOM     42  H   UNL A   1      41.315  30.502  30.014  1.00  0.00     0.167 HD
ATOM     43  C   UNL A   1      43.510  23.763  28.169  1.00  0.00     0.031 A 
ATOM     44  C   UNL A   1      42.206  29.400  32.659  1.00  0.00     0.031 A 
ATOM     45  C   UNL A   1      44.447  24.244  29.176  1.00  0.00     0.049 A 
ATOM     46  C   UNL A   1      42.824  28.122  33.198  1.00  0.00     0.074 A 
ATOM     47  C   UNL A   1      45.497  25.143  29.133  1.00  0.00     0.029 A 
ATOM     48  N   UNL A   1      44.095  24.093  30.514  1.00  0.00    -0.354 N 
ATOM     49  N   UNL A   1      43.094  27.063  32.475  1.00  0.00    -0.248 NA
ATOM     50  C   UNL A   1      43.298  28.009  34.573  1.00  0.00     0.031 C 
ATOM     51  C   UNL A   1      45.656  25.662  30.451  1.00  0.00     0.029 A 
ATOM     52  C   UNL A   1      44.740  25.038  31.286  1.00  0.00     0.049 A 
ATOM     53  H   UNL A   1      43.475  23.411  30.860  1.00  0.00     0.167 HD
ATOM     54  C   UNL A   1      43.878  26.212  33.215  1.00  0.00     0.074 A 
ATOM     55  C   UNL A   1      43.938  26.828  34.533  1.00  0.00     0.031 C 
ATOM     56  C   UNL A   1      44.503  25.102  32.719  1.00  0.00     0.031 A 
BRANCH  43  57
ATOM     57  C   UNL A   1      43.881  22.770  27.088  1.00  0.00    -0.014 A 
ATOM     58  C   UNL A   1      42.933  21.782  26.730  1.00  0.00     0.010 A 
ATOM     59  C   UNL A   1      45.155  22.645  26.501  1.00  0.00     0.010 A 
ATOM     60  C   UNL A   1      43.253  20.700  25.894  1.00  0.00     0.020 A 
ATOM     61  C   UNL A   1      45.485  21.573  25.648  1.00  0.00     0.020 A 
ATOM     62  C   UNL A   1      44.538  20.591  25.370  1.00  0.00     0.054 A 
BRANCH  62  63
ATOM     63  S   UNL A   1      44.955  19.142  24.362  1.00  0.00     0.124 S 
ATOM     64  O   UNL A   1      44.161  18.087  24.986  1.00  0.00    -0.237 OA
ATOM     65  O   UNL A   1      44.524  19.547  23.026  1.00  0.00    -0.237 OA
ATOM     66  O   UNL A   1      46.401  19.006  24.529  1.00  0.00    -0.744 OA
ENDBRANCH  62  63
ENDBRANCH  43  57
BRANCH  44  67
ATOM     67  C   UNL A   1      40.802  29.854  32.924  1.00  0.00    -0.014 A 
ATOM     68  C   UNL A   1      40.522  31.236  32.816  1.00  0.00     0.010 A 
ATOM     69  C   UNL A   1      39.714  28.964  32.978  1.00  0.00     0.010 A 
ATOM     70  C   UNL A   1      39.217  31.702  32.616  1.00  0.00     0.020 A 
ATOM     71  C   UNL A   1      38.396  29.431  32.804  1.00  0.00     0.020 A 
ATOM     72  C   UNL A   1      38.163  30.791  32.578  1.00  0.00     0.054 A 
BRANCH  72  73
ATOM     73  S   UNL A   1      36.533  31.393  32.033  1.00  0.00     0.124 S 
ATOM     74  O   UNL A   1      35.980  31.953  33.261  1.00  0.00    -0.237 OA
ATOM     75  O   UNL A   1      36.898  32.368  31.006  1.00  0.00    -0.237 OA
ATOM     76  O   UNL A   1      35.876  30.186  31.535  1.00  0.00    -0.744 OA
ENDBRANCH  72  73
ENDBRANCH  44  67
BRANCH  56  77
ATOM     77  C   UNL A   1      45.079  24.003  33.578  1.00  0.00    -0.014 A 
ATOM     78  C   UNL A   1      44.379  22.825  33.884  1.00  0.00     0.010 A 
ATOM     79  C   UNL A   1      46.434  24.069  33.980  1.00  0.00     0.010 A 
ATOM     80  C   UNL A   1      44.964  21.811  34.648  1.00  0.00     0.020 A 
ATOM     81  C   UNL A   1      47.046  23.036  34.691  1.00  0.00     0.020 A 
ATOM     82  C   UNL A   1      46.292  21.928  35.055  1.00  0.00     0.054 A 
BRANCH  82  83
ATOM     83  S   UNL A   1      47.040  20.592  36.013  1.00  0.00     0.124 S 
ATOM     84  O   UNL A   1      45.872  19.790  36.367  1.00  0.00    -0.237 OA
ATOM     85  O   UNL A   1      47.954  19.974  35.054  1.00  0.00    -0.237 OA
ATOM     86  O   UNL A   1      47.688  21.284  37.123  1.00  0.00    -0.744 OA
ENDBRANCH  82  83
ENDBRANCH  56  77
ENDBRANCH  30  31
ENDBRANCH  23  25
ENDBRANCH  22  23
ENDBRANCH  21  22
ENDBRANCH   1  21
TORSDOF 17
ENDMDL
MODEL 2
REMARK VINA RESULT:     -12.2      4.809     11.214
REMARK SMILES Cc1cccc(C(=O)OCCOC(=O)c2ccc(-c3c4nc(c(-c5ccc(S(=O)(=O)[O-])cc5)c5ccc([nH]5)c(-c5ccc(S(=O)(=O)[O-])cc5)c5nc(c(-c6ccc(S(=O)(=O)[O-])cc6)c6ccc3[nH]6)C=C5)C=C4)cc2)c1OC[C@@H]1C[C@H]2CC[C@@H]1C2
REMARK SMILES IDX 10 1 9 2 7 3 8 4 6 5 1 6 2 7 3 8 75 9 4 10 5 11 76 12 77 13
REMARK SMILES IDX 78 14 79 15 83 16 80 17 82 18 84 19 81 20 11 21 12 22 13 23
REMARK SMILES IDX 14 24 15 25 16 26 74 27 17 28 73 29 18 30 19 31 20 32 67 33
REMARK SMILES IDX 21 34 72 35 66 36 68 37 22 38 71 39 65 40 64 41 23 43 53 44
REMARK SMILES IDX 34 45 52 46 35 47 38 48 51 49 69 50 36 51 37 52 50 54 70 55
REMARK SMILES IDX 39 56 24 57 25 58 33 59 26 60 32 61 27 62 28 63 29 64 30 65
REMARK SMILES IDX 31 66 54 67 55 68 63 69 56 70 62 71 57 72 58 73 59 74 60 75
REMARK SMILES IDX 61 76 40 77 41 78 49 79 42 80 48 81 43 82 44 83 45 84 46 85
REMARK SMILES IDX 47 86
REMARK H PARENT 68 42 38 53
REMARK Flexibility Score: inf
ROOT
ATOM      1  C   UNL A   1      37.629  21.815  25.534  1.00  0.00     0.275 C 
ENDROOT
BRANCH   1   2
ATOM      2  O   UNL A   1      36.492  22.575  25.982  1.00  0.00    -0.458 OA
BRANCH   2   3
ATOM      3  C   UNL A   1      35.560  22.747  24.997  1.00  0.00     0.342 C 
ATOM      4  O   UNL A   1      35.640  22.331  23.872  1.00  0.00    -0.246 OA
BRANCH   3   5
ATOM      5  C   UNL A   1      34.429  23.578  25.468  1.00  0.00     0.102 A 
ATOM      6  C   UNL A   1      30.844  23.273  26.739  1.00  0.00     0.048 C 
ATOM      7  C   UNL A   1      32.183  23.834  26.347  1.00  0.00    -0.008 A 
ATOM      8  C   UNL A   1      32.315  25.229  26.278  1.00  0.00     0.007 A 
ATOM      9  C   UNL A   1      33.278  23.005  26.016  1.00  0.00     0.136 A 
ATOM     10  C   UNL A   1      33.492  25.799  25.816  1.00  0.00     0.001 A 
ATOM     11  C   UNL A   1      34.530  24.972  25.390  1.00  0.00     0.019 A 
BRANCH   9  12
ATOM     12  O   UNL A   1      33.078  21.661  26.154  1.00  0.00    -0.492 OA
BRANCH  12  13
ATOM     13  C   UNL A   1      32.463  20.942  25.075  1.00  0.00     0.233 C 
BRANCH  13  14
ATOM     14  C   UNL A   1      33.268  19.861  24.320  1.00  0.00     0.030 C 
ATOM     15  C   UNL A   1      32.429  19.285  23.145  1.00  0.00     0.011 C 
ATOM     16  C   UNL A   1      33.607  18.575  25.109  1.00  0.00    -0.004 C 
ATOM     17  C   UNL A   1      32.449  17.765  23.398  1.00  0.00    -0.010 C 
ATOM     18  C   UNL A   1      34.665  17.779  24.320  1.00  0.00     0.004 C 
ATOM     19  C   UNL A   1      32.365  17.708  24.920  1.00  0.00     0.007 C 
ATOM     20  C   UNL A   1      33.865  17.227  23.135  1.00  0.00     0.004 C 
ENDBRANCH  13  14
ENDBRANCH  12  13
ENDBRANCH   9  12
ENDBRANCH   3   5
ENDBRANCH   2   3
ENDBRANCH   1   2
BRANCH   1  21
ATOM     21  C   UNL A   1      38.968  22.377  26.054  1.00  0.00     0.275 C 
BRANCH  21  22
ATOM     22  O   UNL A   1      39.027  23.762  26.458  1.00  0.00    -0.458 OA
BRANCH  22  23
ATOM     23  C   UNL A   1      39.963  24.089  27.388  1.00  0.00     0.338 C 
ATOM     24  O   UNL A   1      40.952  23.419  27.616  1.00  0.00    -0.246 OA
BRANCH  23  25
ATOM     25  C   UNL A   1      39.682  25.477  27.846  1.00  0.00     0.060 A 
ATOM     26  C   UNL A   1      39.271  25.687  29.165  1.00  0.00     0.016 A 
ATOM     27  C   UNL A   1      40.144  26.545  27.074  1.00  0.00     0.016 A 
ATOM     28  C   UNL A   1      39.489  26.922  29.779  1.00  0.00     0.010 A 
ATOM     29  C   UNL A   1      40.433  27.734  27.695  1.00  0.00     0.010 A 
ATOM     30  C   UNL A   1      40.116  27.926  29.048  1.00  0.00    -0.014 A 
BRANCH  30  31
ATOM     31  C   UNL A   1      40.260  29.311  29.470  1.00  0.00     0.031 A 
ATOM     32  C   UNL A   1      39.182  30.323  29.359  1.00  0.00     0.074 A 
ATOM     33  C   UNL A   1      41.400  29.503  30.173  1.00  0.00     0.049 A 
ATOM     34  N   UNL A   1      39.271  31.503  29.869  1.00  0.00    -0.248 NA
ATOM     35  C   UNL A   1      37.911  30.129  28.662  1.00  0.00     0.031 C 
ATOM     36  C   UNL A   1      41.779  30.588  31.063  1.00  0.00     0.029 A 
ATOM     37  N   UNL A   1      42.575  28.745  30.122  1.00  0.00    -0.354 N 
ATOM     38  C   UNL A   1      38.048  32.129  29.769  1.00  0.00     0.074 A 
ATOM     39  C   UNL A   1      37.234  31.243  28.984  1.00  0.00     0.031 C 
ATOM     40  C   UNL A   1      43.125  30.615  31.137  1.00  0.00     0.029 A 
ATOM     41  C   UNL A   1      43.611  29.670  30.137  1.00  0.00     0.049 A 
ATOM     42  H   UNL A   1      42.651  27.764  30.084  1.00  0.00     0.167 HD
ATOM     43  C   UNL A   1      37.869  33.299  30.441  1.00  0.00     0.031 A 
ATOM     44  C   UNL A   1      44.268  30.043  28.992  1.00  0.00     0.031 A 
ATOM     45  C   UNL A   1      39.171  33.851  30.798  1.00  0.00     0.049 A 
ATOM     46  C   UNL A   1      44.095  31.532  28.744  1.00  0.00     0.074 A 
ATOM     47  C   UNL A   1      39.941  33.778  31.944  1.00  0.00     0.029 A 
ATOM     48  N   UNL A   1      40.014  34.244  29.765  1.00  0.00    -0.354 N 
ATOM     49  N   UNL A   1      42.992  32.201  28.971  1.00  0.00    -0.248 NA
ATOM     50  C   UNL A   1      45.207  32.386  28.343  1.00  0.00     0.031 C 
ATOM     51  C   UNL A   1      41.297  33.968  31.548  1.00  0.00     0.029 A 
ATOM     52  C   UNL A   1      41.329  34.202  30.180  1.00  0.00     0.049 A 
ATOM     53  H   UNL A   1      39.716  34.514  28.866  1.00  0.00     0.167 HD
ATOM     54  C   UNL A   1      43.268  33.544  28.893  1.00  0.00     0.074 A 
ATOM     55  C   UNL A   1      44.654  33.605  28.452  1.00  0.00     0.031 C 
ATOM     56  C   UNL A   1      42.403  34.538  29.258  1.00  0.00     0.031 A 
BRANCH  43  57
ATOM     57  C   UNL A   1      36.557  33.849  30.959  1.00  0.00    -0.014 A 
ATOM     58  C   UNL A   1      35.482  33.988  30.051  1.00  0.00     0.010 A 
ATOM     59  C   UNL A   1      36.350  34.380  32.248  1.00  0.00     0.010 A 
ATOM     60  C   UNL A   1      34.301  34.672  30.382  1.00  0.00     0.020 A 
ATOM     61  C   UNL A   1      35.164  35.055  32.598  1.00  0.00     0.020 A 
ATOM     62  C   UNL A   1      34.155  35.220  31.652  1.00  0.00     0.054 A 
BRANCH  62  63
ATOM     63  S   UNL A   1      32.658  36.172  32.033  1.00  0.00     0.124 S 
ATOM     64  O   UNL A   1      32.321  36.755  30.737  1.00  0.00    -0.237 OA
ATOM     65  O   UNL A   1      31.741  35.145  32.518  1.00  0.00    -0.237 OA
ATOM     66  O   UNL A   1      33.103  37.131  33.043  1.00  0.00    -0.744 OA
ENDBRANCH  62  63
ENDBRANCH  43  57
BRANCH  44  67
ATOM     67  C   UNL A   1      44.366  28.999  27.920  1.00  0.00    -0.014 A 
ATOM     68  C   UNL A   1      45.021  27.787  28.235  1.00  0.00     0.010 A 
ATOM     69  C   UNL A   1      43.596  29.046  26.744  1.00  0.00     0.010 A 
ATOM     70  C   UNL A   1      44.798  26.622  27.492  1.00  0.00     0.020 A 
ATOM     71  C   UNL A   1      43.389  27.881  25.976  1.00  0.00     0.020 A 
ATOM     72  C   UNL A   1      43.954  26.669  26.383  1.00  0.00     0.054 A 
BRANCH  72  73
ATOM     73  S   UNL A   1      43.460  25.092  25.619  1.00  0.00     0.124 S 
ATOM     74  O   UNL A   1      43.404  24.193  26.766  1.00  0.00    -0.237 OA
ATOM     75  O   UNL A   1      42.168  25.435  25.025  1.00  0.00    -0.237 OA
ATOM     76  O   UNL A   1      44.532  24.830  24.660  1.00  0.00    -0.744 OA
ENDBRANCH  72  73
ENDBRANCH  44  67
BRANCH  56  77
ATOM     77  C   UNL A   1      42.569  35.987  28.870  1.00  0.00    -0.014 A 
ATOM     78  C   UNL A   1      41.903  36.568  27.779  1.00  0.00     0.010 A 
ATOM     79  C   UNL A   1      43.302  36.855  29.712  1.00  0.00     0.010 A 
ATOM     80  C   UNL A   1      42.050  37.925  27.477  1.00  0.00     0.020 A 
ATOM     81  C   UNL A   1      43.407  38.223  29.455  1.00  0.00     0.020 A 
ATOM     82  C   UNL A   1      42.810  38.742  28.313  1.00  0.00     0.054 A 
BRANCH  82  83
ATOM     83  S   UNL A   1      42.961  40.500  27.926  1.00  0.00     0.124 S 
ATOM     84  O   UNL A   1      43.077  41.088  29.258  1.00  0.00    -0.237 OA
ATOM     85  O   UNL A   1      44.174  40.552  27.112  1.00  0.00    -0.237 OA
ATOM     86  O   UNL A   1      41.725  40.803  27.210  1.00  0.00    -0.744 OA
ENDBRANCH  82  83
ENDBRANCH  56  77
ENDBRANCH  30  31
ENDBRANCH  23  25
ENDBRANCH  22  23
ENDBRANCH  21  22
ENDBRANCH   1  21
TORSDOF 17
ENDMDL
MODEL 3
REMARK VINA RESULT:     -12.2      1.318      3.180
REMARK SMILES Cc1cccc(C(=O)OCCOC(=O)c2ccc(-c3c4nc(c(-c5ccc(S(=O)(=O)[O-])cc5)c5ccc([nH]5)c(-c5ccc(S(=O)(=O)[O-])cc5)c5nc(c(-c6ccc(S(=O)(=O)[O-])cc6)c6ccc3[nH]6)C=C5)C=C4)cc2)c1OC[C@@H]1C[C@H]2CC[C@@H]1C2
REMARK SMILES IDX 10 1 9 2 7 3 8 4 6 5 1 6 2 7 3 8 75 9 4 10 5 11 76 12 77 13
REMARK SMILES IDX 78 14 79 15 83 16 80 17 82 18 84 19 81 20 11 21 12 22 13 23
REMARK SMILES IDX 14 24 15 25 16 26 74 27 17 28 73 29 18 30 19 31 20 32 67 33
REMARK SMILES IDX 21 34 72 35 66 36 68 37 22 38 71 39 65 40 64 41 23 43 53 44
REMARK SMILES IDX 34 45 52 46 35 47 38 48 51 49 69 50 36 51 37 52 50 54 70 55
REMARK SMILES IDX 39 56 24 57 25 58 33 59 26 60 32 61 27 62 28 63 29 64 30 65
REMARK SMILES IDX 31 66 54 67 55 68 63 69 56 70 62 71 57 72 58 73 59 74 60 75
REMARK SMILES IDX 61 76 40 77 41 78 49 79 42 80 48 81 43 82 44 83 45 84 46 85
REMARK SMILES IDX 47 86
REMARK H PARENT 68 42 38 53
REMARK Flexibility Score: inf
ROOT
ATOM      1  C   UNL A   1      32.853  29.776  27.052  1.00  0.00     0.275 C 
ENDROOT
BRANCH   1   2
ATOM      2  O   UNL A   1      33.033  28.372  26.793  1.00  0.00    -0.458 OA
BRANCH   2   3
ATOM      3  C   UNL A   1      31.863  27.671  26.887  1.00  0.00     0.342 C 
ATOM      4  O   UNL A   1      31.024  27.813  27.737  1.00  0.00    -0.246 OA
BRANCH   3   5
ATOM      5  C   UNL A   1      31.766  26.645  25.824  1.00  0.00     0.102 A 
ATOM      6  C   UNL A   1      31.791  26.293  22.024  1.00  0.00     0.048 C 
ATOM      7  C   UNL A   1      31.776  25.973  23.494  1.00  0.00    -0.008 A 
ATOM      8  C   UNL A   1      31.501  24.650  23.874  1.00  0.00     0.007 A 
ATOM      9  C   UNL A   1      31.991  26.960  24.480  1.00  0.00     0.136 A 
ATOM     10  C   UNL A   1      31.365  24.322  25.215  1.00  0.00     0.001 A 
ATOM     11  C   UNL A   1      31.472  25.324  26.178  1.00  0.00     0.019 A 
BRANCH   9  12
ATOM     12  O   UNL A   1      32.297  28.210  24.023  1.00  0.00    -0.492 OA
BRANCH  12  13
ATOM     13  C   UNL A   1      31.414  28.836  23.082  1.00  0.00     0.233 C 
BRANCH  13  14
ATOM     14  C   UNL A   1      30.079  29.440  23.572  1.00  0.00     0.030 C 
ATOM     15  C   UNL A   1      28.909  28.452  23.308  1.00  0.00     0.011 C 
ATOM     16  C   UNL A   1      29.580  30.704  22.833  1.00  0.00    -0.004 C 
ATOM     17  C   UNL A   1      27.898  29.294  22.508  1.00  0.00    -0.010 C 
ATOM     18  C   UNL A   1      28.437  31.333  23.653  1.00  0.00     0.004 C 
ATOM     19  C   UNL A   1      28.823  30.136  21.636  1.00  0.00     0.007 C 
ATOM     20  C   UNL A   1      27.278  30.354  23.433  1.00  0.00     0.004 C 
ENDBRANCH  13  14
ENDBRANCH  12  13
ENDBRANCH   9  12
ENDBRANCH   3   5
ENDBRANCH   2   3
ENDBRANCH   1   2
BRANCH   1  21
ATOM     21  C   UNL A   1      34.188  30.533  27.203  1.00  0.00     0.275 C 
BRANCH  21  22
ATOM     22  O   UNL A   1      35.146  30.060  28.175  1.00  0.00    -0.458 OA
BRANCH  22  23
ATOM     23  C   UNL A   1      36.341  30.707  28.221  1.00  0.00     0.338 C 
ATOM     24  O   UNL A   1      36.458  31.898  28.441  1.00  0.00    -0.246 OA
BRANCH  23  25
ATOM     25  C   UNL A   1      37.415  29.677  28.214  1.00  0.00     0.060 A 
ATOM     26  C   UNL A   1      38.463  29.795  27.298  1.00  0.00     0.016 A 
ATOM     27  C   UNL A   1      37.532  28.822  29.312  1.00  0.00     0.016 A 
ATOM     28  C   UNL A   1      39.700  29.205  27.567  1.00  0.00     0.010 A 
ATOM     29  C   UNL A   1      38.767  28.307  29.621  1.00  0.00     0.010 A 
ATOM     30  C   UNL A   1      39.855  28.502  28.759  1.00  0.00    -0.014 A 
BRANCH  30  31
ATOM     31  C   UNL A   1      41.008  27.687  29.112  1.00  0.00     0.031 A 
ATOM     32  C   UNL A   1      41.177  26.274  28.695  1.00  0.00     0.074 A 
ATOM     33  C   UNL A   1      41.995  28.429  29.665  1.00  0.00     0.049 A 
ATOM     34  N   UNL A   1      42.264  25.610  28.888  1.00  0.00    -0.248 NA
ATOM     35  C   UNL A   1      40.155  25.460  28.038  1.00  0.00     0.031 C 
ATOM     36  C   UNL A   1      43.406  28.129  29.839  1.00  0.00     0.029 A 
ATOM     37  N   UNL A   1      41.873  29.654  30.330  1.00  0.00    -0.354 N 
ATOM     38  C   UNL A   1      42.180  24.407  28.221  1.00  0.00     0.074 A 
ATOM     39  C   UNL A   1      40.833  24.344  27.725  1.00  0.00     0.031 C 
ATOM     40  C   UNL A   1      43.876  28.904  30.837  1.00  0.00     0.029 A 
ATOM     41  C   UNL A   1      42.716  29.559  31.431  1.00  0.00     0.049 A 
ATOM     42  H   UNL A   1      41.311  30.420  30.074  1.00  0.00     0.167 HD
ATOM     43  C   UNL A   1      43.307  23.650  28.118  1.00  0.00     0.031 A 
ATOM     44  C   UNL A   1      42.242  29.275  32.687  1.00  0.00     0.031 A 
ATOM     45  C   UNL A   1      44.280  24.102  29.106  1.00  0.00     0.049 A 
ATOM     46  C   UNL A   1      42.843  27.979  33.199  1.00  0.00     0.074 A 
ATOM     47  C   UNL A   1      45.348  24.978  29.044  1.00  0.00     0.029 A 
ATOM     48  N   UNL A   1      43.957  23.947  30.451  1.00  0.00    -0.354 N 
ATOM     49  N   UNL A   1      43.071  26.921  32.461  1.00  0.00    -0.248 NA
ATOM     50  C   UNL A   1      43.349  27.842  34.561  1.00  0.00     0.031 C 
ATOM     51  C   UNL A   1      45.551  25.481  30.362  1.00  0.00     0.029 A 
ATOM     52  C   UNL A   1      44.642  24.870  31.214  1.00  0.00     0.049 A 
ATOM     53  H   UNL A   1      43.331  23.275  30.806  1.00  0.00     0.167 HD
ATOM     54  C   UNL A   1      43.854  26.046  33.174  1.00  0.00     0.074 A 
ATOM     55  C   UNL A   1      43.960  26.648  34.496  1.00  0.00     0.031 C 
ATOM     56  C   UNL A   1      44.442  24.927  32.654  1.00  0.00     0.031 A 
BRANCH  43  57
ATOM     57  C   UNL A   1      43.629  22.659  27.020  1.00  0.00    -0.014 A 
ATOM     58  C   UNL A   1      42.752  21.566  26.825  1.00  0.00     0.010 A 
ATOM     59  C   UNL A   1      44.815  22.643  26.261  1.00  0.00     0.010 A 
ATOM     60  C   UNL A   1      43.067  20.491  25.978  1.00  0.00     0.020 A 
ATOM     61  C   UNL A   1      45.137  21.578  25.397  1.00  0.00     0.020 A 
ATOM     62  C   UNL A   1      44.271  20.493  25.280  1.00  0.00     0.054 A 
BRANCH  62  63
ATOM     63  S   UNL A   1      44.698  19.057  24.258  1.00  0.00     0.124 S 
ATOM     64  O   UNL A   1      46.095  18.824  24.613  1.00  0.00    -0.237 OA
ATOM     65  O   UNL A   1      43.754  18.043  24.722  1.00  0.00    -0.237 OA
ATOM     66  O   UNL A   1      44.478  19.524  22.891  1.00  0.00    -0.744 OA
ENDBRANCH  62  63
ENDBRANCH  43  57
BRANCH  44  67
ATOM     67  C   UNL A   1      40.854  29.758  32.991  1.00  0.00    -0.014 A 
ATOM     68  C   UNL A   1      40.649  31.152  33.100  1.00  0.00     0.010 A 
ATOM     69  C   UNL A   1      39.722  28.932  32.876  1.00  0.00     0.010 A 
ATOM     70  C   UNL A   1      39.377  31.716  32.949  1.00  0.00     0.020 A 
ATOM     71  C   UNL A   1      38.435  29.493  32.751  1.00  0.00     0.020 A 
ATOM     72  C   UNL A   1      38.278  30.882  32.742  1.00  0.00     0.054 A 
BRANCH  72  73
ATOM     73  S   UNL A   1      36.699  31.652  32.265  1.00  0.00     0.124 S 
ATOM     74  O   UNL A   1      37.118  32.634  31.270  1.00  0.00    -0.237 OA
ATOM     75  O   UNL A   1      35.951  30.510  31.743  1.00  0.00    -0.237 OA
ATOM     76  O   UNL A   1      36.196  32.200  33.523  1.00  0.00    -0.744 OA
ENDBRANCH  72  73
ENDBRANCH  44  67
BRANCH  56  77
ATOM     77  C   UNL A   1      45.014  23.807  33.488  1.00  0.00    -0.014 A 
ATOM     78  C   UNL A   1      46.324  23.820  33.992  1.00  0.00     0.010 A 
ATOM     79  C   UNL A   1      44.168  22.759  33.921  1.00  0.00     0.010 A 
ATOM     80  C   UNL A   1      46.802  22.782  34.798  1.00  0.00     0.020 A 
ATOM     81  C   UNL A   1      44.617  21.749  34.774  1.00  0.00     0.020 A 
ATOM     82  C   UNL A   1      45.948  21.748  35.175  1.00  0.00     0.054 A 
BRANCH  82  83
ATOM     83  S   UNL A   1      46.575  20.433  36.244  1.00  0.00     0.124 S 
ATOM     84  O   UNL A   1      45.869  19.265  35.723  1.00  0.00    -0.237 OA
ATOM     85  O   UNL A   1      48.013  20.460  35.985  1.00  0.00    -0.237 OA
ATOM     86  O   UNL A   1      46.181  20.860  37.583  1.00  0.00    -0.744 OA
ENDBRANCH  82  83
ENDBRANCH  56  77
ENDBRANCH  30  31
ENDBRANCH  23  25
ENDBRANCH  22  23
ENDBRANCH  21  22
ENDBRANCH   1  21
TORSDOF 17
ENDMDL
