MODEL 1
REMARK VINA RESULT:     -13.4      0.000      0.000
REMARK SMILES O=C1C[C@@H](c2cccc(O)c2)c2c(c(C(=O)OCCOC(=O)c3ccc(-c4c5nc(c(-c6ccc(S(=O)(=O)[O-])cc6)c6ccc([nH]6)c(-c6ccc(S(=O)(=O)[O-])cc6)c6nc(c(-c7ccc(S(=O)(=O)[O-])cc7)c7ccc4[nH]7)C=C6)C=C5)cc3)cn2-c2cccc(C(F)(F)F)c2)N1
REMARK SMILES IDX 19 1 18 2 17 3 15 4 16 5 14 6 1 7 2 8 3 9 95 10 4 11 13 12
REMARK SMILES IDX 12 14 84 15 83 16 5 17 6 18 11 19 7 20 9 21 8 22 10 23 85 25
REMARK SMILES IDX 86 26 94 27 87 28 89 29 88 30 90 31 91 32 92 33 93 34 20 35
REMARK SMILES IDX 21 36 22 37 23 38 24 39 82 40 25 41 81 42 26 43 27 44 28 45
REMARK SMILES IDX 75 46 29 47 80 48 74 49 76 50 30 51 79 52 73 53 72 54 31 56
REMARK SMILES IDX 61 57 42 58 60 59 43 60 46 61 59 62 77 63 44 64 45 65 58 67
REMARK SMILES IDX 78 68 47 69 32 70 33 71 41 72 34 73 40 74 35 75 36 76 37 77
REMARK SMILES IDX 38 78 39 79 62 80 63 81 71 82 64 83 70 84 65 85 66 86 67 87
REMARK SMILES IDX 68 88 69 89 48 90 49 91 57 92 50 93 56 94 51 95 52 96 53 97
REMARK SMILES IDX 54 98 55 99
REMARK H PARENT 95 13 10 24 76 55 46 66
REMARK Flexibility Score: inf
ROOT
ATOM      1  C   UNL A   1      32.331  30.471  27.098  1.00  0.00     0.275 C 
ENDROOT
BRANCH   1   2
ATOM      2  C   UNL A   1      31.945  29.009  26.904  1.00  0.00     0.275 C 
BRANCH   2   3
ATOM      3  O   UNL A   1      32.411  28.494  25.647  1.00  0.00    -0.458 OA
BRANCH   3   4
ATOM      4  C   UNL A   1      31.739  27.406  25.168  1.00  0.00     0.341 C 
ATOM      5  O   UNL A   1      30.668  27.457  24.568  1.00  0.00    -0.246 OA
BRANCH   4   6
ATOM      6  C   UNL A   1      32.460  26.162  25.373  1.00  0.00     0.102 A 
ATOM      7  O   UNL A   1      29.283  23.191  27.357  1.00  0.00    -0.275 OA
ATOM      8  C   UNL A   1      30.436  23.487  27.048  1.00  0.00     0.225 C 
ATOM      9  C   UNL A   1      31.630  22.668  27.523  1.00  0.00     0.115 C 
ATOM     10  N   UNL A   1      30.713  24.660  26.395  1.00  0.00    -0.324 N 
ATOM     11  C   UNL A   1      32.830  22.657  26.556  1.00  0.00     0.078 C 
ATOM     12  C   UNL A   1      31.968  24.956  25.920  1.00  0.00     0.078 A 
ATOM     13  H   UNL A   1      29.988  25.313  26.263  1.00  0.00     0.170 HD
ATOM     14  C   UNL A   1      32.967  24.009  25.911  1.00  0.00     0.055 A 
ATOM     15  N   UNL A   1      34.087  24.588  25.336  1.00  0.00    -0.317 N 
ATOM     16  C   UNL A   1      33.782  25.908  25.052  1.00  0.00     0.109 A 
BRANCH  11  17
ATOM     17  C   UNL A   1      32.722  21.487  25.596  1.00  0.00    -0.035 A 
ATOM     18  C   UNL A   1      32.282  21.634  24.271  1.00  0.00     0.005 A 
ATOM     19  C   UNL A   1      33.083  20.205  26.046  1.00  0.00     0.050 A 
ATOM     20  C   UNL A   1      32.240  20.531  23.413  1.00  0.00     0.004 A 
ATOM     21  C   UNL A   1      33.067  19.122  25.175  1.00  0.00     0.115 A 
ATOM     22  C   UNL A   1      32.645  19.274  23.860  1.00  0.00     0.046 A 
BRANCH  21  23
ATOM     23  O   UNL A   1      33.516  17.924  25.647  1.00  0.00    -0.508 OA
ATOM     24  H   UNL A   1      33.015  17.455  26.285  1.00  0.00     0.293 HD
ENDBRANCH  21  23
ENDBRANCH  11  17
BRANCH  15  25
ATOM     25  C   UNL A   1      35.359  24.016  25.090  1.00  0.00     0.046 A 
ATOM     26  C   UNL A   1      35.509  23.124  24.023  1.00  0.00     0.026 A 
ATOM     27  C   UNL A   1      36.436  24.278  25.941  1.00  0.00     0.039 A 
ATOM     28  C   UNL A   1      36.754  22.554  23.764  1.00  0.00     0.003 A 
ATOM     29  C   UNL A   1      37.692  23.699  25.696  1.00  0.00     0.058 A 
ATOM     30  C   UNL A   1      37.841  22.849  24.588  1.00  0.00     0.013 A 
BRANCH  29  31
ATOM     31  C   UNL A   1      38.872  23.960  26.601  1.00  0.00     0.416 C 
ATOM     32  F   UNL A   1      39.658  22.855  26.748  1.00  0.00    -0.166 F 
ATOM     33  F   UNL A   1      39.697  24.928  26.107  1.00  0.00    -0.166 F 
ATOM     34  F   UNL A   1      38.544  24.347  27.861  1.00  0.00    -0.166 F 
ENDBRANCH  29  31
ENDBRANCH  15  25
ENDBRANCH   4   6
ENDBRANCH   3   4
ENDBRANCH   2   3
ENDBRANCH   1   2
BRANCH   1  35
ATOM     35  O   UNL A   1      33.730  30.695  26.912  1.00  0.00    -0.458 OA
BRANCH  35  36
ATOM     36  C   UNL A   1      34.270  31.626  27.732  1.00  0.00     0.338 C 
ATOM     37  O   UNL A   1      33.909  32.784  27.864  1.00  0.00    -0.246 OA
BRANCH  36  38
ATOM     38  C   UNL A   1      35.510  31.107  28.315  1.00  0.00     0.060 A 
ATOM     39  C   UNL A   1      36.477  32.027  28.731  1.00  0.00     0.016 A 
ATOM     40  C   UNL A   1      35.793  29.737  28.220  1.00  0.00     0.016 A 
ATOM     41  C   UNL A   1      37.769  31.583  28.938  1.00  0.00     0.010 A 
ATOM     42  C   UNL A   1      37.085  29.300  28.412  1.00  0.00     0.010 A 
ATOM     43  C   UNL A   1      38.072  30.234  28.715  1.00  0.00    -0.014 A 
BRANCH  43  44
ATOM     44  C   UNL A   1      39.422  29.772  28.990  1.00  0.00     0.031 A 
ATOM     45  C   UNL A   1      39.727  29.756  30.442  1.00  0.00     0.074 A 
ATOM     46  C   UNL A   1      40.240  29.274  28.040  1.00  0.00     0.049 A 
ATOM     47  N   UNL A   1      40.591  30.477  31.073  1.00  0.00    -0.248 NA
ATOM     48  C   UNL A   1      38.836  28.977  31.324  1.00  0.00     0.031 C 
ATOM     49  C   UNL A   1      39.923  29.001  26.635  1.00  0.00     0.029 A 
ATOM     50  N   UNL A   1      41.507  28.789  28.161  1.00  0.00    -0.354 N 
ATOM     51  C   UNL A   1      40.517  30.069  32.400  1.00  0.00     0.074 A 
ATOM     52  C   UNL A   1      39.299  29.313  32.528  1.00  0.00     0.031 C 
ATOM     53  C   UNL A   1      40.867  28.182  26.117  1.00  0.00     0.029 A 
ATOM     54  C   UNL A   1      41.915  27.980  27.103  1.00  0.00     0.049 A 
ATOM     55  H   UNL A   1      42.086  28.993  28.931  1.00  0.00     0.167 HD
ATOM     56  C   UNL A   1      41.607  30.127  33.214  1.00  0.00     0.031 A 
ATOM     57  C   UNL A   1      42.992  27.149  27.076  1.00  0.00     0.031 A 
ATOM     58  C   UNL A   1      42.611  31.015  32.691  1.00  0.00     0.049 A 
ATOM     59  C   UNL A   1      43.913  27.589  28.153  1.00  0.00     0.074 A 
ATOM     60  C   UNL A   1      42.638  32.353  32.347  1.00  0.00     0.029 A 
ATOM     61  N   UNL A   1      43.687  30.435  32.060  1.00  0.00    -0.354 N 
ATOM     62  N   UNL A   1      44.547  28.727  28.133  1.00  0.00    -0.248 NA
ATOM     63  C   UNL A   1      43.764  26.983  29.466  1.00  0.00     0.031 C 
ATOM     64  C   UNL A   1      43.433  32.413  31.166  1.00  0.00     0.029 A 
ATOM     65  C   UNL A   1      43.920  31.130  30.903  1.00  0.00     0.049 A 
ATOM     66  H   UNL A   1      44.199  29.659  32.383  1.00  0.00     0.167 HD
ATOM     67  C   UNL A   1      44.468  29.196  29.436  1.00  0.00     0.074 A 
ATOM     68  C   UNL A   1      44.058  28.039  30.231  1.00  0.00     0.031 C 
ATOM     69  C   UNL A   1      44.467  30.536  29.702  1.00  0.00     0.031 A 
BRANCH  56  70
ATOM     70  C   UNL A   1      41.931  29.036  34.207  1.00  0.00    -0.014 A 
ATOM     71  C   UNL A   1      42.303  27.766  33.721  1.00  0.00     0.010 A 
ATOM     72  C   UNL A   1      41.605  29.125  35.578  1.00  0.00     0.010 A 
ATOM     73  C   UNL A   1      42.278  26.637  34.551  1.00  0.00     0.020 A 
ATOM     74  C   UNL A   1      41.620  28.016  36.422  1.00  0.00     0.020 A 
ATOM     75  C   UNL A   1      41.926  26.771  35.895  1.00  0.00     0.054 A 
BRANCH  75  76
ATOM     76  S   UNL A   1      41.819  25.297  36.938  1.00  0.00     0.124 S 
ATOM     77  O   UNL A   1      40.737  25.653  37.850  1.00  0.00    -0.237 OA
ATOM     78  O   UNL A   1      41.513  24.255  35.962  1.00  0.00    -0.237 OA
ATOM     79  O   UNL A   1      43.146  25.209  37.541  1.00  0.00    -0.744 OA
ENDBRANCH  75  76
ENDBRANCH  56  70
BRANCH  57  80
ATOM     80  C   UNL A   1      43.122  25.816  26.426  1.00  0.00    -0.014 A 
ATOM     81  C   UNL A   1      43.873  25.648  25.244  1.00  0.00     0.010 A 
ATOM     82  C   UNL A   1      42.755  24.652  27.129  1.00  0.00     0.010 A 
ATOM     83  C   UNL A   1      44.301  24.373  24.826  1.00  0.00     0.020 A 
ATOM     84  C   UNL A   1      43.168  23.379  26.715  1.00  0.00     0.020 A 
ATOM     85  C   UNL A   1      43.963  23.247  25.580  1.00  0.00     0.054 A 
BRANCH  85  86
ATOM     86  S   UNL A   1      44.676  21.627  25.153  1.00  0.00     0.124 S 
ATOM     87  O   UNL A   1      44.699  21.671  23.693  1.00  0.00    -0.237 OA
ATOM     88  O   UNL A   1      45.980  21.669  25.807  1.00  0.00    -0.237 OA
ATOM     89  O   UNL A   1      43.729  20.674  25.728  1.00  0.00    -0.744 OA
ENDBRANCH  85  86
ENDBRANCH  57  80
BRANCH  69  90
ATOM     90  C   UNL A   1      44.884  31.490  28.607  1.00  0.00    -0.014 A 
ATOM     91  C   UNL A   1      44.054  31.909  27.549  1.00  0.00     0.010 A 
ATOM     92  C   UNL A   1      46.154  32.081  28.735  1.00  0.00     0.010 A 
ATOM     93  C   UNL A   1      44.507  32.859  26.618  1.00  0.00     0.020 A 
ATOM     94  C   UNL A   1      46.600  33.041  27.828  1.00  0.00     0.020 A 
ATOM     95  C   UNL A   1      45.783  33.414  26.763  1.00  0.00     0.054 A 
BRANCH  95  96
ATOM     96  S   UNL A   1      46.372  34.641  25.563  1.00  0.00     0.124 S 
ATOM     97  O   UNL A   1      47.786  34.303  25.431  1.00  0.00    -0.237 OA
ATOM     98  O   UNL A   1      45.547  34.370  24.389  1.00  0.00    -0.237 OA
ATOM     99  O   UNL A   1      46.102  35.922  26.215  1.00  0.00    -0.744 OA
ENDBRANCH  95  96
ENDBRANCH  69  90
ENDBRANCH  43  44
ENDBRANCH  36  38
ENDBRANCH  35  36
ENDBRANCH   1  35
TORSDOF 18
ENDMDL
MODEL 2
REMARK VINA RESULT:     -11.0      4.969      8.242
REMARK SMILES O=C1C[C@@H](c2cccc(O)c2)c2c(c(C(=O)OCCOC(=O)c3ccc(-c4c5nc(c(-c6ccc(S(=O)(=O)[O-])cc6)c6ccc([nH]6)c(-c6ccc(S(=O)(=O)[O-])cc6)c6nc(c(-c7ccc(S(=O)(=O)[O-])cc7)c7ccc4[nH]7)C=C6)C=C5)cc3)cn2-c2cccc(C(F)(F)F)c2)N1
REMARK SMILES IDX 19 1 18 2 17 3 15 4 16 5 14 6 1 7 2 8 3 9 95 10 4 11 13 12
REMARK SMILES IDX 12 14 84 15 83 16 5 17 6 18 11 19 7 20 9 21 8 22 10 23 85 25
REMARK SMILES IDX 86 26 94 27 87 28 89 29 88 30 90 31 91 32 92 33 93 34 20 35
REMARK SMILES IDX 21 36 22 37 23 38 24 39 82 40 25 41 81 42 26 43 27 44 28 45
REMARK SMILES IDX 75 46 29 47 80 48 74 49 76 50 30 51 79 52 73 53 72 54 31 56
REMARK SMILES IDX 61 57 42 58 60 59 43 60 46 61 59 62 77 63 44 64 45 65 58 67
REMARK SMILES IDX 78 68 47 69 32 70 33 71 41 72 34 73 40 74 35 75 36 76 37 77
REMARK SMILES IDX 38 78 39 79 62 80 63 81 71 82 64 83 70 84 65 85 66 86 67 87
REMARK SMILES IDX 68 88 69 89 48 90 49 91 57 92 50 93 56 94 51 95 52 96 53 97
REMARK SMILES IDX 54 98 55 99
REMARK H PARENT 95 13 10 24 76 55 46 66
REMARK Flexibility Score: inf
ROOT
ATOM      1  C   UNL A   1      33.942  33.485  28.693  1.00  0.00     0.275 C 
ENDROOT
BRANCH   1   2
ATOM      2  C   UNL A   1      35.152  34.085  27.986  1.00  0.00     0.275 C 
BRANCH   2   3
ATOM      3  O   UNL A   1      36.050  34.723  28.908  1.00  0.00    -0.458 OA
BRANCH   3   4
ATOM      4  C   UNL A   1      37.185  34.026  29.207  1.00  0.00     0.341 C 
ATOM      5  O   UNL A   1      37.841  33.382  28.393  1.00  0.00    -0.246 OA
BRANCH   4   6
ATOM      6  C   UNL A   1      37.594  34.180  30.593  1.00  0.00     0.102 A 
ATOM      7  O   UNL A   1      33.700  33.144  33.165  1.00  0.00    -0.275 OA
ATOM      8  C   UNL A   1      34.838  33.600  33.067  1.00  0.00     0.225 C 
ATOM      9  C   UNL A   1      35.504  34.349  34.215  1.00  0.00     0.115 C 
ATOM     10  N   UNL A   1      35.499  33.597  31.866  1.00  0.00    -0.324 N 
ATOM     11  C   UNL A   1      37.038  34.214  34.267  1.00  0.00     0.078 C 
ATOM     12  C   UNL A   1      36.815  33.975  31.752  1.00  0.00     0.078 A 
ATOM     13  H   UNL A   1      35.013  33.315  31.057  1.00  0.00     0.170 HD
ATOM     14  C   UNL A   1      37.589  34.199  32.868  1.00  0.00     0.055 A 
ATOM     15  N   UNL A   1      38.866  34.516  32.434  1.00  0.00    -0.317 N 
ATOM     16  C   UNL A   1      38.848  34.543  31.051  1.00  0.00     0.109 A 
BRANCH  11  17
ATOM     17  C   UNL A   1      37.434  33.032  35.135  1.00  0.00    -0.035 A 
ATOM     18  C   UNL A   1      37.835  31.800  34.596  1.00  0.00     0.005 A 
ATOM     19  C   UNL A   1      37.404  33.177  36.533  1.00  0.00     0.050 A 
ATOM     20  C   UNL A   1      38.230  30.756  35.436  1.00  0.00     0.004 A 
ATOM     21  C   UNL A   1      37.828  32.142  37.357  1.00  0.00     0.115 A 
ATOM     22  C   UNL A   1      38.239  30.928  36.820  1.00  0.00     0.046 A 
BRANCH  21  23
ATOM     23  O   UNL A   1      37.863  32.376  38.700  1.00  0.00    -0.508 OA
ATOM     24  H   UNL A   1      37.518  33.177  39.045  1.00  0.00     0.293 HD
ENDBRANCH  21  23
ENDBRANCH  11  17
BRANCH  15  25
ATOM     25  C   UNL A   1      40.021  34.813  33.200  1.00  0.00     0.046 A 
ATOM     26  C   UNL A   1      39.887  35.027  34.576  1.00  0.00     0.026 A 
ATOM     27  C   UNL A   1      41.265  34.966  32.584  1.00  0.00     0.039 A 
ATOM     28  C   UNL A   1      41.013  35.318  35.345  1.00  0.00     0.003 A 
ATOM     29  C   UNL A   1      42.403  35.272  33.348  1.00  0.00     0.058 A 
ATOM     30  C   UNL A   1      42.264  35.427  34.737  1.00  0.00     0.013 A 
BRANCH  29  31
ATOM     31  C   UNL A   1      43.761  35.446  32.710  1.00  0.00     0.416 C 
ATOM     32  F   UNL A   1      44.702  34.641  33.281  1.00  0.00    -0.166 F 
ATOM     33  F   UNL A   1      43.756  35.115  31.387  1.00  0.00    -0.166 F 
ATOM     34  F   UNL A   1      44.262  36.707  32.785  1.00  0.00    -0.166 F 
ENDBRANCH  29  31
ENDBRANCH  15  25
ENDBRANCH   4   6
ENDBRANCH   3   4
ENDBRANCH   2   3
ENDBRANCH   1   2
BRANCH   1  35
ATOM     35  O   UNL A   1      34.229  32.216  29.284  1.00  0.00    -0.458 OA
BRANCH  35  36
ATOM     36  C   UNL A   1      34.372  31.199  28.404  1.00  0.00     0.338 C 
ATOM     37  O   UNL A   1      33.542  30.799  27.605  1.00  0.00    -0.246 OA
BRANCH  36  38
ATOM     38  C   UNL A   1      35.623  30.485  28.678  1.00  0.00     0.060 A 
ATOM     39  C   UNL A   1      36.187  30.612  29.950  1.00  0.00     0.016 A 
ATOM     40  C   UNL A   1      36.331  29.907  27.614  1.00  0.00     0.016 A 
ATOM     41  C   UNL A   1      37.513  30.264  30.125  1.00  0.00     0.010 A 
ATOM     42  C   UNL A   1      37.656  29.576  27.787  1.00  0.00     0.010 A 
ATOM     43  C   UNL A   1      38.251  29.809  29.025  1.00  0.00    -0.014 A 
BRANCH  43  44
ATOM     44  C   UNL A   1      39.628  29.396  29.237  1.00  0.00     0.031 A 
ATOM     45  C   UNL A   1      39.932  29.165  30.671  1.00  0.00     0.074 A 
ATOM     46  C   UNL A   1      40.478  29.112  28.229  1.00  0.00     0.049 A 
ATOM     47  N   UNL A   1      40.747  29.829  31.419  1.00  0.00    -0.248 NA
ATOM     48  C   UNL A   1      39.094  28.198  31.406  1.00  0.00     0.031 C 
ATOM     49  C   UNL A   1      40.179  29.048  26.795  1.00  0.00     0.029 A 
ATOM     50  N   UNL A   1      41.773  28.695  28.284  1.00  0.00    -0.354 N 
ATOM     51  C   UNL A   1      40.699  29.208  32.663  1.00  0.00     0.074 A 
ATOM     52  C   UNL A   1      39.533  28.364  32.653  1.00  0.00     0.031 C 
ATOM     53  C   UNL A   1      41.175  28.387  26.161  1.00  0.00     0.029 A 
ATOM     54  C   UNL A   1      42.233  28.095  27.114  1.00  0.00     0.049 A 
ATOM     55  H   UNL A   1      42.337  28.809  29.084  1.00  0.00     0.167 HD
ATOM     56  C   UNL A   1      41.782  29.203  33.487  1.00  0.00     0.031 A 
ATOM     57  C   UNL A   1      43.363  27.351  26.966  1.00  0.00     0.031 A 
ATOM     58  C   UNL A   1      42.727  30.227  33.125  1.00  0.00     0.049 A 
ATOM     59  C   UNL A   1      44.252  27.669  28.110  1.00  0.00     0.074 A 
ATOM     60  C   UNL A   1      42.666  31.601  33.001  1.00  0.00     0.029 A 
ATOM     61  N   UNL A   1      43.838  29.827  32.422  1.00  0.00    -0.354 N 
ATOM     62  N   UNL A   1      44.810  28.834  28.280  1.00  0.00    -0.248 NA
ATOM     63  C   UNL A   1      44.142  26.850  29.306  1.00  0.00     0.031 C 
ATOM     64  C   UNL A   1      43.457  31.902  31.855  1.00  0.00     0.029 A 
ATOM     65  C   UNL A   1      44.027  30.713  31.394  1.00  0.00     0.049 A 
ATOM     66  H   UNL A   1      44.399  29.043  32.621  1.00  0.00     0.167 HD
ATOM     67  C   UNL A   1      44.701  29.080  29.641  1.00  0.00     0.074 A 
ATOM     68  C   UNL A   1      44.366  27.786  30.234  1.00  0.00     0.031 C 
ATOM     69  C   UNL A   1      44.612  30.356  30.120  1.00  0.00     0.031 A 
BRANCH  56  70
ATOM     70  C   UNL A   1      42.176  27.989  34.295  1.00  0.00    -0.014 A 
ATOM     71  C   UNL A   1      42.324  28.123  35.690  1.00  0.00     0.010 A 
ATOM     72  C   UNL A   1      42.685  26.810  33.708  1.00  0.00     0.010 A 
ATOM     73  C   UNL A   1      43.009  27.159  36.441  1.00  0.00     0.020 A 
ATOM     74  C   UNL A   1      43.328  25.823  34.454  1.00  0.00     0.020 A 
ATOM     75  C   UNL A   1      43.515  26.019  35.813  1.00  0.00     0.054 A 
BRANCH  75  76
ATOM     76  S   UNL A   1      44.467  24.821  36.776  1.00  0.00     0.124 S 
ATOM     77  O   UNL A   1      44.091  23.561  36.144  1.00  0.00    -0.237 OA
ATOM     78  O   UNL A   1      45.839  25.264  36.545  1.00  0.00    -0.237 OA
ATOM     79  O   UNL A   1      43.977  25.012  38.138  1.00  0.00    -0.744 OA
ENDBRANCH  75  76
ENDBRANCH  56  70
BRANCH  57  80
ATOM     80  C   UNL A   1      43.580  26.152  26.111  1.00  0.00    -0.014 A 
ATOM     81  C   UNL A   1      44.823  25.910  25.490  1.00  0.00     0.010 A 
ATOM     82  C   UNL A   1      42.657  25.087  26.144  1.00  0.00     0.010 A 
ATOM     83  C   UNL A   1      45.154  24.636  24.991  1.00  0.00     0.020 A 
ATOM     84  C   UNL A   1      42.975  23.819  25.643  1.00  0.00     0.020 A 
ATOM     85  C   UNL A   1      44.233  23.590  25.093  1.00  0.00     0.054 A 
BRANCH  85  86
ATOM     86  S   UNL A   1      44.730  21.902  24.630  1.00  0.00     0.124 S 
ATOM     87  O   UNL A   1      46.024  21.763  25.292  1.00  0.00    -0.237 OA
ATOM     88  O   UNL A   1      43.648  21.089  25.178  1.00  0.00    -0.237 OA
ATOM     89  O   UNL A   1      44.784  21.948  23.170  1.00  0.00    -0.744 OA
ENDBRANCH  85  86
ENDBRANCH  57  80
BRANCH  69  90
ATOM     90  C   UNL A   1      44.967  31.500  29.197  1.00  0.00    -0.014 A 
ATOM     91  C   UNL A   1      46.268  32.006  29.010  1.00  0.00     0.010 A 
ATOM     92  C   UNL A   1      43.931  32.005  28.392  1.00  0.00     0.010 A 
ATOM     93  C   UNL A   1      46.511  33.024  28.073  1.00  0.00     0.020 A 
ATOM     94  C   UNL A   1      44.169  32.999  27.444  1.00  0.00     0.020 A 
ATOM     95  C   UNL A   1      45.454  33.517  27.299  1.00  0.00     0.054 A 
BRANCH  95  96
ATOM     96  S   UNL A   1      45.763  34.833  26.088  1.00  0.00     0.124 S 
ATOM     97  O   UNL A   1      44.625  35.725  26.291  1.00  0.00    -0.237 OA
ATOM     98  O   UNL A   1      47.060  35.361  26.505  1.00  0.00    -0.237 OA
ATOM     99  O   UNL A   1      45.775  34.129  24.806  1.00  0.00    -0.744 OA
ENDBRANCH  95  96
ENDBRANCH  69  90
ENDBRANCH  43  44
ENDBRANCH  36  38
ENDBRANCH  35  36
ENDBRANCH   1  35
TORSDOF 18
ENDMDL
MODEL 3
REMARK VINA RESULT:     -10.9      5.170      8.634
REMARK SMILES O=C1C[C@@H](c2cccc(O)c2)c2c(c(C(=O)OCCOC(=O)c3ccc(-c4c5nc(c(-c6ccc(S(=O)(=O)[O-])cc6)c6ccc([nH]6)c(-c6ccc(S(=O)(=O)[O-])cc6)c6nc(c(-c7ccc(S(=O)(=O)[O-])cc7)c7ccc4[nH]7)C=C6)C=C5)cc3)cn2-c2cccc(C(F)(F)F)c2)N1
REMARK SMILES IDX 19 1 18 2 17 3 15 4 16 5 14 6 1 7 2 8 3 9 95 10 4 11 13 12
REMARK SMILES IDX 12 14 84 15 83 16 5 17 6 18 11 19 7 20 9 21 8 22 10 23 85 25
REMARK SMILES IDX 86 26 94 27 87 28 89 29 88 30 90 31 91 32 92 33 93 34 20 35
REMARK SMILES IDX 21 36 22 37 23 38 24 39 82 40 25 41 81 42 26 43 27 44 28 45
REMARK SMILES IDX 75 46 29 47 80 48 74 49 76 50 30 51 79 52 73 53 72 54 31 56
REMARK SMILES IDX 61 57 42 58 60 59 43 60 46 61 59 62 77 63 44 64 45 65 58 67
REMARK SMILES IDX 78 68 47 69 32 70 33 71 41 72 34 73 40 74 35 75 36 76 37 77
REMARK SMILES IDX 38 78 39 79 62 80 63 81 71 82 64 83 70 84 65 85 66 86 67 87
REMARK SMILES IDX 68 88 69 89 48 90 49 91 57 92 50 93 56 94 51 95 52 96 53 97
REMARK SMILES IDX 54 98 55 99
REMARK H PARENT 95 13 10 24 76 55 46 66
REMARK Flexibility Score: inf
ROOT
ATOM      1  C   UNL A   1      33.371  33.200  28.007  1.00  0.00     0.275 C 
ENDROOT
BRANCH   1   2
ATOM      2  C   UNL A   1      33.549  34.244  29.104  1.00  0.00     0.275 C 
BRANCH   2   3
ATOM      3  O   UNL A   1      34.753  34.031  29.857  1.00  0.00    -0.458 OA
BRANCH   3   4
ATOM      4  C   UNL A   1      34.641  34.185  31.209  1.00  0.00     0.341 C 
ATOM      5  O   UNL A   1      33.618  34.547  31.786  1.00  0.00    -0.246 OA
BRANCH   4   6
ATOM      6  C   UNL A   1      35.847  33.804  31.923  1.00  0.00     0.102 A 
ATOM      7  O   UNL A   1      39.453  35.444  29.247  1.00  0.00    -0.275 OA
ATOM      8  C   UNL A   1      39.021  34.751  30.166  1.00  0.00     0.225 C 
ATOM      9  C   UNL A   1      39.907  33.758  30.909  1.00  0.00     0.115 C 
ATOM     10  N   UNL A   1      37.682  34.722  30.460  1.00  0.00    -0.324 N 
ATOM     11  C   UNL A   1      39.525  33.531  32.384  1.00  0.00     0.078 C 
ATOM     12  C   UNL A   1      37.186  34.064  31.561  1.00  0.00     0.078 A 
ATOM     13  H   UNL A   1      37.054  35.187  29.862  1.00  0.00     0.170 HD
ATOM     14  C   UNL A   1      38.028  33.559  32.525  1.00  0.00     0.055 A 
ATOM     15  N   UNL A   1      37.239  33.002  33.518  1.00  0.00    -0.317 N 
ATOM     16  C   UNL A   1      35.917  33.118  33.123  1.00  0.00     0.109 A 
BRANCH  11  17
ATOM     17  C   UNL A   1      40.280  34.497  33.278  1.00  0.00    -0.035 A 
ATOM     18  C   UNL A   1      39.759  34.967  34.494  1.00  0.00     0.005 A 
ATOM     19  C   UNL A   1      41.556  34.935  32.880  1.00  0.00     0.050 A 
ATOM     20  C   UNL A   1      40.512  35.823  35.303  1.00  0.00     0.004 A 
ATOM     21  C   UNL A   1      42.307  35.761  33.707  1.00  0.00     0.115 A 
ATOM     22  C   UNL A   1      41.794  36.213  34.917  1.00  0.00     0.046 A 
BRANCH  21  23
ATOM     23  O   UNL A   1      43.572  36.077  33.306  1.00  0.00    -0.508 OA
ATOM     24  H   UNL A   1      44.218  36.314  33.942  1.00  0.00     0.293 HD
ENDBRANCH  21  23
ENDBRANCH  11  17
BRANCH  15  25
ATOM     25  C   UNL A   1      37.634  32.372  34.724  1.00  0.00     0.046 A 
ATOM     26  C   UNL A   1      38.402  31.204  34.661  1.00  0.00     0.026 A 
ATOM     27  C   UNL A   1      37.205  32.863  35.960  1.00  0.00     0.039 A 
ATOM     28  C   UNL A   1      38.802  30.573  35.837  1.00  0.00     0.003 A 
ATOM     29  C   UNL A   1      37.592  32.226  37.150  1.00  0.00     0.058 A 
ATOM     30  C   UNL A   1      38.410  31.088  37.074  1.00  0.00     0.013 A 
BRANCH  29  31
ATOM     31  C   UNL A   1      37.140  32.732  38.500  1.00  0.00     0.416 C 
ATOM     32  F   UNL A   1      38.020  33.630  39.030  1.00  0.00    -0.166 F 
ATOM     33  F   UNL A   1      35.948  33.390  38.432  1.00  0.00    -0.166 F 
ATOM     34  F   UNL A   1      36.989  31.766  39.443  1.00  0.00    -0.166 F 
ENDBRANCH  29  31
ENDBRANCH  15  25
ENDBRANCH   4   6
ENDBRANCH   3   4
ENDBRANCH   2   3
ENDBRANCH   1   2
BRANCH   1  35
ATOM     35  O   UNL A   1      34.614  32.632  27.590  1.00  0.00    -0.458 OA
BRANCH  35  36
ATOM     36  C   UNL A   1      34.763  31.318  27.878  1.00  0.00     0.338 C 
ATOM     37  O   UNL A   1      33.892  30.543  28.235  1.00  0.00    -0.246 OA
BRANCH  36  38
ATOM     38  C   UNL A   1      36.189  30.980  27.901  1.00  0.00     0.060 A 
ATOM     39  C   UNL A   1      36.565  29.692  27.509  1.00  0.00     0.016 A 
ATOM     40  C   UNL A   1      37.091  31.851  28.527  1.00  0.00     0.016 A 
ATOM     41  C   UNL A   1      37.822  29.234  27.857  1.00  0.00     0.010 A 
ATOM     42  C   UNL A   1      38.337  31.386  28.887  1.00  0.00     0.010 A 
ATOM     43  C   UNL A   1      38.671  30.065  28.598  1.00  0.00    -0.014 A 
BRANCH  43  44
ATOM     44  C   UNL A   1      40.009  29.590  28.910  1.00  0.00     0.031 A 
ATOM     45  C   UNL A   1      40.224  29.435  30.370  1.00  0.00     0.074 A 
ATOM     46  C   UNL A   1      40.890  29.193  27.969  1.00  0.00     0.049 A 
ATOM     47  N   UNL A   1      41.038  30.099  31.119  1.00  0.00    -0.248 NA
ATOM     48  C   UNL A   1      39.293  28.567  31.116  1.00  0.00     0.031 C 
ATOM     49  C   UNL A   1      40.662  29.055  26.528  1.00  0.00     0.029 A 
ATOM     50  N   UNL A   1      42.153  28.709  28.121  1.00  0.00    -0.354 N 
ATOM     51  C   UNL A   1      40.890  29.563  32.394  1.00  0.00     0.074 A 
ATOM     52  C   UNL A   1      39.677  28.788  32.372  1.00  0.00     0.031 C 
ATOM     53  C   UNL A   1      41.648  28.298  25.992  1.00  0.00     0.029 A 
ATOM     54  C   UNL A   1      42.636  28.009  27.017  1.00  0.00     0.049 A 
ATOM     55  H   UNL A   1      42.681  28.842  28.942  1.00  0.00     0.167 HD
ATOM     56  C   UNL A   1      41.927  29.550  33.276  1.00  0.00     0.031 A 
ATOM     57  C   UNL A   1      43.725  27.194  26.977  1.00  0.00     0.031 A 
ATOM     58  C   UNL A   1      42.949  30.494  32.904  1.00  0.00     0.049 A 
ATOM     59  C   UNL A   1      44.572  27.535  28.147  1.00  0.00     0.074 A 
ATOM     60  C   UNL A   1      42.977  31.858  32.692  1.00  0.00     0.029 A 
ATOM     61  N   UNL A   1      44.068  29.986  32.288  1.00  0.00    -0.354 N 
ATOM     62  N   UNL A   1      45.190  28.674  28.275  1.00  0.00    -0.248 NA
ATOM     63  C   UNL A   1      44.352  26.803  29.383  1.00  0.00     0.031 C 
ATOM     64  C   UNL A   1      43.842  32.039  31.574  1.00  0.00     0.029 A 
ATOM     65  C   UNL A   1      44.362  30.792  31.220  1.00  0.00     0.049 A 
ATOM     66  H   UNL A   1      44.571  29.187  32.566  1.00  0.00     0.167 HD
ATOM     67  C   UNL A   1      45.026  29.015  29.610  1.00  0.00     0.074 A 
ATOM     68  C   UNL A   1      44.584  27.782  30.262  1.00  0.00     0.031 C 
ATOM     69  C   UNL A   1      44.990  30.322  30.004  1.00  0.00     0.031 A 
BRANCH  56  70
ATOM     70  C   UNL A   1      42.206  28.371  34.177  1.00  0.00    -0.014 A 
ATOM     71  C   UNL A   1      43.228  28.481  35.140  1.00  0.00     0.010 A 
ATOM     72  C   UNL A   1      41.706  27.075  33.921  1.00  0.00     0.010 A 
ATOM     73  C   UNL A   1      43.767  27.345  35.758  1.00  0.00     0.020 A 
ATOM     74  C   UNL A   1      42.205  25.943  34.563  1.00  0.00     0.020 A 
ATOM     75  C   UNL A   1      43.256  26.081  35.455  1.00  0.00     0.054 A 
BRANCH  75  76
ATOM     76  S   UNL A   1      44.012  24.615  36.196  1.00  0.00     0.124 S 
ATOM     77  O   UNL A   1      43.789  24.849  37.619  1.00  0.00    -0.237 OA
ATOM     78  O   UNL A   1      43.233  23.534  35.598  1.00  0.00    -0.237 OA
ATOM     79  O   UNL A   1      45.403  24.690  35.757  1.00  0.00    -0.744 OA
ENDBRANCH  75  76
ENDBRANCH  56  70
BRANCH  57  80
ATOM     80  C   UNL A   1      43.913  25.932  26.210  1.00  0.00    -0.014 A 
ATOM     81  C   UNL A   1      45.174  25.572  25.691  1.00  0.00     0.010 A 
ATOM     82  C   UNL A   1      42.919  24.934  26.243  1.00  0.00     0.010 A 
ATOM     83  C   UNL A   1      45.448  24.249  25.292  1.00  0.00     0.020 A 
ATOM     84  C   UNL A   1      43.181  23.619  25.840  1.00  0.00     0.020 A 
ATOM     85  C   UNL A   1      44.452  23.275  25.391  1.00  0.00     0.054 A 
BRANCH  85  86
ATOM     86  S   UNL A   1      44.860  21.531  25.063  1.00  0.00     0.124 S 
ATOM     87  O   UNL A   1      44.735  21.449  23.610  1.00  0.00    -0.237 OA
ATOM     88  O   UNL A   1      46.217  21.416  25.589  1.00  0.00    -0.237 OA
ATOM     89  O   UNL A   1      43.845  20.794  25.813  1.00  0.00    -0.744 OA
ENDBRANCH  85  86
ENDBRANCH  57  80
BRANCH  69  90
ATOM     90  C   UNL A   1      45.459  31.382  29.033  1.00  0.00    -0.014 A 
ATOM     91  C   UNL A   1      46.770  31.893  28.976  1.00  0.00     0.010 A 
ATOM     92  C   UNL A   1      44.538  31.789  28.052  1.00  0.00     0.010 A 
ATOM     93  C   UNL A   1      47.131  32.824  27.988  1.00  0.00     0.020 A 
ATOM     94  C   UNL A   1      44.897  32.696  27.055  1.00  0.00     0.020 A 
ATOM     95  C   UNL A   1      46.186  33.223  27.036  1.00  0.00     0.054 A 
BRANCH  95  96
ATOM     96  S   UNL A   1      46.649  34.426  25.759  1.00  0.00     0.124 S 
ATOM     97  O   UNL A   1      46.587  35.694  26.481  1.00  0.00    -0.237 OA
ATOM     98  O   UNL A   1      47.986  33.987  25.367  1.00  0.00    -0.237 OA
ATOM     99  O   UNL A   1      45.624  34.252  24.730  1.00  0.00    -0.744 OA
ENDBRANCH  95  96
ENDBRANCH  69  90
ENDBRANCH  43  44
ENDBRANCH  36  38
ENDBRANCH  35  36
ENDBRANCH   1  35
TORSDOF 18
ENDMDL
