MODEL 1
REMARK VINA RESULT:     -12.1      0.000      0.000
REMARK SMILES C[NH+]1CCC([NH+]2CCC(Oc3ccc4ccccc4c3)(C(=O)OCCOC(=O)c3ccc(-c4c5nc(c(-c6ccc(S(=O)(=O)[O-])cc6)c6ccc([nH]6)c(-c6ccc(S(=O)(=O)[O-])cc6)c6nc(c(-c7ccc(S(=O)(=O)[O-])cc7)c7ccc4[nH]7)C=C6)C=C5)cc3)CC2)CC1
REMARK SMILES IDX 25 1 24 2 23 3 21 4 22 5 9 6 6 7 7 8 90 9 8 11 89 12 5 13
REMARK SMILES IDX 1 14 2 15 3 16 92 17 4 19 91 20 10 21 11 22 12 23 20 24
REMARK SMILES IDX 13 25 19 26 14 27 18 28 15 29 17 30 16 31 26 32 27 33 28 34
REMARK SMILES IDX 29 35 30 36 88 37 31 38 87 39 32 40 33 41 34 42 81 43 35 44
REMARK SMILES IDX 86 45 80 46 82 47 36 48 85 49 79 50 78 51 37 53 67 54 48 55
REMARK SMILES IDX 66 56 49 57 52 58 65 59 83 60 50 61 51 62 64 64 84 65 53 66
REMARK SMILES IDX 38 67 39 68 47 69 40 70 46 71 41 72 42 73 43 74 44 75 45 76
REMARK SMILES IDX 68 77 69 78 77 79 70 80 76 81 71 82 72 83 73 84 74 85 75 86
REMARK SMILES IDX 54 87 55 88 63 89 56 90 62 91 57 92 58 93 59 94 60 95 61 96
REMARK H PARENT 6 10 2 18 82 52 52 63
REMARK Flexibility Score: inf
ROOT
ATOM      1  C   UNL A   1      38.049  22.834  25.705  1.00  0.00     0.275 C 
ENDROOT
BRANCH   1   2
ATOM      2  C   UNL A   1      37.088  23.095  24.548  1.00  0.00     0.274 C 
BRANCH   2   3
ATOM      3  O   UNL A   1      36.072  24.050  24.924  1.00  0.00    -0.459 OA
BRANCH   3   4
ATOM      4  C   UNL A   1      34.920  24.026  24.189  1.00  0.00     0.351 C 
ATOM      5  O   UNL A   1      34.873  24.298  22.993  1.00  0.00    -0.247 OA
BRANCH   4   6
ATOM      6  C   UNL A   1      33.669  23.735  25.042  1.00  0.00     0.216 C 
ATOM      7  N   UNL A   1      33.123  20.836  25.086  1.00  0.00    -0.332 N 
ATOM      8  C   UNL A   1      34.227  21.395  25.877  1.00  0.00     0.267 C 
ATOM      9  C   UNL A   1      32.920  21.614  23.858  1.00  0.00     0.267 C 
ATOM     10  H   UNL A   1      32.291  20.912  25.672  1.00  0.00     0.348 HD
ATOM     11  C   UNL A   1      33.940  22.846  26.263  1.00  0.00     0.122 C 
ATOM     12  C   UNL A   1      32.594  23.079  24.152  1.00  0.00     0.122 C 
BRANCH   7  13
ATOM     13  C   UNL A   1      33.266  19.381  24.789  1.00  0.00     0.195 C 
ATOM     14  C   UNL A   1      34.190  15.191  25.219  1.00  0.00     0.332 C 
ATOM     15  N   UNL A   1      34.065  16.635  25.438  1.00  0.00    -0.337 N 
ATOM     16  C   UNL A   1      32.650  17.026  25.491  1.00  0.00     0.268 C 
ATOM     17  C   UNL A   1      34.761  17.369  24.376  1.00  0.00     0.268 C 
ATOM     18  H   UNL A   1      34.496  16.868  26.333  1.00  0.00     0.347 HD
ATOM     19  C   UNL A   1      32.510  18.517  25.813  1.00  0.00     0.126 C 
ATOM     20  C   UNL A   1      34.711  18.873  24.639  1.00  0.00     0.126 C 
ENDBRANCH   7  13
BRANCH   6  21
ATOM     21  O   UNL A   1      33.409  25.101  25.477  1.00  0.00    -0.475 OA
BRANCH  21  22
ATOM     22  C   UNL A   1      32.316  25.722  24.952  1.00  0.00     0.121 A 
ATOM     23  C   UNL A   1      31.043  25.353  25.363  1.00  0.00     0.047 A 
ATOM     24  C   UNL A   1      32.502  26.807  24.096  1.00  0.00     0.055 A 
ATOM     25  C   UNL A   1      29.933  26.033  24.864  1.00  0.00     0.012 A 
ATOM     26  C   UNL A   1      31.393  27.508  23.593  1.00  0.00    -0.015 A 
ATOM     27  C   UNL A   1      30.092  27.109  23.978  1.00  0.00    -0.018 A 
ATOM     28  C   UNL A   1      31.544  28.599  22.721  1.00  0.00     0.009 A 
ATOM     29  C   UNL A   1      28.980  27.803  23.476  1.00  0.00     0.009 A 
ATOM     30  C   UNL A   1      30.427  29.282  22.233  1.00  0.00     0.001 A 
ATOM     31  C   UNL A   1      29.147  28.883  22.609  1.00  0.00     0.001 A 
ENDBRANCH  21  22
ENDBRANCH   6  21
ENDBRANCH   4   6
ENDBRANCH   3   4
ENDBRANCH   2   3
ENDBRANCH   1   2
BRANCH   1  32
ATOM     32  O   UNL A   1      38.276  24.064  26.409  1.00  0.00    -0.458 OA
BRANCH  32  33
ATOM     33  C   UNL A   1      39.544  24.291  26.814  1.00  0.00     0.338 C 
ATOM     34  O   UNL A   1      40.532  23.639  26.496  1.00  0.00    -0.246 OA
BRANCH  33  35
ATOM     35  C   UNL A   1      39.605  25.501  27.672  1.00  0.00     0.060 A 
ATOM     36  C   UNL A   1      40.413  26.592  27.341  1.00  0.00     0.016 A 
ATOM     37  C   UNL A   1      38.934  25.496  28.898  1.00  0.00     0.016 A 
ATOM     38  C   UNL A   1      40.632  27.615  28.265  1.00  0.00     0.010 A 
ATOM     39  C   UNL A   1      39.075  26.573  29.781  1.00  0.00     0.010 A 
ATOM     40  C   UNL A   1      39.944  27.637  29.485  1.00  0.00    -0.014 A 
BRANCH  40  41
ATOM     41  C   UNL A   1      40.100  28.771  30.438  1.00  0.00     0.031 A 
ATOM     42  C   UNL A   1      41.162  28.743  31.506  1.00  0.00     0.074 A 
ATOM     43  C   UNL A   1      39.259  29.823  30.375  1.00  0.00     0.049 A 
ATOM     44  N   UNL A   1      41.284  29.494  32.571  1.00  0.00    -0.248 NA
ATOM     45  C   UNL A   1      42.220  27.730  31.365  1.00  0.00     0.031 C 
ATOM     46  C   UNL A   1      38.209  30.016  29.372  1.00  0.00     0.029 A 
ATOM     47  N   UNL A   1      39.150  30.929  31.182  1.00  0.00    -0.354 N 
ATOM     48  C   UNL A   1      42.388  29.005  33.260  1.00  0.00     0.074 A 
ATOM     49  C   UNL A   1      42.913  27.900  32.484  1.00  0.00     0.031 C 
ATOM     50  C   UNL A   1      37.586  31.180  29.602  1.00  0.00     0.029 A 
ATOM     51  C   UNL A   1      38.120  31.766  30.825  1.00  0.00     0.049 A 
ATOM     52  H   UNL A   1      39.751  31.105  31.941  1.00  0.00     0.167 HD
ATOM     53  C   UNL A   1      42.906  29.432  34.438  1.00  0.00     0.031 A 
ATOM     54  C   UNL A   1      37.608  32.850  31.439  1.00  0.00     0.031 A 
ATOM     55  C   UNL A   1      42.408  30.558  35.183  1.00  0.00     0.049 A 
ATOM     56  C   UNL A   1      38.175  33.287  32.754  1.00  0.00     0.074 A 
ATOM     57  C   UNL A   1      42.873  31.073  36.383  1.00  0.00     0.029 A 
ATOM     58  N   UNL A   1      41.346  31.359  34.792  1.00  0.00    -0.354 N 
ATOM     59  N   UNL A   1      39.162  32.760  33.438  1.00  0.00    -0.248 NA
ATOM     60  C   UNL A   1      37.543  34.448  33.393  1.00  0.00     0.031 C 
ATOM     61  C   UNL A   1      42.071  32.166  36.733  1.00  0.00     0.029 A 
ATOM     62  C   UNL A   1      41.133  32.355  35.732  1.00  0.00     0.049 A 
ATOM     63  H   UNL A   1      40.820  31.237  33.970  1.00  0.00     0.167 HD
ATOM     64  C   UNL A   1      39.266  33.521  34.593  1.00  0.00     0.074 A 
ATOM     65  C   UNL A   1      38.257  34.560  34.505  1.00  0.00     0.031 C 
ATOM     66  C   UNL A   1      40.115  33.368  35.638  1.00  0.00     0.031 A 
BRANCH  53  67
ATOM     67  C   UNL A   1      44.049  28.647  35.027  1.00  0.00    -0.014 A 
ATOM     68  C   UNL A   1      45.387  29.014  34.799  1.00  0.00     0.010 A 
ATOM     69  C   UNL A   1      43.771  27.562  35.878  1.00  0.00     0.010 A 
ATOM     70  C   UNL A   1      46.427  28.291  35.391  1.00  0.00     0.020 A 
ATOM     71  C   UNL A   1      44.807  26.848  36.487  1.00  0.00     0.020 A 
ATOM     72  C   UNL A   1      46.131  27.208  36.227  1.00  0.00     0.054 A 
BRANCH  72  73
ATOM     73  S   UNL A   1      47.495  26.299  37.007  1.00  0.00     0.124 S 
ATOM     74  O   UNL A   1      47.860  25.352  35.957  1.00  0.00    -0.237 OA
ATOM     75  O   UNL A   1      48.474  27.350  37.273  1.00  0.00    -0.237 OA
ATOM     76  O   UNL A   1      46.882  25.710  38.195  1.00  0.00    -0.744 OA
ENDBRANCH  72  73
ENDBRANCH  53  67
BRANCH  54  77
ATOM     77  C   UNL A   1      36.444  33.543  30.828  1.00  0.00    -0.014 A 
ATOM     78  C   UNL A   1      35.232  33.650  31.530  1.00  0.00     0.010 A 
ATOM     79  C   UNL A   1      36.573  34.168  29.574  1.00  0.00     0.010 A 
ATOM     80  C   UNL A   1      34.173  34.387  30.993  1.00  0.00     0.020 A 
ATOM     81  C   UNL A   1      35.525  34.925  29.047  1.00  0.00     0.020 A 
ATOM     82  C   UNL A   1      34.329  35.027  29.760  1.00  0.00     0.054 A 
BRANCH  82  83
ATOM     83  S   UNL A   1      32.989  36.077  29.131  1.00  0.00     0.124 S 
ATOM     84  O   UNL A   1      33.727  37.128  28.439  1.00  0.00    -0.237 OA
ATOM     85  O   UNL A   1      32.237  35.162  28.275  1.00  0.00    -0.237 OA
ATOM     86  O   UNL A   1      32.289  36.492  30.346  1.00  0.00    -0.744 OA
ENDBRANCH  82  83
ENDBRANCH  54  77
BRANCH  66  87
ATOM     87  C   UNL A   1      39.991  34.355  36.763  1.00  0.00    -0.014 A 
ATOM     88  C   UNL A   1      40.684  35.577  36.727  1.00  0.00     0.010 A 
ATOM     89  C   UNL A   1      39.160  34.064  37.858  1.00  0.00     0.010 A 
ATOM     90  C   UNL A   1      40.572  36.481  37.786  1.00  0.00     0.020 A 
ATOM     91  C   UNL A   1      39.032  34.974  38.911  1.00  0.00     0.020 A 
ATOM     92  C   UNL A   1      39.752  36.170  38.875  1.00  0.00     0.054 A 
BRANCH  92  93
ATOM     93  S   UNL A   1      39.602  37.366  40.231  1.00  0.00     0.124 S 
ATOM     94  O   UNL A   1      40.756  38.230  40.001  1.00  0.00    -0.237 OA
ATOM     95  O   UNL A   1      38.298  37.977  39.984  1.00  0.00    -0.237 OA
ATOM     96  O   UNL A   1      39.674  36.534  41.432  1.00  0.00    -0.744 OA
ENDBRANCH  92  93
ENDBRANCH  66  87
ENDBRANCH  40  41
ENDBRANCH  33  35
ENDBRANCH  32  33
ENDBRANCH   1  32
TORSDOF 17
ENDMDL
MODEL 2
REMARK VINA RESULT:     -11.7      5.035      9.142
REMARK SMILES C[NH+]1CCC([NH+]2CCC(Oc3ccc4ccccc4c3)(C(=O)OCCOC(=O)c3ccc(-c4c5nc(c(-c6ccc(S(=O)(=O)[O-])cc6)c6ccc([nH]6)c(-c6ccc(S(=O)(=O)[O-])cc6)c6nc(c(-c7ccc(S(=O)(=O)[O-])cc7)c7ccc4[nH]7)C=C6)C=C5)cc3)CC2)CC1
REMARK SMILES IDX 25 1 24 2 23 3 21 4 22 5 9 6 6 7 7 8 90 9 8 11 89 12 5 13
REMARK SMILES IDX 1 14 2 15 3 16 92 17 4 19 91 20 10 21 11 22 12 23 20 24
REMARK SMILES IDX 13 25 19 26 14 27 18 28 15 29 17 30 16 31 26 32 27 33 28 34
REMARK SMILES IDX 29 35 30 36 88 37 31 38 87 39 32 40 33 41 34 42 81 43 35 44
REMARK SMILES IDX 86 45 80 46 82 47 36 48 85 49 79 50 78 51 37 53 67 54 48 55
REMARK SMILES IDX 66 56 49 57 52 58 65 59 83 60 50 61 51 62 64 64 84 65 53 66
REMARK SMILES IDX 38 67 39 68 47 69 40 70 46 71 41 72 42 73 43 74 44 75 45 76
REMARK SMILES IDX 68 77 69 78 77 79 70 80 76 81 71 82 72 83 73 84 74 85 75 86
REMARK SMILES IDX 54 87 55 88 63 89 56 90 62 91 57 92 58 93 59 94 60 95 61 96
REMARK H PARENT 6 10 2 18 82 52 52 63
REMARK Flexibility Score: inf
ROOT
ATOM      1  C   UNL A   1      37.304  22.070  24.578  1.00  0.00     0.275 C 
ENDROOT
BRANCH   1   2
ATOM      2  C   UNL A   1      36.715  23.175  23.706  1.00  0.00     0.274 C 
BRANCH   2   3
ATOM      3  O   UNL A   1      35.760  23.967  24.447  1.00  0.00    -0.459 OA
BRANCH   3   4
ATOM      4  C   UNL A   1      34.535  24.134  23.867  1.00  0.00     0.351 C 
ATOM      5  O   UNL A   1      34.376  24.565  22.728  1.00  0.00    -0.247 OA
BRANCH   4   6
ATOM      6  C   UNL A   1      33.368  23.834  24.829  1.00  0.00     0.216 C 
ATOM      7  N   UNL A   1      32.930  20.923  25.018  1.00  0.00    -0.332 N 
ATOM      8  C   UNL A   1      34.074  21.546  25.695  1.00  0.00     0.267 C 
ATOM      9  C   UNL A   1      32.600  21.648  23.784  1.00  0.00     0.267 C 
ATOM     10  H   UNL A   1      32.146  20.994  25.667  1.00  0.00     0.348 HD
ATOM     11  C   UNL A   1      33.768  23.000  26.054  1.00  0.00     0.122 C 
ATOM     12  C   UNL A   1      32.247  23.112  24.054  1.00  0.00     0.122 C 
BRANCH   7  13
ATOM     13  C   UNL A   1      33.099  19.464  24.759  1.00  0.00     0.195 C 
ATOM     14  C   UNL A   1      34.251  15.334  25.227  1.00  0.00     0.332 C 
ATOM     15  N   UNL A   1      34.090  16.780  25.406  1.00  0.00    -0.337 N 
ATOM     16  C   UNL A   1      32.676  17.118  25.618  1.00  0.00     0.268 C 
ATOM     17  C   UNL A   1      34.619  17.495  24.239  1.00  0.00     0.268 C 
ATOM     18  H   UNL A   1      34.616  17.067  26.231  1.00  0.00     0.347 HD
ATOM     19  C   UNL A   1      32.512  18.615  25.900  1.00  0.00     0.126 C 
ATOM     20  C   UNL A   1      34.535  19.006  24.451  1.00  0.00     0.126 C 
ENDBRANCH   7  13
BRANCH   6  21
ATOM     21  O   UNL A   1      33.097  25.206  25.238  1.00  0.00    -0.475 OA
BRANCH  21  22
ATOM     22  C   UNL A   1      31.937  25.767  24.797  1.00  0.00     0.121 A 
ATOM     23  C   UNL A   1      30.720  25.348  25.317  1.00  0.00     0.047 A 
ATOM     24  C   UNL A   1      31.999  26.843  23.912  1.00  0.00     0.055 A 
ATOM     25  C   UNL A   1      29.542  25.967  24.902  1.00  0.00     0.012 A 
ATOM     26  C   UNL A   1      30.821  27.484  23.494  1.00  0.00    -0.015 A 
ATOM     27  C   UNL A   1      29.576  27.033  23.991  1.00  0.00    -0.018 A 
ATOM     28  C   UNL A   1      30.848  28.564  22.596  1.00  0.00     0.009 A 
ATOM     29  C   UNL A   1      28.396  27.666  23.573  1.00  0.00     0.009 A 
ATOM     30  C   UNL A   1      29.664  29.187  22.193  1.00  0.00     0.001 A 
ATOM     31  C   UNL A   1      28.440  28.736  22.680  1.00  0.00     0.001 A 
ENDBRANCH  21  22
ENDBRANCH   6  21
ENDBRANCH   4   6
ENDBRANCH   3   4
ENDBRANCH   2   3
ENDBRANCH   1   2
BRANCH   1  32
ATOM     32  O   UNL A   1      37.774  22.646  25.806  1.00  0.00    -0.458 OA
BRANCH  32  33
ATOM     33  C   UNL A   1      38.977  22.215  26.243  1.00  0.00     0.338 C 
ATOM     34  O   UNL A   1      39.377  21.057  26.228  1.00  0.00    -0.246 OA
BRANCH  33  35
ATOM     35  C   UNL A   1      39.802  23.360  26.702  1.00  0.00     0.060 A 
ATOM     36  C   UNL A   1      40.738  23.220  27.731  1.00  0.00     0.016 A 
ATOM     37  C   UNL A   1      39.547  24.630  26.179  1.00  0.00     0.016 A 
ATOM     38  C   UNL A   1      41.334  24.346  28.299  1.00  0.00     0.010 A 
ATOM     39  C   UNL A   1      40.224  25.747  26.683  1.00  0.00     0.010 A 
ATOM     40  C   UNL A   1      41.110  25.623  27.766  1.00  0.00    -0.014 A 
BRANCH  40  41
ATOM     41  C   UNL A   1      41.814  26.819  28.307  1.00  0.00     0.031 A 
ATOM     42  C   UNL A   1      41.041  27.966  28.904  1.00  0.00     0.074 A 
ATOM     43  C   UNL A   1      43.158  26.901  28.230  1.00  0.00     0.049 A 
ATOM     44  N   UNL A   1      41.445  29.180  29.179  1.00  0.00    -0.248 NA
ATOM     45  C   UNL A   1      39.625  27.720  29.222  1.00  0.00     0.031 C 
ATOM     46  C   UNL A   1      44.047  25.855  27.720  1.00  0.00     0.029 A 
ATOM     47  N   UNL A   1      44.011  27.920  28.575  1.00  0.00    -0.354 N 
ATOM     48  C   UNL A   1      40.323  29.861  29.639  1.00  0.00     0.074 A 
ATOM     49  C   UNL A   1      39.223  28.919  29.621  1.00  0.00     0.031 C 
ATOM     50  C   UNL A   1      45.318  26.271  27.814  1.00  0.00     0.029 A 
ATOM     51  C   UNL A   1      45.328  27.647  28.293  1.00  0.00     0.049 A 
ATOM     52  H   UNL A   1      43.709  28.762  28.985  1.00  0.00     0.167 HD
ATOM     53  C   UNL A   1      40.221  31.156  30.028  1.00  0.00     0.031 A 
ATOM     54  C   UNL A   1      46.424  28.429  28.346  1.00  0.00     0.031 A 
ATOM     55  C   UNL A   1      41.327  32.076  30.086  1.00  0.00     0.049 A 
ATOM     56  C   UNL A   1      46.286  29.864  28.749  1.00  0.00     0.074 A 
ATOM     57  C   UNL A   1      41.324  33.406  30.475  1.00  0.00     0.029 A 
ATOM     58  N   UNL A   1      42.638  31.759  29.766  1.00  0.00    -0.354 N 
ATOM     59  N   UNL A   1      45.203  30.518  29.095  1.00  0.00    -0.248 NA
ATOM     60  C   UNL A   1      47.510  30.673  28.742  1.00  0.00     0.031 C 
ATOM     61  C   UNL A   1      42.628  33.901  30.360  1.00  0.00     0.029 A 
ATOM     62  C   UNL A   1      43.449  32.869  29.937  1.00  0.00     0.049 A 
ATOM     63  H   UNL A   1      42.947  30.876  29.461  1.00  0.00     0.167 HD
ATOM     64  C   UNL A   1      45.615  31.820  29.342  1.00  0.00     0.074 A 
ATOM     65  C   UNL A   1      47.049  31.855  29.128  1.00  0.00     0.031 C 
ATOM     66  C   UNL A   1      44.869  32.892  29.704  1.00  0.00     0.031 A 
BRANCH  53  67
ATOM     67  C   UNL A   1      38.852  31.678  30.377  1.00  0.00    -0.014 A 
ATOM     68  C   UNL A   1      38.364  31.637  31.695  1.00  0.00     0.010 A 
ATOM     69  C   UNL A   1      38.069  32.280  29.375  1.00  0.00     0.010 A 
ATOM     70  C   UNL A   1      37.105  32.164  31.997  1.00  0.00     0.020 A 
ATOM     71  C   UNL A   1      36.819  32.826  29.676  1.00  0.00     0.020 A 
ATOM     72  C   UNL A   1      36.337  32.751  30.985  1.00  0.00     0.054 A 
BRANCH  72  73
ATOM     73  S   UNL A   1      34.717  33.454  31.404  1.00  0.00     0.124 S 
ATOM     74  O   UNL A   1      35.089  34.760  31.942  1.00  0.00    -0.237 OA
ATOM     75  O   UNL A   1      34.032  33.478  30.115  1.00  0.00    -0.237 OA
ATOM     76  O   UNL A   1      34.172  32.510  32.377  1.00  0.00    -0.744 OA
ENDBRANCH  72  73
ENDBRANCH  53  67
BRANCH  54  77
ATOM     77  C   UNL A   1      47.735  27.863  27.934  1.00  0.00    -0.014 A 
ATOM     78  C   UNL A   1      48.203  28.036  26.621  1.00  0.00     0.010 A 
ATOM     79  C   UNL A   1      48.555  27.219  28.879  1.00  0.00     0.010 A 
ATOM     80  C   UNL A   1      49.478  27.588  26.265  1.00  0.00     0.020 A 
ATOM     81  C   UNL A   1      49.838  26.793  28.533  1.00  0.00     0.020 A 
ATOM     82  C   UNL A   1      50.291  26.979  27.225  1.00  0.00     0.054 A 
BRANCH  82  83
ATOM     83  S   UNL A   1      51.987  26.509  26.780  1.00  0.00     0.124 S 
ATOM     84  O   UNL A   1      51.924  25.053  26.842  1.00  0.00    -0.237 OA
ATOM     85  O   UNL A   1      52.140  27.081  25.445  1.00  0.00    -0.237 OA
ATOM     86  O   UNL A   1      52.795  27.150  27.817  1.00  0.00    -0.744 OA
ENDBRANCH  82  83
ENDBRANCH  54  77
BRANCH  66  87
ATOM     87  C   UNL A   1      45.599  34.190  29.900  1.00  0.00    -0.014 A 
ATOM     88  C   UNL A   1      45.748  35.099  28.838  1.00  0.00     0.010 A 
ATOM     89  C   UNL A   1      46.123  34.513  31.163  1.00  0.00     0.010 A 
ATOM     90  C   UNL A   1      46.440  36.297  29.028  1.00  0.00     0.020 A 
ATOM     91  C   UNL A   1      46.801  35.718  31.362  1.00  0.00     0.020 A 
ATOM     92  C   UNL A   1      46.969  36.595  30.288  1.00  0.00     0.054 A 
BRANCH  92  93
ATOM     93  S   UNL A   1      47.847  38.166  30.522  1.00  0.00     0.124 S 
ATOM     94  O   UNL A   1      49.017  37.746  31.288  1.00  0.00    -0.237 OA
ATOM     95  O   UNL A   1      48.113  38.596  29.152  1.00  0.00    -0.237 OA
ATOM     96  O   UNL A   1      46.886  38.991  31.251  1.00  0.00    -0.744 OA
ENDBRANCH  92  93
ENDBRANCH  66  87
ENDBRANCH  40  41
ENDBRANCH  33  35
ENDBRANCH  32  33
ENDBRANCH   1  32
TORSDOF 17
ENDMDL
MODEL 3
REMARK VINA RESULT:     -11.6      3.771      8.783
REMARK SMILES C[NH+]1CCC([NH+]2CCC(Oc3ccc4ccccc4c3)(C(=O)OCCOC(=O)c3ccc(-c4c5nc(c(-c6ccc(S(=O)(=O)[O-])cc6)c6ccc([nH]6)c(-c6ccc(S(=O)(=O)[O-])cc6)c6nc(c(-c7ccc(S(=O)(=O)[O-])cc7)c7ccc4[nH]7)C=C6)C=C5)cc3)CC2)CC1
REMARK SMILES IDX 25 1 24 2 23 3 21 4 22 5 9 6 6 7 7 8 90 9 8 11 89 12 5 13
REMARK SMILES IDX 1 14 2 15 3 16 92 17 4 19 91 20 10 21 11 22 12 23 20 24
REMARK SMILES IDX 13 25 19 26 14 27 18 28 15 29 17 30 16 31 26 32 27 33 28 34
REMARK SMILES IDX 29 35 30 36 88 37 31 38 87 39 32 40 33 41 34 42 81 43 35 44
REMARK SMILES IDX 86 45 80 46 82 47 36 48 85 49 79 50 78 51 37 53 67 54 48 55
REMARK SMILES IDX 66 56 49 57 52 58 65 59 83 60 50 61 51 62 64 64 84 65 53 66
REMARK SMILES IDX 38 67 39 68 47 69 40 70 46 71 41 72 42 73 43 74 44 75 45 76
REMARK SMILES IDX 68 77 69 78 77 79 70 80 76 81 71 82 72 83 73 84 74 85 75 86
REMARK SMILES IDX 54 87 55 88 63 89 56 90 62 91 57 92 58 93 59 94 60 95 61 96
REMARK H PARENT 6 10 2 18 82 52 52 63
REMARK Flexibility Score: inf
ROOT
ATOM      1  C   UNL A   1      37.135  23.232  23.895  1.00  0.00     0.275 C 
ENDROOT
BRANCH   1   2
ATOM      2  C   UNL A   1      35.658  23.281  23.516  1.00  0.00     0.274 C 
BRANCH   2   3
ATOM      3  O   UNL A   1      35.007  24.426  24.110  1.00  0.00    -0.459 OA
BRANCH   3   4
ATOM      4  C   UNL A   1      33.878  24.871  23.484  1.00  0.00     0.351 C 
ATOM      5  O   UNL A   1      33.884  25.436  22.394  1.00  0.00    -0.247 OA
BRANCH   4   6
ATOM      6  C   UNL A   1      32.607  24.693  24.338  1.00  0.00     0.216 C 
ATOM      7  N   UNL A   1      31.964  21.827  24.618  1.00  0.00    -0.332 N 
ATOM      8  C   UNL A   1      33.076  22.416  25.376  1.00  0.00     0.267 C 
ATOM      9  C   UNL A   1      31.802  22.505  23.326  1.00  0.00     0.267 C 
ATOM     10  H   UNL A   1      31.127  21.980  25.183  1.00  0.00     0.348 HD
ATOM     11  C   UNL A   1      32.832  23.902  25.634  1.00  0.00     0.122 C 
ATOM     12  C   UNL A   1      31.521  23.999  23.490  1.00  0.00     0.122 C 
BRANCH   7  13
ATOM     13  C   UNL A   1      32.062  20.349  24.447  1.00  0.00     0.195 C 
ATOM     14  C   UNL A   1      33.661  16.420  23.672  1.00  0.00     0.332 C 
ATOM     15  N   UNL A   1      33.493  17.869  23.813  1.00  0.00    -0.337 N 
ATOM     16  C   UNL A   1      33.204  18.219  25.210  1.00  0.00     0.268 C 
ATOM     17  C   UNL A   1      32.420  18.341  22.931  1.00  0.00     0.268 C 
ATOM     18  H   UNL A   1      34.364  18.326  23.541  1.00  0.00     0.347 HD
ATOM     19  C   UNL A   1      33.121  19.739  25.382  1.00  0.00     0.126 C 
ATOM     20  C   UNL A   1      32.293  19.862  23.005  1.00  0.00     0.126 C 
ENDBRANCH   7  13
BRANCH   6  21
ATOM     21  O   UNL A   1      32.387  26.099  24.653  1.00  0.00    -0.475 OA
BRANCH  21  22
ATOM     22  C   UNL A   1      31.254  26.674  24.163  1.00  0.00     0.121 A 
ATOM     23  C   UNL A   1      30.009  26.191  24.539  1.00  0.00     0.047 A 
ATOM     24  C   UNL A   1      31.364  27.823  23.380  1.00  0.00     0.055 A 
ATOM     25  C   UNL A   1      28.855  26.822  24.079  1.00  0.00     0.012 A 
ATOM     26  C   UNL A   1      30.210  28.477  22.917  1.00  0.00    -0.015 A 
ATOM     27  C   UNL A   1      28.939  27.963  23.266  1.00  0.00    -0.018 A 
ATOM     28  C   UNL A   1      30.285  29.630  22.119  1.00  0.00     0.009 A 
ATOM     29  C   UNL A   1      27.783  28.608  22.803  1.00  0.00     0.009 A 
ATOM     30  C   UNL A   1      29.124  30.264  21.669  1.00  0.00     0.001 A 
ATOM     31  C   UNL A   1      27.875  29.752  22.010  1.00  0.00     0.001 A 
ENDBRANCH  21  22
ENDBRANCH   6  21
ENDBRANCH   4   6
ENDBRANCH   3   4
ENDBRANCH   2   3
ENDBRANCH   1   2
BRANCH   1  32
ATOM     32  O   UNL A   1      37.273  23.587  25.279  1.00  0.00    -0.458 OA
BRANCH  32  33
ATOM     33  C   UNL A   1      38.351  23.083  25.918  1.00  0.00     0.338 C 
ATOM     34  O   UNL A   1      38.768  21.934  25.833  1.00  0.00    -0.246 OA
BRANCH  33  35
ATOM     35  C   UNL A   1      39.023  24.140  26.714  1.00  0.00     0.060 A 
ATOM     36  C   UNL A   1      38.751  24.316  28.073  1.00  0.00     0.016 A 
ATOM     37  C   UNL A   1      39.850  25.057  26.060  1.00  0.00     0.016 A 
ATOM     38  C   UNL A   1      39.214  25.448  28.745  1.00  0.00     0.010 A 
ATOM     39  C   UNL A   1      40.397  26.137  26.762  1.00  0.00     0.010 A 
ATOM     40  C   UNL A   1      40.068  26.360  28.110  1.00  0.00    -0.014 A 
BRANCH  40  41
ATOM     41  C   UNL A   1      40.641  27.521  28.845  1.00  0.00     0.031 A 
ATOM     42  C   UNL A   1      39.808  28.743  29.132  1.00  0.00     0.074 A 
ATOM     43  C   UNL A   1      41.934  27.502  29.228  1.00  0.00     0.049 A 
ATOM     44  N   UNL A   1      40.192  29.933  29.516  1.00  0.00    -0.248 NA
ATOM     45  C   UNL A   1      38.353  28.612  28.952  1.00  0.00     0.031 C 
ATOM     46  C   UNL A   1      42.856  26.376  29.062  1.00  0.00     0.029 A 
ATOM     47  N   UNL A   1      42.701  28.468  29.833  1.00  0.00    -0.354 N 
ATOM     48  C   UNL A   1      39.040  30.711  29.560  1.00  0.00     0.074 A 
ATOM     49  C   UNL A   1      37.938  29.851  29.178  1.00  0.00     0.031 C 
ATOM     50  C   UNL A   1      44.049  26.702  29.578  1.00  0.00     0.029 A 
ATOM     51  C   UNL A   1      44.009  28.090  30.018  1.00  0.00     0.049 A 
ATOM     52  H   UNL A   1      42.347  29.345  30.107  1.00  0.00     0.167 HD
ATOM     53  C   UNL A   1      38.918  32.023  29.877  1.00  0.00     0.031 A 
ATOM     54  C   UNL A   1      45.082  28.791  30.433  1.00  0.00     0.031 A 
ATOM     55  C   UNL A   1      40.009  32.861  30.299  1.00  0.00     0.049 A 
ATOM     56  C   UNL A   1      44.932  30.247  30.750  1.00  0.00     0.074 A 
ATOM     57  C   UNL A   1      39.982  34.202  30.650  1.00  0.00     0.029 A 
ATOM     58  N   UNL A   1      41.321  32.439  30.447  1.00  0.00    -0.354 N 
ATOM     59  N   UNL A   1      43.852  30.990  30.700  1.00  0.00    -0.248 NA
ATOM     60  C   UNL A   1      46.148  30.964  31.152  1.00  0.00     0.031 C 
ATOM     61  C   UNL A   1      41.284  34.596  30.980  1.00  0.00     0.029 A 
ATOM     62  C   UNL A   1      42.114  33.492  30.872  1.00  0.00     0.049 A 
ATOM     63  H   UNL A   1      41.643  31.525  30.274  1.00  0.00     0.167 HD
ATOM     64  C   UNL A   1      44.260  32.267  31.059  1.00  0.00     0.074 A 
ATOM     65  C   UNL A   1      45.680  32.190  31.346  1.00  0.00     0.031 C 
ATOM     66  C   UNL A   1      43.526  33.404  31.135  1.00  0.00     0.031 A 
BRANCH  53  67
ATOM     67  C   UNL A   1      37.558  32.655  29.735  1.00  0.00    -0.014 A 
ATOM     68  C   UNL A   1      36.685  32.775  30.830  1.00  0.00     0.010 A 
ATOM     69  C   UNL A   1      37.179  33.199  28.494  1.00  0.00     0.010 A 
ATOM     70  C   UNL A   1      35.444  33.402  30.678  1.00  0.00     0.020 A 
ATOM     71  C   UNL A   1      35.948  33.843  28.341  1.00  0.00     0.020 A 
ATOM     72  C   UNL A   1      35.081  33.928  29.433  1.00  0.00     0.054 A 
BRANCH  72  73
ATOM     73  S   UNL A   1      33.478  34.762  29.263  1.00  0.00     0.124 S 
ATOM     74  O   UNL A   1      32.789  33.893  28.313  1.00  0.00    -0.237 OA
ATOM     75  O   UNL A   1      32.955  34.739  30.627  1.00  0.00    -0.237 OA
ATOM     76  O   UNL A   1      33.830  36.087  28.758  1.00  0.00    -0.744 OA
ENDBRANCH  72  73
ENDBRANCH  53  67
BRANCH  54  77
ATOM     77  C   UNL A   1      46.404  28.117  30.496  1.00  0.00    -0.014 A 
ATOM     78  C   UNL A   1      46.808  27.450  31.665  1.00  0.00     0.010 A 
ATOM     79  C   UNL A   1      47.228  28.072  29.356  1.00  0.00     0.010 A 
ATOM     80  C   UNL A   1      48.008  26.734  31.686  1.00  0.00     0.020 A 
ATOM     81  C   UNL A   1      48.415  27.337  29.367  1.00  0.00     0.020 A 
ATOM     82  C   UNL A   1      48.799  26.674  30.535  1.00  0.00     0.054 A 
BRANCH  82  83
ATOM     83  S   UNL A   1      50.294  25.645  30.540  1.00  0.00     0.124 S 
ATOM     84  O   UNL A   1      50.248  25.037  29.215  1.00  0.00    -0.237 OA
ATOM     85  O   UNL A   1      51.358  26.623  30.752  1.00  0.00    -0.237 OA
ATOM     86  O   UNL A   1      50.069  24.733  31.661  1.00  0.00    -0.744 OA
ENDBRANCH  82  83
ENDBRANCH  54  77
BRANCH  66  87
ATOM     87  C   UNL A   1      44.249  34.652  31.554  1.00  0.00    -0.014 A 
ATOM     88  C   UNL A   1      44.205  35.095  32.887  1.00  0.00     0.010 A 
ATOM     89  C   UNL A   1      44.994  35.378  30.609  1.00  0.00     0.010 A 
ATOM     90  C   UNL A   1      44.870  36.264  33.263  1.00  0.00     0.020 A 
ATOM     91  C   UNL A   1      45.674  36.539  30.985  1.00  0.00     0.020 A 
ATOM     92  C   UNL A   1      45.594  36.983  32.306  1.00  0.00     0.054 A 
BRANCH  92  93
ATOM     93  S   UNL A   1      46.469  38.489  32.816  1.00  0.00     0.124 S 
ATOM     94  O   UNL A   1      47.737  38.358  32.104  1.00  0.00    -0.237 OA
ATOM     95  O   UNL A   1      45.587  39.552  32.342  1.00  0.00    -0.237 OA
ATOM     96  O   UNL A   1      46.553  38.362  34.270  1.00  0.00    -0.744 OA
ENDBRANCH  92  93
ENDBRANCH  66  87
ENDBRANCH  40  41
ENDBRANCH  33  35
ENDBRANCH  32  33
ENDBRANCH   1  32
TORSDOF 17
ENDMDL
