MODEL 1
REMARK VINA RESULT:      -9.7      0.000      0.000
REMARK SMILES Cn1cc(/C=C/C(=O)N(CC(=O)OCCOC(=O)c2ccc(-c3c4nc(c(-c5ccc(S(=O)(=O)[O-])cc5)c5ccc([nH]5)c(-c5ccc(S(=O)(=O)[O-])cc5)c5nc(c(-c6ccc(S(=O)(=O)[O-])cc6)c6ccc3[nH]6)C=C5)C=C4)cc2)C(C)(C)C)cn1
REMARK SMILES IDX 14 1 13 2 11 3 12 4 10 5 9 6 7 7 8 8 6 9 5 10 4 11 1 12 2 13
REMARK SMILES IDX 3 14 84 15 83 16 79 17 80 18 81 19 82 20 15 21 16 22 17 23
REMARK SMILES IDX 18 24 19 25 20 26 78 27 21 28 77 29 22 30 23 31 24 32 71 33
REMARK SMILES IDX 25 34 76 35 70 36 72 37 26 38 75 39 69 40 68 41 27 43 57 44
REMARK SMILES IDX 38 45 56 46 39 47 42 48 55 49 73 50 40 51 41 52 54 54 74 55
REMARK SMILES IDX 43 56 28 57 29 58 37 59 30 60 36 61 31 62 32 63 33 64 34 65
REMARK SMILES IDX 35 66 58 67 59 68 67 69 60 70 66 71 61 72 62 73 63 74 64 75
REMARK SMILES IDX 65 76 44 77 45 78 53 79 46 80 52 81 47 82 48 83 49 84 50 85
REMARK SMILES IDX 51 86
REMARK H PARENT 72 42 42 53
REMARK Flexibility Score: inf
ROOT
ATOM      1  C   UNL A   1      31.692  28.171  26.269  1.00  0.00     0.274 C 
ENDROOT
BRANCH   1   2
ATOM      2  O   UNL A   1      31.674  26.895  26.942  1.00  0.00    -0.461 OA
BRANCH   2   3
ATOM      3  C   UNL A   1      31.037  25.891  26.276  1.00  0.00     0.325 C 
ATOM      4  O   UNL A   1      29.925  25.994  25.769  1.00  0.00    -0.250 OA
BRANCH   3   5
ATOM      5  C   UNL A   1      31.862  24.605  26.164  1.00  0.00     0.243 C 
BRANCH   5   6
ATOM      6  N   UNL A   1      32.334  24.259  24.812  1.00  0.00    -0.323 N 
BRANCH   6   7
ATOM      7  C   UNL A   1      31.620  23.360  24.013  1.00  0.00     0.247 C 
ATOM      8  O   UNL A   1      30.751  23.689  23.207  1.00  0.00    -0.270 OA
BRANCH   7   9
ATOM      9  C   UNL A   1      31.763  21.894  24.241  1.00  0.00     0.072 C 
ATOM     10  C   UNL A   1      32.439  21.019  23.481  1.00  0.00     0.017 C 
BRANCH  10  11
ATOM     11  C   UNL A   1      32.530  19.625  23.751  1.00  0.00     0.013 A 
ATOM     12  C   UNL A   1      32.972  16.690  25.787  1.00  0.00     0.173 C 
ATOM     13  N   UNL A   1      32.762  17.713  24.790  1.00  0.00    -0.275 N 
ATOM     14  C   UNL A   1      32.724  19.064  24.992  1.00  0.00     0.116 A 
ATOM     15  N   UNL A   1      32.614  17.359  23.499  1.00  0.00    -0.181 NA
ATOM     16  C   UNL A   1      32.458  18.528  22.869  1.00  0.00     0.143 A 
ENDBRANCH  10  11
ENDBRANCH   7   9
ENDBRANCH   6   7
BRANCH   6  17
ATOM     17  C   UNL A   1      33.581  24.912  24.254  1.00  0.00     0.035 C 
ATOM     18  C   UNL A   1      33.241  26.160  23.414  1.00  0.00     0.034 C 
ATOM     19  C   UNL A   1      34.520  25.304  25.421  1.00  0.00     0.034 C 
ATOM     20  C   UNL A   1      34.425  23.997  23.332  1.00  0.00     0.034 C 
ENDBRANCH   6  17
ENDBRANCH   5   6
ENDBRANCH   3   5
ENDBRANCH   2   3
ENDBRANCH   1   2
BRANCH   1  21
ATOM     21  C   UNL A   1      32.202  29.275  27.194  1.00  0.00     0.275 C 
BRANCH  21  22
ATOM     22  O   UNL A   1      33.639  29.267  27.210  1.00  0.00    -0.458 OA
BRANCH  22  23
ATOM     23  C   UNL A   1      34.232  30.385  27.686  1.00  0.00     0.338 C 
ATOM     24  O   UNL A   1      33.716  31.492  27.800  1.00  0.00    -0.246 OA
BRANCH  23  25
ATOM     25  C   UNL A   1      35.621  30.100  28.107  1.00  0.00     0.060 A 
ATOM     26  C   UNL A   1      36.688  30.194  27.210  1.00  0.00     0.016 A 
ATOM     27  C   UNL A   1      35.854  29.634  29.403  1.00  0.00     0.016 A 
ATOM     28  C   UNL A   1      37.960  29.758  27.575  1.00  0.00     0.010 A 
ATOM     29  C   UNL A   1      37.151  29.296  29.800  1.00  0.00     0.010 A 
ATOM     30  C   UNL A   1      38.217  29.334  28.886  1.00  0.00    -0.014 A 
BRANCH  30  31
ATOM     31  C   UNL A   1      39.594  28.959  29.312  1.00  0.00     0.031 A 
ATOM     32  C   UNL A   1      40.450  29.927  30.087  1.00  0.00     0.074 A 
ATOM     33  C   UNL A   1      40.097  27.753  28.974  1.00  0.00     0.049 A 
ATOM     34  N   UNL A   1      41.724  29.852  30.375  1.00  0.00    -0.248 NA
ATOM     35  C   UNL A   1      39.792  31.144  30.590  1.00  0.00     0.031 C 
ATOM     36  C   UNL A   1      39.378  26.703  28.245  1.00  0.00     0.029 A 
ATOM     37  N   UNL A   1      41.337  27.207  29.199  1.00  0.00    -0.354 N 
ATOM     38  C   UNL A   1      42.035  31.032  31.039  1.00  0.00     0.074 A 
ATOM     39  C   UNL A   1      40.814  31.806  31.116  1.00  0.00     0.031 C 
ATOM     40  C   UNL A   1      40.174  25.632  28.116  1.00  0.00     0.029 A 
ATOM     41  C   UNL A   1      41.485  25.945  28.672  1.00  0.00     0.049 A 
ATOM     42  H   UNL A   1      42.051  27.673  29.689  1.00  0.00     0.167 HD
ATOM     43  C   UNL A   1      43.231  31.438  31.533  1.00  0.00     0.031 A 
ATOM     44  C   UNL A   1      42.561  25.140  28.598  1.00  0.00     0.031 A 
ATOM     45  C   UNL A   1      44.438  30.656  31.489  1.00  0.00     0.049 A 
ATOM     46  C   UNL A   1      43.877  25.618  29.136  1.00  0.00     0.074 A 
ATOM     47  C   UNL A   1      45.690  30.977  31.985  1.00  0.00     0.029 A 
ATOM     48  N   UNL A   1      44.543  29.392  30.929  1.00  0.00    -0.354 N 
ATOM     49  N   UNL A   1      44.160  26.757  29.719  1.00  0.00    -0.248 NA
ATOM     50  C   UNL A   1      45.020  24.708  28.989  1.00  0.00     0.031 C 
ATOM     51  C   UNL A   1      46.562  29.921  31.693  1.00  0.00     0.029 A 
ATOM     52  C   UNL A   1      45.842  28.925  31.054  1.00  0.00     0.049 A 
ATOM     53  H   UNL A   1      43.804  28.899  30.505  1.00  0.00     0.167 HD
ATOM     54  C   UNL A   1      45.518  26.702  30.008  1.00  0.00     0.074 A 
ATOM     55  C   UNL A   1      45.991  25.409  29.560  1.00  0.00     0.031 C 
ATOM     56  C   UNL A   1      46.302  27.644  30.587  1.00  0.00     0.031 A 
BRANCH  43  57
ATOM     57  C   UNL A   1      43.302  32.816  32.134  1.00  0.00    -0.014 A 
ATOM     58  C   UNL A   1      43.563  33.949  31.343  1.00  0.00     0.010 A 
ATOM     59  C   UNL A   1      43.058  32.983  33.510  1.00  0.00     0.010 A 
ATOM     60  C   UNL A   1      43.611  35.220  31.924  1.00  0.00     0.020 A 
ATOM     61  C   UNL A   1      43.084  34.254  34.090  1.00  0.00     0.020 A 
ATOM     62  C   UNL A   1      43.377  35.363  33.295  1.00  0.00     0.054 A 
BRANCH  62  63
ATOM     63  S   UNL A   1      43.422  37.025  34.024  1.00  0.00     0.124 S 
ATOM     64  O   UNL A   1      42.032  37.208  34.436  1.00  0.00    -0.237 OA
ATOM     65  O   UNL A   1      44.384  36.875  35.113  1.00  0.00    -0.237 OA
ATOM     66  O   UNL A   1      43.863  37.874  32.920  1.00  0.00    -0.744 OA
ENDBRANCH  62  63
ENDBRANCH  43  57
BRANCH  44  67
ATOM     67  C   UNL A   1      42.438  23.812  27.943  1.00  0.00    -0.014 A 
ATOM     68  C   UNL A   1      42.551  23.693  26.548  1.00  0.00     0.010 A 
ATOM     69  C   UNL A   1      42.256  22.652  28.720  1.00  0.00     0.010 A 
ATOM     70  C   UNL A   1      42.488  22.437  25.940  1.00  0.00     0.020 A 
ATOM     71  C   UNL A   1      42.217  21.393  28.118  1.00  0.00     0.020 A 
ATOM     72  C   UNL A   1      42.327  21.294  26.729  1.00  0.00     0.054 A 
BRANCH  72  73
ATOM     73  S   UNL A   1      42.340  19.663  25.933  1.00  0.00     0.124 S 
ATOM     74  O   UNL A   1      40.973  19.558  25.437  1.00  0.00    -0.237 OA
ATOM     75  O   UNL A   1      43.376  19.813  24.913  1.00  0.00    -0.237 OA
ATOM     76  O   UNL A   1      42.686  18.758  27.027  1.00  0.00    -0.744 OA
ENDBRANCH  72  73
ENDBRANCH  44  67
BRANCH  56  77
ATOM     77  C   UNL A   1      47.752  27.297  30.775  1.00  0.00    -0.014 A 
ATOM     78  C   UNL A   1      48.208  26.733  31.979  1.00  0.00     0.010 A 
ATOM     79  C   UNL A   1      48.665  27.523  29.730  1.00  0.00     0.010 A 
ATOM     80  C   UNL A   1      49.563  26.436  32.150  1.00  0.00     0.020 A 
ATOM     81  C   UNL A   1      50.017  27.209  29.890  1.00  0.00     0.020 A 
ATOM     82  C   UNL A   1      50.460  26.684  31.106  1.00  0.00     0.054 A 
BRANCH  82  83
ATOM     83  S   UNL A   1      52.212  26.277  31.339  1.00  0.00     0.124 S 
ATOM     84  O   UNL A   1      52.763  26.535  30.012  1.00  0.00    -0.237 OA
ATOM     85  O   UNL A   1      52.626  27.211  32.384  1.00  0.00    -0.237 OA
ATOM     86  O   UNL A   1      52.188  24.873  31.744  1.00  0.00    -0.744 OA
ENDBRANCH  82  83
ENDBRANCH  56  77
ENDBRANCH  30  31
ENDBRANCH  23  25
ENDBRANCH  22  23
ENDBRANCH  21  22
ENDBRANCH   1  21
TORSDOF 19
ENDMDL
MODEL 2
REMARK VINA RESULT:      -9.6      1.974      2.602
REMARK SMILES Cn1cc(/C=C/C(=O)N(CC(=O)OCCOC(=O)c2ccc(-c3c4nc(c(-c5ccc(S(=O)(=O)[O-])cc5)c5ccc([nH]5)c(-c5ccc(S(=O)(=O)[O-])cc5)c5nc(c(-c6ccc(S(=O)(=O)[O-])cc6)c6ccc3[nH]6)C=C5)C=C4)cc2)C(C)(C)C)cn1
REMARK SMILES IDX 14 1 13 2 11 3 12 4 10 5 9 6 7 7 8 8 6 9 5 10 4 11 1 12 2 13
REMARK SMILES IDX 3 14 84 15 83 16 79 17 80 18 81 19 82 20 15 21 16 22 17 23
REMARK SMILES IDX 18 24 19 25 20 26 78 27 21 28 77 29 22 30 23 31 24 32 71 33
REMARK SMILES IDX 25 34 76 35 70 36 72 37 26 38 75 39 69 40 68 41 27 43 57 44
REMARK SMILES IDX 38 45 56 46 39 47 42 48 55 49 73 50 40 51 41 52 54 54 74 55
REMARK SMILES IDX 43 56 28 57 29 58 37 59 30 60 36 61 31 62 32 63 33 64 34 65
REMARK SMILES IDX 35 66 58 67 59 68 67 69 60 70 66 71 61 72 62 73 63 74 64 75
REMARK SMILES IDX 65 76 44 77 45 78 53 79 46 80 52 81 47 82 48 83 49 84 50 85
REMARK SMILES IDX 51 86
REMARK H PARENT 72 42 42 53
REMARK Flexibility Score: inf
ROOT
ATOM      1  C   UNL A   1      31.644  29.287  26.928  1.00  0.00     0.274 C 
ENDROOT
BRANCH   1   2
ATOM      2  O   UNL A   1      31.952  28.008  27.519  1.00  0.00    -0.461 OA
BRANCH   2   3
ATOM      3  C   UNL A   1      31.819  26.934  26.691  1.00  0.00     0.325 C 
ATOM      4  O   UNL A   1      30.769  26.323  26.514  1.00  0.00    -0.250 OA
BRANCH   3   5
ATOM      5  C   UNL A   1      33.104  26.571  25.940  1.00  0.00     0.243 C 
BRANCH   5   6
ATOM      6  N   UNL A   1      32.926  26.059  24.570  1.00  0.00    -0.323 N 
BRANCH   6   7
ATOM      7  C   UNL A   1      32.740  24.692  24.335  1.00  0.00     0.247 C 
ATOM      8  O   UNL A   1      31.658  24.179  24.053  1.00  0.00    -0.270 OA
BRANCH   7   9
ATOM      9  C   UNL A   1      33.854  23.740  24.602  1.00  0.00     0.072 C 
ATOM     10  C   UNL A   1      35.170  23.996  24.544  1.00  0.00     0.017 C 
BRANCH  10  11
ATOM     11  C   UNL A   1      36.187  23.036  24.803  1.00  0.00     0.013 A 
ATOM     12  C   UNL A   1      37.681  19.762  24.867  1.00  0.00     0.173 C 
ATOM     13  N   UNL A   1      37.289  21.150  24.933  1.00  0.00    -0.275 N 
ATOM     14  C   UNL A   1      36.111  21.694  24.506  1.00  0.00     0.116 A 
ATOM     15  N   UNL A   1      38.122  22.047  25.496  1.00  0.00    -0.181 NA
ATOM     16  C   UNL A   1      37.452  23.199  25.402  1.00  0.00     0.143 A 
ENDBRANCH  10  11
ENDBRANCH   7   9
ENDBRANCH   6   7
BRANCH   6  17
ATOM     17  C   UNL A   1      32.897  27.019  23.399  1.00  0.00     0.035 C 
ATOM     18  C   UNL A   1      33.699  28.303  23.699  1.00  0.00     0.034 C 
ATOM     19  C   UNL A   1      33.476  26.319  22.147  1.00  0.00     0.034 C 
ATOM     20  C   UNL A   1      31.479  27.491  22.993  1.00  0.00     0.034 C 
ENDBRANCH   6  17
ENDBRANCH   5   6
ENDBRANCH   3   5
ENDBRANCH   2   3
ENDBRANCH   1   2
BRANCH   1  21
ATOM     21  C   UNL A   1      32.908  30.125  26.735  1.00  0.00     0.275 C 
BRANCH  21  22
ATOM     22  O   UNL A   1      33.955  29.620  27.581  1.00  0.00    -0.458 OA
BRANCH  22  23
ATOM     23  C   UNL A   1      34.651  30.547  28.276  1.00  0.00     0.338 C 
ATOM     24  O   UNL A   1      34.214  31.598  28.733  1.00  0.00    -0.246 OA
BRANCH  23  25
ATOM     25  C   UNL A   1      36.053  30.113  28.463  1.00  0.00     0.060 A 
ATOM     26  C   UNL A   1      36.532  29.713  29.713  1.00  0.00     0.016 A 
ATOM     27  C   UNL A   1      36.939  30.200  27.386  1.00  0.00     0.016 A 
ATOM     28  C   UNL A   1      37.891  29.475  29.908  1.00  0.00     0.010 A 
ATOM     29  C   UNL A   1      38.283  29.858  27.559  1.00  0.00     0.010 A 
ATOM     30  C   UNL A   1      38.781  29.511  28.825  1.00  0.00    -0.014 A 
BRANCH  30  31
ATOM     31  C   UNL A   1      40.218  29.162  29.005  1.00  0.00     0.031 A 
ATOM     32  C   UNL A   1      41.200  30.186  29.510  1.00  0.00     0.074 A 
ATOM     33  C   UNL A   1      40.655  27.927  28.682  1.00  0.00     0.049 A 
ATOM     34  N   UNL A   1      42.507  30.125  29.550  1.00  0.00    -0.248 NA
ATOM     35  C   UNL A   1      40.643  31.448  30.024  1.00  0.00     0.031 C 
ATOM     36  C   UNL A   1      39.817  26.824  28.202  1.00  0.00     0.029 A 
ATOM     37  N   UNL A   1      41.919  27.392  28.708  1.00  0.00    -0.354 N 
ATOM     38  C   UNL A   1      42.932  31.356  30.035  1.00  0.00     0.074 A 
ATOM     39  C   UNL A   1      41.743  32.145  30.281  1.00  0.00     0.031 C 
ATOM     40  C   UNL A   1      40.581  25.739  28.014  1.00  0.00     0.029 A 
ATOM     41  C   UNL A   1      41.972  26.087  28.275  1.00  0.00     0.049 A 
ATOM     42  H   UNL A   1      42.712  27.892  29.007  1.00  0.00     0.167 HD
ATOM     43  C   UNL A   1      44.198  31.793  30.249  1.00  0.00     0.031 A 
ATOM     44  C   UNL A   1      43.020  25.269  28.062  1.00  0.00     0.031 A 
ATOM     45  C   UNL A   1      45.379  30.998  30.039  1.00  0.00     0.049 A 
ATOM     46  C   UNL A   1      44.411  25.780  28.290  1.00  0.00     0.074 A 
ATOM     47  C   UNL A   1      46.702  31.350  30.251  1.00  0.00     0.029 A 
ATOM     48  N   UNL A   1      45.383  29.690  29.581  1.00  0.00    -0.354 N 
ATOM     49  N   UNL A   1      44.793  26.963  28.704  1.00  0.00    -0.248 NA
ATOM     50  C   UNL A   1      45.511  24.851  28.003  1.00  0.00     0.031 C 
ATOM     51  C   UNL A   1      47.508  30.265  29.888  1.00  0.00     0.029 A 
ATOM     52  C   UNL A   1      46.685  29.224  29.491  1.00  0.00     0.049 A 
ATOM     53  H   UNL A   1      44.580  29.169  29.355  1.00  0.00     0.167 HD
ATOM     54  C   UNL A   1      46.182  26.921  28.727  1.00  0.00     0.074 A 
ATOM     55  C   UNL A   1      46.569  25.589  28.310  1.00  0.00     0.031 C 
ATOM     56  C   UNL A   1      47.056  27.902  29.057  1.00  0.00     0.031 A 
BRANCH  43  57
ATOM     57  C   UNL A   1      44.374  33.217  30.702  1.00  0.00    -0.014 A 
ATOM     58  C   UNL A   1      44.306  33.568  32.062  1.00  0.00     0.010 A 
ATOM     59  C   UNL A   1      44.659  34.214  29.751  1.00  0.00     0.010 A 
ATOM     60  C   UNL A   1      44.488  34.897  32.458  1.00  0.00     0.020 A 
ATOM     61  C   UNL A   1      44.862  35.539  30.145  1.00  0.00     0.020 A 
ATOM     62  C   UNL A   1      44.758  35.875  31.496  1.00  0.00     0.054 A 
BRANCH  62  63
ATOM     63  S   UNL A   1      45.012  37.589  32.035  1.00  0.00     0.124 S 
ATOM     64  O   UNL A   1      45.218  37.423  33.472  1.00  0.00    -0.237 OA
ATOM     65  O   UNL A   1      46.192  37.996  31.276  1.00  0.00    -0.237 OA
ATOM     66  O   UNL A   1      43.770  38.259  31.655  1.00  0.00    -0.744 OA
ENDBRANCH  62  63
ENDBRANCH  43  57
BRANCH  44  67
ATOM     67  C   UNL A   1      42.782  23.890  27.563  1.00  0.00    -0.014 A 
ATOM     68  C   UNL A   1      42.847  23.610  26.188  1.00  0.00     0.010 A 
ATOM     69  C   UNL A   1      42.538  22.840  28.468  1.00  0.00     0.010 A 
ATOM     70  C   UNL A   1      42.675  22.303  25.725  1.00  0.00     0.020 A 
ATOM     71  C   UNL A   1      42.391  21.529  28.011  1.00  0.00     0.020 A 
ATOM     72  C   UNL A   1      42.455  21.269  26.640  1.00  0.00     0.054 A 
BRANCH  72  73
ATOM     73  S   UNL A   1      42.326  19.564  26.032  1.00  0.00     0.124 S 
ATOM     74  O   UNL A   1      43.231  19.582  24.889  1.00  0.00    -0.237 OA
ATOM     75  O   UNL A   1      42.772  18.780  27.182  1.00  0.00    -0.237 OA
ATOM     76  O   UNL A   1      40.907  19.427  25.711  1.00  0.00    -0.744 OA
ENDBRANCH  72  73
ENDBRANCH  44  67
BRANCH  56  77
ATOM     77  C   UNL A   1      48.518  27.560  28.989  1.00  0.00    -0.014 A 
ATOM     78  C   UNL A   1      49.192  27.049  30.111  1.00  0.00     0.010 A 
ATOM     79  C   UNL A   1      49.220  27.738  27.783  1.00  0.00     0.010 A 
ATOM     80  C   UNL A   1      50.556  26.755  30.040  1.00  0.00     0.020 A 
ATOM     81  C   UNL A   1      50.581  27.427  27.704  1.00  0.00     0.020 A 
ATOM     82  C   UNL A   1      51.244  26.955  28.838  1.00  0.00     0.054 A 
BRANCH  82  83
ATOM     83  S   UNL A   1      53.010  26.554  28.761  1.00  0.00     0.124 S 
ATOM     84  O   UNL A   1      53.240  25.940  30.066  1.00  0.00    -0.237 OA
ATOM     85  O   UNL A   1      53.088  25.646  27.618  1.00  0.00    -0.237 OA
ATOM     86  O   UNL A   1      53.650  27.853  28.560  1.00  0.00    -0.744 OA
ENDBRANCH  82  83
ENDBRANCH  56  77
ENDBRANCH  30  31
ENDBRANCH  23  25
ENDBRANCH  22  23
ENDBRANCH  21  22
ENDBRANCH   1  21
TORSDOF 19
ENDMDL
MODEL 3
REMARK VINA RESULT:      -9.5      3.505      4.451
REMARK SMILES Cn1cc(/C=C/C(=O)N(CC(=O)OCCOC(=O)c2ccc(-c3c4nc(c(-c5ccc(S(=O)(=O)[O-])cc5)c5ccc([nH]5)c(-c5ccc(S(=O)(=O)[O-])cc5)c5nc(c(-c6ccc(S(=O)(=O)[O-])cc6)c6ccc3[nH]6)C=C5)C=C4)cc2)C(C)(C)C)cn1
REMARK SMILES IDX 14 1 13 2 11 3 12 4 10 5 9 6 7 7 8 8 6 9 5 10 4 11 1 12 2 13
REMARK SMILES IDX 3 14 84 15 83 16 79 17 80 18 81 19 82 20 15 21 16 22 17 23
REMARK SMILES IDX 18 24 19 25 20 26 78 27 21 28 77 29 22 30 23 31 24 32 71 33
REMARK SMILES IDX 25 34 76 35 70 36 72 37 26 38 75 39 69 40 68 41 27 43 57 44
REMARK SMILES IDX 38 45 56 46 39 47 42 48 55 49 73 50 40 51 41 52 54 54 74 55
REMARK SMILES IDX 43 56 28 57 29 58 37 59 30 60 36 61 31 62 32 63 33 64 34 65
REMARK SMILES IDX 35 66 58 67 59 68 67 69 60 70 66 71 61 72 62 73 63 74 64 75
REMARK SMILES IDX 65 76 44 77 45 78 53 79 46 80 52 81 47 82 48 83 49 84 50 85
REMARK SMILES IDX 51 86
REMARK H PARENT 72 42 42 53
REMARK Flexibility Score: inf
ROOT
ATOM      1  C   UNL A   1      33.929  29.684  26.189  1.00  0.00     0.274 C 
ENDROOT
BRANCH   1   2
ATOM      2  O   UNL A   1      32.554  30.117  26.219  1.00  0.00    -0.461 OA
BRANCH   2   3
ATOM      3  C   UNL A   1      31.698  29.400  25.439  1.00  0.00     0.325 C 
ATOM      4  O   UNL A   1      30.989  29.884  24.562  1.00  0.00    -0.250 OA
BRANCH   3   5
ATOM      5  C   UNL A   1      31.727  27.893  25.717  1.00  0.00     0.243 C 
BRANCH   5   6
ATOM      6  N   UNL A   1      31.631  27.019  24.535  1.00  0.00    -0.323 N 
BRANCH   6   7
ATOM      7  C   UNL A   1      32.667  26.968  23.596  1.00  0.00     0.247 C 
ATOM      8  O   UNL A   1      32.766  27.726  22.632  1.00  0.00    -0.270 OA
BRANCH   7   9
ATOM      9  C   UNL A   1      33.634  25.835  23.625  1.00  0.00     0.072 C 
ATOM     10  C   UNL A   1      34.165  25.252  24.711  1.00  0.00     0.017 C 
BRANCH  10  11
ATOM     11  C   UNL A   1      35.093  24.175  24.671  1.00  0.00     0.013 A 
ATOM     12  C   UNL A   1      37.926  22.231  25.746  1.00  0.00     0.173 C 
ATOM     13  N   UNL A   1      36.762  22.842  25.147  1.00  0.00    -0.275 N 
ATOM     14  C   UNL A   1      36.119  23.973  25.566  1.00  0.00     0.116 A 
ATOM     15  N   UNL A   1      36.228  22.300  24.036  1.00  0.00    -0.181 NA
ATOM     16  C   UNL A   1      35.201  23.108  23.756  1.00  0.00     0.143 A 
ENDBRANCH  10  11
ENDBRANCH   7   9
ENDBRANCH   6   7
BRANCH   6  17
ATOM     17  C   UNL A   1      30.421  26.128  24.347  1.00  0.00     0.035 C 
ATOM     18  C   UNL A   1      29.942  25.532  25.687  1.00  0.00     0.034 C 
ATOM     19  C   UNL A   1      29.279  26.944  23.697  1.00  0.00     0.034 C 
ATOM     20  C   UNL A   1      30.656  24.919  23.406  1.00  0.00     0.034 C 
ENDBRANCH   6  17
ENDBRANCH   5   6
ENDBRANCH   3   5
ENDBRANCH   2   3
ENDBRANCH   1   2
BRANCH   1  21
ATOM     21  C   UNL A   1      34.462  29.444  27.601  1.00  0.00     0.275 C 
BRANCH  21  22
ATOM     22  O   UNL A   1      35.554  30.342  27.865  1.00  0.00    -0.458 OA
BRANCH  22  23
ATOM     23  C   UNL A   1      36.165  30.194  29.061  1.00  0.00     0.338 C 
ATOM     24  O   UNL A   1      35.663  30.379  30.165  1.00  0.00    -0.246 OA
BRANCH  23  25
ATOM     25  C   UNL A   1      37.557  29.729  28.882  1.00  0.00     0.060 A 
ATOM     26  C   UNL A   1      38.366  29.410  29.976  1.00  0.00     0.016 A 
ATOM     27  C   UNL A   1      38.102  29.701  27.596  1.00  0.00     0.016 A 
ATOM     28  C   UNL A   1      39.722  29.140  29.800  1.00  0.00     0.010 A 
ATOM     29  C   UNL A   1      39.437  29.328  27.412  1.00  0.00     0.010 A 
ATOM     30  C   UNL A   1      40.269  29.063  28.511  1.00  0.00    -0.014 A 
BRANCH  30  31
ATOM     31  C   UNL A   1      41.694  28.680  28.308  1.00  0.00     0.031 A 
ATOM     32  C   UNL A   1      42.785  29.717  28.366  1.00  0.00     0.074 A 
ATOM     33  C   UNL A   1      42.013  27.397  28.036  1.00  0.00     0.049 A 
ATOM     34  N   UNL A   1      44.045  29.607  28.031  1.00  0.00    -0.248 NA
ATOM     35  C   UNL A   1      42.408  31.055  28.850  1.00  0.00     0.031 C 
ATOM     36  C   UNL A   1      41.067  26.279  27.970  1.00  0.00     0.029 A 
ATOM     37  N   UNL A   1      43.227  26.817  27.762  1.00  0.00    -0.354 N 
ATOM     38  C   UNL A   1      44.599  30.870  28.205  1.00  0.00     0.074 A 
ATOM     39  C   UNL A   1      43.536  31.732  28.682  1.00  0.00     0.031 C 
ATOM     40  C   UNL A   1      41.738  25.148  27.712  1.00  0.00     0.029 A 
ATOM     41  C   UNL A   1      43.146  25.467  27.507  1.00  0.00     0.049 A 
ATOM     42  H   UNL A   1      44.074  27.318  27.749  1.00  0.00     0.167 HD
ATOM     43  C   UNL A   1      45.872  31.277  27.982  1.00  0.00     0.031 A 
ATOM     44  C   UNL A   1      44.082  24.586  27.107  1.00  0.00     0.031 A 
ATOM     45  C   UNL A   1      46.937  30.414  27.542  1.00  0.00     0.049 A 
ATOM     46  C   UNL A   1      45.480  25.063  26.850  1.00  0.00     0.074 A 
ATOM     47  C   UNL A   1      48.264  30.734  27.311  1.00  0.00     0.029 A 
ATOM     48  N   UNL A   1      46.802  29.060  27.278  1.00  0.00    -0.354 N 
ATOM     49  N   UNL A   1      45.971  26.272  26.976  1.00  0.00    -0.248 NA
ATOM     50  C   UNL A   1      46.443  24.061  26.379  1.00  0.00     0.031 C 
ATOM     51  C   UNL A   1      48.925  29.580  26.874  1.00  0.00     0.029 A 
ATOM     52  C   UNL A   1      48.018  28.533  26.874  1.00  0.00     0.049 A 
ATOM     53  H   UNL A   1      45.965  28.549  27.366  1.00  0.00     0.167 HD
ATOM     54  C   UNL A   1      47.304  26.176  26.598  1.00  0.00     0.074 A 
ATOM     55  C   UNL A   1      47.547  24.787  26.264  1.00  0.00     0.031 C 
ATOM     56  C   UNL A   1      48.240  27.153  26.528  1.00  0.00     0.031 A 
BRANCH  43  57
ATOM     57  C   UNL A   1      46.179  32.738  28.173  1.00  0.00    -0.014 A 
ATOM     58  C   UNL A   1      46.609  33.241  29.414  1.00  0.00     0.010 A 
ATOM     59  C   UNL A   1      46.077  33.614  27.077  1.00  0.00     0.010 A 
ATOM     60  C   UNL A   1      46.901  34.600  29.561  1.00  0.00     0.020 A 
ATOM     61  C   UNL A   1      46.388  34.969  27.215  1.00  0.00     0.020 A 
ATOM     62  C   UNL A   1      46.782  35.457  28.462  1.00  0.00     0.054 A 
BRANCH  62  63
ATOM     63  S   UNL A   1      47.188  37.214  28.671  1.00  0.00     0.124 S 
ATOM     64  O   UNL A   1      47.399  37.638  27.289  1.00  0.00    -0.237 OA
ATOM     65  O   UNL A   1      45.990  37.748  29.315  1.00  0.00    -0.237 OA
ATOM     66  O   UNL A   1      48.385  37.194  29.508  1.00  0.00    -0.744 OA
ENDBRANCH  62  63
ENDBRANCH  43  57
BRANCH  44  67
ATOM     67  C   UNL A   1      43.703  23.167  26.884  1.00  0.00    -0.014 A 
ATOM     68  C   UNL A   1      43.091  22.425  27.908  1.00  0.00     0.010 A 
ATOM     69  C   UNL A   1      43.910  22.566  25.628  1.00  0.00     0.010 A 
ATOM     70  C   UNL A   1      42.688  21.107  27.679  1.00  0.00     0.020 A 
ATOM     71  C   UNL A   1      43.486  21.258  25.388  1.00  0.00     0.020 A 
ATOM     72  C   UNL A   1      42.882  20.533  26.419  1.00  0.00     0.054 A 
BRANCH  72  73
ATOM     73  S   UNL A   1      42.270  18.853  26.109  1.00  0.00     0.124 S 
ATOM     74  O   UNL A   1      42.502  18.206  27.395  1.00  0.00    -0.237 OA
ATOM     75  O   UNL A   1      40.871  19.083  25.757  1.00  0.00    -0.237 OA
ATOM     76  O   UNL A   1      43.110  18.387  25.008  1.00  0.00    -0.744 OA
ENDBRANCH  72  73
ENDBRANCH  44  67
BRANCH  56  77
ATOM     77  C   UNL A   1      49.616  26.745  26.081  1.00  0.00    -0.014 A 
ATOM     78  C   UNL A   1      50.494  26.090  26.961  1.00  0.00     0.010 A 
ATOM     79  C   UNL A   1      50.027  27.006  24.762  1.00  0.00     0.010 A 
ATOM     80  C   UNL A   1      51.779  25.735  26.539  1.00  0.00     0.020 A 
ATOM     81  C   UNL A   1      51.304  26.635  24.332  1.00  0.00     0.020 A 
ATOM     82  C   UNL A   1      52.178  26.018  25.229  1.00  0.00     0.054 A 
BRANCH  82  83
ATOM     83  S   UNL A   1      53.843  25.536  24.696  1.00  0.00     0.124 S 
ATOM     84  O   UNL A   1      53.846  25.955  23.297  1.00  0.00    -0.237 OA
ATOM     85  O   UNL A   1      54.706  26.311  25.585  1.00  0.00    -0.237 OA
ATOM     86  O   UNL A   1      53.870  24.091  24.916  1.00  0.00    -0.744 OA
ENDBRANCH  82  83
ENDBRANCH  56  77
ENDBRANCH  30  31
ENDBRANCH  23  25
ENDBRANCH  22  23
ENDBRANCH  21  22
ENDBRANCH   1  21
TORSDOF 19
ENDMDL
