MODEL 1
REMARK VINA RESULT:     -13.2      0.000      0.000
REMARK SMILES O=C(Cn1nc(C(=O)OCCOC(=O)c2ccc(-c3c4nc(c(-c5ccc(S(=O)(=O)[O-])cc5)c5ccc([nH]5)c(-c5ccc(S(=O)(=O)[O-])cc5)c5nc(c(-c6ccc(S(=O)(=O)[O-])cc6)c6ccc3[nH]6)C=C5)C=C4)cc2)c2ccccc2c1=O)Nc1ccc2c(c1)C(=O)c1ccccc1C2=O
REMARK SMILES IDX 10 1 9 2 7 3 8 4 6 5 4 6 5 7 81 8 80 9 82 10 75 11 79 12
REMARK SMILES IDX 76 13 78 14 77 15 3 16 2 17 1 18 83 19 84 21 85 22 89 23
REMARK SMILES IDX 86 24 88 25 87 26 90 27 98 28 91 29 92 30 97 31 99 32 93 33
REMARK SMILES IDX 96 34 94 35 95 36 11 37 12 38 13 39 14 40 15 41 16 42 74 43
REMARK SMILES IDX 17 44 73 45 18 46 19 47 20 48 67 49 21 50 72 51 66 52 68 53
REMARK SMILES IDX 22 54 71 55 65 56 64 57 23 59 53 60 34 61 52 62 35 63 38 64
REMARK SMILES IDX 51 65 69 66 36 67 37 68 50 70 70 71 39 72 24 73 25 74 33 75
REMARK SMILES IDX 26 76 32 77 27 78 28 79 29 80 30 81 31 82 54 83 55 84 63 85
REMARK SMILES IDX 56 86 62 87 57 88 58 89 59 90 60 91 61 92 40 93 41 94 49 95
REMARK SMILES IDX 42 96 48 97 43 98 44 99 45 100 46 101 47 102
REMARK H PARENT 83 20 68 58 38 69
REMARK Flexibility Score: inf
ROOT
ATOM      1  C   UNL A   1      45.661  22.916  37.753  1.00  0.00     0.275 C 
ENDROOT
BRANCH   1   2
ATOM      2  O   UNL A   1      46.308  22.166  36.691  1.00  0.00    -0.457 OA
BRANCH   2   3
ATOM      3  C   UNL A   1      46.235  20.828  36.821  1.00  0.00     0.359 C 
ATOM      4  O   UNL A   1      45.559  20.064  36.151  1.00  0.00    -0.244 OA
BRANCH   3   5
ATOM      5  C   UNL A   1      47.060  20.276  37.991  1.00  0.00     0.176 A 
ATOM      6  N   UNL A   1      47.148  19.135  40.016  1.00  0.00    -0.219 N 
ATOM      7  N   UNL A   1      46.423  19.828  39.042  1.00  0.00    -0.161 NA
ATOM      8  C   UNL A   1      48.474  18.720  39.825  1.00  0.00     0.275 A 
ATOM      9  C   UNL A   1      49.181  19.260  38.656  1.00  0.00     0.051 A 
ATOM     10  O   UNL A   1      49.069  17.957  40.581  1.00  0.00    -0.267 OA
ATOM     11  C   UNL A   1      48.513  20.119  37.802  1.00  0.00     0.022 A 
ATOM     12  C   UNL A   1      50.525  18.934  38.418  1.00  0.00     0.014 A 
ATOM     13  C   UNL A   1      49.216  20.738  36.771  1.00  0.00     0.011 A 
ATOM     14  C   UNL A   1      51.206  19.507  37.344  1.00  0.00     0.001 A 
ATOM     15  C   UNL A   1      50.557  20.431  36.533  1.00  0.00     0.001 A 
BRANCH   6  16
ATOM     16  C   UNL A   1      46.434  18.569  41.184  1.00  0.00     0.248 C 
BRANCH  16  17
ATOM     17  C   UNL A   1      45.679  17.241  41.007  1.00  0.00     0.246 C 
ATOM     18  O   UNL A   1      46.189  16.263  40.467  1.00  0.00    -0.273 OA
ATOM     19  N   UNL A   1      44.357  17.350  41.346  1.00  0.00    -0.324 N 
ATOM     20  H   UNL A   1      44.069  18.262  41.584  1.00  0.00     0.169 HD
BRANCH  19  21
ATOM     21  C   UNL A   1      43.352  16.387  41.409  1.00  0.00     0.042 A 
ATOM     22  C   UNL A   1      42.725  15.792  40.309  1.00  0.00     0.027 A 
ATOM     23  C   UNL A   1      43.095  15.922  42.693  1.00  0.00     0.039 A 
ATOM     24  C   UNL A   1      41.938  14.638  40.490  1.00  0.00     0.015 A 
ATOM     25  C   UNL A   1      42.346  14.771  42.861  1.00  0.00     0.036 A 
ATOM     26  C   UNL A   1      41.812  14.092  41.770  1.00  0.00     0.034 A 
ATOM     27  C   UNL A   1      42.394  14.119  44.169  1.00  0.00     0.194 C 
ATOM     28  C   UNL A   1      41.361  12.691  41.982  1.00  0.00     0.194 C 
ATOM     29  O   UNL A   1      42.355  14.744  45.219  1.00  0.00    -0.289 OA
ATOM     30  C   UNL A   1      42.637  12.679  44.111  1.00  0.00     0.034 A 
ATOM     31  C   UNL A   1      42.076  11.953  43.060  1.00  0.00     0.034 A 
ATOM     32  O   UNL A   1      40.559  12.147  41.238  1.00  0.00    -0.289 OA
ATOM     33  C   UNL A   1      43.567  12.105  44.972  1.00  0.00     0.013 A 
ATOM     34  C   UNL A   1      42.372  10.598  42.931  1.00  0.00     0.013 A 
ATOM     35  C   UNL A   1      43.926  10.777  44.794  1.00  0.00     0.001 A 
ATOM     36  C   UNL A   1      43.309  10.017  43.796  1.00  0.00     0.001 A 
ENDBRANCH  19  21
ENDBRANCH  16  17
ENDBRANCH   6  16
ENDBRANCH   3   5
ENDBRANCH   2   3
ENDBRANCH   1   2
BRANCH   1  37
ATOM     37  C   UNL A   1      46.634  23.735  38.598  1.00  0.00     0.275 C 
BRANCH  37  38
ATOM     38  O   UNL A   1      46.891  24.986  37.952  1.00  0.00    -0.458 OA
BRANCH  38  39
ATOM     39  C   UNL A   1      46.525  26.115  38.604  1.00  0.00     0.338 C 
ATOM     40  O   UNL A   1      46.881  26.485  39.709  1.00  0.00    -0.246 OA
BRANCH  39  41
ATOM     41  C   UNL A   1      45.627  26.878  37.710  1.00  0.00     0.060 A 
ATOM     42  C   UNL A   1      46.132  27.835  36.833  1.00  0.00     0.016 A 
ATOM     43  C   UNL A   1      44.261  26.593  37.708  1.00  0.00     0.016 A 
ATOM     44  C   UNL A   1      45.249  28.548  36.008  1.00  0.00     0.010 A 
ATOM     45  C   UNL A   1      43.418  27.191  36.779  1.00  0.00     0.010 A 
ATOM     46  C   UNL A   1      43.878  28.229  35.963  1.00  0.00    -0.014 A 
BRANCH  46  47
ATOM     47  C   UNL A   1      42.896  29.009  35.151  1.00  0.00     0.031 A 
ATOM     48  C   UNL A   1      42.566  28.574  33.735  1.00  0.00     0.074 A 
ATOM     49  C   UNL A   1      42.322  30.124  35.647  1.00  0.00     0.049 A 
ATOM     50  N   UNL A   1      41.840  29.185  32.833  1.00  0.00    -0.248 NA
ATOM     51  C   UNL A   1      43.190  27.334  33.241  1.00  0.00     0.031 C 
ATOM     52  C   UNL A   1      42.603  30.719  36.955  1.00  0.00     0.029 A 
ATOM     53  N   UNL A   1      41.353  30.943  35.118  1.00  0.00    -0.354 N 
ATOM     54  C   UNL A   1      41.999  28.452  31.659  1.00  0.00     0.074 A 
ATOM     55  C   UNL A   1      42.944  27.399  31.943  1.00  0.00     0.031 C 
ATOM     56  C   UNL A   1      41.752  31.735  37.171  1.00  0.00     0.029 A 
ATOM     57  C   UNL A   1      40.898  31.897  35.997  1.00  0.00     0.049 A 
ATOM     58  H   UNL A   1      41.017  30.855  34.197  1.00  0.00     0.167 HD
ATOM     59  C   UNL A   1      41.374  28.599  30.467  1.00  0.00     0.031 A 
ATOM     60  C   UNL A   1      39.883  32.780  35.890  1.00  0.00     0.031 A 
ATOM     61  C   UNL A   1      40.313  29.541  30.241  1.00  0.00     0.049 A 
ATOM     62  C   UNL A   1      39.069  32.809  34.627  1.00  0.00     0.074 A 
ATOM     63  C   UNL A   1      39.540  29.705  29.106  1.00  0.00     0.029 A 
ATOM     64  N   UNL A   1      39.832  30.427  31.192  1.00  0.00    -0.354 N 
ATOM     65  N   UNL A   1      39.231  32.102  33.534  1.00  0.00    -0.248 NA
ATOM     66  C   UNL A   1      37.932  33.739  34.581  1.00  0.00     0.031 C 
ATOM     67  C   UNL A   1      38.589  30.696  29.370  1.00  0.00     0.029 A 
ATOM     68  C   UNL A   1      38.751  31.119  30.681  1.00  0.00     0.049 A 
ATOM     69  H   UNL A   1      40.203  30.543  32.096  1.00  0.00     0.167 HD
ATOM     70  C   UNL A   1      38.213  32.495  32.674  1.00  0.00     0.074 A 
ATOM     71  C   UNL A   1      37.425  33.483  33.380  1.00  0.00     0.031 C 
ATOM     72  C   UNL A   1      37.965  32.083  31.408  1.00  0.00     0.031 A 
BRANCH  59  73
ATOM     73  C   UNL A   1      41.759  27.675  29.337  1.00  0.00    -0.014 A 
ATOM     74  C   UNL A   1      42.882  27.967  28.540  1.00  0.00     0.010 A 
ATOM     75  C   UNL A   1      40.973  26.554  29.017  1.00  0.00     0.010 A 
ATOM     76  C   UNL A   1      43.210  27.158  27.448  1.00  0.00     0.020 A 
ATOM     77  C   UNL A   1      41.319  25.720  27.951  1.00  0.00     0.020 A 
ATOM     78  C   UNL A   1      42.426  26.039  27.161  1.00  0.00     0.054 A 
BRANCH  78  79
ATOM     79  S   UNL A   1      42.874  24.973  25.764  1.00  0.00     0.124 S 
ATOM     80  O   UNL A   1      42.480  25.786  24.618  1.00  0.00    -0.237 OA
ATOM     81  O   UNL A   1      44.313  24.787  25.944  1.00  0.00    -0.237 OA
ATOM     82  O   UNL A   1      42.071  23.772  25.986  1.00  0.00    -0.744 OA
ENDBRANCH  78  79
ENDBRANCH  59  73
BRANCH  60  83
ATOM     83  C   UNL A   1      39.524  33.615  37.068  1.00  0.00    -0.014 A 
ATOM     84  C   UNL A   1      40.117  34.873  37.275  1.00  0.00     0.010 A 
ATOM     85  C   UNL A   1      38.654  33.100  38.047  1.00  0.00     0.010 A 
ATOM     86  C   UNL A   1      39.889  35.576  38.462  1.00  0.00     0.020 A 
ATOM     87  C   UNL A   1      38.404  33.811  39.224  1.00  0.00     0.020 A 
ATOM     88  C   UNL A   1      39.049  35.031  39.437  1.00  0.00     0.054 A 
BRANCH  88  89
ATOM     89  S   UNL A   1      38.816  35.927  40.998  1.00  0.00     0.124 S 
ATOM     90  O   UNL A   1      37.736  35.166  41.618  1.00  0.00    -0.237 OA
ATOM     91  O   UNL A   1      40.123  35.804  41.637  1.00  0.00    -0.237 OA
ATOM     92  O   UNL A   1      38.463  37.278  40.566  1.00  0.00    -0.744 OA
ENDBRANCH  88  89
ENDBRANCH  60  83
BRANCH  72  93
ATOM     93  C   UNL A   1      36.792  32.677  30.678  1.00  0.00    -0.014 A 
ATOM     94  C   UNL A   1      37.010  33.655  29.691  1.00  0.00     0.010 A 
ATOM     95  C   UNL A   1      35.480  32.390  31.092  1.00  0.00     0.010 A 
ATOM     96  C   UNL A   1      35.936  34.371  29.159  1.00  0.00     0.020 A 
ATOM     97  C   UNL A   1      34.402  33.091  30.546  1.00  0.00     0.020 A 
ATOM     98  C   UNL A   1      34.641  34.096  29.605  1.00  0.00     0.054 A 
BRANCH  98  99
ATOM     99  S   UNL A   1      33.262  35.079  28.954  1.00  0.00     0.124 S 
ATOM    100  O   UNL A   1      33.951  36.236  28.390  1.00  0.00    -0.237 OA
ATOM    101  O   UNL A   1      32.651  34.174  27.983  1.00  0.00    -0.237 OA
ATOM    102  O   UNL A   1      32.449  35.351  30.137  1.00  0.00    -0.744 OA
ENDBRANCH  98  99
ENDBRANCH  72  93
ENDBRANCH  46  47
ENDBRANCH  39  41
ENDBRANCH  38  39
ENDBRANCH  37  38
ENDBRANCH   1  37
TORSDOF 17
ENDMDL
MODEL 2
REMARK VINA RESULT:     -13.1     11.070     18.858
REMARK SMILES O=C(Cn1nc(C(=O)OCCOC(=O)c2ccc(-c3c4nc(c(-c5ccc(S(=O)(=O)[O-])cc5)c5ccc([nH]5)c(-c5ccc(S(=O)(=O)[O-])cc5)c5nc(c(-c6ccc(S(=O)(=O)[O-])cc6)c6ccc3[nH]6)C=C5)C=C4)cc2)c2ccccc2c1=O)Nc1ccc2c(c1)C(=O)c1ccccc1C2=O
REMARK SMILES IDX 10 1 9 2 7 3 8 4 6 5 4 6 5 7 81 8 80 9 82 10 75 11 79 12
REMARK SMILES IDX 76 13 78 14 77 15 3 16 2 17 1 18 83 19 84 21 85 22 89 23
REMARK SMILES IDX 86 24 88 25 87 26 90 27 98 28 91 29 92 30 97 31 99 32 93 33
REMARK SMILES IDX 96 34 94 35 95 36 11 37 12 38 13 39 14 40 15 41 16 42 74 43
REMARK SMILES IDX 17 44 73 45 18 46 19 47 20 48 67 49 21 50 72 51 66 52 68 53
REMARK SMILES IDX 22 54 71 55 65 56 64 57 23 59 53 60 34 61 52 62 35 63 38 64
REMARK SMILES IDX 51 65 69 66 36 67 37 68 50 70 70 71 39 72 24 73 25 74 33 75
REMARK SMILES IDX 26 76 32 77 27 78 28 79 29 80 30 81 31 82 54 83 55 84 63 85
REMARK SMILES IDX 56 86 62 87 57 88 58 89 59 90 60 91 61 92 40 93 41 94 49 95
REMARK SMILES IDX 42 96 48 97 43 98 44 99 45 100 46 101 47 102
REMARK H PARENT 83 20 68 58 38 69
REMARK Flexibility Score: inf
ROOT
ATOM      1  C   UNL A   1      36.750  30.412  32.202  1.00  0.00     0.275 C 
ENDROOT
BRANCH   1   2
ATOM      2  O   UNL A   1      35.511  31.148  32.377  1.00  0.00    -0.457 OA
BRANCH   2   3
ATOM      3  C   UNL A   1      35.664  32.470  32.577  1.00  0.00     0.359 C 
ATOM      4  O   UNL A   1      36.102  33.013  33.578  1.00  0.00    -0.244 OA
BRANCH   3   5
ATOM      5  C   UNL A   1      35.158  33.332  31.412  1.00  0.00     0.176 A 
ATOM      6  N   UNL A   1      34.562  33.519  29.172  1.00  0.00    -0.219 N 
ATOM      7  N   UNL A   1      35.210  32.833  30.204  1.00  0.00    -0.161 NA
ATOM      8  C   UNL A   1      33.693  34.595  29.401  1.00  0.00     0.275 A 
ATOM      9  C   UNL A   1      33.674  35.160  30.757  1.00  0.00     0.051 A 
ATOM     10  O   UNL A   1      32.975  35.092  28.539  1.00  0.00    -0.267 OA
ATOM     11  C   UNL A   1      34.482  34.602  31.731  1.00  0.00     0.022 A 
ATOM     12  C   UNL A   1      32.870  36.269  31.059  1.00  0.00     0.014 A 
ATOM     13  C   UNL A   1      34.568  35.216  32.979  1.00  0.00     0.011 A 
ATOM     14  C   UNL A   1      32.911  36.840  32.331  1.00  0.00     0.001 A 
ATOM     15  C   UNL A   1      33.783  36.328  33.286  1.00  0.00     0.001 A 
BRANCH   6  16
ATOM     16  C   UNL A   1      34.560  32.939  27.808  1.00  0.00     0.248 C 
BRANCH  16  17
ATOM     17  C   UNL A   1      33.436  31.959  27.431  1.00  0.00     0.246 C 
ATOM     18  O   UNL A   1      32.248  32.238  27.573  1.00  0.00    -0.273 OA
ATOM     19  N   UNL A   1      33.919  30.719  27.110  1.00  0.00    -0.324 N 
ATOM     20  H   UNL A   1      34.891  30.614  27.231  1.00  0.00     0.169 HD
BRANCH  19  21
ATOM     21  C   UNL A   1      33.265  29.581  26.643  1.00  0.00     0.042 A 
ATOM     22  C   UNL A   1      32.593  28.645  27.437  1.00  0.00     0.027 A 
ATOM     23  C   UNL A   1      33.188  29.502  25.258  1.00  0.00     0.039 A 
ATOM     24  C   UNL A   1      31.734  27.703  26.837  1.00  0.00     0.015 A 
ATOM     25  C   UNL A   1      32.320  28.595  24.676  1.00  0.00     0.036 A 
ATOM     26  C   UNL A   1      31.550  27.733  25.452  1.00  0.00     0.034 A 
ATOM     27  C   UNL A   1      32.002  28.777  23.261  1.00  0.00     0.194 C 
ATOM     28  C   UNL A   1      30.387  27.074  24.803  1.00  0.00     0.194 C 
ATOM     29  O   UNL A   1      32.848  29.070  22.427  1.00  0.00    -0.289 OA
ATOM     30  C   UNL A   1      30.573  28.724  22.958  1.00  0.00     0.034 A 
ATOM     31  C   UNL A   1      29.775  27.835  23.679  1.00  0.00     0.034 A 
ATOM     32  O   UNL A   1      29.889  26.051  25.247  1.00  0.00    -0.289 OA
ATOM     33  C   UNL A   1      30.014  29.679  22.115  1.00  0.00     0.013 A 
ATOM     34  C   UNL A   1      28.397  27.834  23.473  1.00  0.00     0.013 A 
ATOM     35  C   UNL A   1      28.635  29.733  21.973  1.00  0.00     0.001 A 
ATOM     36  C   UNL A   1      27.831  28.796  22.626  1.00  0.00     0.001 A 
ENDBRANCH  19  21
ENDBRANCH  16  17
ENDBRANCH   6  16
ENDBRANCH   3   5
ENDBRANCH   2   3
ENDBRANCH   1   2
BRANCH   1  37
ATOM     37  C   UNL A   1      36.725  29.457  31.010  1.00  0.00     0.275 C 
BRANCH  37  38
ATOM     38  O   UNL A   1      37.190  30.140  29.841  1.00  0.00    -0.458 OA
BRANCH  38  39
ATOM     39  C   UNL A   1      37.268  29.431  28.690  1.00  0.00     0.338 C 
ATOM     40  O   UNL A   1      36.349  29.061  27.980  1.00  0.00    -0.246 OA
BRANCH  39  41
ATOM     41  C   UNL A   1      38.701  29.206  28.397  1.00  0.00     0.060 A 
ATOM     42  C   UNL A   1      39.567  28.731  29.379  1.00  0.00     0.016 A 
ATOM     43  C   UNL A   1      39.175  29.420  27.103  1.00  0.00     0.016 A 
ATOM     44  C   UNL A   1      40.921  28.540  29.068  1.00  0.00     0.010 A 
ATOM     45  C   UNL A   1      40.479  29.080  26.766  1.00  0.00     0.010 A 
ATOM     46  C   UNL A   1      41.396  28.704  27.752  1.00  0.00    -0.014 A 
BRANCH  46  47
ATOM     47  C   UNL A   1      42.841  28.579  27.395  1.00  0.00     0.031 A 
ATOM     48  C   UNL A   1      43.797  29.722  27.686  1.00  0.00     0.074 A 
ATOM     49  C   UNL A   1      43.307  27.474  26.778  1.00  0.00     0.049 A 
ATOM     50  N   UNL A   1      45.052  29.855  27.340  1.00  0.00    -0.248 NA
ATOM     51  C   UNL A   1      43.256  30.899  28.388  1.00  0.00     0.031 C 
ATOM     52  C   UNL A   1      42.498  26.330  26.352  1.00  0.00     0.029 A 
ATOM     53  N   UNL A   1      44.587  27.116  26.429  1.00  0.00    -0.354 N 
ATOM     54  C   UNL A   1      45.410  31.151  27.704  1.00  0.00     0.074 A 
ATOM     55  C   UNL A   1      44.224  31.786  28.226  1.00  0.00     0.031 C 
ATOM     56  C   UNL A   1      43.309  25.358  25.904  1.00  0.00     0.029 A 
ATOM     57  C   UNL A   1      44.691  25.827  25.961  1.00  0.00     0.049 A 
ATOM     58  H   UNL A   1      45.357  27.725  26.506  1.00  0.00     0.167 HD
ATOM     59  C   UNL A   1      46.625  31.747  27.665  1.00  0.00     0.031 A 
ATOM     60  C   UNL A   1      45.776  25.089  25.650  1.00  0.00     0.031 A 
ATOM     61  C   UNL A   1      47.833  31.058  27.303  1.00  0.00     0.049 A 
ATOM     62  C   UNL A   1      47.142  25.701  25.789  1.00  0.00     0.074 A 
ATOM     63  C   UNL A   1      49.131  31.532  27.328  1.00  0.00     0.029 A 
ATOM     64  N   UNL A   1      47.894  29.727  26.920  1.00  0.00    -0.354 N 
ATOM     65  N   UNL A   1      47.457  26.924  26.143  1.00  0.00    -0.248 NA
ATOM     66  C   UNL A   1      48.297  24.838  25.504  1.00  0.00     0.031 C 
ATOM     67  C   UNL A   1      49.981  30.487  26.956  1.00  0.00     0.029 A 
ATOM     68  C   UNL A   1      49.211  29.354  26.735  1.00  0.00     0.049 A 
ATOM     69  H   UNL A   1      47.116  29.137  26.799  1.00  0.00     0.167 HD
ATOM     70  C   UNL A   1      48.846  26.977  26.129  1.00  0.00     0.074 A 
ATOM     71  C   UNL A   1      49.312  25.657  25.758  1.00  0.00     0.031 C 
ATOM     72  C   UNL A   1      49.657  28.029  26.388  1.00  0.00     0.031 A 
BRANCH  59  73
ATOM     73  C   UNL A   1      46.731  33.190  28.096  1.00  0.00    -0.014 A 
ATOM     74  C   UNL A   1      46.933  33.507  29.452  1.00  0.00     0.010 A 
ATOM     75  C   UNL A   1      46.563  34.236  27.172  1.00  0.00     0.010 A 
ATOM     76  C   UNL A   1      46.965  34.839  29.875  1.00  0.00     0.020 A 
ATOM     77  C   UNL A   1      46.634  35.570  27.583  1.00  0.00     0.020 A 
ATOM     78  C   UNL A   1      46.815  35.863  28.936  1.00  0.00     0.054 A 
BRANCH  78  79
ATOM     79  S   UNL A   1      46.891  37.590  29.484  1.00  0.00     0.124 S 
ATOM     80  O   UNL A   1      47.899  38.151  28.590  1.00  0.00    -0.237 OA
ATOM     81  O   UNL A   1      45.524  38.061  29.271  1.00  0.00    -0.237 OA
ATOM     82  O   UNL A   1      47.288  37.482  30.886  1.00  0.00    -0.744 OA
ENDBRANCH  78  79
ENDBRANCH  59  73
BRANCH  60  83
ATOM     83  C   UNL A   1      45.598  23.656  25.292  1.00  0.00    -0.014 A 
ATOM     84  C   UNL A   1      45.289  23.269  23.976  1.00  0.00     0.010 A 
ATOM     85  C   UNL A   1      45.636  22.677  26.301  1.00  0.00     0.010 A 
ATOM     86  C   UNL A   1      44.970  21.938  23.686  1.00  0.00     0.020 A 
ATOM     87  C   UNL A   1      45.343  21.341  26.011  1.00  0.00     0.020 A 
ATOM     88  C   UNL A   1      44.981  20.987  24.710  1.00  0.00     0.054 A 
BRANCH  88  89
ATOM     89  S   UNL A   1      44.501  19.279  24.328  1.00  0.00     0.124 S 
ATOM     90  O   UNL A   1      45.506  18.517  25.064  1.00  0.00    -0.237 OA
ATOM     91  O   UNL A   1      43.141  19.201  24.853  1.00  0.00    -0.237 OA
ATOM     92  O   UNL A   1      44.608  19.213  22.872  1.00  0.00    -0.744 OA
ENDBRANCH  88  89
ENDBRANCH  60  83
BRANCH  72  93
ATOM     93  C   UNL A   1      51.144  27.827  26.295  1.00  0.00    -0.014 A 
ATOM     94  C   UNL A   1      51.785  27.941  25.048  1.00  0.00     0.010 A 
ATOM     95  C   UNL A   1      51.868  27.358  27.405  1.00  0.00     0.010 A 
ATOM     96  C   UNL A   1      53.116  27.547  24.901  1.00  0.00     0.020 A 
ATOM     97  C   UNL A   1      53.206  26.983  27.265  1.00  0.00     0.020 A 
ATOM     98  C   UNL A   1      53.812  27.053  26.007  1.00  0.00     0.054 A 
BRANCH  98  99
ATOM     99  S   UNL A   1      55.520  26.483  25.787  1.00  0.00     0.124 S 
ATOM    100  O   UNL A   1      56.281  27.711  25.998  1.00  0.00    -0.237 OA
ATOM    101  O   UNL A   1      55.658  25.469  26.830  1.00  0.00    -0.237 OA
ATOM    102  O   UNL A   1      55.533  25.965  24.421  1.00  0.00    -0.744 OA
ENDBRANCH  98  99
ENDBRANCH  72  93
ENDBRANCH  46  47
ENDBRANCH  39  41
ENDBRANCH  38  39
ENDBRANCH  37  38
ENDBRANCH   1  37
TORSDOF 17
ENDMDL
MODEL 3
REMARK VINA RESULT:     -12.9      7.344     16.698
REMARK SMILES O=C(Cn1nc(C(=O)OCCOC(=O)c2ccc(-c3c4nc(c(-c5ccc(S(=O)(=O)[O-])cc5)c5ccc([nH]5)c(-c5ccc(S(=O)(=O)[O-])cc5)c5nc(c(-c6ccc(S(=O)(=O)[O-])cc6)c6ccc3[nH]6)C=C5)C=C4)cc2)c2ccccc2c1=O)Nc1ccc2c(c1)C(=O)c1ccccc1C2=O
REMARK SMILES IDX 10 1 9 2 7 3 8 4 6 5 4 6 5 7 81 8 80 9 82 10 75 11 79 12
REMARK SMILES IDX 76 13 78 14 77 15 3 16 2 17 1 18 83 19 84 21 85 22 89 23
REMARK SMILES IDX 86 24 88 25 87 26 90 27 98 28 91 29 92 30 97 31 99 32 93 33
REMARK SMILES IDX 96 34 94 35 95 36 11 37 12 38 13 39 14 40 15 41 16 42 74 43
REMARK SMILES IDX 17 44 73 45 18 46 19 47 20 48 67 49 21 50 72 51 66 52 68 53
REMARK SMILES IDX 22 54 71 55 65 56 64 57 23 59 53 60 34 61 52 62 35 63 38 64
REMARK SMILES IDX 51 65 69 66 36 67 37 68 50 70 70 71 39 72 24 73 25 74 33 75
REMARK SMILES IDX 26 76 32 77 27 78 28 79 29 80 30 81 31 82 54 83 55 84 63 85
REMARK SMILES IDX 56 86 62 87 57 88 58 89 59 90 60 91 61 92 40 93 41 94 49 95
REMARK SMILES IDX 42 96 48 97 43 98 44 99 45 100 46 101 47 102
REMARK H PARENT 83 20 68 58 38 69
REMARK Flexibility Score: inf
ROOT
ATOM      1  C   UNL A   1      37.372  22.816  25.915  1.00  0.00     0.275 C 
ENDROOT
BRANCH   1   2
ATOM      2  O   UNL A   1      36.309  23.800  25.809  1.00  0.00    -0.457 OA
BRANCH   2   3
ATOM      3  C   UNL A   1      35.093  23.357  26.179  1.00  0.00     0.359 C 
ATOM      4  O   UNL A   1      34.723  23.095  27.312  1.00  0.00    -0.244 OA
BRANCH   3   5
ATOM      5  C   UNL A   1      34.140  23.115  25.000  1.00  0.00     0.176 A 
ATOM      6  N   UNL A   1      33.372  23.722  22.891  1.00  0.00    -0.219 N 
ATOM      7  N   UNL A   1      34.071  24.026  24.064  1.00  0.00    -0.161 NA
ATOM      8  C   UNL A   1      32.924  22.430  22.584  1.00  0.00     0.275 A 
ATOM      9  C   UNL A   1      32.982  21.431  23.660  1.00  0.00     0.051 A 
ATOM     10  O   UNL A   1      32.476  22.101  21.490  1.00  0.00    -0.267 OA
ATOM     11  C   UNL A   1      33.487  21.799  24.895  1.00  0.00     0.022 A 
ATOM     12  C   UNL A   1      32.508  20.127  23.453  1.00  0.00     0.014 A 
ATOM     13  C   UNL A   1      33.420  20.896  25.955  1.00  0.00     0.011 A 
ATOM     14  C   UNL A   1      32.504  19.207  24.502  1.00  0.00     0.001 A 
ATOM     15  C   UNL A   1      32.937  19.601  25.763  1.00  0.00     0.001 A 
BRANCH   6  16
ATOM     16  C   UNL A   1      33.333  24.719  21.794  1.00  0.00     0.248 C 
BRANCH  16  17
ATOM     17  C   UNL A   1      33.055  26.189  22.150  1.00  0.00     0.246 C 
ATOM     18  O   UNL A   1      33.676  27.116  21.638  1.00  0.00    -0.273 OA
ATOM     19  N   UNL A   1      32.193  26.309  23.206  1.00  0.00    -0.324 N 
ATOM     20  H   UNL A   1      31.933  25.455  23.623  1.00  0.00     0.169 HD
BRANCH  19  21
ATOM     21  C   UNL A   1      31.622  27.439  23.791  1.00  0.00     0.042 A 
ATOM     22  C   UNL A   1      32.318  28.433  24.487  1.00  0.00     0.027 A 
ATOM     23  C   UNL A   1      30.273  27.604  23.502  1.00  0.00     0.039 A 
ATOM     24  C   UNL A   1      31.686  29.658  24.779  1.00  0.00     0.015 A 
ATOM     25  C   UNL A   1      29.667  28.820  23.765  1.00  0.00     0.036 A 
ATOM     26  C   UNL A   1      30.372  29.867  24.349  1.00  0.00     0.034 A 
ATOM     27  C   UNL A   1      28.373  29.078  23.136  1.00  0.00     0.194 C 
ATOM     28  C   UNL A   1      29.790  31.231  24.250  1.00  0.00     0.194 C 
ATOM     29  O   UNL A   1      27.493  28.231  23.064  1.00  0.00    -0.289 OA
ATOM     30  C   UNL A   1      28.278  30.379  22.476  1.00  0.00     0.034 A 
ATOM     31  C   UNL A   1      28.930  31.467  23.058  1.00  0.00     0.034 A 
ATOM     32  O   UNL A   1      30.104  32.128  25.017  1.00  0.00    -0.289 OA
ATOM     33  C   UNL A   1      27.720  30.465  21.204  1.00  0.00     0.013 A 
ATOM     34  C   UNL A   1      28.932  32.694  22.398  1.00  0.00     0.013 A 
ATOM     35  C   UNL A   1      27.795  31.664  20.511  1.00  0.00     0.001 A 
ATOM     36  C   UNL A   1      28.372  32.783  21.117  1.00  0.00     0.001 A 
ENDBRANCH  19  21
ENDBRANCH  16  17
ENDBRANCH   6  16
ENDBRANCH   3   5
ENDBRANCH   2   3
ENDBRANCH   1   2
BRANCH   1  37
ATOM     37  C   UNL A   1      38.768  23.433  25.946  1.00  0.00     0.275 C 
BRANCH  37  38
ATOM     38  O   UNL A   1      38.737  24.650  26.700  1.00  0.00    -0.458 OA
BRANCH  38  39
ATOM     39  C   UNL A   1      39.784  25.497  26.567  1.00  0.00     0.338 C 
ATOM     40  O   UNL A   1      40.577  25.561  25.644  1.00  0.00    -0.246 OA
BRANCH  39  41
ATOM     41  C   UNL A   1      39.786  26.397  27.741  1.00  0.00     0.060 A 
ATOM     42  C   UNL A   1      40.215  27.718  27.631  1.00  0.00     0.016 A 
ATOM     43  C   UNL A   1      39.299  25.929  28.962  1.00  0.00     0.016 A 
ATOM     44  C   UNL A   1      40.214  28.539  28.769  1.00  0.00     0.010 A 
ATOM     45  C   UNL A   1      39.156  26.792  30.041  1.00  0.00     0.010 A 
ATOM     46  C   UNL A   1      39.675  28.089  29.990  1.00  0.00    -0.014 A 
BRANCH  46  47
ATOM     47  C   UNL A   1      39.719  28.907  31.240  1.00  0.00     0.031 A 
ATOM     48  C   UNL A   1      40.892  28.773  32.194  1.00  0.00     0.074 A 
ATOM     49  C   UNL A   1      38.706  29.739  31.556  1.00  0.00     0.049 A 
ATOM     50  N   UNL A   1      41.052  29.298  33.382  1.00  0.00    -0.248 NA
ATOM     51  C   UNL A   1      41.992  27.876  31.798  1.00  0.00     0.031 C 
ATOM     52  C   UNL A   1      37.471  29.911  30.788  1.00  0.00     0.029 A 
ATOM     53  N   UNL A   1      38.569  30.626  32.597  1.00  0.00    -0.354 N 
ATOM     54  C   UNL A   1      42.214  28.726  33.895  1.00  0.00     0.074 A 
ATOM     55  C   UNL A   1      42.675  27.763  32.924  1.00  0.00     0.031 C 
ATOM     56  C   UNL A   1      36.757  30.917  31.318  1.00  0.00     0.029 A 
ATOM     57  C   UNL A   1      37.457  31.430  32.493  1.00  0.00     0.049 A 
ATOM     58  H   UNL A   1      39.205  30.681  33.346  1.00  0.00     0.167 HD
ATOM     59  C   UNL A   1      42.876  29.013  35.040  1.00  0.00     0.031 A 
ATOM     60  C   UNL A   1      37.062  32.485  33.235  1.00  0.00     0.031 A 
ATOM     61  C   UNL A   1      42.506  30.087  35.920  1.00  0.00     0.049 A 
ATOM     62  C   UNL A   1      37.906  32.917  34.401  1.00  0.00     0.074 A 
ATOM     63  C   UNL A   1      43.163  30.535  37.052  1.00  0.00     0.029 A 
ATOM     64  N   UNL A   1      41.420  30.927  35.723  1.00  0.00    -0.354 N 
ATOM     65  N   UNL A   1      39.004  32.367  34.863  1.00  0.00    -0.248 NA
ATOM     66  C   UNL A   1      37.473  34.112  35.138  1.00  0.00     0.031 C 
ATOM     67  C   UNL A   1      42.471  31.645  37.544  1.00  0.00     0.029 A 
ATOM     68  C   UNL A   1      41.406  31.908  36.695  1.00  0.00     0.049 A 
ATOM     69  H   UNL A   1      40.760  30.837  34.999  1.00  0.00     0.167 HD
ATOM     70  C   UNL A   1      39.398  33.153  35.940  1.00  0.00     0.074 A 
ATOM     71  C   UNL A   1      38.436  34.231  36.046  1.00  0.00     0.031 C 
ATOM     72  C   UNL A   1      40.453  32.986  36.771  1.00  0.00     0.031 A 
BRANCH  59  73
ATOM     73  C   UNL A   1      44.110  28.212  35.376  1.00  0.00    -0.014 A 
ATOM     74  C   UNL A   1      45.365  28.608  34.875  1.00  0.00     0.010 A 
ATOM     75  C   UNL A   1      44.024  27.029  36.131  1.00  0.00     0.010 A 
ATOM     76  C   UNL A   1      46.505  27.838  35.121  1.00  0.00     0.020 A 
ATOM     77  C   UNL A   1      45.167  26.277  36.413  1.00  0.00     0.020 A 
ATOM     78  C   UNL A   1      46.399  26.676  35.890  1.00  0.00     0.054 A 
BRANCH  78  79
ATOM     79  S   UNL A   1      47.886  25.698  36.236  1.00  0.00     0.124 S 
ATOM     80  O   UNL A   1      47.485  24.935  37.413  1.00  0.00    -0.237 OA
ATOM     81  O   UNL A   1      48.061  24.924  35.008  1.00  0.00    -0.237 OA
ATOM     82  O   UNL A   1      48.911  26.715  36.467  1.00  0.00    -0.744 OA
ENDBRANCH  78  79
ENDBRANCH  59  73
BRANCH  60  83
ATOM     83  C   UNL A   1      35.868  33.263  32.807  1.00  0.00    -0.014 A 
ATOM     84  C   UNL A   1      35.911  34.097  31.677  1.00  0.00     0.010 A 
ATOM     85  C   UNL A   1      34.706  33.247  33.601  1.00  0.00     0.010 A 
ATOM     86  C   UNL A   1      34.836  34.940  31.377  1.00  0.00     0.020 A 
ATOM     87  C   UNL A   1      33.619  34.070  33.291  1.00  0.00     0.020 A 
ATOM     88  C   UNL A   1      33.705  34.934  32.198  1.00  0.00     0.054 A 
BRANCH  88  89
ATOM     89  S   UNL A   1      32.347  36.081  31.832  1.00  0.00     0.124 S 
ATOM     90  O   UNL A   1      32.435  36.190  30.379  1.00  0.00    -0.237 OA
ATOM     91  O   UNL A   1      31.178  35.370  32.341  1.00  0.00    -0.237 OA
ATOM     92  O   UNL A   1      32.710  37.286  32.574  1.00  0.00    -0.744 OA
ENDBRANCH  88  89
ENDBRANCH  60  83
BRANCH  72  93
ATOM     93  C   UNL A   1      40.656  33.982  37.879  1.00  0.00    -0.014 A 
ATOM     94  C   UNL A   1      39.946  33.836  39.084  1.00  0.00     0.010 A 
ATOM     95  C   UNL A   1      41.414  35.145  37.658  1.00  0.00     0.010 A 
ATOM     96  C   UNL A   1      39.954  34.858  40.035  1.00  0.00     0.020 A 
ATOM     97  C   UNL A   1      41.440  36.160  38.617  1.00  0.00     0.020 A 
ATOM     98  C   UNL A   1      40.686  36.022  39.786  1.00  0.00     0.054 A 
BRANCH  98  99
ATOM     99  S   UNL A   1      40.634  37.369  40.999  1.00  0.00     0.124 S 
ATOM    100  O   UNL A   1      41.919  37.220  41.676  1.00  0.00    -0.237 OA
ATOM    101  O   UNL A   1      40.498  38.556  40.158  1.00  0.00    -0.237 OA
ATOM    102  O   UNL A   1      39.460  37.052  41.810  1.00  0.00    -0.744 OA
ENDBRANCH  98  99
ENDBRANCH  72  93
ENDBRANCH  46  47
ENDBRANCH  39  41
ENDBRANCH  38  39
ENDBRANCH  37  38
ENDBRANCH   1  37
TORSDOF 17
ENDMDL
