MODEL 1
REMARK VINA RESULT:     -11.4      0.000      0.000
REMARK SMILES CC[C@@H]1CC[C@](C[C@@H]2CCCc3ccccc32)(C(=O)OCCOC(=O)c2ccc(-c3c4nc(c(-c5ccc(S(=O)(=O)[O-])cc5)c5ccc([nH]5)c(-c5ccc(S(=O)(=O)[O-])cc5)c5nc(c(-c6ccc(S(=O)(=O)[O-])cc6)c6ccc3[nH]6)C=C5)C=C4)cc2)C1
REMARK SMILES IDX 22 1 21 2 20 3 18 4 19 5 6 6 3 7 4 8 86 9 5 10 2 11 1 12
REMARK SMILES IDX 7 13 8 14 9 15 17 16 10 17 12 18 16 19 11 20 13 21 15 22
REMARK SMILES IDX 14 23 23 24 24 25 25 26 26 27 27 28 85 29 28 30 84 31 29 32
REMARK SMILES IDX 30 33 31 34 78 35 32 36 83 37 77 38 79 39 33 40 82 41 76 42
REMARK SMILES IDX 75 43 34 45 64 46 45 47 63 48 46 49 49 50 62 51 80 52 47 53
REMARK SMILES IDX 48 54 61 56 81 57 50 58 35 59 36 60 44 61 37 62 43 63 38 64
REMARK SMILES IDX 39 65 40 66 41 67 42 68 65 69 66 70 74 71 67 72 73 73 68 74
REMARK SMILES IDX 69 75 70 76 71 77 72 78 51 79 52 80 60 81 53 82 59 83 54 84
REMARK SMILES IDX 55 85 56 86 57 87 58 88
REMARK H PARENT 79 44 49 55
REMARK Flexibility Score: inf
ROOT
ATOM      1  C   UNL A   1      32.934  31.519  27.227  1.00  0.00     0.275 C 
ENDROOT
BRANCH   1   2
ATOM      2  C   UNL A   1      31.977  30.332  27.187  1.00  0.00     0.274 C 
BRANCH   2   3
ATOM      3  O   UNL A   1      32.673  29.085  26.975  1.00  0.00    -0.462 OA
BRANCH   3   4
ATOM      4  C   UNL A   1      31.885  27.975  26.979  1.00  0.00     0.312 C 
ATOM      5  O   UNL A   1      31.191  27.656  27.940  1.00  0.00    -0.252 OA
BRANCH   4   6
ATOM      6  C   UNL A   1      31.996  27.109  25.690  1.00  0.00     0.069 C 
ATOM      7  C   UNL A   1      29.996  26.267  24.526  1.00  0.00    -0.010 C 
ATOM      8  C   UNL A   1      30.067  25.615  25.896  1.00  0.00     0.005 C 
ATOM      9  C   UNL A   1      30.887  27.511  24.692  1.00  0.00     0.022 C 
ATOM     10  C   UNL A   1      31.572  25.697  26.181  1.00  0.00     0.019 C 
BRANCH   7  11
ATOM     11  C   UNL A   1      28.621  26.581  23.942  1.00  0.00     0.000 C 
ATOM     12  C   UNL A   1      28.554  27.894  23.182  1.00  0.00     0.004 C 
ENDBRANCH   7  11
BRANCH   6  13
ATOM     13  C   UNL A   1      33.422  27.252  25.074  1.00  0.00     0.027 C 
BRANCH  13  14
ATOM     14  C   UNL A   1      34.007  26.361  23.932  1.00  0.00     0.020 C 
ATOM     15  C   UNL A   1      33.460  26.579  22.510  1.00  0.00     0.009 C 
ATOM     16  C   UNL A   1      34.168  24.910  24.305  1.00  0.00    -0.042 A 
ATOM     17  C   UNL A   1      32.387  25.608  22.042  1.00  0.00     0.005 C 
ATOM     18  C   UNL A   1      33.448  23.898  23.654  1.00  0.00    -0.045 A 
ATOM     19  C   UNL A   1      35.014  24.576  25.379  1.00  0.00     0.004 A 
ATOM     20  C   UNL A   1      32.641  24.149  22.408  1.00  0.00     0.036 C 
ATOM     21  C   UNL A   1      33.520  22.586  24.152  1.00  0.00     0.004 A 
ATOM     22  C   UNL A   1      35.086  23.269  25.854  1.00  0.00     0.000 A 
ATOM     23  C   UNL A   1      34.320  22.277  25.253  1.00  0.00     0.000 A 
ENDBRANCH  13  14
ENDBRANCH   6  13
ENDBRANCH   4   6
ENDBRANCH   3   4
ENDBRANCH   2   3
ENDBRANCH   1   2
BRANCH   1  24
ATOM     24  O   UNL A   1      34.292  31.061  27.326  1.00  0.00    -0.458 OA
BRANCH  24  25
ATOM     25  C   UNL A   1      34.884  31.244  28.529  1.00  0.00     0.338 C 
ATOM     26  O   UNL A   1      34.473  31.930  29.450  1.00  0.00    -0.246 OA
BRANCH  25  27
ATOM     27  C   UNL A   1      36.139  30.470  28.610  1.00  0.00     0.060 A 
ATOM     28  C   UNL A   1      36.641  30.059  29.840  1.00  0.00     0.016 A 
ATOM     29  C   UNL A   1      36.903  30.282  27.459  1.00  0.00     0.016 A 
ATOM     30  C   UNL A   1      37.951  29.596  29.939  1.00  0.00     0.010 A 
ATOM     31  C   UNL A   1      38.175  29.705  27.553  1.00  0.00     0.010 A 
ATOM     32  C   UNL A   1      38.748  29.408  28.802  1.00  0.00    -0.014 A 
BRANCH  32  33
ATOM     33  C   UNL A   1      40.179  28.981  28.908  1.00  0.00     0.031 A 
ATOM     34  C   UNL A   1      41.217  29.961  29.403  1.00  0.00     0.074 A 
ATOM     35  C   UNL A   1      40.581  27.730  28.596  1.00  0.00     0.049 A 
ATOM     36  N   UNL A   1      42.518  29.937  29.250  1.00  0.00    -0.248 NA
ATOM     37  C   UNL A   1      40.728  31.135  30.147  1.00  0.00     0.031 C 
ATOM     38  C   UNL A   1      39.715  26.618  28.197  1.00  0.00     0.029 A 
ATOM     39  N   UNL A   1      41.842  27.179  28.574  1.00  0.00    -0.354 N 
ATOM     40  C   UNL A   1      42.985  31.136  29.780  1.00  0.00     0.074 A 
ATOM     41  C   UNL A   1      41.835  31.850  30.289  1.00  0.00     0.031 C 
ATOM     42  C   UNL A   1      40.454  25.511  28.041  1.00  0.00     0.029 A 
ATOM     43  C   UNL A   1      41.862  25.862  28.180  1.00  0.00     0.049 A 
ATOM     44  H   UNL A   1      42.653  27.681  28.819  1.00  0.00     0.167 HD
ATOM     45  C   UNL A   1      44.256  31.605  29.815  1.00  0.00     0.031 A 
ATOM     46  C   UNL A   1      42.886  25.037  27.883  1.00  0.00     0.031 A 
ATOM     47  C   UNL A   1      45.403  30.851  29.383  1.00  0.00     0.049 A 
ATOM     48  C   UNL A   1      44.287  25.575  27.903  1.00  0.00     0.074 A 
ATOM     49  C   UNL A   1      46.732  31.242  29.349  1.00  0.00     0.029 A 
ATOM     50  N   UNL A   1      45.363  29.535  28.953  1.00  0.00    -0.354 N 
ATOM     51  N   UNL A   1      44.703  26.772  28.236  1.00  0.00    -0.248 NA
ATOM     52  C   UNL A   1      45.352  24.664  27.462  1.00  0.00     0.031 C 
ATOM     53  C   UNL A   1      47.492  30.165  28.878  1.00  0.00     0.029 A 
ATOM     54  C   UNL A   1      46.641  29.095  28.656  1.00  0.00     0.049 A 
ATOM     55  H   UNL A   1      44.545  28.992  28.869  1.00  0.00     0.167 HD
ATOM     56  C   UNL A   1      46.078  26.761  28.038  1.00  0.00     0.074 A 
ATOM     57  C   UNL A   1      46.427  25.431  27.582  1.00  0.00     0.031 C 
ATOM     58  C   UNL A   1      46.970  27.767  28.206  1.00  0.00     0.031 A 
BRANCH  45  59
ATOM     59  C   UNL A   1      44.470  33.022  30.276  1.00  0.00    -0.014 A 
ATOM     60  C   UNL A   1      44.364  34.114  29.399  1.00  0.00     0.010 A 
ATOM     61  C   UNL A   1      44.742  33.261  31.637  1.00  0.00     0.010 A 
ATOM     62  C   UNL A   1      44.562  35.417  29.868  1.00  0.00     0.020 A 
ATOM     63  C   UNL A   1      44.917  34.563  32.115  1.00  0.00     0.020 A 
ATOM     64  C   UNL A   1      44.844  35.633  31.221  1.00  0.00     0.054 A 
BRANCH  64  65
ATOM     65  S   UNL A   1      45.076  37.332  31.813  1.00  0.00     0.124 S 
ATOM     66  O   UNL A   1      44.797  37.194  33.240  1.00  0.00    -0.237 OA
ATOM     67  O   UNL A   1      46.469  37.609  31.471  1.00  0.00    -0.237 OA
ATOM     68  O   UNL A   1      44.090  38.101  31.058  1.00  0.00    -0.744 OA
ENDBRANCH  64  65
ENDBRANCH  45  59
BRANCH  46  69
ATOM     69  C   UNL A   1      42.606  23.645  27.441  1.00  0.00    -0.014 A 
ATOM     70  C   UNL A   1      42.473  23.341  26.075  1.00  0.00     0.010 A 
ATOM     71  C   UNL A   1      42.512  22.605  28.386  1.00  0.00     0.010 A 
ATOM     72  C   UNL A   1      42.262  22.022  25.663  1.00  0.00     0.020 A 
ATOM     73  C   UNL A   1      42.333  21.283  27.976  1.00  0.00     0.020 A 
ATOM     74  C   UNL A   1      42.201  21.000  26.616  1.00  0.00     0.054 A 
BRANCH  74  75
ATOM     75  S   UNL A   1      42.022  19.280  26.062  1.00  0.00     0.124 S 
ATOM     76  O   UNL A   1      40.589  19.195  25.799  1.00  0.00    -0.237 OA
ATOM     77  O   UNL A   1      42.886  19.228  24.885  1.00  0.00    -0.237 OA
ATOM     78  O   UNL A   1      42.499  18.507  27.207  1.00  0.00    -0.744 OA
ENDBRANCH  74  75
ENDBRANCH  46  69
BRANCH  58  79
ATOM     79  C   UNL A   1      48.412  27.462  27.924  1.00  0.00    -0.014 A 
ATOM     80  C   UNL A   1      49.241  26.912  28.917  1.00  0.00     0.010 A 
ATOM     81  C   UNL A   1      48.927  27.678  26.634  1.00  0.00     0.010 A 
ATOM     82  C   UNL A   1      50.571  26.600  28.629  1.00  0.00     0.020 A 
ATOM     83  C   UNL A   1      50.253  27.352  26.338  1.00  0.00     0.020 A 
ATOM     84  C   UNL A   1      51.070  26.824  27.342  1.00  0.00     0.054 A 
BRANCH  84  85
ATOM     85  S   UNL A   1      52.786  26.366  26.974  1.00  0.00     0.124 S 
ATOM     86  O   UNL A   1      53.142  27.329  25.936  1.00  0.00    -0.237 OA
ATOM     87  O   UNL A   1      53.453  26.553  28.260  1.00  0.00    -0.237 OA
ATOM     88  O   UNL A   1      52.685  24.978  26.528  1.00  0.00    -0.744 OA
ENDBRANCH  84  85
ENDBRANCH  58  79
ENDBRANCH  32  33
ENDBRANCH  25  27
ENDBRANCH  24  25
ENDBRANCH   1  24
TORSDOF 17
ENDMDL
MODEL 2
REMARK VINA RESULT:     -11.1      1.226      2.467
REMARK SMILES CC[C@@H]1CC[C@](C[C@@H]2CCCc3ccccc32)(C(=O)OCCOC(=O)c2ccc(-c3c4nc(c(-c5ccc(S(=O)(=O)[O-])cc5)c5ccc([nH]5)c(-c5ccc(S(=O)(=O)[O-])cc5)c5nc(c(-c6ccc(S(=O)(=O)[O-])cc6)c6ccc3[nH]6)C=C5)C=C4)cc2)C1
REMARK SMILES IDX 22 1 21 2 20 3 18 4 19 5 6 6 3 7 4 8 86 9 5 10 2 11 1 12
REMARK SMILES IDX 7 13 8 14 9 15 17 16 10 17 12 18 16 19 11 20 13 21 15 22
REMARK SMILES IDX 14 23 23 24 24 25 25 26 26 27 27 28 85 29 28 30 84 31 29 32
REMARK SMILES IDX 30 33 31 34 78 35 32 36 83 37 77 38 79 39 33 40 82 41 76 42
REMARK SMILES IDX 75 43 34 45 64 46 45 47 63 48 46 49 49 50 62 51 80 52 47 53
REMARK SMILES IDX 48 54 61 56 81 57 50 58 35 59 36 60 44 61 37 62 43 63 38 64
REMARK SMILES IDX 39 65 40 66 41 67 42 68 65 69 66 70 74 71 67 72 73 73 68 74
REMARK SMILES IDX 69 75 70 76 71 77 72 78 51 79 52 80 60 81 53 82 59 83 54 84
REMARK SMILES IDX 55 85 56 86 57 87 58 88
REMARK H PARENT 79 44 49 55
REMARK Flexibility Score: inf
ROOT
ATOM      1  C   UNL A   1      32.470  28.748  26.902  1.00  0.00     0.275 C 
ENDROOT
BRANCH   1   2
ATOM      2  C   UNL A   1      31.760  27.464  27.318  1.00  0.00     0.274 C 
BRANCH   2   3
ATOM      3  O   UNL A   1      32.327  26.302  26.678  1.00  0.00    -0.462 OA
BRANCH   3   4
ATOM      4  C   UNL A   1      31.433  25.496  26.043  1.00  0.00     0.312 C 
ATOM      5  O   UNL A   1      30.299  25.297  26.469  1.00  0.00    -0.252 OA
BRANCH   4   6
ATOM      6  C   UNL A   1      31.996  24.795  24.772  1.00  0.00     0.069 C 
ATOM      7  C   UNL A   1      32.619  26.075  22.763  1.00  0.00    -0.010 C 
ATOM      8  C   UNL A   1      31.119  26.200  22.969  1.00  0.00     0.005 C 
ATOM      9  C   UNL A   1      33.122  25.655  24.156  1.00  0.00     0.022 C 
ATOM     10  C   UNL A   1      30.825  24.918  23.758  1.00  0.00     0.019 C 
BRANCH   7  11
ATOM     11  C   UNL A   1      33.373  27.267  22.181  1.00  0.00     0.000 C 
ATOM     12  C   UNL A   1      33.895  28.242  23.223  1.00  0.00     0.004 C 
ENDBRANCH   7  11
BRANCH   6  13
ATOM     13  C   UNL A   1      32.482  23.357  25.129  1.00  0.00     0.027 C 
BRANCH  13  14
ATOM     14  C   UNL A   1      33.154  22.357  24.134  1.00  0.00     0.020 C 
ATOM     15  C   UNL A   1      32.381  21.072  23.786  1.00  0.00     0.009 C 
ATOM     16  C   UNL A   1      34.623  22.132  24.387  1.00  0.00    -0.042 A 
ATOM     17  C   UNL A   1      32.782  19.816  24.544  1.00  0.00     0.005 C 
ATOM     18  C   UNL A   1      35.123  20.875  24.757  1.00  0.00    -0.045 A 
ATOM     19  C   UNL A   1      35.500  23.231  24.312  1.00  0.00     0.004 A 
ATOM     20  C   UNL A   1      34.285  19.625  24.717  1.00  0.00     0.036 C 
ATOM     21  C   UNL A   1      36.472  20.766  25.133  1.00  0.00     0.004 A 
ATOM     22  C   UNL A   1      36.838  23.105  24.674  1.00  0.00     0.000 A 
ATOM     23  C   UNL A   1      37.319  21.875  25.108  1.00  0.00     0.000 A 
ENDBRANCH  13  14
ENDBRANCH   6  13
ENDBRANCH   4   6
ENDBRANCH   3   4
ENDBRANCH   2   3
ENDBRANCH   1   2
BRANCH   1  24
ATOM     24  O   UNL A   1      33.786  28.798  27.475  1.00  0.00    -0.458 OA
BRANCH  24  25
ATOM     25  C   UNL A   1      34.245  30.034  27.779  1.00  0.00     0.338 C 
ATOM     26  O   UNL A   1      33.610  31.075  27.760  1.00  0.00    -0.246 OA
BRANCH  25  27
ATOM     27  C   UNL A   1      35.668  29.976  28.168  1.00  0.00     0.060 A 
ATOM     28  C   UNL A   1      36.667  30.300  27.256  1.00  0.00     0.016 A 
ATOM     29  C   UNL A   1      36.017  29.448  29.410  1.00  0.00     0.016 A 
ATOM     30  C   UNL A   1      37.992  29.966  27.526  1.00  0.00     0.010 A 
ATOM     31  C   UNL A   1      37.364  29.225  29.720  1.00  0.00     0.010 A 
ATOM     32  C   UNL A   1      38.373  29.422  28.760  1.00  0.00    -0.014 A 
BRANCH  32  33
ATOM     33  C   UNL A   1      39.782  28.994  29.028  1.00  0.00     0.031 A 
ATOM     34  C   UNL A   1      40.741  29.953  29.695  1.00  0.00     0.074 A 
ATOM     35  C   UNL A   1      40.231  27.760  28.714  1.00  0.00     0.049 A 
ATOM     36  N   UNL A   1      42.050  29.940  29.708  1.00  0.00    -0.248 NA
ATOM     37  C   UNL A   1      40.151  31.091  30.422  1.00  0.00     0.031 C 
ATOM     38  C   UNL A   1      39.432  26.665  28.159  1.00  0.00     0.029 A 
ATOM     39  N   UNL A   1      41.489  27.214  28.829  1.00  0.00    -0.354 N 
ATOM     40  C   UNL A   1      42.437  31.115  30.346  1.00  0.00     0.074 A 
ATOM     41  C   UNL A   1      41.225  31.802  30.735  1.00  0.00     0.031 C 
ATOM     42  C   UNL A   1      40.194  25.568  28.049  1.00  0.00     0.029 A 
ATOM     43  C   UNL A   1      41.570  25.916  28.382  1.00  0.00     0.049 A 
ATOM     44  H   UNL A   1      42.258  27.706  29.197  1.00  0.00     0.167 HD
ATOM     45  C   UNL A   1      43.689  31.585  30.564  1.00  0.00     0.031 A 
ATOM     46  C   UNL A   1      42.630  25.108  28.182  1.00  0.00     0.031 A 
ATOM     47  C   UNL A   1      44.888  30.855  30.248  1.00  0.00     0.049 A 
ATOM     48  C   UNL A   1      44.013  25.648  28.404  1.00  0.00     0.074 A 
ATOM     49  C   UNL A   1      46.207  31.249  30.402  1.00  0.00     0.029 A 
ATOM     50  N   UNL A   1      44.914  29.559  29.758  1.00  0.00    -0.354 N 
ATOM     51  N   UNL A   1      44.373  26.830  28.840  1.00  0.00    -0.248 NA
ATOM     52  C   UNL A   1      45.133  24.761  28.062  1.00  0.00     0.031 C 
ATOM     53  C   UNL A   1      47.030  30.197  29.983  1.00  0.00     0.029 A 
ATOM     54  C   UNL A   1      46.223  29.136  29.607  1.00  0.00     0.049 A 
ATOM     55  H   UNL A   1      44.118  29.019  29.547  1.00  0.00     0.167 HD
ATOM     56  C   UNL A   1      45.762  26.831  28.819  1.00  0.00     0.074 A 
ATOM     57  C   UNL A   1      46.178  25.524  28.352  1.00  0.00     0.031 C 
ATOM     58  C   UNL A   1      46.617  27.831  29.144  1.00  0.00     0.031 A 
BRANCH  45  59
ATOM     59  C   UNL A   1      43.830  32.980  31.111  1.00  0.00    -0.014 A 
ATOM     60  C   UNL A   1      44.093  33.224  32.470  1.00  0.00     0.010 A 
ATOM     61  C   UNL A   1      43.738  34.071  30.226  1.00  0.00     0.010 A 
ATOM     62  C   UNL A   1      44.225  34.535  32.939  1.00  0.00     0.020 A 
ATOM     63  C   UNL A   1      43.893  35.382  30.685  1.00  0.00     0.020 A 
ATOM     64  C   UNL A   1      44.118  35.606  32.044  1.00  0.00     0.054 A 
BRANCH  64  65
ATOM     65  S   UNL A   1      44.314  37.299  32.669  1.00  0.00     0.124 S 
ATOM     66  O   UNL A   1      44.394  38.068  31.430  1.00  0.00    -0.237 OA
ATOM     67  O   UNL A   1      43.097  37.499  33.453  1.00  0.00    -0.237 OA
ATOM     68  O   UNL A   1      45.548  37.241  33.447  1.00  0.00    -0.744 OA
ENDBRANCH  64  65
ENDBRANCH  45  59
BRANCH  46  69
ATOM     69  C   UNL A   1      42.420  23.736  27.646  1.00  0.00    -0.014 A 
ATOM     70  C   UNL A   1      42.568  23.475  26.273  1.00  0.00     0.010 A 
ATOM     71  C   UNL A   1      42.112  22.674  28.516  1.00  0.00     0.010 A 
ATOM     72  C   UNL A   1      42.420  22.173  25.782  1.00  0.00     0.020 A 
ATOM     73  C   UNL A   1      41.996  21.369  28.034  1.00  0.00     0.020 A 
ATOM     74  C   UNL A   1      42.143  21.127  26.668  1.00  0.00     0.054 A 
BRANCH  74  75
ATOM     75  S   UNL A   1      42.048  19.429  26.033  1.00  0.00     0.124 S 
ATOM     76  O   UNL A   1      42.888  19.504  24.842  1.00  0.00    -0.237 OA
ATOM     77  O   UNL A   1      42.586  18.641  27.139  1.00  0.00    -0.237 OA
ATOM     78  O   UNL A   1      40.620  19.242  25.785  1.00  0.00    -0.744 OA
ENDBRANCH  74  75
ENDBRANCH  46  69
BRANCH  58  79
ATOM     79  C   UNL A   1      48.086  27.542  29.035  1.00  0.00    -0.014 A 
ATOM     80  C   UNL A   1      48.790  27.824  27.852  1.00  0.00     0.010 A 
ATOM     81  C   UNL A   1      48.778  27.032  30.148  1.00  0.00     0.010 A 
ATOM     82  C   UNL A   1      50.164  27.583  27.777  1.00  0.00     0.020 A 
ATOM     83  C   UNL A   1      50.154  26.805  30.081  1.00  0.00     0.020 A 
ATOM     84  C   UNL A   1      50.837  27.072  28.892  1.00  0.00     0.054 A 
BRANCH  84  85
ATOM     85  S   UNL A   1      52.629  26.813  28.791  1.00  0.00     0.124 S 
ATOM     86  O   UNL A   1      52.916  26.170  30.070  1.00  0.00    -0.237 OA
ATOM     87  O   UNL A   1      52.767  25.960  27.613  1.00  0.00    -0.237 OA
ATOM     88  O   UNL A   1      53.165  28.164  28.639  1.00  0.00    -0.744 OA
ENDBRANCH  84  85
ENDBRANCH  58  79
ENDBRANCH  32  33
ENDBRANCH  25  27
ENDBRANCH  24  25
ENDBRANCH   1  24
TORSDOF 17
ENDMDL
MODEL 3
REMARK VINA RESULT:     -11.0      4.077     10.052
REMARK SMILES CC[C@@H]1CC[C@](C[C@@H]2CCCc3ccccc32)(C(=O)OCCOC(=O)c2ccc(-c3c4nc(c(-c5ccc(S(=O)(=O)[O-])cc5)c5ccc([nH]5)c(-c5ccc(S(=O)(=O)[O-])cc5)c5nc(c(-c6ccc(S(=O)(=O)[O-])cc6)c6ccc3[nH]6)C=C5)C=C4)cc2)C1
REMARK SMILES IDX 22 1 21 2 20 3 18 4 19 5 6 6 3 7 4 8 86 9 5 10 2 11 1 12
REMARK SMILES IDX 7 13 8 14 9 15 17 16 10 17 12 18 16 19 11 20 13 21 15 22
REMARK SMILES IDX 14 23 23 24 24 25 25 26 26 27 27 28 85 29 28 30 84 31 29 32
REMARK SMILES IDX 30 33 31 34 78 35 32 36 83 37 77 38 79 39 33 40 82 41 76 42
REMARK SMILES IDX 75 43 34 45 64 46 45 47 63 48 46 49 49 50 62 51 80 52 47 53
REMARK SMILES IDX 48 54 61 56 81 57 50 58 35 59 36 60 44 61 37 62 43 63 38 64
REMARK SMILES IDX 39 65 40 66 41 67 42 68 65 69 66 70 74 71 67 72 73 73 68 74
REMARK SMILES IDX 69 75 70 76 71 77 72 78 51 79 52 80 60 81 53 82 59 83 54 84
REMARK SMILES IDX 55 85 56 86 57 87 58 88
REMARK H PARENT 79 44 49 55
REMARK Flexibility Score: inf
ROOT
ATOM      1  C   UNL A   1      37.987  21.264  25.056  1.00  0.00     0.275 C 
ENDROOT
BRANCH   1   2
ATOM      2  C   UNL A   1      36.819  21.864  24.280  1.00  0.00     0.274 C 
BRANCH   2   3
ATOM      3  O   UNL A   1      35.698  22.164  25.139  1.00  0.00    -0.462 OA
BRANCH   3   4
ATOM      4  C   UNL A   1      35.347  23.478  25.196  1.00  0.00     0.312 C 
ATOM      5  O   UNL A   1      36.155  24.372  25.430  1.00  0.00    -0.252 OA
BRANCH   4   6
ATOM      6  C   UNL A   1      33.825  23.740  25.010  1.00  0.00     0.069 C 
ATOM      7  C   UNL A   1      32.515  22.566  23.286  1.00  0.00    -0.010 C 
ATOM      8  C   UNL A   1      33.536  23.453  22.595  1.00  0.00     0.005 C 
ATOM      9  C   UNL A   1      33.098  22.412  24.703  1.00  0.00     0.022 C 
ATOM     10  C   UNL A   1      33.766  24.524  23.669  1.00  0.00     0.019 C 
BRANCH   7  11
ATOM     11  C   UNL A   1      32.149  21.235  22.634  1.00  0.00     0.000 C 
ATOM     12  C   UNL A   1      32.463  20.018  23.487  1.00  0.00     0.004 C 
ENDBRANCH   7  11
BRANCH   6  13
ATOM     13  C   UNL A   1      33.248  24.448  26.275  1.00  0.00     0.027 C 
BRANCH  13  14
ATOM     14  C   UNL A   1      32.029  25.425  26.287  1.00  0.00     0.020 C 
ATOM     15  C   UNL A   1      30.678  24.883  25.785  1.00  0.00     0.009 C 
ATOM     16  C   UNL A   1      32.347  26.812  25.795  1.00  0.00    -0.042 A 
ATOM     17  C   UNL A   1      30.304  25.225  24.351  1.00  0.00     0.005 C 
ATOM     18  C   UNL A   1      31.753  27.339  24.639  1.00  0.00    -0.045 A 
ATOM     19  C   UNL A   1      33.318  27.569  26.479  1.00  0.00     0.004 A 
ATOM     20  C   UNL A   1      30.606  26.661  23.936  1.00  0.00     0.036 C 
ATOM     21  C   UNL A   1      32.209  28.572  24.142  1.00  0.00     0.004 A 
ATOM     22  C   UNL A   1      33.750  28.796  25.983  1.00  0.00     0.000 A 
ATOM     23  C   UNL A   1      33.211  29.287  24.800  1.00  0.00     0.000 A 
ENDBRANCH  13  14
ENDBRANCH   6  13
ENDBRANCH   4   6
ENDBRANCH   3   4
ENDBRANCH   2   3
ENDBRANCH   1   2
BRANCH   1  24
ATOM     24  O   UNL A   1      38.326  22.101  26.173  1.00  0.00    -0.458 OA
BRANCH  24  25
ATOM     25  C   UNL A   1      39.630  22.454  26.263  1.00  0.00     0.338 C 
ATOM     26  O   UNL A   1      40.594  21.785  25.933  1.00  0.00    -0.246 OA
BRANCH  25  27
ATOM     27  C   UNL A   1      39.759  23.815  26.821  1.00  0.00     0.060 A 
ATOM     28  C   UNL A   1      40.889  24.583  26.565  1.00  0.00     0.016 A 
ATOM     29  C   UNL A   1      38.809  24.273  27.734  1.00  0.00     0.016 A 
ATOM     30  C   UNL A   1      41.140  25.728  27.319  1.00  0.00     0.010 A 
ATOM     31  C   UNL A   1      39.013  25.487  28.402  1.00  0.00     0.010 A 
ATOM     32  C   UNL A   1      40.212  26.206  28.252  1.00  0.00    -0.014 A 
BRANCH  32  33
ATOM     33  C   UNL A   1      40.507  27.393  29.116  1.00  0.00     0.031 A 
ATOM     34  C   UNL A   1      41.781  27.428  29.929  1.00  0.00     0.074 A 
ATOM     35  C   UNL A   1      39.680  28.458  29.183  1.00  0.00     0.049 A 
ATOM     36  N   UNL A   1      42.074  28.153  30.979  1.00  0.00    -0.248 NA
ATOM     37  C   UNL A   1      42.859  26.509  29.521  1.00  0.00     0.031 C 
ATOM     38  C   UNL A   1      38.457  28.653  28.400  1.00  0.00     0.029 A 
ATOM     39  N   UNL A   1      39.754  29.596  29.954  1.00  0.00    -0.354 N 
ATOM     40  C   UNL A   1      43.316  27.703  31.417  1.00  0.00     0.074 A 
ATOM     41  C   UNL A   1      43.738  26.666  30.502  1.00  0.00     0.031 C 
ATOM     42  C   UNL A   1      37.939  29.858  28.676  1.00  0.00     0.029 A 
ATOM     43  C   UNL A   1      38.703  30.462  29.760  1.00  0.00     0.049 A 
ATOM     44  H   UNL A   1      40.490  29.774  30.583  1.00  0.00     0.167 HD
ATOM     45  C   UNL A   1      44.026  28.106  32.500  1.00  0.00     0.031 A 
ATOM     46  C   UNL A   1      38.336  31.577  30.423  1.00  0.00     0.031 A 
ATOM     47  C   UNL A   1      43.638  29.196  33.355  1.00  0.00     0.049 A 
ATOM     48  C   UNL A   1      39.116  31.999  31.634  1.00  0.00     0.074 A 
ATOM     49  C   UNL A   1      44.269  29.668  34.495  1.00  0.00     0.029 A 
ATOM     50  N   UNL A   1      42.541  30.014  33.139  1.00  0.00    -0.354 N 
ATOM     51  N   UNL A   1      40.192  31.456  32.147  1.00  0.00    -0.248 NA
ATOM     52  C   UNL A   1      38.603  33.155  32.381  1.00  0.00     0.031 C 
ATOM     53  C   UNL A   1      43.539  30.760  34.978  1.00  0.00     0.029 A 
ATOM     54  C   UNL A   1      42.479  30.990  34.118  1.00  0.00     0.049 A 
ATOM     55  H   UNL A   1      41.900  29.915  32.398  1.00  0.00     0.167 HD
ATOM     56  C   UNL A   1      40.483  32.202  33.283  1.00  0.00     0.074 A 
ATOM     57  C   UNL A   1      39.485  33.249  33.368  1.00  0.00     0.031 C 
ATOM     58  C   UNL A   1      41.480  32.025  34.183  1.00  0.00     0.031 A 
BRANCH  45  59
ATOM     59  C   UNL A   1      45.260  27.323  32.861  1.00  0.00    -0.014 A 
ATOM     60  C   UNL A   1      46.536  27.695  32.406  1.00  0.00     0.010 A 
ATOM     61  C   UNL A   1      45.135  26.210  33.715  1.00  0.00     0.010 A 
ATOM     62  C   UNL A   1      47.661  26.945  32.770  1.00  0.00     0.020 A 
ATOM     63  C   UNL A   1      46.257  25.473  34.100  1.00  0.00     0.020 A 
ATOM     64  C   UNL A   1      47.513  25.836  33.610  1.00  0.00     0.054 A 
BRANCH  64  65
ATOM     65  S   UNL A   1      48.986  24.890  34.088  1.00  0.00     0.124 S 
ATOM     66  O   UNL A   1      49.811  24.991  32.886  1.00  0.00    -0.237 OA
ATOM     67  O   UNL A   1      49.481  25.625  35.250  1.00  0.00    -0.237 OA
ATOM     68  O   UNL A   1      48.465  23.557  34.375  1.00  0.00    -0.744 OA
ENDBRANCH  64  65
ENDBRANCH  45  59
BRANCH  46  69
ATOM     69  C   UNL A   1      37.108  32.309  30.009  1.00  0.00    -0.014 A 
ATOM     70  C   UNL A   1      35.858  31.978  30.561  1.00  0.00     0.010 A 
ATOM     71  C   UNL A   1      37.191  33.371  29.090  1.00  0.00     0.010 A 
ATOM     72  C   UNL A   1      34.716  32.703  30.207  1.00  0.00     0.020 A 
ATOM     73  C   UNL A   1      36.059  34.118  28.758  1.00  0.00     0.020 A 
ATOM     74  C   UNL A   1      34.826  33.774  29.314  1.00  0.00     0.054 A 
BRANCH  74  75
ATOM     75  S   UNL A   1      33.354  34.768  28.936  1.00  0.00     0.124 S 
ATOM     76  O   UNL A   1      32.691  33.953  27.922  1.00  0.00    -0.237 OA
ATOM     77  O   UNL A   1      32.677  34.846  30.228  1.00  0.00    -0.237 OA
ATOM     78  O   UNL A   1      33.914  36.031  28.460  1.00  0.00    -0.744 OA
ENDBRANCH  74  75
ENDBRANCH  46  69
BRANCH  58  79
ATOM     79  C   UNL A   1      41.559  33.002  35.321  1.00  0.00    -0.014 A 
ATOM     80  C   UNL A   1      42.200  34.243  35.163  1.00  0.00     0.010 A 
ATOM     81  C   UNL A   1      40.939  32.693  36.544  1.00  0.00     0.010 A 
ATOM     82  C   UNL A   1      42.234  35.155  36.220  1.00  0.00     0.020 A 
ATOM     83  C   UNL A   1      40.958  33.611  37.598  1.00  0.00     0.020 A 
ATOM     84  C   UNL A   1      41.615  34.833  37.432  1.00  0.00     0.054 A 
BRANCH  84  85
ATOM     85  S   UNL A   1      41.628  36.051  38.775  1.00  0.00     0.124 S 
ATOM     86  O   UNL A   1      42.215  37.218  38.121  1.00  0.00    -0.237 OA
ATOM     87  O   UNL A   1      40.214  36.168  39.120  1.00  0.00    -0.237 OA
ATOM     88  O   UNL A   1      42.462  35.426  39.799  1.00  0.00    -0.744 OA
ENDBRANCH  84  85
ENDBRANCH  58  79
ENDBRANCH  32  33
ENDBRANCH  25  27
ENDBRANCH  24  25
ENDBRANCH   1  24
TORSDOF 17
ENDMDL
