MODEL 1
REMARK VINA RESULT:     -10.6      0.000      0.000
REMARK SMILES CC(C)(C)OC(=O)N1CCC[C@H]1C(=O)N1CCC[C@H]1C(=O)N1CCC[C@@H]1C(=O)OCCOC(=O)c1ccc(-c2c3nc(c(-c4ccc(S(=O)(=O)[O-])cc4)c4ccc([nH]4)c(-c4ccc(S(=O)(=O)[O-])cc4)c4nc(c(-c5ccc(S(=O)(=O)[O-])cc5)c5ccc2[nH]5)C=C4)C=C3)cc1
REMARK SMILES IDX 27 1 28 2 26 3 22 4 23 5 24 6 25 7 20 8 21 9 19 10 15 11
REMARK SMILES IDX 16 12 17 13 18 14 13 15 14 16 12 17 8 18 9 19 10 20 11 21
REMARK SMILES IDX 6 22 7 23 5 24 2 25 1 26 3 27 4 28 29 29 30 30 31 31 32 32
REMARK SMILES IDX 33 33 34 34 35 35 36 36 94 37 37 38 93 39 38 40 39 41 40 42
REMARK SMILES IDX 87 43 41 44 92 45 86 46 88 47 42 48 91 49 85 50 84 51 43 53
REMARK SMILES IDX 73 54 54 55 72 56 55 57 58 58 71 59 89 60 56 61 57 62 70 64
REMARK SMILES IDX 90 65 59 66 44 67 45 68 53 69 46 70 52 71 47 72 48 73 49 74
REMARK SMILES IDX 50 75 51 76 74 77 75 78 83 79 76 80 82 81 77 82 78 83 79 84
REMARK SMILES IDX 80 85 81 86 60 87 61 88 69 89 62 90 68 91 63 92 64 93 65 94
REMARK SMILES IDX 66 95 67 96
REMARK H PARENT 88 52 58 63
REMARK Flexibility Score: inf
ROOT
ATOM      1  C   UNL A   1      33.527  28.720  25.529  1.00  0.00     0.328 C 
ATOM      2  O   UNL A   1      34.158  28.839  24.484  1.00  0.00    -0.250 OA
ENDROOT
BRANCH   1   3
ATOM      3  C   UNL A   1      32.012  28.502  25.552  1.00  0.00     0.195 C 
ATOM      4  N   UNL A   1      31.674  27.273  24.870  1.00  0.00    -0.327 N 
ATOM      5  C   UNL A   1      30.415  27.416  24.181  1.00  0.00     0.120 C 
ATOM      6  C   UNL A   1      30.428  28.865  23.739  1.00  0.00     0.024 C 
ATOM      7  C   UNL A   1      31.168  29.587  24.869  1.00  0.00     0.039 C 
BRANCH   4   8
ATOM      8  C   UNL A   1      32.111  26.065  25.384  1.00  0.00     0.246 C 
ATOM      9  O   UNL A   1      31.860  25.685  26.521  1.00  0.00    -0.272 OA
BRANCH   8  10
ATOM     10  C   UNL A   1      32.949  25.286  24.368  1.00  0.00     0.174 C 
ATOM     11  N   UNL A   1      32.218  24.268  23.616  1.00  0.00    -0.329 N 
ATOM     12  C   UNL A   1      32.174  24.611  22.210  1.00  0.00     0.120 C 
ATOM     13  C   UNL A   1      33.439  25.427  22.017  1.00  0.00     0.024 C 
ATOM     14  C   UNL A   1      33.537  26.223  23.313  1.00  0.00     0.037 C 
BRANCH  11  15
ATOM     15  C   UNL A   1      31.966  23.055  24.221  1.00  0.00     0.246 C 
ATOM     16  O   UNL A   1      31.107  22.939  25.098  1.00  0.00    -0.272 OA
BRANCH  15  17
ATOM     17  C   UNL A   1      32.970  21.911  23.968  1.00  0.00     0.178 C 
ATOM     18  N   UNL A   1      33.564  21.579  25.269  1.00  0.00    -0.296 N 
ATOM     19  C   UNL A   1      33.162  20.268  25.722  1.00  0.00     0.124 C 
ATOM     20  C   UNL A   1      32.890  19.531  24.422  1.00  0.00     0.024 C 
ATOM     21  C   UNL A   1      32.305  20.611  23.509  1.00  0.00     0.037 C 
BRANCH  18  22
ATOM     22  C   UNL A   1      34.347  22.490  25.930  1.00  0.00     0.410 C 
ATOM     23  O   UNL A   1      34.234  22.709  27.128  1.00  0.00    -0.224 OA
BRANCH  22  24
ATOM     24  O   UNL A   1      35.218  23.130  25.109  1.00  0.00    -0.444 OA
BRANCH  24  25
ATOM     25  C   UNL A   1      36.532  22.569  24.846  1.00  0.00     0.106 C 
ATOM     26  C   UNL A   1      37.505  23.442  25.651  1.00  0.00     0.056 C 
ATOM     27  C   UNL A   1      36.836  22.709  23.352  1.00  0.00     0.056 C 
ATOM     28  C   UNL A   1      36.715  21.117  25.317  1.00  0.00     0.056 C 
ENDBRANCH  24  25
ENDBRANCH  22  24
ENDBRANCH  18  22
ENDBRANCH  15  17
ENDBRANCH  11  15
ENDBRANCH   8  10
ENDBRANCH   4   8
ENDBRANCH   1   3
BRANCH   1  29
ATOM     29  O   UNL A   1      34.077  28.789  26.774  1.00  0.00    -0.461 OA
BRANCH  29  30
ATOM     30  C   UNL A   1      34.034  30.097  27.372  1.00  0.00     0.274 C 
BRANCH  30  31
ATOM     31  C   UNL A   1      35.327  30.445  28.124  1.00  0.00     0.275 C 
BRANCH  31  32
ATOM     32  O   UNL A   1      36.142  29.292  28.421  1.00  0.00    -0.458 OA
BRANCH  32  33
ATOM     33  C   UNL A   1      37.082  29.488  29.379  1.00  0.00     0.338 C 
ATOM     34  O   UNL A   1      36.881  29.774  30.549  1.00  0.00    -0.246 OA
BRANCH  33  35
ATOM     35  C   UNL A   1      38.429  29.151  28.881  1.00  0.00     0.060 A 
ATOM     36  C   UNL A   1      39.377  28.734  29.818  1.00  0.00     0.016 A 
ATOM     37  C   UNL A   1      38.802  29.352  27.554  1.00  0.00     0.016 A 
ATOM     38  C   UNL A   1      40.696  28.513  29.452  1.00  0.00     0.010 A 
ATOM     39  C   UNL A   1      40.137  29.136  27.181  1.00  0.00     0.010 A 
ATOM     40  C   UNL A   1      41.093  28.729  28.130  1.00  0.00    -0.014 A 
BRANCH  40  41
ATOM     41  C   UNL A   1      42.530  28.595  27.793  1.00  0.00     0.031 A 
ATOM     42  C   UNL A   1      43.467  29.740  28.056  1.00  0.00     0.074 A 
ATOM     43  C   UNL A   1      43.002  27.422  27.328  1.00  0.00     0.049 A 
ATOM     44  N   UNL A   1      44.749  29.830  27.814  1.00  0.00    -0.248 NA
ATOM     45  C   UNL A   1      42.885  30.943  28.674  1.00  0.00     0.031 C 
ATOM     46  C   UNL A   1      42.197  26.218  27.105  1.00  0.00     0.029 A 
ATOM     47  N   UNL A   1      44.272  27.045  26.974  1.00  0.00    -0.354 N 
ATOM     48  C   UNL A   1      45.123  31.105  28.224  1.00  0.00     0.074 A 
ATOM     49  C   UNL A   1      43.928  31.760  28.712  1.00  0.00     0.031 C 
ATOM     50  C   UNL A   1      42.996  25.234  26.665  1.00  0.00     0.029 A 
ATOM     51  C   UNL A   1      44.354  25.749  26.521  1.00  0.00     0.049 A 
ATOM     52  H   UNL A   1      45.050  27.645  27.038  1.00  0.00     0.167 HD
ATOM     53  C   UNL A   1      46.352  31.675  28.195  1.00  0.00     0.031 A 
ATOM     54  C   UNL A   1      45.400  25.063  26.022  1.00  0.00     0.031 A 
ATOM     55  C   UNL A   1      47.533  31.011  27.709  1.00  0.00     0.049 A 
ATOM     56  C   UNL A   1      46.739  25.743  25.934  1.00  0.00     0.074 A 
ATOM     57  C   UNL A   1      48.828  31.498  27.640  1.00  0.00     0.029 A 
ATOM     58  N   UNL A   1      47.566  29.717  27.206  1.00  0.00    -0.354 N 
ATOM     59  N   UNL A   1      47.076  26.954  26.315  1.00  0.00    -0.248 NA
ATOM     60  C   UNL A   1      47.841  24.965  25.353  1.00  0.00     0.031 C 
ATOM     61  C   UNL A   1      49.630  30.521  27.039  1.00  0.00     0.029 A 
ATOM     62  C   UNL A   1      48.852  29.399  26.799  1.00  0.00     0.049 A 
ATOM     63  H   UNL A   1      46.790  29.115  27.147  1.00  0.00     0.167 HD
ATOM     64  C   UNL A   1      48.434  27.072  26.042  1.00  0.00     0.074 A 
ATOM     65  C   UNL A   1      48.859  25.804  25.483  1.00  0.00     0.031 C 
ATOM     66  C   UNL A   1      49.255  28.134  26.237  1.00  0.00     0.031 A 
BRANCH  53  67
ATOM     67  C   UNL A   1      46.471  33.105  28.657  1.00  0.00    -0.014 A 
ATOM     68  C   UNL A   1      46.113  34.181  27.825  1.00  0.00     0.010 A 
ATOM     69  C   UNL A   1      46.917  33.373  29.964  1.00  0.00     0.010 A 
ATOM     70  C   UNL A   1      46.237  35.498  28.278  1.00  0.00     0.020 A 
ATOM     71  C   UNL A   1      47.016  34.687  30.432  1.00  0.00     0.020 A 
ATOM     72  C   UNL A   1      46.689  35.743  29.579  1.00  0.00     0.054 A 
BRANCH  72  73
ATOM     73  S   UNL A   1      46.821  37.460  30.148  1.00  0.00     0.124 S 
ATOM     74  O   UNL A   1      45.541  38.020  29.718  1.00  0.00    -0.237 OA
ATOM     75  O   UNL A   1      46.986  37.308  31.591  1.00  0.00    -0.237 OA
ATOM     76  O   UNL A   1      47.992  37.973  29.441  1.00  0.00    -0.744 OA
ENDBRANCH  72  73
ENDBRANCH  53  67
BRANCH  54  77
ATOM     77  C   UNL A   1      45.212  23.667  25.538  1.00  0.00    -0.014 A 
ATOM     78  C   UNL A   1      44.760  23.409  24.232  1.00  0.00     0.010 A 
ATOM     79  C   UNL A   1      45.496  22.580  26.387  1.00  0.00     0.010 A 
ATOM     80  C   UNL A   1      44.577  22.094  23.791  1.00  0.00     0.020 A 
ATOM     81  C   UNL A   1      45.347  21.264  25.939  1.00  0.00     0.020 A 
ATOM     82  C   UNL A   1      44.876  21.030  24.647  1.00  0.00     0.054 A 
BRANCH  82  83
ATOM     83  S   UNL A   1      44.673  19.332  24.039  1.00  0.00     0.124 S 
ATOM     84  O   UNL A   1      43.448  18.912  24.712  1.00  0.00    -0.237 OA
ATOM     85  O   UNL A   1      44.566  19.524  22.595  1.00  0.00    -0.237 OA
ATOM     86  O   UNL A   1      45.893  18.660  24.482  1.00  0.00    -0.744 OA
ENDBRANCH  82  83
ENDBRANCH  54  77
BRANCH  66  87
ATOM     87  C   UNL A   1      50.708  27.956  25.875  1.00  0.00    -0.014 A 
ATOM     88  C   UNL A   1      51.641  27.467  26.806  1.00  0.00     0.010 A 
ATOM     89  C   UNL A   1      51.136  28.251  24.567  1.00  0.00     0.010 A 
ATOM     90  C   UNL A   1      52.984  27.316  26.448  1.00  0.00     0.020 A 
ATOM     91  C   UNL A   1      52.470  28.070  24.196  1.00  0.00     0.020 A 
ATOM     92  C   UNL A   1      53.390  27.621  25.144  1.00  0.00     0.054 A 
BRANCH  92  93
ATOM     93  S   UNL A   1      55.132  27.391  24.697  1.00  0.00     0.124 S 
ATOM     94  O   UNL A   1      55.538  28.749  24.345  1.00  0.00    -0.237 OA
ATOM     95  O   UNL A   1      55.712  26.861  25.929  1.00  0.00    -0.237 OA
ATOM     96  O   UNL A   1      55.083  26.447  23.583  1.00  0.00    -0.744 OA
ENDBRANCH  92  93
ENDBRANCH  66  87
ENDBRANCH  40  41
ENDBRANCH  33  35
ENDBRANCH  32  33
ENDBRANCH  31  32
ENDBRANCH  30  31
ENDBRANCH  29  30
ENDBRANCH   1  29
TORSDOF 21
ENDMDL
MODEL 2
REMARK VINA RESULT:     -10.4      6.798     12.464
REMARK SMILES CC(C)(C)OC(=O)N1CCC[C@H]1C(=O)N1CCC[C@H]1C(=O)N1CCC[C@@H]1C(=O)OCCOC(=O)c1ccc(-c2c3nc(c(-c4ccc(S(=O)(=O)[O-])cc4)c4ccc([nH]4)c(-c4ccc(S(=O)(=O)[O-])cc4)c4nc(c(-c5ccc(S(=O)(=O)[O-])cc5)c5ccc2[nH]5)C=C4)C=C3)cc1
REMARK SMILES IDX 27 1 28 2 26 3 22 4 23 5 24 6 25 7 20 8 21 9 19 10 15 11
REMARK SMILES IDX 16 12 17 13 18 14 13 15 14 16 12 17 8 18 9 19 10 20 11 21
REMARK SMILES IDX 6 22 7 23 5 24 2 25 1 26 3 27 4 28 29 29 30 30 31 31 32 32
REMARK SMILES IDX 33 33 34 34 35 35 36 36 94 37 37 38 93 39 38 40 39 41 40 42
REMARK SMILES IDX 87 43 41 44 92 45 86 46 88 47 42 48 91 49 85 50 84 51 43 53
REMARK SMILES IDX 73 54 54 55 72 56 55 57 58 58 71 59 89 60 56 61 57 62 70 64
REMARK SMILES IDX 90 65 59 66 44 67 45 68 53 69 46 70 52 71 47 72 48 73 49 74
REMARK SMILES IDX 50 75 51 76 74 77 75 78 83 79 76 80 82 81 77 82 78 83 79 84
REMARK SMILES IDX 80 85 81 86 60 87 61 88 69 89 62 90 68 91 63 92 64 93 65 94
REMARK SMILES IDX 66 95 67 96
REMARK H PARENT 88 52 58 63
REMARK Flexibility Score: inf
ROOT
ATOM      1  C   UNL A   1      36.929  22.414  25.532  1.00  0.00     0.328 C 
ATOM      2  O   UNL A   1      36.473  23.228  26.327  1.00  0.00    -0.250 OA
ENDROOT
BRANCH   1   3
ATOM      3  C   UNL A   1      36.034  21.514  24.677  1.00  0.00     0.195 C 
ATOM      4  N   UNL A   1      34.872  22.247  24.226  1.00  0.00    -0.327 N 
ATOM      5  C   UNL A   1      33.725  21.376  24.170  1.00  0.00     0.120 C 
ATOM      6  C   UNL A   1      33.954  20.430  25.331  1.00  0.00     0.024 C 
ATOM      7  C   UNL A   1      35.476  20.265  25.375  1.00  0.00     0.039 C 
BRANCH   4   8
ATOM      8  C   UNL A   1      35.034  23.325  23.374  1.00  0.00     0.246 C 
ATOM      9  O   UNL A   1      36.102  23.615  22.848  1.00  0.00    -0.272 OA
BRANCH   8  10
ATOM     10  C   UNL A   1      33.730  24.104  23.190  1.00  0.00     0.174 C 
ATOM     11  N   UNL A   1      33.820  25.534  23.477  1.00  0.00    -0.329 N 
ATOM     12  C   UNL A   1      33.589  26.307  22.275  1.00  0.00     0.120 C 
ATOM     13  C   UNL A   1      32.689  25.402  21.454  1.00  0.00     0.024 C 
ATOM     14  C   UNL A   1      33.239  24.011  21.746  1.00  0.00     0.037 C 
BRANCH  11  15
ATOM     15  C   UNL A   1      33.789  25.946  24.793  1.00  0.00     0.246 C 
ATOM     16  O   UNL A   1      33.817  25.135  25.721  1.00  0.00    -0.272 OA
BRANCH  15  17
ATOM     17  C   UNL A   1      33.448  27.425  25.068  1.00  0.00     0.178 C 
ATOM     18  N   UNL A   1      32.163  27.432  25.779  1.00  0.00    -0.296 N 
ATOM     19  C   UNL A   1      32.311  27.875  27.146  1.00  0.00     0.124 C 
ATOM     20  C   UNL A   1      33.530  28.777  27.078  1.00  0.00     0.024 C 
ATOM     21  C   UNL A   1      34.422  28.103  26.033  1.00  0.00     0.037 C 
BRANCH  18  22
ATOM     22  C   UNL A   1      31.020  26.997  25.158  1.00  0.00     0.410 C 
ATOM     23  O   UNL A   1      30.177  26.320  25.730  1.00  0.00    -0.224 OA
BRANCH  22  24
ATOM     24  O   UNL A   1      30.956  27.369  23.855  1.00  0.00    -0.444 OA
BRANCH  24  25
ATOM     25  C   UNL A   1      30.468  28.687  23.486  1.00  0.00     0.106 C 
ATOM     26  C   UNL A   1      28.988  28.479  23.136  1.00  0.00     0.056 C 
ATOM     27  C   UNL A   1      31.226  29.161  22.243  1.00  0.00     0.056 C 
ATOM     28  C   UNL A   1      30.535  29.733  24.612  1.00  0.00     0.056 C 
ENDBRANCH  24  25
ENDBRANCH  22  24
ENDBRANCH  18  22
ENDBRANCH  15  17
ENDBRANCH  11  15
ENDBRANCH   8  10
ENDBRANCH   4   8
ENDBRANCH   1   3
BRANCH   1  29
ATOM     29  O   UNL A   1      38.259  22.195  25.329  1.00  0.00    -0.461 OA
BRANCH  29  30
ATOM     30  C   UNL A   1      39.076  22.372  26.500  1.00  0.00     0.274 C 
BRANCH  30  31
ATOM     31  C   UNL A   1      39.986  23.606  26.402  1.00  0.00     0.275 C 
BRANCH  31  32
ATOM     32  O   UNL A   1      39.324  24.834  26.769  1.00  0.00    -0.458 OA
BRANCH  32  33
ATOM     33  C   UNL A   1      40.102  25.942  26.712  1.00  0.00     0.338 C 
ATOM     34  O   UNL A   1      40.778  26.309  25.763  1.00  0.00    -0.246 OA
BRANCH  33  35
ATOM     35  C   UNL A   1      39.920  26.785  27.908  1.00  0.00     0.060 A 
ATOM     36  C   UNL A   1      40.583  28.014  27.939  1.00  0.00     0.016 A 
ATOM     37  C   UNL A   1      39.220  26.343  29.029  1.00  0.00     0.016 A 
ATOM     38  C   UNL A   1      40.560  28.811  29.074  1.00  0.00     0.010 A 
ATOM     39  C   UNL A   1      39.200  27.143  30.181  1.00  0.00     0.010 A 
ATOM     40  C   UNL A   1      39.881  28.374  30.213  1.00  0.00    -0.014 A 
BRANCH  40  41
ATOM     41  C   UNL A   1      39.969  29.193  31.446  1.00  0.00     0.031 A 
ATOM     42  C   UNL A   1      41.104  28.974  32.406  1.00  0.00     0.074 A 
ATOM     43  C   UNL A   1      39.078  30.181  31.658  1.00  0.00     0.049 A 
ATOM     44  N   UNL A   1      41.348  29.569  33.546  1.00  0.00    -0.248 NA
ATOM     45  C   UNL A   1      42.097  27.952  32.036  1.00  0.00     0.031 C 
ATOM     46  C   UNL A   1      37.978  30.533  30.756  1.00  0.00     0.029 A 
ATOM     47  N   UNL A   1      38.963  31.077  32.690  1.00  0.00    -0.354 N 
ATOM     48  C   UNL A   1      42.504  28.977  34.041  1.00  0.00     0.074 A 
ATOM     49  C   UNL A   1      42.902  27.963  33.089  1.00  0.00     0.031 C 
ATOM     50  C   UNL A   1      37.311  31.578  31.269  1.00  0.00     0.029 A 
ATOM     51  C   UNL A   1      37.897  31.934  32.557  1.00  0.00     0.049 A 
ATOM     52  H   UNL A   1      39.586  31.104  33.452  1.00  0.00     0.167 HD
ATOM     53  C   UNL A   1      43.171  29.256  35.187  1.00  0.00     0.031 A 
ATOM     54  C   UNL A   1      37.428  32.882  33.392  1.00  0.00     0.031 A 
ATOM     55  C   UNL A   1      42.765  30.271  36.125  1.00  0.00     0.049 A 
ATOM     56  C   UNL A   1      38.146  33.123  34.691  1.00  0.00     0.074 A 
ATOM     57  C   UNL A   1      43.373  30.636  37.314  1.00  0.00     0.029 A 
ATOM     58  N   UNL A   1      41.647  31.081  35.984  1.00  0.00    -0.354 N 
ATOM     59  N   UNL A   1      39.233  32.548  35.153  1.00  0.00    -0.248 NA
ATOM     60  C   UNL A   1      37.579  34.144  35.582  1.00  0.00     0.031 C 
ATOM     61  C   UNL A   1      42.589  31.624  37.921  1.00  0.00     0.029 A 
ATOM     62  C   UNL A   1      41.531  31.925  37.077  1.00  0.00     0.049 A 
ATOM     63  H   UNL A   1      41.027  31.058  35.219  1.00  0.00     0.167 HD
ATOM     64  C   UNL A   1      39.491  33.155  36.377  1.00  0.00     0.074 A 
ATOM     65  C   UNL A   1      38.460  34.154  36.573  1.00  0.00     0.031 C 
ATOM     66  C   UNL A   1      40.493  32.908  37.259  1.00  0.00     0.031 A 
BRANCH  53  67
ATOM     67  C   UNL A   1      44.382  28.420  35.513  1.00  0.00    -0.014 A 
ATOM     68  C   UNL A   1      45.674  28.802  35.108  1.00  0.00     0.010 A 
ATOM     69  C   UNL A   1      44.225  27.243  36.269  1.00  0.00     0.010 A 
ATOM     70  C   UNL A   1      46.779  28.004  35.421  1.00  0.00     0.020 A 
ATOM     71  C   UNL A   1      45.330  26.458  36.609  1.00  0.00     0.020 A 
ATOM     72  C   UNL A   1      46.600  26.835  36.168  1.00  0.00     0.054 A 
BRANCH  72  73
ATOM     73  S   UNL A   1      48.054  25.831  36.577  1.00  0.00     0.124 S 
ATOM     74  O   UNL A   1      47.874  24.670  35.708  1.00  0.00    -0.237 OA
ATOM     75  O   UNL A   1      49.162  26.714  36.224  1.00  0.00    -0.237 OA
ATOM     76  O   UNL A   1      47.903  25.566  38.006  1.00  0.00    -0.744 OA
ENDBRANCH  72  73
ENDBRANCH  53  67
BRANCH  54  77
ATOM     77  C   UNL A   1      36.200  33.646  33.037  1.00  0.00    -0.014 A 
ATOM     78  C   UNL A   1      34.923  33.090  33.224  1.00  0.00     0.010 A 
ATOM     79  C   UNL A   1      36.305  34.949  32.513  1.00  0.00     0.010 A 
ATOM     80  C   UNL A   1      33.776  33.813  32.878  1.00  0.00     0.020 A 
ATOM     81  C   UNL A   1      35.161  35.687  32.197  1.00  0.00     0.020 A 
ATOM     82  C   UNL A   1      33.903  35.109  32.370  1.00  0.00     0.054 A 
BRANCH  82  83
ATOM     83  S   UNL A   1      32.401  36.045  31.968  1.00  0.00     0.124 S 
ATOM     84  O   UNL A   1      32.682  37.344  32.570  1.00  0.00    -0.237 OA
ATOM     85  O   UNL A   1      32.391  36.014  30.507  1.00  0.00    -0.237 OA
ATOM     86  O   UNL A   1      31.336  35.276  32.607  1.00  0.00    -0.744 OA
ENDBRANCH  82  83
ENDBRANCH  54  77
BRANCH  66  87
ATOM     87  C   UNL A   1      40.541  33.760  38.501  1.00  0.00    -0.014 A 
ATOM     88  C   UNL A   1      41.213  34.995  38.518  1.00  0.00     0.010 A 
ATOM     89  C   UNL A   1      39.868  33.330  39.661  1.00  0.00     0.010 A 
ATOM     90  C   UNL A   1      41.249  35.764  39.685  1.00  0.00     0.020 A 
ATOM     91  C   UNL A   1      39.874  34.112  40.818  1.00  0.00     0.020 A 
ATOM     92  C   UNL A   1      40.579  35.316  40.829  1.00  0.00     0.054 A 
BRANCH  92  93
ATOM     93  S   UNL A   1      40.618  36.346  42.321  1.00  0.00     0.124 S 
ATOM     94  O   UNL A   1      41.946  36.947  42.241  1.00  0.00    -0.237 OA
ATOM     95  O   UNL A   1      39.499  37.260  42.108  1.00  0.00    -0.237 OA
ATOM     96  O   UNL A   1      40.433  35.387  43.409  1.00  0.00    -0.744 OA
ENDBRANCH  92  93
ENDBRANCH  66  87
ENDBRANCH  40  41
ENDBRANCH  33  35
ENDBRANCH  32  33
ENDBRANCH  31  32
ENDBRANCH  30  31
ENDBRANCH  29  30
ENDBRANCH   1  29
TORSDOF 21
ENDMDL
MODEL 3
REMARK VINA RESULT:     -10.4      1.503      2.405
REMARK SMILES CC(C)(C)OC(=O)N1CCC[C@H]1C(=O)N1CCC[C@H]1C(=O)N1CCC[C@@H]1C(=O)OCCOC(=O)c1ccc(-c2c3nc(c(-c4ccc(S(=O)(=O)[O-])cc4)c4ccc([nH]4)c(-c4ccc(S(=O)(=O)[O-])cc4)c4nc(c(-c5ccc(S(=O)(=O)[O-])cc5)c5ccc2[nH]5)C=C4)C=C3)cc1
REMARK SMILES IDX 27 1 28 2 26 3 22 4 23 5 24 6 25 7 20 8 21 9 19 10 15 11
REMARK SMILES IDX 16 12 17 13 18 14 13 15 14 16 12 17 8 18 9 19 10 20 11 21
REMARK SMILES IDX 6 22 7 23 5 24 2 25 1 26 3 27 4 28 29 29 30 30 31 31 32 32
REMARK SMILES IDX 33 33 34 34 35 35 36 36 94 37 37 38 93 39 38 40 39 41 40 42
REMARK SMILES IDX 87 43 41 44 92 45 86 46 88 47 42 48 91 49 85 50 84 51 43 53
REMARK SMILES IDX 73 54 54 55 72 56 55 57 58 58 71 59 89 60 56 61 57 62 70 64
REMARK SMILES IDX 90 65 59 66 44 67 45 68 53 69 46 70 52 71 47 72 48 73 49 74
REMARK SMILES IDX 50 75 51 76 74 77 75 78 83 79 76 80 82 81 77 82 78 83 79 84
REMARK SMILES IDX 80 85 81 86 60 87 61 88 69 89 62 90 68 91 63 92 64 93 65 94
REMARK SMILES IDX 66 95 67 96
REMARK H PARENT 88 52 58 63
REMARK Flexibility Score: inf
ROOT
ATOM      1  C   UNL A   1      32.328  29.157  25.304  1.00  0.00     0.328 C 
ATOM      2  O   UNL A   1      33.191  29.440  24.480  1.00  0.00    -0.250 OA
ENDROOT
BRANCH   1   3
ATOM      3  C   UNL A   1      31.038  28.426  24.923  1.00  0.00     0.195 C 
ATOM      4  N   UNL A   1      31.306  27.022  24.704  1.00  0.00    -0.327 N 
ATOM      5  C   UNL A   1      30.464  26.513  23.650  1.00  0.00     0.120 C 
ATOM      6  C   UNL A   1      30.343  27.693  22.708  1.00  0.00     0.024 C 
ATOM      7  C   UNL A   1      30.349  28.909  23.639  1.00  0.00     0.039 C 
BRANCH   4   8
ATOM      8  C   UNL A   1      31.738  26.238  25.759  1.00  0.00     0.246 C 
ATOM      9  O   UNL A   1      31.218  26.253  26.869  1.00  0.00    -0.272 OA
BRANCH   8  10
ATOM     10  C   UNL A   1      32.940  25.375  25.370  1.00  0.00     0.174 C 
ATOM     11  N   UNL A   1      32.616  24.003  24.985  1.00  0.00    -0.329 N 
ATOM     12  C   UNL A   1      32.939  23.778  23.591  1.00  0.00     0.120 C 
ATOM     13  C   UNL A   1      34.074  24.754  23.341  1.00  0.00     0.024 C 
ATOM     14  C   UNL A   1      33.671  25.971  24.167  1.00  0.00     0.037 C 
BRANCH  11  15
ATOM     15  C   UNL A   1      32.374  23.079  25.979  1.00  0.00     0.246 C 
ATOM     16  O   UNL A   1      31.306  23.061  26.596  1.00  0.00    -0.272 OA
BRANCH  15  17
ATOM     17  C   UNL A   1      33.571  22.246  26.484  1.00  0.00     0.178 C 
ATOM     18  N   UNL A   1      33.789  21.185  25.493  1.00  0.00    -0.296 N 
ATOM     19  C   UNL A   1      35.034  21.365  24.783  1.00  0.00     0.124 C 
ATOM     20  C   UNL A   1      35.889  22.120  25.785  1.00  0.00     0.024 C 
ATOM     21  C   UNL A   1      34.887  23.026  26.505  1.00  0.00     0.037 C 
BRANCH  18  22
ATOM     22  C   UNL A   1      32.843  20.213  25.292  1.00  0.00     0.410 C 
ATOM     23  O   UNL A   1      31.713  20.465  24.900  1.00  0.00    -0.224 OA
BRANCH  22  24
ATOM     24  O   UNL A   1      33.290  18.971  25.607  1.00  0.00    -0.444 OA
BRANCH  24  25
ATOM     25  C   UNL A   1      33.298  17.914  24.611  1.00  0.00     0.106 C 
ATOM     26  C   UNL A   1      32.562  16.739  25.272  1.00  0.00     0.056 C 
ATOM     27  C   UNL A   1      34.748  17.515  24.328  1.00  0.00     0.056 C 
ATOM     28  C   UNL A   1      32.550  18.255  23.310  1.00  0.00     0.056 C 
ENDBRANCH  24  25
ENDBRANCH  22  24
ENDBRANCH  18  22
ENDBRANCH  15  17
ENDBRANCH  11  15
ENDBRANCH   8  10
ENDBRANCH   4   8
ENDBRANCH   1   3
BRANCH   1  29
ATOM     29  O   UNL A   1      32.394  29.470  26.629  1.00  0.00    -0.461 OA
BRANCH  29  30
ATOM     30  C   UNL A   1      33.485  30.339  26.981  1.00  0.00     0.274 C 
BRANCH  30  31
ATOM     31  C   UNL A   1      34.692  29.572  27.542  1.00  0.00     0.275 C 
BRANCH  31  32
ATOM     32  O   UNL A   1      35.760  30.435  27.988  1.00  0.00    -0.458 OA
BRANCH  32  33
ATOM     33  C   UNL A   1      36.395  30.024  29.112  1.00  0.00     0.338 C 
ATOM     34  O   UNL A   1      35.871  29.687  30.163  1.00  0.00    -0.246 OA
BRANCH  33  35
ATOM     35  C   UNL A   1      37.842  29.865  28.879  1.00  0.00     0.060 A 
ATOM     36  C   UNL A   1      38.260  29.602  27.572  1.00  0.00     0.016 A 
ATOM     37  C   UNL A   1      38.766  29.850  29.923  1.00  0.00     0.016 A 
ATOM     38  C   UNL A   1      39.589  29.322  27.289  1.00  0.00     0.010 A 
ATOM     39  C   UNL A   1      40.109  29.560  29.641  1.00  0.00     0.010 A 
ATOM     40  C   UNL A   1      40.524  29.282  28.325  1.00  0.00    -0.014 A 
BRANCH  40  41
ATOM     41  C   UNL A   1      41.913  28.869  28.008  1.00  0.00     0.031 A 
ATOM     42  C   UNL A   1      43.022  29.880  28.069  1.00  0.00     0.074 A 
ATOM     43  C   UNL A   1      42.183  27.575  27.748  1.00  0.00     0.049 A 
ATOM     44  N   UNL A   1      44.295  29.726  27.809  1.00  0.00    -0.248 NA
ATOM     45  C   UNL A   1      42.652  31.245  28.475  1.00  0.00     0.031 C 
ATOM     46  C   UNL A   1      41.196  26.493  27.737  1.00  0.00     0.029 A 
ATOM     47  N   UNL A   1      43.368  26.949  27.457  1.00  0.00    -0.354 N 
ATOM     48  C   UNL A   1      44.873  30.976  27.994  1.00  0.00     0.074 A 
ATOM     49  C   UNL A   1      43.809  31.883  28.369  1.00  0.00     0.031 C 
ATOM     50  C   UNL A   1      41.820  25.335  27.467  1.00  0.00     0.029 A 
ATOM     51  C   UNL A   1      43.235  25.599  27.232  1.00  0.00     0.049 A 
ATOM     52  H   UNL A   1      44.231  27.422  27.415  1.00  0.00     0.167 HD
ATOM     53  C   UNL A   1      46.174  31.333  27.863  1.00  0.00     0.031 A 
ATOM     54  C   UNL A   1      44.147  24.684  26.852  1.00  0.00     0.031 A 
ATOM     55  C   UNL A   1      47.223  30.419  27.492  1.00  0.00     0.049 A 
ATOM     56  C   UNL A   1      45.571  25.120  26.643  1.00  0.00     0.074 A 
ATOM     57  C   UNL A   1      48.574  30.678  27.335  1.00  0.00     0.029 A 
ATOM     58  N   UNL A   1      47.041  29.071  27.216  1.00  0.00    -0.354 N 
ATOM     59  N   UNL A   1      46.103  26.309  26.811  1.00  0.00    -0.248 NA
ATOM     60  C   UNL A   1      46.521  24.092  26.198  1.00  0.00     0.031 C 
ATOM     61  C   UNL A   1      49.198  29.501  26.906  1.00  0.00     0.029 A 
ATOM     62  C   UNL A   1      48.249  28.492  26.863  1.00  0.00     0.049 A 
ATOM     63  H   UNL A   1      46.180  28.597  27.264  1.00  0.00     0.167 HD
ATOM     64  C   UNL A   1      47.453  26.166  26.515  1.00  0.00     0.074 A 
ATOM     65  C   UNL A   1      47.661  24.771  26.178  1.00  0.00     0.031 C 
ATOM     66  C   UNL A   1      48.435  27.103  26.523  1.00  0.00     0.031 A 
BRANCH  53  67
ATOM     67  C   UNL A   1      46.526  32.783  28.075  1.00  0.00    -0.014 A 
ATOM     68  C   UNL A   1      46.910  33.273  29.337  1.00  0.00     0.010 A 
ATOM     69  C   UNL A   1      46.503  33.666  26.980  1.00  0.00     0.010 A 
ATOM     70  C   UNL A   1      47.227  34.624  29.506  1.00  0.00     0.020 A 
ATOM     71  C   UNL A   1      46.847  35.012  27.138  1.00  0.00     0.020 A 
ATOM     72  C   UNL A   1      47.192  35.486  28.405  1.00  0.00     0.054 A 
BRANCH  72  73
ATOM     73  S   UNL A   1      47.629  37.230  28.649  1.00  0.00     0.124 S 
ATOM     74  O   UNL A   1      48.316  37.192  29.937  1.00  0.00    -0.237 OA
ATOM     75  O   UNL A   1      48.477  37.512  27.493  1.00  0.00    -0.237 OA
ATOM     76  O   UNL A   1      46.338  37.914  28.652  1.00  0.00    -0.744 OA
ENDBRANCH  72  73
ENDBRANCH  53  67
BRANCH  54  77
ATOM     77  C   UNL A   1      43.731  23.273  26.613  1.00  0.00    -0.014 A 
ATOM     78  C   UNL A   1      44.017  22.631  25.396  1.00  0.00     0.010 A 
ATOM     79  C   UNL A   1      43.049  22.558  27.616  1.00  0.00     0.010 A 
ATOM     80  C   UNL A   1      43.613  21.309  25.178  1.00  0.00     0.020 A 
ATOM     81  C   UNL A   1      42.672  21.227  27.415  1.00  0.00     0.020 A 
ATOM     82  C   UNL A   1      42.946  20.615  26.192  1.00  0.00     0.054 A 
BRANCH  82  83
ATOM     83  S   UNL A   1      42.469  18.888  25.904  1.00  0.00     0.124 S 
ATOM     84  O   UNL A   1      41.023  18.995  25.738  1.00  0.00    -0.237 OA
ATOM     85  O   UNL A   1      43.221  18.549  24.698  1.00  0.00    -0.237 OA
ATOM     86  O   UNL A   1      42.910  18.203  27.117  1.00  0.00    -0.744 OA
ENDBRANCH  82  83
ENDBRANCH  54  77
BRANCH  66  87
ATOM     87  C   UNL A   1      49.830  26.640  26.190  1.00  0.00    -0.014 A 
ATOM     88  C   UNL A   1      50.466  25.631  26.935  1.00  0.00     0.010 A 
ATOM     89  C   UNL A   1      50.501  27.204  25.088  1.00  0.00     0.010 A 
ATOM     90  C   UNL A   1      51.763  25.224  26.610  1.00  0.00     0.020 A 
ATOM     91  C   UNL A   1      51.784  26.776  24.740  1.00  0.00     0.020 A 
ATOM     92  C   UNL A   1      52.414  25.802  25.515  1.00  0.00     0.054 A 
BRANCH  92  93
ATOM     93  S   UNL A   1      54.087  25.236  25.098  1.00  0.00     0.124 S 
ATOM     94  O   UNL A   1      54.862  25.710  26.241  1.00  0.00    -0.237 OA
ATOM     95  O   UNL A   1      53.921  23.787  25.008  1.00  0.00    -0.237 OA
ATOM     96  O   UNL A   1      54.373  25.905  23.831  1.00  0.00    -0.744 OA
ENDBRANCH  92  93
ENDBRANCH  66  87
ENDBRANCH  40  41
ENDBRANCH  33  35
ENDBRANCH  32  33
ENDBRANCH  31  32
ENDBRANCH  30  31
ENDBRANCH  29  30
ENDBRANCH   1  29
TORSDOF 21
ENDMDL
