MODEL 1
REMARK VINA RESULT:     -13.0      0.000      0.000
REMARK SMILES O=C(OCCOC(=O)[C@@H]1[C@H](C(=O)Nc2ccc(Cn3cncn3)cc2)[C@@H]2C=C[C@H]1CC2)c1ccc(-c2c3nc(c(-c4ccc(S(=O)(=O)[O-])cc4)c4ccc([nH]4)c(-c4ccc(S(=O)(=O)[O-])cc4)c4nc(c(-c5ccc(S(=O)(=O)[O-])cc5)c5ccc2[nH]5)C=C4)C=C3)cc1
REMARK SMILES IDX 5 1 4 2 3 3 2 4 1 5 32 6 33 7 91 8 34 9 90 10 35 11 36 12
REMARK SMILES IDX 37 13 84 14 38 15 89 16 83 17 85 18 39 19 88 20 82 21 81 22
REMARK SMILES IDX 40 24 70 25 51 26 69 27 52 28 55 29 68 30 86 31 53 32 54 33
REMARK SMILES IDX 67 35 87 36 56 37 41 38 42 39 50 40 43 41 49 42 44 43 45 44
REMARK SMILES IDX 46 45 47 46 48 47 71 48 72 49 80 50 73 51 79 52 74 53 75 54
REMARK SMILES IDX 76 55 77 56 78 57 57 58 58 59 66 60 59 61 65 62 60 63 61 64
REMARK SMILES IDX 62 65 63 66 64 67 6 68 7 69 8 70 9 71 10 72 29 73 26 74
REMARK SMILES IDX 28 75 30 76 27 77 31 78 11 79 12 80 13 81 14 83 15 84 25 85
REMARK SMILES IDX 16 86 24 87 17 88 18 89 19 90 20 91 23 92 21 93 22 94
REMARK H PARENT 85 23 55 34 13 82
REMARK Flexibility Score: inf
ROOT
ATOM      1  C   UNL A   1      32.025  28.533  27.761  1.00  0.00     0.274 C 
ENDROOT
BRANCH   1   2
ATOM      2  C   UNL A   1      32.145  29.906  27.089  1.00  0.00     0.275 C 
BRANCH   2   3
ATOM      3  O   UNL A   1      33.499  30.282  26.841  1.00  0.00    -0.458 OA
BRANCH   3   4
ATOM      4  C   UNL A   1      34.078  31.239  27.601  1.00  0.00     0.338 C 
ATOM      5  O   UNL A   1      33.625  32.342  27.880  1.00  0.00    -0.246 OA
BRANCH   4   6
ATOM      6  C   UNL A   1      35.394  30.713  28.025  1.00  0.00     0.060 A 
ATOM      7  C   UNL A   1      36.269  31.601  28.631  1.00  0.00     0.016 A 
ATOM      8  C   UNL A   1      35.783  29.386  27.888  1.00  0.00     0.016 A 
ATOM      9  C   UNL A   1      37.566  31.253  28.945  1.00  0.00     0.010 A 
ATOM     10  C   UNL A   1      37.084  29.009  28.260  1.00  0.00     0.010 A 
ATOM     11  C   UNL A   1      38.003  29.961  28.724  1.00  0.00    -0.014 A 
BRANCH  11  12
ATOM     12  C   UNL A   1      39.405  29.701  29.077  1.00  0.00     0.031 A 
ATOM     13  C   UNL A   1      39.726  29.713  30.546  1.00  0.00     0.074 A 
ATOM     14  C   UNL A   1      40.324  29.431  28.130  1.00  0.00     0.049 A 
ATOM     15  N   UNL A   1      40.493  30.529  31.206  1.00  0.00    -0.248 NA
ATOM     16  C   UNL A   1      38.935  28.819  31.413  1.00  0.00     0.031 C 
ATOM     17  C   UNL A   1      40.081  29.245  26.699  1.00  0.00     0.029 A 
ATOM     18  N   UNL A   1      41.642  29.115  28.253  1.00  0.00    -0.354 N 
ATOM     19  C   UNL A   1      40.452  30.086  32.532  1.00  0.00     0.074 A 
ATOM     20  C   UNL A   1      39.299  29.234  32.626  1.00  0.00     0.031 C 
ATOM     21  C   UNL A   1      41.097  28.530  26.172  1.00  0.00     0.029 A 
ATOM     22  C   UNL A   1      42.110  28.338  27.194  1.00  0.00     0.049 A 
ATOM     23  H   UNL A   1      42.204  29.404  29.007  1.00  0.00     0.167 HD
ATOM     24  C   UNL A   1      41.531  30.156  33.368  1.00  0.00     0.031 A 
ATOM     25  C   UNL A   1      43.180  27.500  27.197  1.00  0.00     0.031 A 
ATOM     26  C   UNL A   1      42.504  31.110  32.910  1.00  0.00     0.049 A 
ATOM     27  C   UNL A   1      44.044  27.890  28.337  1.00  0.00     0.074 A 
ATOM     28  C   UNL A   1      42.514  32.464  32.639  1.00  0.00     0.029 A 
ATOM     29  N   UNL A   1      43.634  30.601  32.318  1.00  0.00    -0.354 N 
ATOM     30  N   UNL A   1      44.670  29.033  28.392  1.00  0.00    -0.248 NA
ATOM     31  C   UNL A   1      43.818  27.242  29.620  1.00  0.00     0.031 C 
ATOM     32  C   UNL A   1      43.364  32.601  31.501  1.00  0.00     0.029 A 
ATOM     33  C   UNL A   1      43.879  31.341  31.197  1.00  0.00     0.049 A 
ATOM     34  H   UNL A   1      44.169  29.840  32.643  1.00  0.00     0.167 HD
ATOM     35  C   UNL A   1      44.511  29.459  29.702  1.00  0.00     0.074 A 
ATOM     36  C   UNL A   1      44.052  28.277  30.433  1.00  0.00     0.031 C 
ATOM     37  C   UNL A   1      44.487  30.791  30.010  1.00  0.00     0.031 A 
BRANCH  24  38
ATOM     38  C   UNL A   1      41.922  29.000  34.287  1.00  0.00    -0.014 A 
ATOM     39  C   UNL A   1      42.361  27.784  33.718  1.00  0.00     0.010 A 
ATOM     40  C   UNL A   1      41.581  28.957  35.655  1.00  0.00     0.010 A 
ATOM     41  C   UNL A   1      42.341  26.584  34.448  1.00  0.00     0.020 A 
ATOM     42  C   UNL A   1      41.601  27.782  36.404  1.00  0.00     0.020 A 
ATOM     43  C   UNL A   1      41.942  26.593  35.785  1.00  0.00     0.054 A 
BRANCH  43  44
ATOM     44  S   UNL A   1      41.815  25.041  36.703  1.00  0.00     0.124 S 
ATOM     45  O   UNL A   1      43.115  24.976  37.361  1.00  0.00    -0.237 OA
ATOM     46  O   UNL A   1      40.671  25.297  37.574  1.00  0.00    -0.237 OA
ATOM     47  O   UNL A   1      41.587  24.045  35.658  1.00  0.00    -0.744 OA
ENDBRANCH  43  44
ENDBRANCH  24  38
BRANCH  25  48
ATOM     48  C   UNL A   1      43.265  26.172  26.528  1.00  0.00    -0.014 A 
ATOM     49  C   UNL A   1      43.961  25.999  25.316  1.00  0.00     0.010 A 
ATOM     50  C   UNL A   1      42.872  25.006  27.219  1.00  0.00     0.010 A 
ATOM     51  C   UNL A   1      44.294  24.714  24.848  1.00  0.00     0.020 A 
ATOM     52  C   UNL A   1      43.187  23.725  26.755  1.00  0.00     0.020 A 
ATOM     53  C   UNL A   1      43.920  23.584  25.581  1.00  0.00     0.054 A 
BRANCH  53  54
ATOM     54  S   UNL A   1      44.498  21.937  25.072  1.00  0.00     0.124 S 
ATOM     55  O   UNL A   1      45.730  21.787  25.841  1.00  0.00    -0.237 OA
ATOM     56  O   UNL A   1      43.393  21.073  25.472  1.00  0.00    -0.237 OA
ATOM     57  O   UNL A   1      44.683  22.070  23.627  1.00  0.00    -0.744 OA
ENDBRANCH  53  54
ENDBRANCH  25  48
BRANCH  37  58
ATOM     58  C   UNL A   1      44.940  31.783  28.972  1.00  0.00    -0.014 A 
ATOM     59  C   UNL A   1      46.280  32.166  28.766  1.00  0.00     0.010 A 
ATOM     60  C   UNL A   1      43.960  32.247  28.077  1.00  0.00     0.010 A 
ATOM     61  C   UNL A   1      46.619  33.029  27.712  1.00  0.00     0.020 A 
ATOM     62  C   UNL A   1      44.294  33.088  27.018  1.00  0.00     0.020 A 
ATOM     63  C   UNL A   1      45.618  33.490  26.850  1.00  0.00     0.054 A 
BRANCH  63  64
ATOM     64  S   UNL A   1      46.048  34.612  25.492  1.00  0.00     0.124 S 
ATOM     65  O   UNL A   1      45.173  34.156  24.416  1.00  0.00    -0.237 OA
ATOM     66  O   UNL A   1      45.736  35.925  26.049  1.00  0.00    -0.237 OA
ATOM     67  O   UNL A   1      47.474  34.365  25.276  1.00  0.00    -0.744 OA
ENDBRANCH  63  64
ENDBRANCH  37  58
ENDBRANCH  11  12
ENDBRANCH   4   6
ENDBRANCH   3   4
ENDBRANCH   2   3
ENDBRANCH   1   2
BRANCH   1  68
ATOM     68  O   UNL A   1      31.020  27.689  27.172  1.00  0.00    -0.462 OA
BRANCH  68  69
ATOM     69  C   UNL A   1      31.485  26.662  26.439  1.00  0.00     0.310 C 
ATOM     70  O   UNL A   1      31.485  25.493  26.814  1.00  0.00    -0.252 OA
BRANCH  69  71
ATOM     71  C   UNL A   1      32.070  27.063  25.110  1.00  0.00     0.119 C 
ATOM     72  C   UNL A   1      31.384  26.692  23.774  1.00  0.00     0.100 C 
ATOM     73  C   UNL A   1      33.619  26.948  24.992  1.00  0.00     0.026 C 
ATOM     74  C   UNL A   1      32.454  26.767  22.653  1.00  0.00     0.025 C 
ATOM     75  C   UNL A   1      34.050  25.810  24.099  1.00  0.00    -0.027 C 
ATOM     76  C   UNL A   1      34.085  28.149  24.153  1.00  0.00     0.009 C 
ATOM     77  C   UNL A   1      33.433  25.672  22.918  1.00  0.00    -0.027 C 
ATOM     78  C   UNL A   1      33.311  28.101  22.794  1.00  0.00     0.009 C 
BRANCH  72  79
ATOM     79  C   UNL A   1      30.252  25.614  23.664  1.00  0.00     0.228 C 
ATOM     80  O   UNL A   1      29.083  26.026  23.772  1.00  0.00    -0.274 OA
ATOM     81  N   UNL A   1      30.367  24.322  23.218  1.00  0.00    -0.326 N 
ATOM     82  H   UNL A   1      29.868  24.158  22.386  1.00  0.00     0.169 HD
BRANCH  81  83
ATOM     83  C   UNL A   1      31.047  23.168  23.688  1.00  0.00     0.041 A 
ATOM     84  C   UNL A   1      31.475  22.233  22.746  1.00  0.00     0.026 A 
ATOM     85  C   UNL A   1      31.080  22.759  25.022  1.00  0.00     0.026 A 
ATOM     86  C   UNL A   1      32.200  21.087  23.131  1.00  0.00     0.008 A 
ATOM     87  C   UNL A   1      31.814  21.612  25.426  1.00  0.00     0.008 A 
ATOM     88  C   UNL A   1      32.483  20.828  24.480  1.00  0.00    -0.026 A 
BRANCH  88  89
ATOM     89  C   UNL A   1      33.694  19.968  24.827  1.00  0.00     0.181 C 
BRANCH  89  90
ATOM     90  N   UNL A   1      33.504  18.533  24.835  1.00  0.00    -0.249 N 
ATOM     91  C   UNL A   1      34.403  17.588  24.454  1.00  0.00     0.220 A 
ATOM     92  N   UNL A   1      32.498  17.979  25.554  1.00  0.00    -0.160 NA
ATOM     93  N   UNL A   1      33.997  16.407  24.861  1.00  0.00    -0.224 NA
ATOM     94  C   UNL A   1      32.877  16.698  25.584  1.00  0.00     0.246 A 
ENDBRANCH  89  90
ENDBRANCH  88  89
ENDBRANCH  81  83
ENDBRANCH  72  79
ENDBRANCH  69  71
ENDBRANCH  68  69
ENDBRANCH   1  68
TORSDOF 18
ENDMDL
MODEL 2
REMARK VINA RESULT:     -12.9      1.960      4.425
REMARK SMILES O=C(OCCOC(=O)[C@@H]1[C@H](C(=O)Nc2ccc(Cn3cncn3)cc2)[C@@H]2C=C[C@H]1CC2)c1ccc(-c2c3nc(c(-c4ccc(S(=O)(=O)[O-])cc4)c4ccc([nH]4)c(-c4ccc(S(=O)(=O)[O-])cc4)c4nc(c(-c5ccc(S(=O)(=O)[O-])cc5)c5ccc2[nH]5)C=C4)C=C3)cc1
REMARK SMILES IDX 5 1 4 2 3 3 2 4 1 5 32 6 33 7 91 8 34 9 90 10 35 11 36 12
REMARK SMILES IDX 37 13 84 14 38 15 89 16 83 17 85 18 39 19 88 20 82 21 81 22
REMARK SMILES IDX 40 24 70 25 51 26 69 27 52 28 55 29 68 30 86 31 53 32 54 33
REMARK SMILES IDX 67 35 87 36 56 37 41 38 42 39 50 40 43 41 49 42 44 43 45 44
REMARK SMILES IDX 46 45 47 46 48 47 71 48 72 49 80 50 73 51 79 52 74 53 75 54
REMARK SMILES IDX 76 55 77 56 78 57 57 58 58 59 66 60 59 61 65 62 60 63 61 64
REMARK SMILES IDX 62 65 63 66 64 67 6 68 7 69 8 70 9 71 10 72 29 73 26 74
REMARK SMILES IDX 28 75 30 76 27 77 31 78 11 79 12 80 13 81 14 83 15 84 25 85
REMARK SMILES IDX 16 86 24 87 17 88 18 89 19 90 20 91 23 92 21 93 22 94
REMARK H PARENT 85 23 55 34 13 82
REMARK Flexibility Score: inf
ROOT
ATOM      1  C   UNL A   1      31.665  27.704  26.142  1.00  0.00     0.274 C 
ENDROOT
BRANCH   1   2
ATOM      2  C   UNL A   1      32.102  28.764  27.161  1.00  0.00     0.275 C 
BRANCH   2   3
ATOM      3  O   UNL A   1      33.331  29.396  26.804  1.00  0.00    -0.458 OA
BRANCH   3   4
ATOM      4  C   UNL A   1      33.644  30.600  27.336  1.00  0.00     0.338 C 
ATOM      5  O   UNL A   1      32.904  31.566  27.474  1.00  0.00    -0.246 OA
BRANCH   4   6
ATOM      6  C   UNL A   1      35.074  30.547  27.705  1.00  0.00     0.060 A 
ATOM      7  C   UNL A   1      35.717  29.324  27.587  1.00  0.00     0.016 A 
ATOM      8  C   UNL A   1      35.813  31.647  28.122  1.00  0.00     0.016 A 
ATOM      9  C   UNL A   1      37.009  29.129  28.027  1.00  0.00     0.010 A 
ATOM     10  C   UNL A   1      37.149  31.469  28.518  1.00  0.00     0.010 A 
ATOM     11  C   UNL A   1      37.729  30.192  28.538  1.00  0.00    -0.014 A 
BRANCH  11  12
ATOM     12  C   UNL A   1      39.088  29.874  28.993  1.00  0.00     0.031 A 
ATOM     13  C   UNL A   1      39.302  29.884  30.482  1.00  0.00     0.074 A 
ATOM     14  C   UNL A   1      40.061  29.556  28.117  1.00  0.00     0.049 A 
ATOM     15  N   UNL A   1      40.054  30.672  31.191  1.00  0.00    -0.248 NA
ATOM     16  C   UNL A   1      38.411  29.034  31.294  1.00  0.00     0.031 C 
ATOM     17  C   UNL A   1      39.914  29.369  26.674  1.00  0.00     0.029 A 
ATOM     18  N   UNL A   1      41.351  29.183  28.337  1.00  0.00    -0.354 N 
ATOM     19  C   UNL A   1      39.898  30.242  32.514  1.00  0.00     0.074 A 
ATOM     20  C   UNL A   1      38.704  29.442  32.528  1.00  0.00     0.031 C 
ATOM     21  C   UNL A   1      40.933  28.606  26.226  1.00  0.00     0.029 A 
ATOM     22  C   UNL A   1      41.860  28.378  27.320  1.00  0.00     0.049 A 
ATOM     23  H   UNL A   1      41.869  29.454  29.130  1.00  0.00     0.167 HD
ATOM     24  C   UNL A   1      40.915  30.272  33.425  1.00  0.00     0.031 A 
ATOM     25  C   UNL A   1      42.888  27.494  27.405  1.00  0.00     0.031 A 
ATOM     26  C   UNL A   1      41.960  31.178  33.035  1.00  0.00     0.049 A 
ATOM     27  C   UNL A   1      43.684  27.856  28.604  1.00  0.00     0.074 A 
ATOM     28  C   UNL A   1      42.050  32.529  32.758  1.00  0.00     0.029 A 
ATOM     29  N   UNL A   1      43.106  30.616  32.530  1.00  0.00    -0.354 N 
ATOM     30  N   UNL A   1      44.354  28.971  28.698  1.00  0.00    -0.248 NA
ATOM     31  C   UNL A   1      43.337  27.229  29.870  1.00  0.00     0.031 C 
ATOM     32  C   UNL A   1      42.985  32.619  31.684  1.00  0.00     0.029 A 
ATOM     33  C   UNL A   1      43.465  31.335  31.426  1.00  0.00     0.049 A 
ATOM     34  H   UNL A   1      43.582  29.835  32.897  1.00  0.00     0.167 HD
ATOM     35  C   UNL A   1      44.120  29.414  29.990  1.00  0.00     0.074 A 
ATOM     36  C   UNL A   1      43.557  28.260  30.692  1.00  0.00     0.031 C 
ATOM     37  C   UNL A   1      44.132  30.748  30.288  1.00  0.00     0.031 A 
BRANCH  24  38
ATOM     38  C   UNL A   1      41.186  29.108  34.377  1.00  0.00    -0.014 A 
ATOM     39  C   UNL A   1      41.594  29.379  35.701  1.00  0.00     0.010 A 
ATOM     40  C   UNL A   1      41.355  27.779  33.936  1.00  0.00     0.010 A 
ATOM     41  C   UNL A   1      42.240  28.407  36.483  1.00  0.00     0.020 A 
ATOM     42  C   UNL A   1      41.953  26.792  34.718  1.00  0.00     0.020 A 
ATOM     43  C   UNL A   1      42.429  27.122  35.974  1.00  0.00     0.054 A 
BRANCH  43  44
ATOM     44  S   UNL A   1      43.349  25.895  36.930  1.00  0.00     0.124 S 
ATOM     45  O   UNL A   1      42.660  24.660  36.570  1.00  0.00    -0.237 OA
ATOM     46  O   UNL A   1      44.701  26.049  36.400  1.00  0.00    -0.237 OA
ATOM     47  O   UNL A   1      43.171  26.335  38.311  1.00  0.00    -0.744 OA
ENDBRANCH  43  44
ENDBRANCH  24  38
BRANCH  25  48
ATOM     48  C   UNL A   1      42.963  26.158  26.751  1.00  0.00    -0.014 A 
ATOM     49  C   UNL A   1      43.642  25.970  25.532  1.00  0.00     0.010 A 
ATOM     50  C   UNL A   1      42.579  25.001  27.462  1.00  0.00     0.010 A 
ATOM     51  C   UNL A   1      43.968  24.679  25.074  1.00  0.00     0.020 A 
ATOM     52  C   UNL A   1      42.887  23.714  27.009  1.00  0.00     0.020 A 
ATOM     53  C   UNL A   1      43.603  23.559  25.827  1.00  0.00     0.054 A 
BRANCH  53  54
ATOM     54  S   UNL A   1      44.173  21.905  25.330  1.00  0.00     0.124 S 
ATOM     55  O   UNL A   1      43.167  21.034  25.929  1.00  0.00    -0.237 OA
ATOM     56  O   UNL A   1      44.154  21.986  23.873  1.00  0.00    -0.237 OA
ATOM     57  O   UNL A   1      45.507  21.809  25.922  1.00  0.00    -0.744 OA
ENDBRANCH  53  54
ENDBRANCH  25  48
BRANCH  37  58
ATOM     58  C   UNL A   1      44.702  31.711  29.281  1.00  0.00    -0.014 A 
ATOM     59  C   UNL A   1      46.054  32.105  29.232  1.00  0.00     0.010 A 
ATOM     60  C   UNL A   1      43.839  32.131  28.255  1.00  0.00     0.010 A 
ATOM     61  C   UNL A   1      46.516  32.936  28.199  1.00  0.00     0.020 A 
ATOM     62  C   UNL A   1      44.295  32.941  27.217  1.00  0.00     0.020 A 
ATOM     63  C   UNL A   1      45.626  33.354  27.202  1.00  0.00     0.054 A 
BRANCH  63  64
ATOM     64  S   UNL A   1      46.213  34.436  25.870  1.00  0.00     0.124 S 
ATOM     65  O   UNL A   1      45.292  34.124  24.781  1.00  0.00    -0.237 OA
ATOM     66  O   UNL A   1      46.078  35.767  26.454  1.00  0.00    -0.237 OA
ATOM     67  O   UNL A   1      47.594  34.002  25.654  1.00  0.00    -0.744 OA
ENDBRANCH  63  64
ENDBRANCH  37  58
ENDBRANCH  11  12
ENDBRANCH   4   6
ENDBRANCH   3   4
ENDBRANCH   2   3
ENDBRANCH   1   2
BRANCH   1  68
ATOM     68  O   UNL A   1      32.053  26.366  26.502  1.00  0.00    -0.462 OA
BRANCH  68  69
ATOM     69  C   UNL A   1      33.099  25.865  25.819  1.00  0.00     0.310 C 
ATOM     70  O   UNL A   1      33.881  26.545  25.162  1.00  0.00    -0.252 OA
BRANCH  69  71
ATOM     71  C   UNL A   1      33.216  24.365  25.879  1.00  0.00     0.119 C 
ATOM     72  C   UNL A   1      33.411  23.513  24.602  1.00  0.00     0.100 C 
ATOM     73  C   UNL A   1      32.263  23.653  26.884  1.00  0.00     0.026 C 
ATOM     74  C   UNL A   1      32.969  22.062  24.927  1.00  0.00     0.025 C 
ATOM     75  C   UNL A   1      31.161  22.886  26.194  1.00  0.00    -0.027 C 
ATOM     76  C   UNL A   1      33.061  22.494  27.501  1.00  0.00     0.009 C 
ATOM     77  C   UNL A   1      31.495  22.102  25.160  1.00  0.00    -0.027 C 
ATOM     78  C   UNL A   1      33.574  21.598  26.324  1.00  0.00     0.009 C 
BRANCH  72  79
ATOM     79  C   UNL A   1      33.168  24.068  23.157  1.00  0.00     0.228 C 
ATOM     80  O   UNL A   1      34.107  23.941  22.350  1.00  0.00    -0.274 OA
ATOM     81  N   UNL A   1      31.976  24.450  22.596  1.00  0.00    -0.326 N 
ATOM     82  H   UNL A   1      31.706  23.876  21.844  1.00  0.00     0.169 HD
BRANCH  81  83
ATOM     83  C   UNL A   1      31.044  25.488  22.858  1.00  0.00     0.041 A 
ATOM     84  C   UNL A   1      31.354  26.773  22.414  1.00  0.00     0.026 A 
ATOM     85  C   UNL A   1      29.980  25.386  23.755  1.00  0.00     0.026 A 
ATOM     86  C   UNL A   1      30.456  27.844  22.592  1.00  0.00     0.008 A 
ATOM     87  C   UNL A   1      29.061  26.454  23.939  1.00  0.00     0.008 A 
ATOM     88  C   UNL A   1      29.235  27.663  23.257  1.00  0.00    -0.026 A 
BRANCH  88  89
ATOM     89  C   UNL A   1      28.080  28.610  22.949  1.00  0.00     0.181 C 
BRANCH  89  90
ATOM     90  N   UNL A   1      28.421  29.950  22.518  1.00  0.00    -0.249 N 
ATOM     91  C   UNL A   1      28.196  30.496  21.294  1.00  0.00     0.220 A 
ATOM     92  N   UNL A   1      28.709  30.910  23.428  1.00  0.00    -0.160 NA
ATOM     93  N   UNL A   1      28.373  31.796  21.355  1.00  0.00    -0.224 NA
ATOM     94  C   UNL A   1      28.613  32.013  22.680  1.00  0.00     0.246 A 
ENDBRANCH  89  90
ENDBRANCH  88  89
ENDBRANCH  81  83
ENDBRANCH  72  79
ENDBRANCH  69  71
ENDBRANCH  68  69
ENDBRANCH   1  68
TORSDOF 18
ENDMDL
MODEL 3
REMARK VINA RESULT:     -12.5      3.326      9.647
REMARK SMILES O=C(OCCOC(=O)[C@@H]1[C@H](C(=O)Nc2ccc(Cn3cncn3)cc2)[C@@H]2C=C[C@H]1CC2)c1ccc(-c2c3nc(c(-c4ccc(S(=O)(=O)[O-])cc4)c4ccc([nH]4)c(-c4ccc(S(=O)(=O)[O-])cc4)c4nc(c(-c5ccc(S(=O)(=O)[O-])cc5)c5ccc2[nH]5)C=C4)C=C3)cc1
REMARK SMILES IDX 5 1 4 2 3 3 2 4 1 5 32 6 33 7 91 8 34 9 90 10 35 11 36 12
REMARK SMILES IDX 37 13 84 14 38 15 89 16 83 17 85 18 39 19 88 20 82 21 81 22
REMARK SMILES IDX 40 24 70 25 51 26 69 27 52 28 55 29 68 30 86 31 53 32 54 33
REMARK SMILES IDX 67 35 87 36 56 37 41 38 42 39 50 40 43 41 49 42 44 43 45 44
REMARK SMILES IDX 46 45 47 46 48 47 71 48 72 49 80 50 73 51 79 52 74 53 75 54
REMARK SMILES IDX 76 55 77 56 78 57 57 58 58 59 66 60 59 61 65 62 60 63 61 64
REMARK SMILES IDX 62 65 63 66 64 67 6 68 7 69 8 70 9 71 10 72 29 73 26 74
REMARK SMILES IDX 28 75 30 76 27 77 31 78 11 79 12 80 13 81 14 83 15 84 25 85
REMARK SMILES IDX 16 86 24 87 17 88 18 89 19 90 20 91 23 92 21 93 22 94
REMARK H PARENT 85 23 55 34 13 82
REMARK Flexibility Score: inf
ROOT
ATOM      1  C   UNL A   1      36.538  22.948  23.677  1.00  0.00     0.274 C 
ENDROOT
BRANCH   1   2
ATOM      2  C   UNL A   1      37.214  21.756  24.367  1.00  0.00     0.275 C 
BRANCH   2   3
ATOM      3  O   UNL A   1      37.587  22.040  25.715  1.00  0.00    -0.458 OA
BRANCH   3   4
ATOM      4  C   UNL A   1      38.880  21.916  26.092  1.00  0.00     0.338 C 
ATOM      5  O   UNL A   1      39.576  20.909  26.041  1.00  0.00    -0.246 OA
BRANCH   4   6
ATOM      6  C   UNL A   1      39.304  23.234  26.609  1.00  0.00     0.060 A 
ATOM      7  C   UNL A   1      40.568  23.320  27.173  1.00  0.00     0.016 A 
ATOM      8  C   UNL A   1      38.534  24.388  26.528  1.00  0.00     0.016 A 
ATOM      9  C   UNL A   1      41.014  24.463  27.803  1.00  0.00     0.010 A 
ATOM     10  C   UNL A   1      39.006  25.573  27.116  1.00  0.00     0.010 A 
ATOM     11  C   UNL A   1      40.220  25.593  27.819  1.00  0.00    -0.014 A 
BRANCH  11  12
ATOM     12  C   UNL A   1      40.782  26.749  28.530  1.00  0.00     0.031 A 
ATOM     13  C   UNL A   1      42.036  27.336  27.943  1.00  0.00     0.074 A 
ATOM     14  C   UNL A   1      40.175  27.261  29.618  1.00  0.00     0.049 A 
ATOM     15  N   UNL A   1      43.229  27.388  28.456  1.00  0.00    -0.248 NA
ATOM     16  C   UNL A   1      41.988  27.739  26.525  1.00  0.00     0.031 C 
ATOM     17  C   UNL A   1      38.880  26.860  30.170  1.00  0.00     0.029 A 
ATOM     18  N   UNL A   1      40.500  28.344  30.375  1.00  0.00    -0.354 N 
ATOM     19  C   UNL A   1      44.013  28.048  27.504  1.00  0.00     0.074 A 
ATOM     20  C   UNL A   1      43.273  27.987  26.274  1.00  0.00     0.031 C 
ATOM     21  C   UNL A   1      38.389  27.874  30.913  1.00  0.00     0.029 A 
ATOM     22  C   UNL A   1      39.393  28.919  30.995  1.00  0.00     0.049 A 
ATOM     23  H   UNL A   1      41.419  28.682  30.475  1.00  0.00     0.167 HD
ATOM     24  C   UNL A   1      45.034  28.891  27.844  1.00  0.00     0.031 A 
ATOM     25  C   UNL A   1      39.265  30.201  31.430  1.00  0.00     0.031 A 
ATOM     26  C   UNL A   1      45.490  28.667  29.189  1.00  0.00     0.049 A 
ATOM     27  C   UNL A   1      40.633  30.756  31.573  1.00  0.00     0.074 A 
ATOM     28  C   UNL A   1      46.017  27.602  29.893  1.00  0.00     0.029 A 
ATOM     29  N   UNL A   1      45.095  29.582  30.133  1.00  0.00    -0.354 N 
ATOM     30  N   UNL A   1      41.487  30.317  32.455  1.00  0.00    -0.248 NA
ATOM     31  C   UNL A   1      41.215  31.441  30.429  1.00  0.00     0.031 C 
ATOM     32  C   UNL A   1      45.459  27.719  31.201  1.00  0.00     0.029 A 
ATOM     33  C   UNL A   1      44.694  28.885  31.238  1.00  0.00     0.049 A 
ATOM     34  H   UNL A   1      45.099  30.562  30.032  1.00  0.00     0.167 HD
ATOM     35  C   UNL A   1      42.695  30.259  31.777  1.00  0.00     0.074 A 
ATOM     36  C   UNL A   1      42.485  31.043  30.559  1.00  0.00     0.031 C 
ATOM     37  C   UNL A   1      43.651  29.346  32.122  1.00  0.00     0.031 A 
BRANCH  24  38
ATOM     38  C   UNL A   1      45.244  30.233  27.146  1.00  0.00    -0.014 A 
ATOM     39  C   UNL A   1      46.552  30.631  26.794  1.00  0.00     0.010 A 
ATOM     40  C   UNL A   1      44.257  31.240  27.105  1.00  0.00     0.010 A 
ATOM     41  C   UNL A   1      46.866  31.976  26.538  1.00  0.00     0.020 A 
ATOM     42  C   UNL A   1      44.546  32.571  26.807  1.00  0.00     0.020 A 
ATOM     43  C   UNL A   1      45.857  32.940  26.564  1.00  0.00     0.054 A 
BRANCH  43  44
ATOM     44  S   UNL A   1      46.266  34.685  26.338  1.00  0.00     0.124 S 
ATOM     45  O   UNL A   1      46.765  35.049  27.660  1.00  0.00    -0.237 OA
ATOM     46  O   UNL A   1      47.263  34.628  25.273  1.00  0.00    -0.237 OA
ATOM     47  O   UNL A   1      44.990  35.287  25.959  1.00  0.00    -0.744 OA
ENDBRANCH  43  44
ENDBRANCH  24  38
BRANCH  25  48
ATOM     48  C   UNL A   1      38.046  31.051  31.333  1.00  0.00    -0.014 A 
ATOM     49  C   UNL A   1      36.785  30.584  31.752  1.00  0.00     0.010 A 
ATOM     50  C   UNL A   1      38.167  32.431  31.063  1.00  0.00     0.010 A 
ATOM     51  C   UNL A   1      35.709  31.472  31.941  1.00  0.00     0.020 A 
ATOM     52  C   UNL A   1      37.100  33.318  31.235  1.00  0.00     0.020 A 
ATOM     53  C   UNL A   1      35.880  32.838  31.698  1.00  0.00     0.054 A 
BRANCH  53  54
ATOM     54  S   UNL A   1      34.548  34.007  32.108  1.00  0.00     0.124 S 
ATOM     55  O   UNL A   1      33.784  33.271  33.110  1.00  0.00    -0.237 OA
ATOM     56  O   UNL A   1      35.283  35.168  32.599  1.00  0.00    -0.237 OA
ATOM     57  O   UNL A   1      33.863  34.208  30.831  1.00  0.00    -0.744 OA
ENDBRANCH  53  54
ENDBRANCH  25  48
BRANCH  37  58
ATOM     58  C   UNL A   1      43.516  28.614  33.431  1.00  0.00    -0.014 A 
ATOM     59  C   UNL A   1      43.777  29.184  34.693  1.00  0.00     0.010 A 
ATOM     60  C   UNL A   1      42.971  27.321  33.374  1.00  0.00     0.010 A 
ATOM     61  C   UNL A   1      43.534  28.453  35.867  1.00  0.00     0.020 A 
ATOM     62  C   UNL A   1      42.710  26.598  34.536  1.00  0.00     0.020 A 
ATOM     63  C   UNL A   1      43.008  27.159  35.777  1.00  0.00     0.054 A 
BRANCH  63  64
ATOM     64  S   UNL A   1      42.702  26.206  37.288  1.00  0.00     0.124 S 
ATOM     65  O   UNL A   1      43.677  26.766  38.219  1.00  0.00    -0.237 OA
ATOM     66  O   UNL A   1      41.303  26.506  37.580  1.00  0.00    -0.237 OA
ATOM     67  O   UNL A   1      42.957  24.823  36.883  1.00  0.00    -0.744 OA
ENDBRANCH  63  64
ENDBRANCH  37  58
ENDBRANCH  11  12
ENDBRANCH   4   6
ENDBRANCH   3   4
ENDBRANCH   2   3
ENDBRANCH   1   2
BRANCH   1  68
ATOM     68  O   UNL A   1      35.293  22.612  23.038  1.00  0.00    -0.462 OA
BRANCH  68  69
ATOM     69  C   UNL A   1      34.327  23.544  23.130  1.00  0.00     0.310 C 
ATOM     70  O   UNL A   1      34.330  24.603  22.509  1.00  0.00    -0.252 OA
BRANCH  69  71
ATOM     71  C   UNL A   1      33.237  23.211  24.114  1.00  0.00     0.119 C 
ATOM     72  C   UNL A   1      32.586  24.296  25.005  1.00  0.00     0.100 C 
ATOM     73  C   UNL A   1      33.422  21.880  24.901  1.00  0.00     0.026 C 
ATOM     74  C   UNL A   1      31.932  23.584  26.219  1.00  0.00     0.025 C 
ATOM     75  C   UNL A   1      33.763  22.107  26.353  1.00  0.00    -0.027 C 
ATOM     76  C   UNL A   1      32.024  21.255  25.041  1.00  0.00     0.009 C 
ATOM     77  C   UNL A   1      33.043  23.010  27.033  1.00  0.00    -0.027 C 
ATOM     78  C   UNL A   1      31.104  22.313  25.735  1.00  0.00     0.009 C 
BRANCH  72  79
ATOM     79  C   UNL A   1      33.208  25.718  25.214  1.00  0.00     0.228 C 
ATOM     80  O   UNL A   1      34.093  25.814  26.084  1.00  0.00    -0.274 OA
ATOM     81  N   UNL A   1      33.084  26.815  24.398  1.00  0.00    -0.326 N 
ATOM     82  H   UNL A   1      33.938  27.087  23.990  1.00  0.00     0.169 HD
BRANCH  81  83
ATOM     83  C   UNL A   1      32.000  27.644  24.009  1.00  0.00     0.041 A 
ATOM     84  C   UNL A   1      31.383  27.382  22.786  1.00  0.00     0.026 A 
ATOM     85  C   UNL A   1      31.678  28.859  24.615  1.00  0.00     0.026 A 
ATOM     86  C   UNL A   1      30.268  28.129  22.356  1.00  0.00     0.008 A 
ATOM     87  C   UNL A   1      30.552  29.619  24.198  1.00  0.00     0.008 A 
ATOM     88  C   UNL A   1      29.764  29.188  23.125  1.00  0.00    -0.026 A 
BRANCH  88  89
ATOM     89  C   UNL A   1      28.301  29.584  22.965  1.00  0.00     0.181 C 
BRANCH  89  90
ATOM     90  N   UNL A   1      28.024  30.831  22.283  1.00  0.00    -0.249 N 
ATOM     91  C   UNL A   1      28.154  32.085  22.789  1.00  0.00     0.220 A 
ATOM     92  N   UNL A   1      27.919  30.865  20.933  1.00  0.00    -0.160 NA
ATOM     93  N   UNL A   1      28.092  32.961  21.812  1.00  0.00    -0.224 NA
ATOM     94  C   UNL A   1      28.021  32.176  20.699  1.00  0.00     0.246 A 
ENDBRANCH  89  90
ENDBRANCH  88  89
ENDBRANCH  81  83
ENDBRANCH  72  79
ENDBRANCH  69  71
ENDBRANCH  68  69
ENDBRANCH   1  68
TORSDOF 18
ENDMDL
