MODEL 1
REMARK VINA RESULT:     -11.9      0.000      0.000
REMARK SMILES CC1=C(CC(=O)OCCOC(=O)c2ccc(-c3c4nc(c(-c5ccc(S(=O)(=O)[O-])cc5)c5ccc([nH]5)c(-c5ccc(S(=O)(=O)[O-])cc5)c5nc(c(-c6ccc(S(=O)(=O)[O-])cc6)c6ccc3[nH]6)C=C5)C=C4)cc2)c2cc(F)ccc2/C1=C\c1cccc(OCc2ccccc2)c1
REMARK SMILES IDX 8 1 7 2 5 3 6 4 4 5 3 6 1 7 2 8 80 9 73 10 79 11 81 12 74 13
REMARK SMILES IDX 78 14 75 15 77 16 76 17 82 18 83 19 95 20 84 21 86 22 85 23
REMARK SMILES IDX 87 24 88 25 89 26 90 27 94 28 91 29 93 30 92 31 9 32 10 33
REMARK SMILES IDX 11 34 12 35 13 36 14 37 72 38 15 39 71 40 16 41 17 42 18 43
REMARK SMILES IDX 65 44 19 45 70 46 64 47 66 48 20 49 69 50 63 51 62 52 21 54
REMARK SMILES IDX 51 55 32 56 50 57 33 58 36 59 49 60 67 61 34 62 35 63 48 65
REMARK SMILES IDX 68 66 37 67 22 68 23 69 31 70 24 71 30 72 25 73 26 74 27 75
REMARK SMILES IDX 28 76 29 77 52 78 53 79 61 80 54 81 60 82 55 83 56 84 57 85
REMARK SMILES IDX 58 86 59 87 38 88 39 89 47 90 40 91 46 92 41 93 42 94 43 95
REMARK SMILES IDX 44 96 45 97
REMARK H PARENT 66 53 36 64
REMARK Flexibility Score: inf
ROOT
ATOM      1  C   UNL A   1      31.821  29.276  25.932  1.00  0.00     0.274 C 
ENDROOT
BRANCH   1   2
ATOM      2  O   UNL A   1      32.036  28.728  24.616  1.00  0.00    -0.462 OA
BRANCH   2   3
ATOM      3  C   UNL A   1      30.958  28.738  23.787  1.00  0.00     0.310 C 
ATOM      4  O   UNL A   1      30.658  29.674  23.052  1.00  0.00    -0.252 OA
BRANCH   3   5
ATOM      5  C   UNL A   1      30.117  27.469  23.832  1.00  0.00     0.159 C 
BRANCH   5   6
ATOM      6  C   UNL A   1      30.853  26.178  23.973  1.00  0.00    -0.025 C 
ATOM      7  C   UNL A   1      30.195  25.551  26.344  1.00  0.00     0.045 C 
ATOM      8  C   UNL A   1      30.908  25.357  25.046  1.00  0.00    -0.039 C 
ATOM      9  C   UNL A   1      31.737  24.185  24.723  1.00  0.00    -0.014 C 
ATOM     10  C   UNL A   1      31.616  25.547  22.882  1.00  0.00    -0.011 A 
ATOM     11  C   UNL A   1      32.183  24.341  23.327  1.00  0.00    -0.010 A 
ATOM     12  C   UNL A   1      31.974  23.167  25.568  1.00  0.00     0.017 C 
ATOM     13  C   UNL A   1      31.795  25.960  21.572  1.00  0.00     0.048 A 
ATOM     14  C   UNL A   1      32.974  23.573  22.478  1.00  0.00     0.012 A 
ATOM     15  C   UNL A   1      32.591  25.192  20.729  1.00  0.00     0.123 A 
ATOM     16  C   UNL A   1      33.186  24.013  21.170  1.00  0.00     0.040 A 
ATOM     17  F   UNL A   1      32.778  25.587  19.463  1.00  0.00    -0.207 F 
BRANCH  12  18
ATOM     18  C   UNL A   1      32.673  21.927  25.237  1.00  0.00    -0.021 A 
ATOM     19  C   UNL A   1      31.973  20.759  24.928  1.00  0.00     0.008 A 
ATOM     20  C   UNL A   1      34.074  21.918  25.267  1.00  0.00     0.054 A 
ATOM     21  C   UNL A   1      32.676  19.584  24.668  1.00  0.00     0.004 A 
ATOM     22  C   UNL A   1      34.784  20.758  24.967  1.00  0.00     0.120 A 
ATOM     23  C   UNL A   1      34.074  19.587  24.686  1.00  0.00     0.046 A 
BRANCH  22  24
ATOM     24  O   UNL A   1      36.146  20.637  24.916  1.00  0.00    -0.489 OA
BRANCH  24  25
ATOM     25  C   UNL A   1      36.907  21.702  24.332  1.00  0.00     0.265 C 
BRANCH  25  26
ATOM     26  C   UNL A   1      37.800  22.401  25.334  1.00  0.00    -0.011 A 
ATOM     27  C   UNL A   1      37.535  23.724  25.718  1.00  0.00     0.007 A 
ATOM     28  C   UNL A   1      38.895  21.737  25.906  1.00  0.00     0.007 A 
ATOM     29  C   UNL A   1      38.333  24.357  26.673  1.00  0.00     0.000 A 
ATOM     30  C   UNL A   1      39.683  22.367  26.870  1.00  0.00     0.000 A 
ATOM     31  C   UNL A   1      39.400  23.676  27.255  1.00  0.00     0.000 A 
ENDBRANCH  25  26
ENDBRANCH  24  25
ENDBRANCH  22  24
ENDBRANCH  12  18
ENDBRANCH   5   6
ENDBRANCH   3   5
ENDBRANCH   2   3
ENDBRANCH   1   2
BRANCH   1  32
ATOM     32  C   UNL A   1      32.672  30.525  26.144  1.00  0.00     0.275 C 
BRANCH  32  33
ATOM     33  O   UNL A   1      33.697  30.249  27.112  1.00  0.00    -0.458 OA
BRANCH  33  34
ATOM     34  C   UNL A   1      34.238  31.334  27.714  1.00  0.00     0.338 C 
ATOM     35  O   UNL A   1      33.792  32.467  27.741  1.00  0.00    -0.246 OA
BRANCH  34  36
ATOM     36  C   UNL A   1      35.512  30.948  28.343  1.00  0.00     0.060 A 
ATOM     37  C   UNL A   1      35.625  29.686  28.921  1.00  0.00     0.016 A 
ATOM     38  C   UNL A   1      36.619  31.798  28.283  1.00  0.00     0.016 A 
ATOM     39  C   UNL A   1      36.842  29.300  29.484  1.00  0.00     0.010 A 
ATOM     40  C   UNL A   1      37.858  31.369  28.750  1.00  0.00     0.010 A 
ATOM     41  C   UNL A   1      37.971  30.133  29.399  1.00  0.00    -0.014 A 
BRANCH  41  42
ATOM     42  C   UNL A   1      39.251  29.735  30.037  1.00  0.00     0.031 A 
ATOM     43  C   UNL A   1      39.686  30.387  31.324  1.00  0.00     0.074 A 
ATOM     44  C   UNL A   1      40.009  28.771  29.478  1.00  0.00     0.049 A 
ATOM     45  N   UNL A   1      40.709  30.096  32.085  1.00  0.00    -0.248 NA
ATOM     46  C   UNL A   1      38.880  31.517  31.817  1.00  0.00     0.031 C 
ATOM     47  C   UNL A   1      39.719  28.100  28.209  1.00  0.00     0.029 A 
ATOM     48  N   UNL A   1      41.164  28.169  29.915  1.00  0.00    -0.354 N 
ATOM     49  C   UNL A   1      40.662  30.996  33.143  1.00  0.00     0.074 A 
ATOM     50  C   UNL A   1      39.557  31.890  32.894  1.00  0.00     0.031 C 
ATOM     51  C   UNL A   1      40.633  27.139  28.003  1.00  0.00     0.029 A 
ATOM     52  C   UNL A   1      41.590  27.141  29.107  1.00  0.00     0.049 A 
ATOM     53  H   UNL A   1      41.641  28.446  30.731  1.00  0.00     0.167 HD
ATOM     54  C   UNL A   1      41.442  31.048  34.246  1.00  0.00     0.031 A 
ATOM     55  C   UNL A   1      42.618  26.279  29.247  1.00  0.00     0.031 A 
ATOM     56  C   UNL A   1      42.528  30.142  34.502  1.00  0.00     0.049 A 
ATOM     57  C   UNL A   1      43.478  26.355  30.479  1.00  0.00     0.074 A 
ATOM     58  C   UNL A   1      43.350  30.087  35.613  1.00  0.00     0.029 A 
ATOM     59  N   UNL A   1      42.937  29.132  33.644  1.00  0.00    -0.354 N 
ATOM     60  N   UNL A   1      43.373  27.169  31.502  1.00  0.00    -0.248 NA
ATOM     61  C   UNL A   1      44.581  25.391  30.588  1.00  0.00     0.031 C 
ATOM     62  C   UNL A   1      44.291  29.076  35.405  1.00  0.00     0.029 A 
ATOM     63  C   UNL A   1      44.015  28.461  34.193  1.00  0.00     0.049 A 
ATOM     64  H   UNL A   1      42.523  28.925  32.776  1.00  0.00     0.167 HD
ATOM     65  C   UNL A   1      44.382  26.802  32.386  1.00  0.00     0.074 A 
ATOM     66  C   UNL A   1      45.082  25.687  31.783  1.00  0.00     0.031 C 
ATOM     67  C   UNL A   1      44.696  27.344  33.587  1.00  0.00     0.031 A 
BRANCH  54  68
ATOM     68  C   UNL A   1      41.132  32.091  35.287  1.00  0.00    -0.014 A 
ATOM     69  C   UNL A   1      40.161  31.838  36.272  1.00  0.00     0.010 A 
ATOM     70  C   UNL A   1      41.732  33.362  35.226  1.00  0.00     0.010 A 
ATOM     71  C   UNL A   1      39.777  32.845  37.162  1.00  0.00     0.020 A 
ATOM     72  C   UNL A   1      41.370  34.362  36.132  1.00  0.00     0.020 A 
ATOM     73  C   UNL A   1      40.379  34.103  37.080  1.00  0.00     0.054 A 
BRANCH  73  74
ATOM     74  S   UNL A   1      39.859  35.404  38.233  1.00  0.00     0.124 S 
ATOM     75  O   UNL A   1      38.639  34.840  38.804  1.00  0.00    -0.237 OA
ATOM     76  O   UNL A   1      40.997  35.500  39.143  1.00  0.00    -0.237 OA
ATOM     77  O   UNL A   1      39.665  36.567  37.368  1.00  0.00    -0.744 OA
ENDBRANCH  73  74
ENDBRANCH  54  68
BRANCH  55  78
ATOM     78  C   UNL A   1      42.826  25.225  28.215  1.00  0.00    -0.014 A 
ATOM     79  C   UNL A   1      42.670  23.866  28.540  1.00  0.00     0.010 A 
ATOM     80  C   UNL A   1      43.268  25.572  26.926  1.00  0.00     0.010 A 
ATOM     81  C   UNL A   1      43.000  22.871  27.615  1.00  0.00     0.020 A 
ATOM     82  C   UNL A   1      43.574  24.581  25.988  1.00  0.00     0.020 A 
ATOM     83  C   UNL A   1      43.466  23.236  26.349  1.00  0.00     0.054 A 
BRANCH  83  84
ATOM     84  S   UNL A   1      43.939  21.931  25.181  1.00  0.00     0.124 S 
ATOM     85  O   UNL A   1      45.296  21.615  25.618  1.00  0.00    -0.237 OA
ATOM     86  O   UNL A   1      42.939  20.896  25.434  1.00  0.00    -0.237 OA
ATOM     87  O   UNL A   1      43.837  22.584  23.879  1.00  0.00    -0.744 OA
ENDBRANCH  83  84
ENDBRANCH  55  78
BRANCH  67  88
ATOM     88  C   UNL A   1      45.842  26.757  34.366  1.00  0.00    -0.014 A 
ATOM     89  C   UNL A   1      47.157  27.177  34.085  1.00  0.00     0.010 A 
ATOM     90  C   UNL A   1      45.638  25.667  35.228  1.00  0.00     0.010 A 
ATOM     91  C   UNL A   1      48.249  26.483  34.612  1.00  0.00     0.020 A 
ATOM     92  C   UNL A   1      46.728  24.987  35.778  1.00  0.00     0.020 A 
ATOM     93  C   UNL A   1      48.027  25.380  35.439  1.00  0.00     0.054 A 
BRANCH  93  94
ATOM     94  S   UNL A   1      49.454  24.445  36.052  1.00  0.00     0.124 S 
ATOM     95  O   UNL A   1      49.326  23.181  35.334  1.00  0.00    -0.237 OA
ATOM     96  O   UNL A   1      50.584  25.283  35.655  1.00  0.00    -0.237 OA
ATOM     97  O   UNL A   1      49.222  24.371  37.493  1.00  0.00    -0.744 OA
ENDBRANCH  93  94
ENDBRANCH  67  88
ENDBRANCH  41  42
ENDBRANCH  34  36
ENDBRANCH  33  34
ENDBRANCH  32  33
ENDBRANCH   1  32
TORSDOF 19
ENDMDL
MODEL 2
REMARK VINA RESULT:     -11.9      4.300     10.127
REMARK SMILES CC1=C(CC(=O)OCCOC(=O)c2ccc(-c3c4nc(c(-c5ccc(S(=O)(=O)[O-])cc5)c5ccc([nH]5)c(-c5ccc(S(=O)(=O)[O-])cc5)c5nc(c(-c6ccc(S(=O)(=O)[O-])cc6)c6ccc3[nH]6)C=C5)C=C4)cc2)c2cc(F)ccc2/C1=C\c1cccc(OCc2ccccc2)c1
REMARK SMILES IDX 8 1 7 2 5 3 6 4 4 5 3 6 1 7 2 8 80 9 73 10 79 11 81 12 74 13
REMARK SMILES IDX 78 14 75 15 77 16 76 17 82 18 83 19 95 20 84 21 86 22 85 23
REMARK SMILES IDX 87 24 88 25 89 26 90 27 94 28 91 29 93 30 92 31 9 32 10 33
REMARK SMILES IDX 11 34 12 35 13 36 14 37 72 38 15 39 71 40 16 41 17 42 18 43
REMARK SMILES IDX 65 44 19 45 70 46 64 47 66 48 20 49 69 50 63 51 62 52 21 54
REMARK SMILES IDX 51 55 32 56 50 57 33 58 36 59 49 60 67 61 34 62 35 63 48 65
REMARK SMILES IDX 68 66 37 67 22 68 23 69 31 70 24 71 30 72 25 73 26 74 27 75
REMARK SMILES IDX 28 76 29 77 52 78 53 79 61 80 54 81 60 82 55 83 56 84 57 85
REMARK SMILES IDX 58 86 59 87 38 88 39 89 47 90 40 91 46 92 41 93 42 94 43 95
REMARK SMILES IDX 44 96 45 97
REMARK H PARENT 66 53 36 64
REMARK Flexibility Score: inf
ROOT
ATOM      1  C   UNL A   1      35.908  21.856  24.438  1.00  0.00     0.274 C 
ENDROOT
BRANCH   1   2
ATOM      2  O   UNL A   1      34.668  21.630  25.138  1.00  0.00    -0.462 OA
BRANCH   2   3
ATOM      3  C   UNL A   1      33.912  20.596  24.683  1.00  0.00     0.310 C 
ATOM      4  O   UNL A   1      34.177  19.411  24.863  1.00  0.00    -0.252 OA
BRANCH   3   5
ATOM      5  C   UNL A   1      32.669  21.016  23.908  1.00  0.00     0.159 C 
BRANCH   5   6
ATOM      6  C   UNL A   1      32.287  22.457  23.980  1.00  0.00    -0.025 C 
ATOM      7  C   UNL A   1      33.483  23.337  21.921  1.00  0.00     0.045 C 
ATOM      8  C   UNL A   1      32.641  23.462  23.147  1.00  0.00    -0.039 C 
ATOM      9  C   UNL A   1      32.009  24.714  23.594  1.00  0.00    -0.014 C 
ATOM     10  C   UNL A   1      31.367  23.011  24.990  1.00  0.00    -0.011 A 
ATOM     11  C   UNL A   1      31.203  24.391  24.786  1.00  0.00    -0.010 A 
ATOM     12  C   UNL A   1      32.141  25.896  22.969  1.00  0.00     0.017 C 
ATOM     13  C   UNL A   1      30.681  22.371  26.010  1.00  0.00     0.048 A 
ATOM     14  C   UNL A   1      30.395  25.143  25.633  1.00  0.00     0.012 A 
ATOM     15  C   UNL A   1      29.880  23.128  26.858  1.00  0.00     0.123 A 
ATOM     16  C   UNL A   1      29.739  24.502  26.685  1.00  0.00     0.040 A 
ATOM     17  F   UNL A   1      29.221  22.520  27.853  1.00  0.00    -0.207 F 
BRANCH  12  18
ATOM     18  C   UNL A   1      31.421  27.124  23.302  1.00  0.00    -0.021 A 
ATOM     19  C   UNL A   1      30.187  27.421  22.721  1.00  0.00     0.008 A 
ATOM     20  C   UNL A   1      32.011  28.025  24.197  1.00  0.00     0.054 A 
ATOM     21  C   UNL A   1      29.556  28.627  23.026  1.00  0.00     0.004 A 
ATOM     22  C   UNL A   1      31.367  29.212  24.538  1.00  0.00     0.120 A 
ATOM     23  C   UNL A   1      30.145  29.514  23.931  1.00  0.00     0.046 A 
BRANCH  22  24
ATOM     24  O   UNL A   1      31.817  30.145  25.433  1.00  0.00    -0.489 OA
BRANCH  24  25
ATOM     25  C   UNL A   1      32.120  29.723  26.769  1.00  0.00     0.265 C 
BRANCH  25  26
ATOM     26  C   UNL A   1      33.549  30.024  27.168  1.00  0.00    -0.011 A 
ATOM     27  C   UNL A   1      34.517  29.010  27.157  1.00  0.00     0.007 A 
ATOM     28  C   UNL A   1      33.931  31.321  27.540  1.00  0.00     0.007 A 
ATOM     29  C   UNL A   1      35.844  29.294  27.485  1.00  0.00     0.000 A 
ATOM     30  C   UNL A   1      35.261  31.606  27.854  1.00  0.00     0.000 A 
ATOM     31  C   UNL A   1      36.217  30.593  27.824  1.00  0.00     0.000 A 
ENDBRANCH  25  26
ENDBRANCH  24  25
ENDBRANCH  22  24
ENDBRANCH  12  18
ENDBRANCH   5   6
ENDBRANCH   3   5
ENDBRANCH   2   3
ENDBRANCH   1   2
BRANCH   1  32
ATOM     32  C   UNL A   1      37.088  21.305  25.234  1.00  0.00     0.275 C 
BRANCH  32  33
ATOM     33  O   UNL A   1      38.005  22.370  25.532  1.00  0.00    -0.458 OA
BRANCH  33  34
ATOM     34  C   UNL A   1      39.121  22.006  26.205  1.00  0.00     0.338 C 
ATOM     35  O   UNL A   1      39.537  20.878  26.398  1.00  0.00    -0.246 OA
BRANCH  34  36
ATOM     36  C   UNL A   1      39.787  23.215  26.717  1.00  0.00     0.060 A 
ATOM     37  C   UNL A   1      39.443  24.454  26.182  1.00  0.00     0.016 A 
ATOM     38  C   UNL A   1      40.685  23.132  27.785  1.00  0.00     0.016 A 
ATOM     39  C   UNL A   1      40.044  25.607  26.691  1.00  0.00     0.010 A 
ATOM     40  C   UNL A   1      41.199  24.291  28.359  1.00  0.00     0.010 A 
ATOM     41  C   UNL A   1      40.920  25.539  27.788  1.00  0.00    -0.014 A 
BRANCH  41  42
ATOM     42  C   UNL A   1      41.588  26.764  28.296  1.00  0.00     0.031 A 
ATOM     43  C   UNL A   1      43.052  26.991  28.026  1.00  0.00     0.074 A 
ATOM     44  C   UNL A   1      40.875  27.684  28.976  1.00  0.00     0.049 A 
ATOM     45  N   UNL A   1      43.781  28.045  28.291  1.00  0.00    -0.248 NA
ATOM     46  C   UNL A   1      43.802  25.894  27.389  1.00  0.00     0.031 C 
ATOM     47  C   UNL A   1      39.463  27.554  29.342  1.00  0.00     0.029 A 
ATOM     48  N   UNL A   1      41.231  28.919  29.458  1.00  0.00    -0.354 N 
ATOM     49  C   UNL A   1      45.062  27.741  27.846  1.00  0.00     0.074 A 
ATOM     50  C   UNL A   1      45.034  26.382  27.362  1.00  0.00     0.031 C 
ATOM     51  C   UNL A   1      39.058  28.689  29.933  1.00  0.00     0.029 A 
ATOM     52  C   UNL A   1      40.184  29.616  30.015  1.00  0.00     0.049 A 
ATOM     53  H   UNL A   1      42.148  29.273  29.409  1.00  0.00     0.167 HD
ATOM     54  C   UNL A   1      46.155  28.536  27.805  1.00  0.00     0.031 A 
ATOM     55  C   UNL A   1      40.126  30.869  30.513  1.00  0.00     0.031 A 
ATOM     56  C   UNL A   1      46.173  29.896  28.268  1.00  0.00     0.049 A 
ATOM     57  C   UNL A   1      41.354  31.737  30.462  1.00  0.00     0.074 A 
ATOM     58  C   UNL A   1      47.221  30.798  28.228  1.00  0.00     0.029 A 
ATOM     59  N   UNL A   1      45.096  30.552  28.845  1.00  0.00    -0.354 N 
ATOM     60  N   UNL A   1      42.538  31.455  29.973  1.00  0.00    -0.248 NA
ATOM     61  C   UNL A   1      41.238  33.095  31.011  1.00  0.00     0.031 C 
ATOM     62  C   UNL A   1      46.794  31.984  28.829  1.00  0.00     0.029 A 
ATOM     63  C   UNL A   1      45.461  31.841  29.185  1.00  0.00     0.049 A 
ATOM     64  H   UNL A   1      44.206  30.158  28.991  1.00  0.00     0.167 HD
ATOM     65  C   UNL A   1      43.301  32.605  30.135  1.00  0.00     0.074 A 
ATOM     66  C   UNL A   1      42.445  33.592  30.760  1.00  0.00     0.031 C 
ATOM     67  C   UNL A   1      44.595  32.819  29.796  1.00  0.00     0.031 A 
BRANCH  54  68
ATOM     68  C   UNL A   1      47.417  27.978  27.203  1.00  0.00    -0.014 A 
ATOM     69  C   UNL A   1      48.428  27.464  28.034  1.00  0.00     0.010 A 
ATOM     70  C   UNL A   1      47.644  28.057  25.817  1.00  0.00     0.010 A 
ATOM     71  C   UNL A   1      49.652  27.062  27.494  1.00  0.00     0.020 A 
ATOM     72  C   UNL A   1      48.856  27.630  25.270  1.00  0.00     0.020 A 
ATOM     73  C   UNL A   1      49.861  27.156  26.115  1.00  0.00     0.054 A 
BRANCH  73  74
ATOM     74  S   UNL A   1      51.462  26.644  25.431  1.00  0.00     0.124 S 
ATOM     75  O   UNL A   1      52.377  27.610  26.031  1.00  0.00    -0.237 OA
ATOM     76  O   UNL A   1      51.590  25.270  25.909  1.00  0.00    -0.237 OA
ATOM     77  O   UNL A   1      51.272  26.775  23.987  1.00  0.00    -0.744 OA
ENDBRANCH  73  74
ENDBRANCH  54  68
BRANCH  55  78
ATOM     78  C   UNL A   1      38.827  31.384  31.028  1.00  0.00    -0.014 A 
ATOM     79  C   UNL A   1      38.071  32.299  30.274  1.00  0.00     0.010 A 
ATOM     80  C   UNL A   1      38.385  31.031  32.316  1.00  0.00     0.010 A 
ATOM     81  C   UNL A   1      36.925  32.890  30.813  1.00  0.00     0.020 A 
ATOM     82  C   UNL A   1      37.224  31.601  32.850  1.00  0.00     0.020 A 
ATOM     83  C   UNL A   1      36.518  32.548  32.106  1.00  0.00     0.054 A 
BRANCH  83  84
ATOM     84  S   UNL A   1      35.059  33.366  32.808  1.00  0.00     0.124 S 
ATOM     85  O   UNL A   1      33.969  32.647  32.154  1.00  0.00    -0.237 OA
ATOM     86  O   UNL A   1      35.208  33.114  34.240  1.00  0.00    -0.237 OA
ATOM     87  O   UNL A   1      35.220  34.760  32.405  1.00  0.00    -0.744 OA
ENDBRANCH  83  84
ENDBRANCH  55  78
BRANCH  67  88
ATOM     88  C   UNL A   1      45.200  34.169  30.074  1.00  0.00    -0.014 A 
ATOM     89  C   UNL A   1      45.728  34.442  31.351  1.00  0.00     0.010 A 
ATOM     90  C   UNL A   1      45.075  35.214  29.143  1.00  0.00     0.010 A 
ATOM     91  C   UNL A   1      46.069  35.749  31.710  1.00  0.00     0.020 A 
ATOM     92  C   UNL A   1      45.441  36.517  29.491  1.00  0.00     0.020 A 
ATOM     93  C   UNL A   1      45.905  36.781  30.784  1.00  0.00     0.054 A 
BRANCH  93  94
ATOM     94  S   UNL A   1      46.281  38.480  31.291  1.00  0.00     0.124 S 
ATOM     95  O   UNL A   1      47.533  38.313  32.022  1.00  0.00    -0.237 OA
ATOM     96  O   UNL A   1      46.386  39.182  30.014  1.00  0.00    -0.237 OA
ATOM     97  O   UNL A   1      45.127  38.858  32.105  1.00  0.00    -0.744 OA
ENDBRANCH  93  94
ENDBRANCH  67  88
ENDBRANCH  41  42
ENDBRANCH  34  36
ENDBRANCH  33  34
ENDBRANCH  32  33
ENDBRANCH   1  32
TORSDOF 19
ENDMDL
MODEL 3
REMARK VINA RESULT:     -11.3      3.089      9.796
REMARK SMILES CC1=C(CC(=O)OCCOC(=O)c2ccc(-c3c4nc(c(-c5ccc(S(=O)(=O)[O-])cc5)c5ccc([nH]5)c(-c5ccc(S(=O)(=O)[O-])cc5)c5nc(c(-c6ccc(S(=O)(=O)[O-])cc6)c6ccc3[nH]6)C=C5)C=C4)cc2)c2cc(F)ccc2/C1=C\c1cccc(OCc2ccccc2)c1
REMARK SMILES IDX 8 1 7 2 5 3 6 4 4 5 3 6 1 7 2 8 80 9 73 10 79 11 81 12 74 13
REMARK SMILES IDX 78 14 75 15 77 16 76 17 82 18 83 19 95 20 84 21 86 22 85 23
REMARK SMILES IDX 87 24 88 25 89 26 90 27 94 28 91 29 93 30 92 31 9 32 10 33
REMARK SMILES IDX 11 34 12 35 13 36 14 37 72 38 15 39 71 40 16 41 17 42 18 43
REMARK SMILES IDX 65 44 19 45 70 46 64 47 66 48 20 49 69 50 63 51 62 52 21 54
REMARK SMILES IDX 51 55 32 56 50 57 33 58 36 59 49 60 67 61 34 62 35 63 48 65
REMARK SMILES IDX 68 66 37 67 22 68 23 69 31 70 24 71 30 72 25 73 26 74 27 75
REMARK SMILES IDX 28 76 29 77 52 78 53 79 61 80 54 81 60 82 55 83 56 84 57 85
REMARK SMILES IDX 58 86 59 87 38 88 39 89 47 90 40 91 46 92 41 93 42 94 43 95
REMARK SMILES IDX 44 96 45 97
REMARK H PARENT 66 53 36 64
REMARK Flexibility Score: inf
ROOT
ATOM      1  C   UNL A   1      43.377  23.377  24.900  1.00  0.00     0.274 C 
ENDROOT
BRANCH   1   2
ATOM      2  O   UNL A   1      43.645  22.301  25.821  1.00  0.00    -0.462 OA
BRANCH   2   3
ATOM      3  C   UNL A   1      43.279  22.522  27.111  1.00  0.00     0.310 C 
ATOM      4  O   UNL A   1      43.790  23.366  27.841  1.00  0.00    -0.252 OA
BRANCH   3   5
ATOM      5  C   UNL A   1      42.155  21.624  27.611  1.00  0.00     0.159 C 
BRANCH   5   6
ATOM      6  C   UNL A   1      40.816  21.807  26.979  1.00  0.00    -0.025 C 
ATOM      7  C   UNL A   1      40.502  19.514  25.934  1.00  0.00     0.045 C 
ATOM      8  C   UNL A   1      40.106  20.919  26.246  1.00  0.00    -0.039 C 
ATOM      9  C   UNL A   1      38.827  21.528  25.845  1.00  0.00    -0.014 C 
ATOM     10  C   UNL A   1      40.002  23.027  27.122  1.00  0.00    -0.011 A 
ATOM     11  C   UNL A   1      38.794  22.885  26.418  1.00  0.00    -0.010 A 
ATOM     12  C   UNL A   1      37.880  20.900  25.127  1.00  0.00     0.017 C 
ATOM     13  C   UNL A   1      40.260  24.185  27.838  1.00  0.00     0.048 A 
ATOM     14  C   UNL A   1      37.866  23.922  26.385  1.00  0.00     0.012 A 
ATOM     15  C   UNL A   1      39.332  25.221  27.797  1.00  0.00     0.123 A 
ATOM     16  C   UNL A   1      38.148  25.103  27.074  1.00  0.00     0.040 A 
ATOM     17  F   UNL A   1      39.577  26.348  28.478  1.00  0.00    -0.207 F 
BRANCH  12  18
ATOM     18  C   UNL A   1      36.547  21.421  24.831  1.00  0.00    -0.021 A 
ATOM     19  C   UNL A   1      35.415  20.932  25.484  1.00  0.00     0.008 A 
ATOM     20  C   UNL A   1      36.416  22.407  23.843  1.00  0.00     0.054 A 
ATOM     21  C   UNL A   1      34.156  21.419  25.137  1.00  0.00     0.004 A 
ATOM     22  C   UNL A   1      35.165  22.928  23.521  1.00  0.00     0.120 A 
ATOM     23  C   UNL A   1      34.036  22.413  24.161  1.00  0.00     0.046 A 
BRANCH  22  24
ATOM     24  O   UNL A   1      34.916  23.922  22.614  1.00  0.00    -0.489 OA
BRANCH  24  25
ATOM     25  C   UNL A   1      33.625  24.545  22.617  1.00  0.00     0.265 C 
BRANCH  25  26
ATOM     26  C   UNL A   1      33.659  25.960  23.154  1.00  0.00    -0.011 A 
ATOM     27  C   UNL A   1      33.636  27.054  22.276  1.00  0.00     0.007 A 
ATOM     28  C   UNL A   1      33.698  26.202  24.535  1.00  0.00     0.007 A 
ATOM     29  C   UNL A   1      33.625  28.359  22.770  1.00  0.00     0.000 A 
ATOM     30  C   UNL A   1      33.673  27.507  25.028  1.00  0.00     0.000 A 
ATOM     31  C   UNL A   1      33.635  28.585  24.146  1.00  0.00     0.000 A 
ENDBRANCH  25  26
ENDBRANCH  24  25
ENDBRANCH  22  24
ENDBRANCH  12  18
ENDBRANCH   5   6
ENDBRANCH   3   5
ENDBRANCH   2   3
ENDBRANCH   1   2
BRANCH   1  32
ATOM     32  C   UNL A   1      44.330  24.545  25.138  1.00  0.00     0.275 C 
BRANCH  32  33
ATOM     33  O   UNL A   1      43.585  25.691  25.582  1.00  0.00    -0.458 OA
BRANCH  33  34
ATOM     34  C   UNL A   1      44.325  26.771  25.925  1.00  0.00     0.338 C 
ATOM     35  O   UNL A   1      45.316  27.200  25.363  1.00  0.00    -0.246 OA
BRANCH  34  36
ATOM     36  C   UNL A   1      43.757  27.374  27.142  1.00  0.00     0.060 A 
ATOM     37  C   UNL A   1      43.881  28.747  27.336  1.00  0.00     0.016 A 
ATOM     38  C   UNL A   1      43.027  26.596  28.044  1.00  0.00     0.016 A 
ATOM     39  C   UNL A   1      43.311  29.330  28.470  1.00  0.00     0.010 A 
ATOM     40  C   UNL A   1      42.370  27.197  29.115  1.00  0.00     0.010 A 
ATOM     41  C   UNL A   1      42.545  28.563  29.365  1.00  0.00    -0.014 A 
BRANCH  41  42
ATOM     42  C   UNL A   1      41.977  29.181  30.590  1.00  0.00     0.031 A 
ATOM     43  C   UNL A   1      42.725  29.092  31.894  1.00  0.00     0.074 A 
ATOM     44  C   UNL A   1      40.804  29.843  30.527  1.00  0.00     0.049 A 
ATOM     45  N   UNL A   1      42.447  29.660  33.040  1.00  0.00    -0.248 NA
ATOM     46  C   UNL A   1      43.935  28.251  31.926  1.00  0.00     0.031 C 
ATOM     47  C   UNL A   1      39.963  29.955  29.333  1.00  0.00     0.029 A 
ATOM     48  N   UNL A   1      40.129  30.567  31.479  1.00  0.00    -0.354 N 
ATOM     49  C   UNL A   1      43.445  29.254  33.917  1.00  0.00     0.074 A 
ATOM     50  C   UNL A   1      44.296  28.335  33.199  1.00  0.00     0.031 C 
ATOM     51  C   UNL A   1      38.920  30.755  29.607  1.00  0.00     0.029 A 
ATOM     52  C   UNL A   1      39.000  31.190  30.999  1.00  0.00     0.049 A 
ATOM     53  H   UNL A   1      40.426  30.636  32.414  1.00  0.00     0.167 HD
ATOM     54  C   UNL A   1      43.660  29.643  35.193  1.00  0.00     0.031 A 
ATOM     55  C   UNL A   1      38.139  32.036  31.601  1.00  0.00     0.031 A 
ATOM     56  C   UNL A   1      42.823  30.574  35.898  1.00  0.00     0.049 A 
ATOM     57  C   UNL A   1      38.393  32.453  33.024  1.00  0.00     0.074 A 
ATOM     58  C   UNL A   1      42.984  31.065  37.181  1.00  0.00     0.029 A 
ATOM     59  N   UNL A   1      41.678  31.161  35.381  1.00  0.00    -0.354 N 
ATOM     60  N   UNL A   1      39.382  32.112  33.814  1.00  0.00    -0.248 NA
ATOM     61  C   UNL A   1      37.429  33.381  33.633  1.00  0.00     0.031 C 
ATOM     62  C   UNL A   1      41.907  31.909  37.460  1.00  0.00     0.029 A 
ATOM     63  C   UNL A   1      41.111  31.993  36.327  1.00  0.00     0.049 A 
ATOM     64  H   UNL A   1      41.324  31.007  34.476  1.00  0.00     0.167 HD
ATOM     65  C   UNL A   1      39.173  32.798  35.004  1.00  0.00     0.074 A 
ATOM     66  C   UNL A   1      37.968  33.583  34.831  1.00  0.00     0.031 C 
ATOM     67  C   UNL A   1      39.916  32.778  36.137  1.00  0.00     0.031 A 
BRANCH  54  68
ATOM     68  C   UNL A   1      44.869  29.099  35.908  1.00  0.00    -0.014 A 
ATOM     69  C   UNL A   1      44.813  27.840  36.531  1.00  0.00     0.010 A 
ATOM     70  C   UNL A   1      46.029  29.882  36.048  1.00  0.00     0.010 A 
ATOM     71  C   UNL A   1      45.885  27.384  37.303  1.00  0.00     0.020 A 
ATOM     72  C   UNL A   1      47.114  29.417  36.795  1.00  0.00     0.020 A 
ATOM     73  C   UNL A   1      47.026  28.180  37.436  1.00  0.00     0.054 A 
BRANCH  73  74
ATOM     74  S   UNL A   1      48.404  27.580  38.453  1.00  0.00     0.124 S 
ATOM     75  O   UNL A   1      49.559  27.876  37.612  1.00  0.00    -0.237 OA
ATOM     76  O   UNL A   1      48.282  28.385  39.666  1.00  0.00    -0.237 OA
ATOM     77  O   UNL A   1      48.104  26.159  38.627  1.00  0.00    -0.744 OA
ENDBRANCH  73  74
ENDBRANCH  54  68
BRANCH  55  78
ATOM     78  C   UNL A   1      37.003  32.593  30.815  1.00  0.00    -0.014 A 
ATOM     79  C   UNL A   1      37.215  33.633  29.892  1.00  0.00     0.010 A 
ATOM     80  C   UNL A   1      35.690  32.148  31.053  1.00  0.00     0.010 A 
ATOM     81  C   UNL A   1      36.134  34.251  29.257  1.00  0.00     0.020 A 
ATOM     82  C   UNL A   1      34.607  32.747  30.401  1.00  0.00     0.020 A 
ATOM     83  C   UNL A   1      34.834  33.814  29.529  1.00  0.00     0.054 A 
BRANCH  83  84
ATOM     84  S   UNL A   1      33.441  34.665  28.737  1.00  0.00     0.124 S 
ATOM     85  O   UNL A   1      32.562  34.922  29.874  1.00  0.00    -0.237 OA
ATOM     86  O   UNL A   1      34.076  35.845  28.153  1.00  0.00    -0.237 OA
ATOM     87  O   UNL A   1      32.947  33.687  27.772  1.00  0.00    -0.744 OA
ENDBRANCH  83  84
ENDBRANCH  55  78
BRANCH  67  88
ATOM     88  C   UNL A   1      39.478  33.624  37.303  1.00  0.00    -0.014 A 
ATOM     89  C   UNL A   1      39.986  34.931  37.438  1.00  0.00     0.010 A 
ATOM     90  C   UNL A   1      38.726  33.066  38.349  1.00  0.00     0.010 A 
ATOM     91  C   UNL A   1      39.793  35.645  38.624  1.00  0.00     0.020 A 
ATOM     92  C   UNL A   1      38.509  33.789  39.526  1.00  0.00     0.020 A 
ATOM     93  C   UNL A   1      39.072  35.061  39.668  1.00  0.00     0.054 A 
BRANCH  93  94
ATOM     94  S   UNL A   1      38.897  35.970  41.226  1.00  0.00     0.124 S 
ATOM     95  O   UNL A   1      38.789  37.351  40.766  1.00  0.00    -0.237 OA
ATOM     96  O   UNL A   1      37.678  35.400  41.797  1.00  0.00    -0.237 OA
ATOM     97  O   UNL A   1      40.124  35.647  41.952  1.00  0.00    -0.744 OA
ENDBRANCH  93  94
ENDBRANCH  67  88
ENDBRANCH  41  42
ENDBRANCH  34  36
ENDBRANCH  33  34
ENDBRANCH  32  33
ENDBRANCH   1  32
TORSDOF 19
ENDMDL
