MODEL 1
REMARK VINA RESULT:     -12.0      0.000      0.000
REMARK SMILES O=C(OCCOC(=O)c1ccc(N2C(=O)N=C(O)/C(=C\c3cccs3)C2=O)cc1)c1ccc(-c2c3nc(c(-c4ccc(S(=O)(=O)[O-])cc4)c4ccc([nH]4)c(-c4ccc(S(=O)(=O)[O-])cc4)c4nc(c(-c5ccc(S(=O)(=O)[O-])cc5)c5ccc2[nH]5)C=C4)C=C3)cc1
REMARK SMILES IDX 4 1 3 2 2 3 1 4 30 5 31 6 89 7 32 8 88 9 33 10 34 11 35 12
REMARK SMILES IDX 82 13 36 14 87 15 81 16 83 17 37 18 86 19 80 20 79 21 38 23
REMARK SMILES IDX 68 24 49 25 67 26 50 27 53 28 66 29 84 30 51 31 52 32 65 34
REMARK SMILES IDX 85 35 54 36 39 37 40 38 48 39 41 40 47 41 42 42 43 43 44 44
REMARK SMILES IDX 45 45 46 46 69 47 70 48 78 49 71 50 77 51 72 52 73 53 74 54
REMARK SMILES IDX 75 55 76 56 55 57 56 58 64 59 57 60 63 61 58 62 59 63 60 64
REMARK SMILES IDX 61 65 62 66 5 67 6 68 7 69 8 70 9 71 10 72 29 73 11 74 28 75
REMARK SMILES IDX 12 76 13 77 14 78 26 79 15 80 16 81 19 82 27 83 17 84 20 85
REMARK SMILES IDX 18 86 21 88 22 89 25 90 23 91 24 92
REMARK H PARENT 83 22 53 33 18 87
REMARK Flexibility Score: inf
ROOT
ATOM      1  C   UNL A   1      32.174  30.028  27.021  1.00  0.00     0.275 C 
ENDROOT
BRANCH   1   2
ATOM      2  O   UNL A   1      33.569  29.786  27.261  1.00  0.00    -0.458 OA
BRANCH   2   3
ATOM      3  C   UNL A   1      34.477  30.530  27.936  1.00  0.00     0.338 C 
ATOM      4  O   UNL A   1      34.217  31.713  28.155  1.00  0.00    -0.246 OA
BRANCH   3   5
ATOM      5  C   UNL A   1      35.843  30.039  28.310  1.00  0.00     0.060 A 
ATOM      6  C   UNL A   1      36.236  29.560  29.562  1.00  0.00     0.016 A 
ATOM      7  C   UNL A   1      36.816  30.089  27.295  1.00  0.00     0.016 A 
ATOM      8  C   UNL A   1      37.528  29.071  29.777  1.00  0.00     0.010 A 
ATOM      9  C   UNL A   1      38.108  29.598  27.503  1.00  0.00     0.010 A 
ATOM     10  C   UNL A   1      38.471  29.085  28.750  1.00  0.00    -0.014 A 
BRANCH  10  11
ATOM     11  C   UNL A   1      39.872  28.712  29.035  1.00  0.00     0.031 A 
ATOM     12  C   UNL A   1      40.753  29.723  29.702  1.00  0.00     0.074 A 
ATOM     13  C   UNL A   1      40.327  27.476  28.756  1.00  0.00     0.049 A 
ATOM     14  N   UNL A   1      41.975  29.584  30.142  1.00  0.00    -0.248 NA
ATOM     15  C   UNL A   1      40.170  31.053  29.938  1.00  0.00     0.031 C 
ATOM     16  C   UNL A   1      39.528  26.394  28.186  1.00  0.00     0.029 A 
ATOM     17  N   UNL A   1      41.570  26.920  28.916  1.00  0.00    -0.354 N 
ATOM     18  C   UNL A   1      42.292  30.799  30.739  1.00  0.00     0.074 A 
ATOM     19  C   UNL A   1      41.163  31.679  30.549  1.00  0.00     0.031 C 
ATOM     20  C   UNL A   1      40.308  25.316  28.001  1.00  0.00     0.029 A 
ATOM     21  C   UNL A   1      41.660  25.629  28.453  1.00  0.00     0.049 A 
ATOM     22  H   UNL A   1      42.326  27.400  29.324  1.00  0.00     0.167 HD
ATOM     23  C   UNL A   1      43.416  31.139  31.409  1.00  0.00     0.031 A 
ATOM     24  C   UNL A   1      42.714  24.792  28.409  1.00  0.00     0.031 A 
ATOM     25  C   UNL A   1      44.557  30.274  31.534  1.00  0.00     0.049 A 
ATOM     26  C   UNL A   1      44.009  25.242  29.028  1.00  0.00     0.074 A 
ATOM     27  C   UNL A   1      45.758  30.515  32.170  1.00  0.00     0.029 A 
ATOM     28  N   UNL A   1      44.639  29.004  30.980  1.00  0.00    -0.354 N 
ATOM     29  N   UNL A   1      44.278  26.376  29.634  1.00  0.00    -0.248 NA
ATOM     30  C   UNL A   1      45.131  24.294  28.992  1.00  0.00     0.031 C 
ATOM     31  C   UNL A   1      46.590  29.410  31.951  1.00  0.00     0.029 A 
ATOM     32  C   UNL A   1      45.884  28.458  31.231  1.00  0.00     0.049 A 
ATOM     33  H   UNL A   1      43.916  28.557  30.481  1.00  0.00     0.167 HD
ATOM     34  C   UNL A   1      45.583  26.262  30.094  1.00  0.00     0.074 A 
ATOM     35  C   UNL A   1      46.052  24.950  29.688  1.00  0.00     0.031 C 
ATOM     36  C   UNL A   1      46.322  27.150  30.805  1.00  0.00     0.031 A 
BRANCH  23  37
ATOM     37  C   UNL A   1      43.449  32.518  32.006  1.00  0.00    -0.014 A 
ATOM     38  C   UNL A   1      43.975  33.607  31.283  1.00  0.00     0.010 A 
ATOM     39  C   UNL A   1      43.012  32.721  33.326  1.00  0.00     0.010 A 
ATOM     40  C   UNL A   1      44.123  34.855  31.890  1.00  0.00     0.020 A 
ATOM     41  C   UNL A   1      43.134  33.975  33.930  1.00  0.00     0.020 A 
ATOM     42  C   UNL A   1      43.714  35.027  33.216  1.00  0.00     0.054 A 
BRANCH  42  43
ATOM     43  S   UNL A   1      43.952  36.648  33.997  1.00  0.00     0.124 S 
ATOM     44  O   UNL A   1      42.579  37.134  34.104  1.00  0.00    -0.237 OA
ATOM     45  O   UNL A   1      44.597  36.304  35.262  1.00  0.00    -0.237 OA
ATOM     46  O   UNL A   1      44.797  37.368  33.047  1.00  0.00    -0.744 OA
ENDBRANCH  42  43
ENDBRANCH  23  37
BRANCH  24  47
ATOM     47  C   UNL A   1      42.574  23.449  27.781  1.00  0.00    -0.014 A 
ATOM     48  C   UNL A   1      43.050  23.204  26.482  1.00  0.00     0.010 A 
ATOM     49  C   UNL A   1      41.980  22.394  28.500  1.00  0.00     0.010 A 
ATOM     50  C   UNL A   1      42.926  21.934  25.908  1.00  0.00     0.020 A 
ATOM     51  C   UNL A   1      41.873  21.117  27.938  1.00  0.00     0.020 A 
ATOM     52  C   UNL A   1      42.341  20.897  26.643  1.00  0.00     0.054 A 
BRANCH  52  53
ATOM     53  S   UNL A   1      42.239  19.246  25.895  1.00  0.00     0.124 S 
ATOM     54  O   UNL A   1      42.764  18.396  26.958  1.00  0.00    -0.237 OA
ATOM     55  O   UNL A   1      40.809  19.115  25.625  1.00  0.00    -0.237 OA
ATOM     56  O   UNL A   1      43.084  19.357  24.707  1.00  0.00    -0.744 OA
ENDBRANCH  52  53
ENDBRANCH  24  47
BRANCH  36  57
ATOM     57  C   UNL A   1      47.701  26.720  31.219  1.00  0.00    -0.014 A 
ATOM     58  C   UNL A   1      48.821  26.986  30.413  1.00  0.00     0.010 A 
ATOM     59  C   UNL A   1      47.882  26.100  32.469  1.00  0.00     0.010 A 
ATOM     60  C   UNL A   1      50.098  26.617  30.842  1.00  0.00     0.020 A 
ATOM     61  C   UNL A   1      49.159  25.756  32.913  1.00  0.00     0.020 A 
ATOM     62  C   UNL A   1      50.259  26.005  32.090  1.00  0.00     0.054 A 
BRANCH  62  63
ATOM     63  S   UNL A   1      51.932  25.587  32.648  1.00  0.00     0.124 S 
ATOM     64  O   UNL A   1      52.760  26.345  31.714  1.00  0.00    -0.237 OA
ATOM     65  O   UNL A   1      51.941  26.066  34.027  1.00  0.00    -0.237 OA
ATOM     66  O   UNL A   1      51.994  24.134  32.498  1.00  0.00    -0.744 OA
ENDBRANCH  62  63
ENDBRANCH  36  57
ENDBRANCH  10  11
ENDBRANCH   3   5
ENDBRANCH   2   3
ENDBRANCH   1   2
BRANCH   1  67
ATOM     67  C   UNL A   1      31.787  30.153  25.544  1.00  0.00     0.275 C 
BRANCH  67  68
ATOM     68  O   UNL A   1      31.692  28.897  24.858  1.00  0.00    -0.458 OA
BRANCH  68  69
ATOM     69  C   UNL A   1      32.785  28.563  24.123  1.00  0.00     0.338 C 
ATOM     70  O   UNL A   1      33.477  29.316  23.458  1.00  0.00    -0.246 OA
BRANCH  69  71
ATOM     71  C   UNL A   1      33.118  27.143  24.345  1.00  0.00     0.060 A 
ATOM     72  C   UNL A   1      33.577  26.397  23.259  1.00  0.00     0.018 A 
ATOM     73  C   UNL A   1      32.987  26.543  25.596  1.00  0.00     0.018 A 
ATOM     74  C   UNL A   1      33.978  25.070  23.443  1.00  0.00     0.028 A 
ATOM     75  C   UNL A   1      33.338  25.193  25.759  1.00  0.00     0.028 A 
ATOM     76  C   UNL A   1      33.872  24.447  24.697  1.00  0.00     0.054 A 
BRANCH  76  77
ATOM     77  N   UNL A   1      34.283  23.073  24.865  1.00  0.00    -0.226 N 
ATOM     78  C   UNL A   1      35.593  22.815  25.308  1.00  0.00     0.358 C 
ATOM     79  C   UNL A   1      33.371  22.064  24.567  1.00  0.00     0.272 C 
ATOM     80  O   UNL A   1      36.339  23.712  25.698  1.00  0.00    -0.245 OA
ATOM     81  N   UNL A   1      36.067  21.536  25.312  1.00  0.00    -0.156 NA
ATOM     82  C   UNL A   1      33.888  20.662  24.671  1.00  0.00     0.104 C 
ATOM     83  O   UNL A   1      32.227  22.262  24.153  1.00  0.00    -0.268 OA
ATOM     84  C   UNL A   1      35.306  20.550  25.024  1.00  0.00     0.228 C 
ATOM     85  C   UNL A   1      32.982  19.705  24.373  1.00  0.00     0.038 C 
BRANCH  84  86
ATOM     86  O   UNL A   1      35.908  19.354  25.020  1.00  0.00    -0.493 OA
ATOM     87  H   UNL A   1      36.289  19.017  25.807  1.00  0.00     0.295 HD
ENDBRANCH  84  86
BRANCH  85  88
ATOM     88  C   UNL A   1      33.223  18.310  24.347  1.00  0.00     0.028 A 
ATOM     89  C   UNL A   1      33.832  17.540  23.374  1.00  0.00     0.020 A 
ATOM     90  S   UNL A   1      32.742  17.342  25.684  1.00  0.00    -0.144 S 
ATOM     91  C   UNL A   1      33.870  16.156  23.713  1.00  0.00     0.012 A 
ATOM     92  C   UNL A   1      33.315  15.912  24.948  1.00  0.00     0.065 A 
ENDBRANCH  85  88
ENDBRANCH  76  77
ENDBRANCH  69  71
ENDBRANCH  68  69
ENDBRANCH  67  68
ENDBRANCH   1  67
TORSDOF 17
ENDMDL
MODEL 2
REMARK VINA RESULT:     -11.4      4.853     10.958
REMARK SMILES O=C(OCCOC(=O)c1ccc(N2C(=O)N=C(O)/C(=C\c3cccs3)C2=O)cc1)c1ccc(-c2c3nc(c(-c4ccc(S(=O)(=O)[O-])cc4)c4ccc([nH]4)c(-c4ccc(S(=O)(=O)[O-])cc4)c4nc(c(-c5ccc(S(=O)(=O)[O-])cc5)c5ccc2[nH]5)C=C4)C=C3)cc1
REMARK SMILES IDX 4 1 3 2 2 3 1 4 30 5 31 6 89 7 32 8 88 9 33 10 34 11 35 12
REMARK SMILES IDX 82 13 36 14 87 15 81 16 83 17 37 18 86 19 80 20 79 21 38 23
REMARK SMILES IDX 68 24 49 25 67 26 50 27 53 28 66 29 84 30 51 31 52 32 65 34
REMARK SMILES IDX 85 35 54 36 39 37 40 38 48 39 41 40 47 41 42 42 43 43 44 44
REMARK SMILES IDX 45 45 46 46 69 47 70 48 78 49 71 50 77 51 72 52 73 53 74 54
REMARK SMILES IDX 75 55 76 56 55 57 56 58 64 59 57 60 63 61 58 62 59 63 60 64
REMARK SMILES IDX 61 65 62 66 5 67 6 68 7 69 8 70 9 71 10 72 29 73 11 74 28 75
REMARK SMILES IDX 12 76 13 77 14 78 26 79 15 80 16 81 19 82 27 83 17 84 20 85
REMARK SMILES IDX 18 86 21 88 22 89 25 90 23 91 24 92
REMARK H PARENT 83 22 53 33 18 87
REMARK Flexibility Score: inf
ROOT
ATOM      1  C   UNL A   1      39.595  23.497  26.624  1.00  0.00     0.275 C 
ENDROOT
BRANCH   1   2
ATOM      2  O   UNL A   1      39.298  24.902  26.588  1.00  0.00    -0.458 OA
BRANCH   2   3
ATOM      3  C   UNL A   1      40.124  25.970  26.701  1.00  0.00     0.338 C 
ATOM      4  O   UNL A   1      40.981  26.140  25.835  1.00  0.00    -0.246 OA
BRANCH   3   5
ATOM      5  C   UNL A   1      40.152  26.877  27.893  1.00  0.00     0.060 A 
ATOM      6  C   UNL A   1      40.900  28.050  28.023  1.00  0.00     0.016 A 
ATOM      7  C   UNL A   1      39.356  26.487  28.985  1.00  0.00     0.016 A 
ATOM      8  C   UNL A   1      40.800  28.850  29.164  1.00  0.00     0.010 A 
ATOM      9  C   UNL A   1      39.248  27.285  30.128  1.00  0.00     0.010 A 
ATOM     10  C   UNL A   1      39.973  28.475  30.222  1.00  0.00    -0.014 A 
BRANCH  10  11
ATOM     11  C   UNL A   1      39.997  29.247  31.482  1.00  0.00     0.031 A 
ATOM     12  C   UNL A   1      41.076  28.947  32.478  1.00  0.00     0.074 A 
ATOM     13  C   UNL A   1      39.109  30.234  31.703  1.00  0.00     0.049 A 
ATOM     14  N   UNL A   1      41.357  29.562  33.595  1.00  0.00    -0.248 NA
ATOM     15  C   UNL A   1      41.978  27.830  32.155  1.00  0.00     0.031 C 
ATOM     16  C   UNL A   1      38.075  30.661  30.764  1.00  0.00     0.029 A 
ATOM     17  N   UNL A   1      38.934  31.059  32.784  1.00  0.00    -0.354 N 
ATOM     18  C   UNL A   1      42.491  28.929  34.089  1.00  0.00     0.074 A 
ATOM     19  C   UNL A   1      42.807  27.846  33.187  1.00  0.00     0.031 C 
ATOM     20  C   UNL A   1      37.343  31.639  31.323  1.00  0.00     0.029 A 
ATOM     21  C   UNL A   1      37.867  31.916  32.657  1.00  0.00     0.049 A 
ATOM     22  H   UNL A   1      39.518  31.039  33.577  1.00  0.00     0.167 HD
ATOM     23  C   UNL A   1      43.220  29.243  35.184  1.00  0.00     0.031 A 
ATOM     24  C   UNL A   1      37.375  32.827  33.519  1.00  0.00     0.031 A 
ATOM     25  C   UNL A   1      42.857  30.282  36.106  1.00  0.00     0.049 A 
ATOM     26  C   UNL A   1      38.114  33.061  34.808  1.00  0.00     0.074 A 
ATOM     27  C   UNL A   1      43.503  30.678  37.261  1.00  0.00     0.029 A 
ATOM     28  N   UNL A   1      41.722  31.074  35.985  1.00  0.00    -0.354 N 
ATOM     29  N   UNL A   1      39.215  32.489  35.238  1.00  0.00    -0.248 NA
ATOM     30  C   UNL A   1      37.571  34.084  35.712  1.00  0.00     0.031 C 
ATOM     31  C   UNL A   1      42.728  31.673  37.869  1.00  0.00     0.029 A 
ATOM     32  C   UNL A   1      41.631  31.937  37.061  1.00  0.00     0.049 A 
ATOM     33  H   UNL A   1      41.078  31.027  35.242  1.00  0.00     0.167 HD
ATOM     34  C   UNL A   1      39.525  33.113  36.439  1.00  0.00     0.074 A 
ATOM     35  C   UNL A   1      38.488  34.102  36.671  1.00  0.00     0.031 C 
ATOM     36  C   UNL A   1      40.580  32.905  37.266  1.00  0.00     0.031 A 
BRANCH  23  37
ATOM     37  C   UNL A   1      44.445  28.409  35.435  1.00  0.00    -0.014 A 
ATOM     38  C   UNL A   1      44.376  27.238  36.216  1.00  0.00     0.010 A 
ATOM     39  C   UNL A   1      45.692  28.830  34.943  1.00  0.00     0.010 A 
ATOM     40  C   UNL A   1      45.538  26.542  36.553  1.00  0.00     0.020 A 
ATOM     41  C   UNL A   1      46.855  28.121  35.256  1.00  0.00     0.020 A 
ATOM     42  C   UNL A   1      46.773  26.998  36.082  1.00  0.00     0.054 A 
BRANCH  42  43
ATOM     43  S   UNL A   1      48.274  26.099  36.566  1.00  0.00     0.124 S 
ATOM     44  O   UNL A   1      48.254  24.965  35.646  1.00  0.00    -0.237 OA
ATOM     45  O   UNL A   1      49.328  27.082  36.327  1.00  0.00    -0.237 OA
ATOM     46  O   UNL A   1      48.041  25.769  37.970  1.00  0.00    -0.744 OA
ENDBRANCH  42  43
ENDBRANCH  23  37
BRANCH  24  47
ATOM     47  C   UNL A   1      36.145  33.590  33.174  1.00  0.00    -0.014 A 
ATOM     48  C   UNL A   1      34.869  33.084  33.477  1.00  0.00     0.010 A 
ATOM     49  C   UNL A   1      36.248  34.852  32.557  1.00  0.00     0.010 A 
ATOM     50  C   UNL A   1      33.720  33.818  33.162  1.00  0.00     0.020 A 
ATOM     51  C   UNL A   1      35.103  35.598  32.259  1.00  0.00     0.020 A 
ATOM     52  C   UNL A   1      33.845  35.073  32.558  1.00  0.00     0.054 A 
BRANCH  52  53
ATOM     53  S   UNL A   1      32.341  36.027  32.205  1.00  0.00     0.124 S 
ATOM     54  O   UNL A   1      32.508  37.189  33.071  1.00  0.00    -0.237 OA
ATOM     55  O   UNL A   1      32.462  36.280  30.772  1.00  0.00    -0.237 OA
ATOM     56  O   UNL A   1      31.263  35.115  32.583  1.00  0.00    -0.744 OA
ENDBRANCH  52  53
ENDBRANCH  24  47
BRANCH  36  57
ATOM     57  C   UNL A   1      40.685  33.786  38.480  1.00  0.00    -0.014 A 
ATOM     58  C   UNL A   1      41.349  35.024  38.427  1.00  0.00     0.010 A 
ATOM     59  C   UNL A   1      40.048  33.393  39.671  1.00  0.00     0.010 A 
ATOM     60  C   UNL A   1      41.392  35.845  39.556  1.00  0.00     0.020 A 
ATOM     61  C   UNL A   1      40.066  34.224  40.792  1.00  0.00     0.020 A 
ATOM     62  C   UNL A   1      40.750  35.440  40.731  1.00  0.00     0.054 A 
BRANCH  62  63
ATOM     63  S   UNL A   1      40.773  36.549  42.165  1.00  0.00     0.124 S 
ATOM     64  O   UNL A   1      41.871  37.453  41.830  1.00  0.00    -0.237 OA
ATOM     65  O   UNL A   1      39.439  37.143  42.134  1.00  0.00    -0.237 OA
ATOM     66  O   UNL A   1      41.024  35.653  43.291  1.00  0.00    -0.744 OA
ENDBRANCH  62  63
ENDBRANCH  36  57
ENDBRANCH  10  11
ENDBRANCH   3   5
ENDBRANCH   2   3
ENDBRANCH   1   2
BRANCH   1  67
ATOM     67  C   UNL A   1      38.470  22.588  26.119  1.00  0.00     0.275 C 
BRANCH  67  68
ATOM     68  O   UNL A   1      37.252  23.282  25.818  1.00  0.00    -0.458 OA
BRANCH  68  69
ATOM     69  C   UNL A   1      36.721  23.003  24.598  1.00  0.00     0.338 C 
ATOM     70  O   UNL A   1      37.155  22.214  23.775  1.00  0.00    -0.246 OA
BRANCH  69  71
ATOM     71  C   UNL A   1      35.431  23.703  24.446  1.00  0.00     0.060 A 
ATOM     72  C   UNL A   1      34.944  24.427  25.535  1.00  0.00     0.018 A 
ATOM     73  C   UNL A   1      34.704  23.657  23.258  1.00  0.00     0.018 A 
ATOM     74  C   UNL A   1      33.765  25.169  25.408  1.00  0.00     0.028 A 
ATOM     75  C   UNL A   1      33.492  24.359  23.158  1.00  0.00     0.028 A 
ATOM     76  C   UNL A   1      33.022  25.154  24.216  1.00  0.00     0.054 A 
BRANCH  76  77
ATOM     77  N   UNL A   1      31.803  25.920  24.107  1.00  0.00    -0.226 N 
ATOM     78  C   UNL A   1      30.578  25.259  24.304  1.00  0.00     0.358 C 
ATOM     79  C   UNL A   1      31.893  27.275  23.797  1.00  0.00     0.272 C 
ATOM     80  O   UNL A   1      30.518  24.100  24.711  1.00  0.00    -0.245 OA
ATOM     81  N   UNL A   1      29.408  25.910  24.039  1.00  0.00    -0.156 NA
ATOM     82  C   UNL A   1      30.592  27.990  23.605  1.00  0.00     0.104 C 
ATOM     83  O   UNL A   1      32.953  27.872  23.595  1.00  0.00    -0.268 OA
ATOM     84  C   UNL A   1      29.400  27.147  23.719  1.00  0.00     0.228 C 
ATOM     85  C   UNL A   1      30.711  29.301  23.301  1.00  0.00     0.038 C 
BRANCH  84  86
ATOM     86  O   UNL A   1      28.190  27.650  23.441  1.00  0.00    -0.493 OA
ATOM     87  H   UNL A   1      27.715  27.344  22.694  1.00  0.00     0.295 HD
ENDBRANCH  84  86
BRANCH  85  88
ATOM     88  C   UNL A   1      29.646  30.192  23.025  1.00  0.00     0.028 A 
ATOM     89  C   UNL A   1      28.954  31.029  23.881  1.00  0.00     0.020 A 
ATOM     90  S   UNL A   1      29.065  30.345  21.414  1.00  0.00    -0.144 S 
ATOM     91  C   UNL A   1      27.928  31.765  23.218  1.00  0.00     0.012 A 
ATOM     92  C   UNL A   1      27.885  31.491  21.870  1.00  0.00     0.065 A 
ENDBRANCH  85  88
ENDBRANCH  76  77
ENDBRANCH  69  71
ENDBRANCH  68  69
ENDBRANCH  67  68
ENDBRANCH   1  67
TORSDOF 17
ENDMDL
MODEL 3
REMARK VINA RESULT:     -11.3      3.961      7.411
REMARK SMILES O=C(OCCOC(=O)c1ccc(N2C(=O)N=C(O)/C(=C\c3cccs3)C2=O)cc1)c1ccc(-c2c3nc(c(-c4ccc(S(=O)(=O)[O-])cc4)c4ccc([nH]4)c(-c4ccc(S(=O)(=O)[O-])cc4)c4nc(c(-c5ccc(S(=O)(=O)[O-])cc5)c5ccc2[nH]5)C=C4)C=C3)cc1
REMARK SMILES IDX 4 1 3 2 2 3 1 4 30 5 31 6 89 7 32 8 88 9 33 10 34 11 35 12
REMARK SMILES IDX 82 13 36 14 87 15 81 16 83 17 37 18 86 19 80 20 79 21 38 23
REMARK SMILES IDX 68 24 49 25 67 26 50 27 53 28 66 29 84 30 51 31 52 32 65 34
REMARK SMILES IDX 85 35 54 36 39 37 40 38 48 39 41 40 47 41 42 42 43 43 44 44
REMARK SMILES IDX 45 45 46 46 69 47 70 48 78 49 71 50 77 51 72 52 73 53 74 54
REMARK SMILES IDX 75 55 76 56 55 57 56 58 64 59 57 60 63 61 58 62 59 63 60 64
REMARK SMILES IDX 61 65 62 66 5 67 6 68 7 69 8 70 9 71 10 72 29 73 11 74 28 75
REMARK SMILES IDX 12 76 13 77 14 78 26 79 15 80 16 81 19 82 27 83 17 84 20 85
REMARK SMILES IDX 18 86 21 88 22 89 25 90 23 91 24 92
REMARK H PARENT 83 22 53 33 18 87
REMARK Flexibility Score: inf
ROOT
ATOM      1  C   UNL A   1      34.871  33.078  28.400  1.00  0.00     0.275 C 
ENDROOT
BRANCH   1   2
ATOM      2  O   UNL A   1      34.111  31.921  28.014  1.00  0.00    -0.458 OA
BRANCH   2   3
ATOM      3  C   UNL A   1      34.498  30.629  27.888  1.00  0.00     0.338 C 
ATOM      4  O   UNL A   1      33.661  29.801  27.532  1.00  0.00    -0.246 OA
BRANCH   3   5
ATOM      5  C   UNL A   1      35.849  30.121  28.293  1.00  0.00     0.060 A 
ATOM      6  C   UNL A   1      36.226  29.703  29.571  1.00  0.00     0.016 A 
ATOM      7  C   UNL A   1      36.823  30.083  27.279  1.00  0.00     0.016 A 
ATOM      8  C   UNL A   1      37.503  29.191  29.817  1.00  0.00     0.010 A 
ATOM      9  C   UNL A   1      38.100  29.568  27.517  1.00  0.00     0.010 A 
ATOM     10  C   UNL A   1      38.447  29.117  28.792  1.00  0.00    -0.014 A 
BRANCH  10  11
ATOM     11  C   UNL A   1      39.836  28.720  29.102  1.00  0.00     0.031 A 
ATOM     12  C   UNL A   1      40.717  29.709  29.802  1.00  0.00     0.074 A 
ATOM     13  C   UNL A   1      40.280  27.482  28.816  1.00  0.00     0.049 A 
ATOM     14  N   UNL A   1      41.927  29.547  30.266  1.00  0.00    -0.248 NA
ATOM     15  C   UNL A   1      40.147  31.045  30.044  1.00  0.00     0.031 C 
ATOM     16  C   UNL A   1      39.478  26.420  28.213  1.00  0.00     0.029 A 
ATOM     17  N   UNL A   1      41.511  26.906  28.994  1.00  0.00    -0.354 N 
ATOM     18  C   UNL A   1      42.248  30.748  30.886  1.00  0.00     0.074 A 
ATOM     19  C   UNL A   1      41.136  31.648  30.684  1.00  0.00     0.031 C 
ATOM     20  C   UNL A   1      40.246  25.333  28.030  1.00  0.00     0.029 A 
ATOM     21  C   UNL A   1      41.592  25.620  28.515  1.00  0.00     0.049 A 
ATOM     22  H   UNL A   1      42.265  27.370  29.424  1.00  0.00     0.167 HD
ATOM     23  C   UNL A   1      43.363  31.063  31.585  1.00  0.00     0.031 A 
ATOM     24  C   UNL A   1      42.636  24.769  28.481  1.00  0.00     0.031 A 
ATOM     25  C   UNL A   1      44.488  30.181  31.721  1.00  0.00     0.049 A 
ATOM     26  C   UNL A   1      43.924  25.192  29.134  1.00  0.00     0.074 A 
ATOM     27  C   UNL A   1      45.679  30.396  32.386  1.00  0.00     0.029 A 
ATOM     28  N   UNL A   1      44.564  28.917  31.151  1.00  0.00    -0.354 N 
ATOM     29  N   UNL A   1      44.195  26.314  29.761  1.00  0.00    -0.248 NA
ATOM     30  C   UNL A   1      45.032  24.229  29.108  1.00  0.00     0.031 C 
ATOM     31  C   UNL A   1      46.500  29.282  32.170  1.00  0.00     0.029 A 
ATOM     32  C   UNL A   1      45.796  28.350  31.421  1.00  0.00     0.049 A 
ATOM     33  H   UNL A   1      43.846  28.488  30.631  1.00  0.00     0.167 HD
ATOM     34  C   UNL A   1      45.489  26.175  30.247  1.00  0.00     0.074 A 
ATOM     35  C   UNL A   1      45.947  24.862  29.832  1.00  0.00     0.031 C 
ATOM     36  C   UNL A   1      46.224  27.043  30.986  1.00  0.00     0.031 A 
BRANCH  23  37
ATOM     37  C   UNL A   1      43.402  32.434  32.202  1.00  0.00    -0.014 A 
ATOM     38  C   UNL A   1      43.891  33.539  31.477  1.00  0.00     0.010 A 
ATOM     39  C   UNL A   1      43.009  32.611  33.539  1.00  0.00     0.010 A 
ATOM     40  C   UNL A   1      44.047  34.780  32.099  1.00  0.00     0.020 A 
ATOM     41  C   UNL A   1      43.139  33.858  34.157  1.00  0.00     0.020 A 
ATOM     42  C   UNL A   1      43.683  34.927  33.441  1.00  0.00     0.054 A 
BRANCH  42  43
ATOM     43  S   UNL A   1      43.932  36.538  34.238  1.00  0.00     0.124 S 
ATOM     44  O   UNL A   1      42.686  37.229  33.913  1.00  0.00    -0.237 OA
ATOM     45  O   UNL A   1      44.101  36.179  35.643  1.00  0.00    -0.237 OA
ATOM     46  O   UNL A   1      45.127  37.066  33.584  1.00  0.00    -0.744 OA
ENDBRANCH  42  43
ENDBRANCH  23  37
BRANCH  24  47
ATOM     47  C   UNL A   1      42.490  23.437  27.832  1.00  0.00    -0.014 A 
ATOM     48  C   UNL A   1      42.710  23.275  26.454  1.00  0.00     0.010 A 
ATOM     49  C   UNL A   1      42.152  22.310  28.604  1.00  0.00     0.010 A 
ATOM     50  C   UNL A   1      42.586  22.016  25.857  1.00  0.00     0.020 A 
ATOM     51  C   UNL A   1      42.046  21.045  28.016  1.00  0.00     0.020 A 
ATOM     52  C   UNL A   1      42.258  20.907  26.644  1.00  0.00     0.054 A 
BRANCH  52  53
ATOM     53  S   UNL A   1      42.152  19.276  25.855  1.00  0.00     0.124 S 
ATOM     54  O   UNL A   1      40.734  19.190  25.521  1.00  0.00    -0.237 OA
ATOM     55  O   UNL A   1      43.064  19.419  24.723  1.00  0.00    -0.237 OA
ATOM     56  O   UNL A   1      42.605  18.361  26.901  1.00  0.00    -0.744 OA
ENDBRANCH  52  53
ENDBRANCH  24  47
BRANCH  36  57
ATOM     57  C   UNL A   1      47.589  26.586  31.424  1.00  0.00    -0.014 A 
ATOM     58  C   UNL A   1      47.766  25.848  32.606  1.00  0.00     0.010 A 
ATOM     59  C   UNL A   1      48.697  26.845  30.598  1.00  0.00     0.010 A 
ATOM     60  C   UNL A   1      49.038  25.395  32.966  1.00  0.00     0.020 A 
ATOM     61  C   UNL A   1      49.964  26.371  30.941  1.00  0.00     0.020 A 
ATOM     62  C   UNL A   1      50.128  25.659  32.131  1.00  0.00     0.054 A 
BRANCH  62  63
ATOM     63  S   UNL A   1      51.757  25.013  32.593  1.00  0.00     0.124 S 
ATOM     64  O   UNL A   1      51.529  23.570  32.565  1.00  0.00    -0.237 OA
ATOM     65  O   UNL A   1      52.621  25.533  31.536  1.00  0.00    -0.237 OA
ATOM     66  O   UNL A   1      51.992  25.582  33.919  1.00  0.00    -0.744 OA
ENDBRANCH  62  63
ENDBRANCH  36  57
ENDBRANCH  10  11
ENDBRANCH   3   5
ENDBRANCH   2   3
ENDBRANCH   1   2
BRANCH   1  67
ATOM     67  C   UNL A   1      34.866  33.380  29.902  1.00  0.00     0.275 C 
BRANCH  67  68
ATOM     68  O   UNL A   1      36.137  33.186  30.538  1.00  0.00    -0.458 OA
BRANCH  68  69
ATOM     69  C   UNL A   1      36.228  33.688  31.798  1.00  0.00     0.338 C 
ATOM     70  O   UNL A   1      35.546  34.575  32.283  1.00  0.00    -0.246 OA
BRANCH  69  71
ATOM     71  C   UNL A   1      37.205  32.902  32.575  1.00  0.00     0.060 A 
ATOM     72  C   UNL A   1      36.832  31.628  33.006  1.00  0.00     0.018 A 
ATOM     73  C   UNL A   1      38.472  33.397  32.881  1.00  0.00     0.018 A 
ATOM     74  C   UNL A   1      37.755  30.820  33.677  1.00  0.00     0.028 A 
ATOM     75  C   UNL A   1      39.372  32.601  33.606  1.00  0.00     0.028 A 
ATOM     76  C   UNL A   1      39.043  31.288  33.983  1.00  0.00     0.054 A 
BRANCH  76  77
ATOM     77  N   UNL A   1      39.979  30.442  34.684  1.00  0.00    -0.226 N 
ATOM     78  C   UNL A   1      40.390  30.823  35.974  1.00  0.00     0.358 C 
ATOM     79  C   UNL A   1      40.445  29.294  34.048  1.00  0.00     0.272 C 
ATOM     80  O   UNL A   1      39.869  31.761  36.576  1.00  0.00    -0.245 OA
ATOM     81  N   UNL A   1      41.400  30.144  36.591  1.00  0.00    -0.156 NA
ATOM     82  C   UNL A   1      41.485  28.511  34.789  1.00  0.00     0.104 C 
ATOM     83  O   UNL A   1      40.120  28.951  32.909  1.00  0.00    -0.268 OA
ATOM     84  C   UNL A   1      41.906  29.095  36.065  1.00  0.00     0.228 C 
ATOM     85  C   UNL A   1      41.920  27.405  34.146  1.00  0.00     0.038 C 
BRANCH  84  86
ATOM     86  O   UNL A   1      42.919  28.551  36.752  1.00  0.00    -0.493 OA
ATOM     87  H   UNL A   1      42.841  28.415  37.675  1.00  0.00     0.295 HD
ENDBRANCH  84  86
BRANCH  85  88
ATOM     88  C   UNL A   1      42.927  26.520  34.601  1.00  0.00     0.028 A 
ATOM     89  C   UNL A   1      44.276  26.493  34.300  1.00  0.00     0.020 A 
ATOM     90  S   UNL A   1      42.519  25.270  35.708  1.00  0.00    -0.144 S 
ATOM     91  C   UNL A   1      44.962  25.426  34.952  1.00  0.00     0.012 A 
ATOM     92  C   UNL A   1      44.122  24.686  35.753  1.00  0.00     0.065 A 
ENDBRANCH  85  88
ENDBRANCH  76  77
ENDBRANCH  69  71
ENDBRANCH  68  69
ENDBRANCH  67  68
ENDBRANCH   1  67
TORSDOF 17
ENDMDL
