MODEL 1
REMARK VINA RESULT:     -13.5      0.000      0.000
REMARK SMILES O=C(Cn1nc(C(=O)OCCOC(=O)c2ccc(-c3c4nc(c(-c5ccc(S(=O)(=O)[O-])cc5)c5ccc([nH]5)c(-c5ccc(S(=O)(=O)[O-])cc5)c5nc(c(-c6ccc(S(=O)(=O)[O-])cc6)c6ccc3[nH]6)C=C5)C=C4)cc2)c2ccccc2c1=O)Nc1ccc2c(c1)C(=O)c1ccccc1C2=O
REMARK SMILES IDX 10 1 9 2 7 3 8 4 6 5 4 6 5 7 81 8 80 9 82 10 75 11 79 12
REMARK SMILES IDX 76 13 78 14 77 15 3 16 2 17 1 18 83 19 84 21 85 22 89 23
REMARK SMILES IDX 86 24 88 25 87 26 90 27 98 28 91 29 92 30 97 31 99 32 93 33
REMARK SMILES IDX 96 34 94 35 95 36 11 37 12 38 13 39 14 40 15 41 16 42 74 43
REMARK SMILES IDX 17 44 73 45 18 46 19 47 20 48 67 49 21 50 72 51 66 52 68 53
REMARK SMILES IDX 22 54 71 55 65 56 64 57 23 59 53 60 34 61 52 62 35 63 38 64
REMARK SMILES IDX 51 65 69 66 36 67 37 68 50 70 70 71 39 72 24 73 25 74 33 75
REMARK SMILES IDX 26 76 32 77 27 78 28 79 29 80 30 81 31 82 54 83 55 84 63 85
REMARK SMILES IDX 56 86 62 87 57 88 58 89 59 90 60 91 61 92 40 93 41 94 49 95
REMARK SMILES IDX 42 96 48 97 43 98 44 99 45 100 46 101 47 102
REMARK H PARENT 83 20 68 58 38 69
REMARK Flexibility Score: inf
ROOT
ATOM      1  C   UNL A   1      37.569  23.730  26.251  1.00  0.00     0.275 C 
ENDROOT
BRANCH   1   2
ATOM      2  O   UNL A   1      36.930  23.029  25.151  1.00  0.00    -0.457 OA
BRANCH   2   3
ATOM      3  C   UNL A   1      35.655  23.392  24.917  1.00  0.00     0.359 C 
ATOM      4  O   UNL A   1      35.262  24.484  24.538  1.00  0.00    -0.244 OA
BRANCH   3   5
ATOM      5  C   UNL A   1      34.633  22.293  25.240  1.00  0.00     0.176 A 
ATOM      6  N   UNL A   1      32.422  21.648  25.562  1.00  0.00    -0.219 N 
ATOM      7  N   UNL A   1      33.397  22.648  25.477  1.00  0.00    -0.161 NA
ATOM      8  C   UNL A   1      32.666  20.315  25.204  1.00  0.00     0.275 A 
ATOM      9  C   UNL A   1      34.065  19.931  24.972  1.00  0.00     0.051 A 
ATOM     10  O   UNL A   1      31.789  19.463  25.093  1.00  0.00    -0.267 OA
ATOM     11  C   UNL A   1      35.056  20.889  25.095  1.00  0.00     0.022 A 
ATOM     12  C   UNL A   1      34.402  18.606  24.658  1.00  0.00     0.014 A 
ATOM     13  C   UNL A   1      36.392  20.502  25.010  1.00  0.00     0.011 A 
ATOM     14  C   UNL A   1      35.739  18.239  24.509  1.00  0.00     0.001 A 
ATOM     15  C   UNL A   1      36.738  19.184  24.711  1.00  0.00     0.001 A 
BRANCH   6  16
ATOM     16  C   UNL A   1      31.007  22.034  25.771  1.00  0.00     0.248 C 
BRANCH  16  17
ATOM     17  C   UNL A   1      30.646  23.529  25.764  1.00  0.00     0.246 C 
ATOM     18  O   UNL A   1      30.177  24.095  26.747  1.00  0.00    -0.273 OA
ATOM     19  N   UNL A   1      30.737  24.075  24.512  1.00  0.00    -0.324 N 
ATOM     20  H   UNL A   1      30.949  23.431  23.798  1.00  0.00     0.169 HD
BRANCH  19  21
ATOM     21  C   UNL A   1      30.578  25.390  24.080  1.00  0.00     0.042 A 
ATOM     22  C   UNL A   1      29.355  26.020  23.821  1.00  0.00     0.027 A 
ATOM     23  C   UNL A   1      31.757  26.125  24.060  1.00  0.00     0.039 A 
ATOM     24  C   UNL A   1      29.304  27.419  23.670  1.00  0.00     0.015 A 
ATOM     25  C   UNL A   1      31.697  27.502  23.941  1.00  0.00     0.036 A 
ATOM     26  C   UNL A   1      30.481  28.163  23.803  1.00  0.00     0.034 A 
ATOM     27  C   UNL A   1      32.901  28.261  24.277  1.00  0.00     0.194 C 
ATOM     28  C   UNL A   1      30.456  29.626  24.065  1.00  0.00     0.194 C 
ATOM     29  O   UNL A   1      34.021  27.907  23.935  1.00  0.00    -0.289 OA
ATOM     30  C   UNL A   1      32.664  29.392  25.172  1.00  0.00     0.034 A 
ATOM     31  C   UNL A   1      31.478  30.113  25.032  1.00  0.00     0.034 A 
ATOM     32  O   UNL A   1      29.576  30.350  23.624  1.00  0.00    -0.289 OA
ATOM     33  C   UNL A   1      33.515  29.601  26.254  1.00  0.00     0.013 A 
ATOM     34  C   UNL A   1      31.188  31.134  25.935  1.00  0.00     0.013 A 
ATOM     35  C   UNL A   1      33.185  30.561  27.199  1.00  0.00     0.001 A 
ATOM     36  C   UNL A   1      32.042  31.345  27.025  1.00  0.00     0.001 A 
ENDBRANCH  19  21
ENDBRANCH  16  17
ENDBRANCH   6  16
ENDBRANCH   3   5
ENDBRANCH   2   3
ENDBRANCH   1   2
BRANCH   1  37
ATOM     37  C   UNL A   1      39.089  23.584  26.263  1.00  0.00     0.275 C 
BRANCH  37  38
ATOM     38  O   UNL A   1      39.692  24.841  25.940  1.00  0.00    -0.458 OA
BRANCH  38  39
ATOM     39  C   UNL A   1      40.917  25.100  26.455  1.00  0.00     0.338 C 
ATOM     40  O   UNL A   1      41.989  24.656  26.083  1.00  0.00    -0.246 OA
BRANCH  39  41
ATOM     41  C   UNL A   1      40.746  26.077  27.552  1.00  0.00     0.060 A 
ATOM     42  C   UNL A   1      41.424  27.295  27.539  1.00  0.00     0.016 A 
ATOM     43  C   UNL A   1      39.851  25.797  28.584  1.00  0.00     0.016 A 
ATOM     44  C   UNL A   1      41.246  28.192  28.602  1.00  0.00     0.010 A 
ATOM     45  C   UNL A   1      39.564  26.756  29.548  1.00  0.00     0.010 A 
ATOM     46  C   UNL A   1      40.305  27.939  29.619  1.00  0.00    -0.014 A 
BRANCH  46  47
ATOM     47  C   UNL A   1      40.136  28.835  30.802  1.00  0.00     0.031 A 
ATOM     48  C   UNL A   1      41.110  28.750  31.964  1.00  0.00     0.074 A 
ATOM     49  C   UNL A   1      39.102  29.698  30.874  1.00  0.00     0.049 A 
ATOM     50  N   UNL A   1      41.061  29.348  33.127  1.00  0.00    -0.248 NA
ATOM     51  C   UNL A   1      42.243  27.816  31.835  1.00  0.00     0.031 C 
ATOM     52  C   UNL A   1      38.035  29.834  29.881  1.00  0.00     0.029 A 
ATOM     53  N   UNL A   1      38.796  30.652  31.814  1.00  0.00    -0.354 N 
ATOM     54  C   UNL A   1      42.094  28.797  33.881  1.00  0.00     0.074 A 
ATOM     55  C   UNL A   1      42.703  27.768  33.074  1.00  0.00     0.031 C 
ATOM     56  C   UNL A   1      37.259  30.880  30.206  1.00  0.00     0.029 A 
ATOM     57  C   UNL A   1      37.742  31.460  31.457  1.00  0.00     0.049 A 
ATOM     58  H   UNL A   1      39.285  30.748  32.664  1.00  0.00     0.167 HD
ATOM     59  C   UNL A   1      42.539  29.150  35.110  1.00  0.00     0.031 A 
ATOM     60  C   UNL A   1      37.242  32.565  32.046  1.00  0.00     0.031 A 
ATOM     61  C   UNL A   1      42.039  30.283  35.838  1.00  0.00     0.049 A 
ATOM     62  C   UNL A   1      37.866  33.061  33.320  1.00  0.00     0.074 A 
ATOM     63  C   UNL A   1      42.486  30.795  37.042  1.00  0.00     0.029 A 
ATOM     64  N   UNL A   1      41.028  31.121  35.391  1.00  0.00    -0.354 N 
ATOM     65  N   UNL A   1      38.847  32.531  34.011  1.00  0.00    -0.248 NA
ATOM     66  C   UNL A   1      37.332  34.307  33.890  1.00  0.00     0.031 C 
ATOM     67  C   UNL A   1      41.741  31.943  37.328  1.00  0.00     0.029 A 
ATOM     68  C   UNL A   1      40.857  32.163  36.281  1.00  0.00     0.049 A 
ATOM     69  H   UNL A   1      40.511  30.992  34.564  1.00  0.00     0.167 HD
ATOM     70  C   UNL A   1      39.053  33.379  35.091  1.00  0.00     0.074 A 
ATOM     71  C   UNL A   1      38.113  34.473  34.951  1.00  0.00     0.031 C 
ATOM     72  C   UNL A   1      39.932  33.254  36.113  1.00  0.00     0.031 A 
BRANCH  59  73
ATOM     73  C   UNL A   1      43.672  28.358  35.717  1.00  0.00    -0.014 A 
ATOM     74  C   UNL A   1      43.394  27.290  36.592  1.00  0.00     0.010 A 
ATOM     75  C   UNL A   1      45.012  28.710  35.479  1.00  0.00     0.010 A 
ATOM     76  C   UNL A   1      44.433  26.592  37.215  1.00  0.00     0.020 A 
ATOM     77  C   UNL A   1      46.054  27.990  36.068  1.00  0.00     0.020 A 
ATOM     78  C   UNL A   1      45.758  26.947  36.948  1.00  0.00     0.054 A 
BRANCH  78  79
ATOM     79  S   UNL A   1      47.103  26.017  37.732  1.00  0.00     0.124 S 
ATOM     80  O   UNL A   1      48.193  26.987  37.723  1.00  0.00    -0.237 OA
ATOM     81  O   UNL A   1      46.554  25.695  39.048  1.00  0.00    -0.237 OA
ATOM     82  O   UNL A   1      47.279  24.868  36.846  1.00  0.00    -0.744 OA
ENDBRANCH  78  79
ENDBRANCH  59  73
BRANCH  60  83
ATOM     83  C   UNL A   1      36.165  33.328  31.357  1.00  0.00    -0.014 A 
ATOM     84  C   UNL A   1      36.380  33.906  30.094  1.00  0.00     0.010 A 
ATOM     85  C   UNL A   1      34.947  33.564  32.020  1.00  0.00     0.010 A 
ATOM     86  C   UNL A   1      35.417  34.749  29.529  1.00  0.00     0.020 A 
ATOM     87  C   UNL A   1      33.972  34.387  31.448  1.00  0.00     0.020 A 
ATOM     88  C   UNL A   1      34.227  34.999  30.219  1.00  0.00     0.054 A 
BRANCH  88  89
ATOM     89  S   UNL A   1      33.019  36.146  29.501  1.00  0.00     0.124 S 
ATOM     90  O   UNL A   1      32.284  35.272  28.592  1.00  0.00    -0.237 OA
ATOM     91  O   UNL A   1      32.277  36.606  30.671  1.00  0.00    -0.237 OA
ATOM     92  O   UNL A   1      33.853  37.160  28.859  1.00  0.00    -0.744 OA
ENDBRANCH  88  89
ENDBRANCH  60  83
BRANCH  72  93
ATOM     93  C   UNL A   1      39.951  34.317  37.176  1.00  0.00    -0.014 A 
ATOM     94  C   UNL A   1      39.000  34.282  38.212  1.00  0.00     0.010 A 
ATOM     95  C   UNL A   1      40.795  35.434  37.049  1.00  0.00     0.010 A 
ATOM     96  C   UNL A   1      38.861  35.368  39.079  1.00  0.00     0.020 A 
ATOM     97  C   UNL A   1      40.672  36.512  37.929  1.00  0.00     0.020 A 
ATOM     98  C   UNL A   1      39.686  36.483  38.919  1.00  0.00     0.054 A 
BRANCH  98  99
ATOM     99  S   UNL A   1      39.451  37.913  40.010  1.00  0.00     0.124 S 
ATOM    100  O   UNL A   1      38.201  38.477  39.510  1.00  0.00    -0.237 OA
ATOM    101  O   UNL A   1      39.381  37.300  41.334  1.00  0.00    -0.237 OA
ATOM    102  O   UNL A   1      40.643  38.724  39.771  1.00  0.00    -0.744 OA
ENDBRANCH  98  99
ENDBRANCH  72  93
ENDBRANCH  46  47
ENDBRANCH  39  41
ENDBRANCH  38  39
ENDBRANCH  37  38
ENDBRANCH   1  37
TORSDOF 17
ENDMDL
MODEL 2
REMARK VINA RESULT:     -13.2      7.074     15.576
REMARK SMILES O=C(Cn1nc(C(=O)OCCOC(=O)c2ccc(-c3c4nc(c(-c5ccc(S(=O)(=O)[O-])cc5)c5ccc([nH]5)c(-c5ccc(S(=O)(=O)[O-])cc5)c5nc(c(-c6ccc(S(=O)(=O)[O-])cc6)c6ccc3[nH]6)C=C5)C=C4)cc2)c2ccccc2c1=O)Nc1ccc2c(c1)C(=O)c1ccccc1C2=O
REMARK SMILES IDX 10 1 9 2 7 3 8 4 6 5 4 6 5 7 81 8 80 9 82 10 75 11 79 12
REMARK SMILES IDX 76 13 78 14 77 15 3 16 2 17 1 18 83 19 84 21 85 22 89 23
REMARK SMILES IDX 86 24 88 25 87 26 90 27 98 28 91 29 92 30 97 31 99 32 93 33
REMARK SMILES IDX 96 34 94 35 95 36 11 37 12 38 13 39 14 40 15 41 16 42 74 43
REMARK SMILES IDX 17 44 73 45 18 46 19 47 20 48 67 49 21 50 72 51 66 52 68 53
REMARK SMILES IDX 22 54 71 55 65 56 64 57 23 59 53 60 34 61 52 62 35 63 38 64
REMARK SMILES IDX 51 65 69 66 36 67 37 68 50 70 70 71 39 72 24 73 25 74 33 75
REMARK SMILES IDX 26 76 32 77 27 78 28 79 29 80 30 81 31 82 54 83 55 84 63 85
REMARK SMILES IDX 56 86 62 87 57 88 58 89 59 90 60 91 61 92 40 93 41 94 49 95
REMARK SMILES IDX 42 96 48 97 43 98 44 99 45 100 46 101 47 102
REMARK H PARENT 83 20 68 58 38 69
REMARK Flexibility Score: inf
ROOT
ATOM      1  C   UNL A   1      48.299  24.684  39.700  1.00  0.00     0.275 C 
ENDROOT
BRANCH   1   2
ATOM      2  O   UNL A   1      47.714  23.914  38.617  1.00  0.00    -0.457 OA
BRANCH   2   3
ATOM      3  C   UNL A   1      46.549  23.310  38.920  1.00  0.00     0.359 C 
ATOM      4  O   UNL A   1      45.521  23.850  39.296  1.00  0.00    -0.244 OA
BRANCH   3   5
ATOM      5  C   UNL A   1      46.606  21.779  38.825  1.00  0.00     0.176 A 
ATOM      6  N   UNL A   1      46.367  19.700  39.838  1.00  0.00    -0.219 N 
ATOM      7  N   UNL A   1      46.528  21.086  39.931  1.00  0.00    -0.161 NA
ATOM      8  C   UNL A   1      46.078  19.046  38.632  1.00  0.00     0.275 A 
ATOM      9  C   UNL A   1      46.202  19.835  37.399  1.00  0.00     0.051 A 
ATOM     10  O   UNL A   1      45.752  17.866  38.553  1.00  0.00    -0.267 OA
ATOM     11  C   UNL A   1      46.569  21.167  37.485  1.00  0.00     0.022 A 
ATOM     12  C   UNL A   1      45.979  19.245  36.146  1.00  0.00     0.014 A 
ATOM     13  C   UNL A   1      46.818  21.881  36.315  1.00  0.00     0.011 A 
ATOM     14  C   UNL A   1      46.166  19.986  34.979  1.00  0.00     0.001 A 
ATOM     15  C   UNL A   1      46.612  21.300  35.062  1.00  0.00     0.001 A 
BRANCH   6  16
ATOM     16  C   UNL A   1      46.218  18.905  41.080  1.00  0.00     0.248 C 
BRANCH  16  17
ATOM     17  C   UNL A   1      44.828  18.349  41.432  1.00  0.00     0.246 C 
ATOM     18  O   UNL A   1      43.984  19.019  42.022  1.00  0.00    -0.273 OA
ATOM     19  N   UNL A   1      44.730  17.008  41.180  1.00  0.00    -0.324 N 
ATOM     20  H   UNL A   1      45.568  16.585  40.880  1.00  0.00     0.169 HD
BRANCH  19  21
ATOM     21  C   UNL A   1      43.643  16.141  41.278  1.00  0.00     0.042 A 
ATOM     22  C   UNL A   1      42.958  15.571  40.199  1.00  0.00     0.027 A 
ATOM     23  C   UNL A   1      43.357  15.738  42.576  1.00  0.00     0.039 A 
ATOM     24  C   UNL A   1      42.073  14.497  40.418  1.00  0.00     0.015 A 
ATOM     25  C   UNL A   1      42.510  14.663  42.782  1.00  0.00     0.036 A 
ATOM     26  C   UNL A   1      41.909  14.003  41.715  1.00  0.00     0.034 A 
ATOM     27  C   UNL A   1      42.510  14.049  44.109  1.00  0.00     0.194 C 
ATOM     28  C   UNL A   1      41.337  12.655  41.971  1.00  0.00     0.194 C 
ATOM     29  O   UNL A   1      42.535  14.705  45.140  1.00  0.00    -0.289 OA
ATOM     30  C   UNL A   1      42.624  12.591  44.092  1.00  0.00     0.034 A 
ATOM     31  C   UNL A   1      41.993  11.887  43.067  1.00  0.00     0.034 A 
ATOM     32  O   UNL A   1      40.485  12.162  41.248  1.00  0.00    -0.289 OA
ATOM     33  C   UNL A   1      43.507  11.963  44.966  1.00  0.00     0.013 A 
ATOM     34  C   UNL A   1      42.166  10.508  42.977  1.00  0.00     0.013 A 
ATOM     35  C   UNL A   1      43.745  10.603  44.825  1.00  0.00     0.001 A 
ATOM     36  C   UNL A   1      43.055   9.873  43.854  1.00  0.00     0.001 A 
ENDBRANCH  19  21
ENDBRANCH  16  17
ENDBRANCH   6  16
ENDBRANCH   3   5
ENDBRANCH   2   3
ENDBRANCH   1   2
BRANCH   1  37
ATOM     37  C   UNL A   1      48.746  26.082  39.278  1.00  0.00     0.275 C 
BRANCH  37  38
ATOM     38  O   UNL A   1      47.758  26.660  38.419  1.00  0.00    -0.458 OA
BRANCH  38  39
ATOM     39  C   UNL A   1      48.072  27.820  37.795  1.00  0.00     0.338 C 
ATOM     40  O   UNL A   1      49.138  28.410  37.813  1.00  0.00    -0.246 OA
BRANCH  39  41
ATOM     41  C   UNL A   1      46.886  28.250  37.022  1.00  0.00     0.060 A 
ATOM     42  C   UNL A   1      46.990  29.228  36.035  1.00  0.00     0.016 A 
ATOM     43  C   UNL A   1      45.660  27.624  37.248  1.00  0.00     0.016 A 
ATOM     44  C   UNL A   1      45.842  29.618  35.330  1.00  0.00     0.010 A 
ATOM     45  C   UNL A   1      44.566  27.906  36.439  1.00  0.00     0.010 A 
ATOM     46  C   UNL A   1      44.613  28.955  35.516  1.00  0.00    -0.014 A 
BRANCH  46  47
ATOM     47  C   UNL A   1      43.354  29.386  34.837  1.00  0.00     0.031 A 
ATOM     48  C   UNL A   1      42.489  30.468  35.457  1.00  0.00     0.074 A 
ATOM     49  C   UNL A   1      42.950  28.797  33.692  1.00  0.00     0.049 A 
ATOM     50  N   UNL A   1      41.305  30.889  35.089  1.00  0.00    -0.248 NA
ATOM     51  C   UNL A   1      42.979  31.107  36.690  1.00  0.00     0.031 C 
ATOM     52  C   UNL A   1      43.625  27.684  33.022  1.00  0.00     0.029 A 
ATOM     53  N   UNL A   1      41.886  29.076  32.870  1.00  0.00    -0.354 N 
ATOM     54  C   UNL A   1      40.887  31.764  36.089  1.00  0.00     0.074 A 
ATOM     55  C   UNL A   1      41.906  31.757  37.110  1.00  0.00     0.031 C 
ATOM     56  C   UNL A   1      43.027  27.450  31.843  1.00  0.00     0.029 A 
ATOM     57  C   UNL A   1      41.895  28.360  31.695  1.00  0.00     0.049 A 
ATOM     58  H   UNL A   1      41.183  29.726  33.099  1.00  0.00     0.167 HD
ATOM     59  C   UNL A   1      39.786  32.550  36.133  1.00  0.00     0.031 A 
ATOM     60  C   UNL A   1      41.106  28.451  30.604  1.00  0.00     0.031 A 
ATOM     61  C   UNL A   1      38.862  32.679  35.040  1.00  0.00     0.049 A 
ATOM     62  C   UNL A   1      39.995  29.463  30.586  1.00  0.00     0.074 A 
ATOM     63  C   UNL A   1      37.771  33.522  34.933  1.00  0.00     0.029 A 
ATOM     64  N   UNL A   1      38.965  31.996  33.838  1.00  0.00    -0.354 N 
ATOM     65  N   UNL A   1      39.623  30.285  31.538  1.00  0.00    -0.248 NA
ATOM     66  C   UNL A   1      39.206  29.572  29.351  1.00  0.00     0.031 C 
ATOM     67  C   UNL A   1      37.210  33.347  33.665  1.00  0.00     0.029 A 
ATOM     68  C   UNL A   1      37.976  32.420  32.972  1.00  0.00     0.049 A 
ATOM     69  H   UNL A   1      39.642  31.312  33.632  1.00  0.00     0.167 HD
ATOM     70  C   UNL A   1      38.562  31.015  31.015  1.00  0.00     0.074 A 
ATOM     71  C   UNL A   1      38.367  30.556  29.655  1.00  0.00     0.031 C 
ATOM     72  C   UNL A   1      37.811  31.968  31.615  1.00  0.00     0.031 A 
BRANCH  59  73
ATOM     73  C   UNL A   1      39.554  33.393  37.363  1.00  0.00    -0.014 A 
ATOM     74  C   UNL A   1      38.862  32.856  38.465  1.00  0.00     0.010 A 
ATOM     75  C   UNL A   1      39.961  34.738  37.407  1.00  0.00     0.010 A 
ATOM     76  C   UNL A   1      38.581  33.646  39.583  1.00  0.00     0.020 A 
ATOM     77  C   UNL A   1      39.717  35.521  38.539  1.00  0.00     0.020 A 
ATOM     78  C   UNL A   1      39.011  34.974  39.613  1.00  0.00     0.054 A 
BRANCH  78  79
ATOM     79  S   UNL A   1      38.674  35.987  41.080  1.00  0.00     0.124 S 
ATOM     80  O   UNL A   1      38.418  37.299  40.495  1.00  0.00    -0.237 OA
ATOM     81  O   UNL A   1      37.517  35.322  41.676  1.00  0.00    -0.237 OA
ATOM     82  O   UNL A   1      39.908  35.876  41.856  1.00  0.00    -0.744 OA
ENDBRANCH  78  79
ENDBRANCH  59  73
BRANCH  60  83
ATOM     83  C   UNL A   1      41.433  27.631  29.406  1.00  0.00    -0.014 A 
ATOM     84  C   UNL A   1      40.823  26.383  29.192  1.00  0.00     0.010 A 
ATOM     85  C   UNL A   1      42.443  28.059  28.524  1.00  0.00     0.010 A 
ATOM     86  C   UNL A   1      41.252  25.554  28.149  1.00  0.00     0.020 A 
ATOM     87  C   UNL A   1      42.858  27.245  27.466  1.00  0.00     0.020 A 
ATOM     88  C   UNL A   1      42.280  25.984  27.305  1.00  0.00     0.054 A 
BRANCH  88  89
ATOM     89  S   UNL A   1      42.868  24.870  25.999  1.00  0.00     0.124 S 
ATOM     90  O   UNL A   1      41.893  23.786  26.073  1.00  0.00    -0.237 OA
ATOM     91  O   UNL A   1      42.792  25.705  24.804  1.00  0.00    -0.237 OA
ATOM     92  O   UNL A   1      44.222  24.526  26.429  1.00  0.00    -0.744 OA
ENDBRANCH  88  89
ENDBRANCH  60  83
BRANCH  72  93
ATOM     93  C   UNL A   1      36.701  32.607  30.827  1.00  0.00    -0.014 A 
ATOM     94  C   UNL A   1      36.992  33.668  29.950  1.00  0.00     0.010 A 
ATOM     95  C   UNL A   1      35.362  32.270  31.086  1.00  0.00     0.010 A 
ATOM     96  C   UNL A   1      35.958  34.412  29.378  1.00  0.00     0.020 A 
ATOM     97  C   UNL A   1      34.326  33.000  30.498  1.00  0.00     0.020 A 
ATOM     98  C   UNL A   1      34.633  34.084  29.671  1.00  0.00     0.054 A 
BRANCH  98  99
ATOM     99  S   UNL A   1      33.302  35.101  28.974  1.00  0.00     0.124 S 
ATOM    100  O   UNL A   1      34.041  36.225  28.406  1.00  0.00    -0.237 OA
ATOM    101  O   UNL A   1      32.682  34.200  28.005  1.00  0.00    -0.237 OA
ATOM    102  O   UNL A   1      32.473  35.420  30.134  1.00  0.00    -0.744 OA
ENDBRANCH  98  99
ENDBRANCH  72  93
ENDBRANCH  46  47
ENDBRANCH  39  41
ENDBRANCH  38  39
ENDBRANCH  37  38
ENDBRANCH   1  37
TORSDOF 17
ENDMDL
MODEL 3
REMARK VINA RESULT:     -13.2      1.741      2.801
REMARK SMILES O=C(Cn1nc(C(=O)OCCOC(=O)c2ccc(-c3c4nc(c(-c5ccc(S(=O)(=O)[O-])cc5)c5ccc([nH]5)c(-c5ccc(S(=O)(=O)[O-])cc5)c5nc(c(-c6ccc(S(=O)(=O)[O-])cc6)c6ccc3[nH]6)C=C5)C=C4)cc2)c2ccccc2c1=O)Nc1ccc2c(c1)C(=O)c1ccccc1C2=O
REMARK SMILES IDX 10 1 9 2 7 3 8 4 6 5 4 6 5 7 81 8 80 9 82 10 75 11 79 12
REMARK SMILES IDX 76 13 78 14 77 15 3 16 2 17 1 18 83 19 84 21 85 22 89 23
REMARK SMILES IDX 86 24 88 25 87 26 90 27 98 28 91 29 92 30 97 31 99 32 93 33
REMARK SMILES IDX 96 34 94 35 95 36 11 37 12 38 13 39 14 40 15 41 16 42 74 43
REMARK SMILES IDX 17 44 73 45 18 46 19 47 20 48 67 49 21 50 72 51 66 52 68 53
REMARK SMILES IDX 22 54 71 55 65 56 64 57 23 59 53 60 34 61 52 62 35 63 38 64
REMARK SMILES IDX 51 65 69 66 36 67 37 68 50 70 70 71 39 72 24 73 25 74 33 75
REMARK SMILES IDX 26 76 32 77 27 78 28 79 29 80 30 81 31 82 54 83 55 84 63 85
REMARK SMILES IDX 56 86 62 87 57 88 58 89 59 90 60 91 61 92 40 93 41 94 49 95
REMARK SMILES IDX 42 96 48 97 43 98 44 99 45 100 46 101 47 102
REMARK H PARENT 83 20 68 58 38 69
REMARK Flexibility Score: inf
ROOT
ATOM      1  C   UNL A   1      37.372  22.816  25.915  1.00  0.00     0.275 C 
ENDROOT
BRANCH   1   2
ATOM      2  O   UNL A   1      36.309  23.800  25.809  1.00  0.00    -0.457 OA
BRANCH   2   3
ATOM      3  C   UNL A   1      35.093  23.357  26.179  1.00  0.00     0.359 C 
ATOM      4  O   UNL A   1      34.723  23.095  27.312  1.00  0.00    -0.244 OA
BRANCH   3   5
ATOM      5  C   UNL A   1      34.140  23.115  25.000  1.00  0.00     0.176 A 
ATOM      6  N   UNL A   1      33.372  23.722  22.891  1.00  0.00    -0.219 N 
ATOM      7  N   UNL A   1      34.071  24.026  24.064  1.00  0.00    -0.161 NA
ATOM      8  C   UNL A   1      32.924  22.430  22.584  1.00  0.00     0.275 A 
ATOM      9  C   UNL A   1      32.982  21.431  23.660  1.00  0.00     0.051 A 
ATOM     10  O   UNL A   1      32.476  22.101  21.490  1.00  0.00    -0.267 OA
ATOM     11  C   UNL A   1      33.487  21.799  24.895  1.00  0.00     0.022 A 
ATOM     12  C   UNL A   1      32.508  20.127  23.453  1.00  0.00     0.014 A 
ATOM     13  C   UNL A   1      33.420  20.896  25.955  1.00  0.00     0.011 A 
ATOM     14  C   UNL A   1      32.504  19.207  24.502  1.00  0.00     0.001 A 
ATOM     15  C   UNL A   1      32.937  19.601  25.763  1.00  0.00     0.001 A 
BRANCH   6  16
ATOM     16  C   UNL A   1      33.333  24.719  21.794  1.00  0.00     0.248 C 
BRANCH  16  17
ATOM     17  C   UNL A   1      33.055  26.189  22.150  1.00  0.00     0.246 C 
ATOM     18  O   UNL A   1      33.676  27.116  21.638  1.00  0.00    -0.273 OA
ATOM     19  N   UNL A   1      32.193  26.309  23.206  1.00  0.00    -0.324 N 
ATOM     20  H   UNL A   1      31.933  25.455  23.623  1.00  0.00     0.169 HD
BRANCH  19  21
ATOM     21  C   UNL A   1      31.622  27.439  23.791  1.00  0.00     0.042 A 
ATOM     22  C   UNL A   1      32.318  28.433  24.487  1.00  0.00     0.027 A 
ATOM     23  C   UNL A   1      30.273  27.604  23.502  1.00  0.00     0.039 A 
ATOM     24  C   UNL A   1      31.686  29.658  24.779  1.00  0.00     0.015 A 
ATOM     25  C   UNL A   1      29.667  28.820  23.765  1.00  0.00     0.036 A 
ATOM     26  C   UNL A   1      30.372  29.867  24.349  1.00  0.00     0.034 A 
ATOM     27  C   UNL A   1      28.373  29.078  23.136  1.00  0.00     0.194 C 
ATOM     28  C   UNL A   1      29.790  31.231  24.250  1.00  0.00     0.194 C 
ATOM     29  O   UNL A   1      27.493  28.231  23.064  1.00  0.00    -0.289 OA
ATOM     30  C   UNL A   1      28.278  30.379  22.476  1.00  0.00     0.034 A 
ATOM     31  C   UNL A   1      28.930  31.467  23.058  1.00  0.00     0.034 A 
ATOM     32  O   UNL A   1      30.104  32.128  25.017  1.00  0.00    -0.289 OA
ATOM     33  C   UNL A   1      27.720  30.465  21.204  1.00  0.00     0.013 A 
ATOM     34  C   UNL A   1      28.932  32.694  22.398  1.00  0.00     0.013 A 
ATOM     35  C   UNL A   1      27.795  31.664  20.511  1.00  0.00     0.001 A 
ATOM     36  C   UNL A   1      28.372  32.783  21.117  1.00  0.00     0.001 A 
ENDBRANCH  19  21
ENDBRANCH  16  17
ENDBRANCH   6  16
ENDBRANCH   3   5
ENDBRANCH   2   3
ENDBRANCH   1   2
BRANCH   1  37
ATOM     37  C   UNL A   1      38.768  23.433  25.946  1.00  0.00     0.275 C 
BRANCH  37  38
ATOM     38  O   UNL A   1      38.737  24.650  26.700  1.00  0.00    -0.458 OA
BRANCH  38  39
ATOM     39  C   UNL A   1      39.784  25.497  26.567  1.00  0.00     0.338 C 
ATOM     40  O   UNL A   1      40.577  25.561  25.644  1.00  0.00    -0.246 OA
BRANCH  39  41
ATOM     41  C   UNL A   1      39.786  26.397  27.741  1.00  0.00     0.060 A 
ATOM     42  C   UNL A   1      40.215  27.718  27.631  1.00  0.00     0.016 A 
ATOM     43  C   UNL A   1      39.299  25.929  28.962  1.00  0.00     0.016 A 
ATOM     44  C   UNL A   1      40.214  28.539  28.769  1.00  0.00     0.010 A 
ATOM     45  C   UNL A   1      39.156  26.792  30.041  1.00  0.00     0.010 A 
ATOM     46  C   UNL A   1      39.675  28.089  29.990  1.00  0.00    -0.014 A 
BRANCH  46  47
ATOM     47  C   UNL A   1      39.719  28.907  31.240  1.00  0.00     0.031 A 
ATOM     48  C   UNL A   1      40.892  28.773  32.194  1.00  0.00     0.074 A 
ATOM     49  C   UNL A   1      38.706  29.739  31.556  1.00  0.00     0.049 A 
ATOM     50  N   UNL A   1      41.052  29.298  33.382  1.00  0.00    -0.248 NA
ATOM     51  C   UNL A   1      41.992  27.876  31.798  1.00  0.00     0.031 C 
ATOM     52  C   UNL A   1      37.471  29.911  30.788  1.00  0.00     0.029 A 
ATOM     53  N   UNL A   1      38.569  30.626  32.597  1.00  0.00    -0.354 N 
ATOM     54  C   UNL A   1      42.214  28.726  33.895  1.00  0.00     0.074 A 
ATOM     55  C   UNL A   1      42.675  27.763  32.924  1.00  0.00     0.031 C 
ATOM     56  C   UNL A   1      36.757  30.917  31.318  1.00  0.00     0.029 A 
ATOM     57  C   UNL A   1      37.457  31.430  32.493  1.00  0.00     0.049 A 
ATOM     58  H   UNL A   1      39.205  30.681  33.346  1.00  0.00     0.167 HD
ATOM     59  C   UNL A   1      42.876  29.013  35.040  1.00  0.00     0.031 A 
ATOM     60  C   UNL A   1      37.062  32.485  33.235  1.00  0.00     0.031 A 
ATOM     61  C   UNL A   1      42.506  30.087  35.920  1.00  0.00     0.049 A 
ATOM     62  C   UNL A   1      37.906  32.917  34.401  1.00  0.00     0.074 A 
ATOM     63  C   UNL A   1      43.163  30.535  37.052  1.00  0.00     0.029 A 
ATOM     64  N   UNL A   1      41.420  30.927  35.723  1.00  0.00    -0.354 N 
ATOM     65  N   UNL A   1      39.004  32.367  34.863  1.00  0.00    -0.248 NA
ATOM     66  C   UNL A   1      37.473  34.112  35.138  1.00  0.00     0.031 C 
ATOM     67  C   UNL A   1      42.471  31.645  37.544  1.00  0.00     0.029 A 
ATOM     68  C   UNL A   1      41.406  31.908  36.695  1.00  0.00     0.049 A 
ATOM     69  H   UNL A   1      40.760  30.837  34.999  1.00  0.00     0.167 HD
ATOM     70  C   UNL A   1      39.398  33.153  35.940  1.00  0.00     0.074 A 
ATOM     71  C   UNL A   1      38.436  34.231  36.046  1.00  0.00     0.031 C 
ATOM     72  C   UNL A   1      40.453  32.986  36.771  1.00  0.00     0.031 A 
BRANCH  59  73
ATOM     73  C   UNL A   1      44.110  28.212  35.376  1.00  0.00    -0.014 A 
ATOM     74  C   UNL A   1      45.365  28.608  34.875  1.00  0.00     0.010 A 
ATOM     75  C   UNL A   1      44.024  27.029  36.131  1.00  0.00     0.010 A 
ATOM     76  C   UNL A   1      46.505  27.838  35.121  1.00  0.00     0.020 A 
ATOM     77  C   UNL A   1      45.167  26.277  36.413  1.00  0.00     0.020 A 
ATOM     78  C   UNL A   1      46.399  26.676  35.890  1.00  0.00     0.054 A 
BRANCH  78  79
ATOM     79  S   UNL A   1      47.886  25.698  36.236  1.00  0.00     0.124 S 
ATOM     80  O   UNL A   1      47.485  24.935  37.413  1.00  0.00    -0.237 OA
ATOM     81  O   UNL A   1      48.061  24.924  35.008  1.00  0.00    -0.237 OA
ATOM     82  O   UNL A   1      48.911  26.715  36.467  1.00  0.00    -0.744 OA
ENDBRANCH  78  79
ENDBRANCH  59  73
BRANCH  60  83
ATOM     83  C   UNL A   1      35.868  33.263  32.807  1.00  0.00    -0.014 A 
ATOM     84  C   UNL A   1      35.911  34.097  31.677  1.00  0.00     0.010 A 
ATOM     85  C   UNL A   1      34.706  33.247  33.601  1.00  0.00     0.010 A 
ATOM     86  C   UNL A   1      34.836  34.940  31.377  1.00  0.00     0.020 A 
ATOM     87  C   UNL A   1      33.619  34.070  33.291  1.00  0.00     0.020 A 
ATOM     88  C   UNL A   1      33.705  34.934  32.198  1.00  0.00     0.054 A 
BRANCH  88  89
ATOM     89  S   UNL A   1      32.347  36.081  31.832  1.00  0.00     0.124 S 
ATOM     90  O   UNL A   1      32.435  36.190  30.379  1.00  0.00    -0.237 OA
ATOM     91  O   UNL A   1      31.178  35.370  32.341  1.00  0.00    -0.237 OA
ATOM     92  O   UNL A   1      32.710  37.286  32.574  1.00  0.00    -0.744 OA
ENDBRANCH  88  89
ENDBRANCH  60  83
BRANCH  72  93
ATOM     93  C   UNL A   1      40.656  33.982  37.879  1.00  0.00    -0.014 A 
ATOM     94  C   UNL A   1      39.946  33.836  39.084  1.00  0.00     0.010 A 
ATOM     95  C   UNL A   1      41.414  35.145  37.658  1.00  0.00     0.010 A 
ATOM     96  C   UNL A   1      39.954  34.858  40.035  1.00  0.00     0.020 A 
ATOM     97  C   UNL A   1      41.440  36.160  38.617  1.00  0.00     0.020 A 
ATOM     98  C   UNL A   1      40.686  36.022  39.786  1.00  0.00     0.054 A 
BRANCH  98  99
ATOM     99  S   UNL A   1      40.634  37.369  40.999  1.00  0.00     0.124 S 
ATOM    100  O   UNL A   1      41.919  37.220  41.676  1.00  0.00    -0.237 OA
ATOM    101  O   UNL A   1      40.498  38.556  40.158  1.00  0.00    -0.237 OA
ATOM    102  O   UNL A   1      39.460  37.052  41.810  1.00  0.00    -0.744 OA
ENDBRANCH  98  99
ENDBRANCH  72  93
ENDBRANCH  46  47
ENDBRANCH  39  41
ENDBRANCH  38  39
ENDBRANCH  37  38
ENDBRANCH   1  37
TORSDOF 17
ENDMDL
