MODEL 1
REMARK VINA RESULT:      -9.7      0.000      0.000
REMARK SMILES CC[C@]1(C(=O)OCCOC(=O)c2ccc(-c3c4nc(c(-c5ccc(S(=O)(=O)[O-])cc5)c5ccc([nH]5)c(-c5ccc(S(=O)(=O)[O-])cc5)c5nc(c(-c6ccc(S(=O)(=O)[O-])cc6)c6ccc3[nH]6)C=C5)C=C4)cc2)CCN(C(=O)[C@]2(C)CCCO2)C1
REMARK SMILES IDX 8 1 7 2 6 3 4 4 5 5 3 6 72 7 83 8 73 9 74 10 2 11 1 12 75 13
REMARK SMILES IDX 76 14 77 15 79 16 82 17 78 18 80 19 81 20 9 21 10 22 11 23
REMARK SMILES IDX 12 24 13 25 71 26 14 27 70 28 15 29 16 30 17 31 64 32 18 33
REMARK SMILES IDX 69 34 63 35 65 36 19 37 68 38 62 39 61 40 20 42 50 43 31 44
REMARK SMILES IDX 49 45 32 46 35 47 48 48 66 49 33 50 34 51 47 53 67 54 36 55
REMARK SMILES IDX 21 56 22 57 30 58 23 59 29 60 24 61 25 62 26 63 27 64 28 65
REMARK SMILES IDX 51 66 52 67 60 68 53 69 59 70 54 71 55 72 56 73 57 74 58 75
REMARK SMILES IDX 37 76 38 77 46 78 39 79 45 80 40 81 41 82 42 83 43 84 44 85
REMARK H PARENT 65 41 35 52
REMARK Flexibility Score: inf
ROOT
ATOM      1  C   UNL A   1      34.583  32.235  29.111  1.00  0.00     0.275 C 
ENDROOT
BRANCH   1   2
ATOM      2  C   UNL A   1      34.297  33.692  28.769  1.00  0.00     0.274 C 
BRANCH   2   3
ATOM      3  O   UNL A   1      34.626  34.531  29.896  1.00  0.00    -0.462 OA
BRANCH   3   4
ATOM      4  C   UNL A   1      33.599  34.929  30.693  1.00  0.00     0.314 C 
ATOM      5  O   UNL A   1      32.489  35.242  30.282  1.00  0.00    -0.252 OA
BRANCH   4   6
ATOM      6  C   UNL A   1      33.997  35.030  32.162  1.00  0.00     0.087 C 
ATOM      7  C   UNL A   1      33.924  33.707  32.948  1.00  0.00     0.042 C 
ATOM      8  C   UNL A   1      35.522  35.293  32.138  1.00  0.00     0.138 C 
ATOM      9  C   UNL A   1      34.999  33.891  33.997  1.00  0.00     0.121 C 
ATOM     10  N   UNL A   1      36.066  34.507  33.239  1.00  0.00    -0.339 N 
BRANCH   6  11
ATOM     11  C   UNL A   1      33.262  36.203  32.878  1.00  0.00     0.017 C 
ATOM     12  C   UNL A   1      33.929  37.573  32.766  1.00  0.00     0.005 C 
ENDBRANCH   6  11
BRANCH  10  13
ATOM     13  C   UNL A   1      37.428  34.380  33.410  1.00  0.00     0.254 C 
ATOM     14  O   UNL A   1      37.988  34.935  34.362  1.00  0.00    -0.272 OA
BRANCH  13  15
ATOM     15  C   UNL A   1      38.256  33.622  32.330  1.00  0.00     0.144 C 
ATOM     16  C   UNL A   1      38.910  34.602  31.346  1.00  0.00     0.048 C 
ATOM     17  O   UNL A   1      37.462  32.717  31.547  1.00  0.00    -0.365 OA
ATOM     18  C   UNL A   1      39.336  32.786  33.033  1.00  0.00     0.053 C 
ATOM     19  C   UNL A   1      38.535  34.107  29.966  1.00  0.00     0.032 C 
ATOM     20  C   UNL A   1      37.936  32.740  30.200  1.00  0.00     0.162 C 
ENDBRANCH  13  15
ENDBRANCH  10  13
ENDBRANCH   4   6
ENDBRANCH   3   4
ENDBRANCH   2   3
ENDBRANCH   1   2
BRANCH   1  21
ATOM     21  O   UNL A   1      34.651  31.490  27.884  1.00  0.00    -0.458 OA
BRANCH  21  22
ATOM     22  C   UNL A   1      34.833  30.157  27.996  1.00  0.00     0.338 C 
ATOM     23  O   UNL A   1      33.992  29.278  27.847  1.00  0.00    -0.246 OA
BRANCH  22  24
ATOM     24  C   UNL A   1      36.252  29.888  28.289  1.00  0.00     0.060 A 
ATOM     25  C   UNL A   1      37.215  30.117  27.306  1.00  0.00     0.016 A 
ATOM     26  C   UNL A   1      36.624  29.313  29.502  1.00  0.00     0.016 A 
ATOM     27  C   UNL A   1      38.527  29.694  27.499  1.00  0.00     0.010 A 
ATOM     28  C   UNL A   1      37.970  29.008  29.738  1.00  0.00     0.010 A 
ATOM     29  C   UNL A   1      38.940  29.177  28.733  1.00  0.00    -0.014 A 
BRANCH  29  30
ATOM     30  C   UNL A   1      40.373  28.839  28.977  1.00  0.00     0.031 A 
ATOM     31  C   UNL A   1      41.324  29.875  29.519  1.00  0.00     0.074 A 
ATOM     32  C   UNL A   1      40.840  27.603  28.696  1.00  0.00     0.049 A 
ATOM     33  N   UNL A   1      42.633  29.864  29.533  1.00  0.00    -0.248 NA
ATOM     34  C   UNL A   1      40.729  31.086  30.108  1.00  0.00     0.031 C 
ATOM     35  C   UNL A   1      40.039  26.471  28.221  1.00  0.00     0.029 A 
ATOM     36  N   UNL A   1      42.113  27.089  28.773  1.00  0.00    -0.354 N 
ATOM     37  C   UNL A   1      43.018  31.095  30.054  1.00  0.00     0.074 A 
ATOM     38  C   UNL A   1      41.805  31.819  30.366  1.00  0.00     0.031 C 
ATOM     39  C   UNL A   1      40.822  25.390  28.102  1.00  0.00     0.029 A 
ATOM     40  C   UNL A   1      42.202  25.779  28.363  1.00  0.00     0.049 A 
ATOM     41  H   UNL A   1      42.887  27.608  29.089  1.00  0.00     0.167 HD
ATOM     42  C   UNL A   1      44.271  31.577  30.240  1.00  0.00     0.031 A 
ATOM     43  C   UNL A   1      43.267  24.987  28.141  1.00  0.00     0.031 A 
ATOM     44  C   UNL A   1      45.473  30.828  29.979  1.00  0.00     0.049 A 
ATOM     45  C   UNL A   1      44.645  25.556  28.300  1.00  0.00     0.074 A 
ATOM     46  C   UNL A   1      46.788  31.226  30.150  1.00  0.00     0.029 A 
ATOM     47  N   UNL A   1      45.508  29.524  29.510  1.00  0.00    -0.354 N 
ATOM     48  N   UNL A   1      44.995  26.754  28.700  1.00  0.00    -0.248 NA
ATOM     49  C   UNL A   1      45.768  24.682  27.937  1.00  0.00     0.031 C 
ATOM     50  C   UNL A   1      47.620  30.174  29.746  1.00  0.00     0.029 A 
ATOM     51  C   UNL A   1      46.820  29.108  29.365  1.00  0.00     0.049 A 
ATOM     52  H   UNL A   1      44.715  28.976  29.309  1.00  0.00     0.167 HD
ATOM     53  C   UNL A   1      46.380  26.784  28.623  1.00  0.00     0.074 A 
ATOM     54  C   UNL A   1      46.806  25.476  28.166  1.00  0.00     0.031 C 
ATOM     55  C   UNL A   1      47.224  27.809  28.891  1.00  0.00     0.031 A 
BRANCH  42  56
ATOM     56  C   UNL A   1      44.412  33.005  30.696  1.00  0.00    -0.014 A 
ATOM     57  C   UNL A   1      44.339  33.358  32.054  1.00  0.00     0.010 A 
ATOM     58  C   UNL A   1      44.676  34.005  29.740  1.00  0.00     0.010 A 
ATOM     59  C   UNL A   1      44.495  34.693  32.445  1.00  0.00     0.020 A 
ATOM     60  C   UNL A   1      44.854  35.335  30.129  1.00  0.00     0.020 A 
ATOM     61  C   UNL A   1      44.746  35.674  31.479  1.00  0.00     0.054 A 
BRANCH  61  62
ATOM     62  S   UNL A   1      44.968  37.394  32.013  1.00  0.00     0.124 S 
ATOM     63  O   UNL A   1      43.720  37.649  32.727  1.00  0.00    -0.237 OA
ATOM     64  O   UNL A   1      46.165  37.322  32.848  1.00  0.00    -0.237 OA
ATOM     65  O   UNL A   1      45.130  38.127  30.760  1.00  0.00    -0.744 OA
ENDBRANCH  61  62
ENDBRANCH  42  56
BRANCH  43  66
ATOM     66  C   UNL A   1      43.058  23.602  27.639  1.00  0.00    -0.014 A 
ATOM     67  C   UNL A   1      42.769  22.555  28.530  1.00  0.00     0.010 A 
ATOM     68  C   UNL A   1      43.089  23.339  26.256  1.00  0.00     0.010 A 
ATOM     69  C   UNL A   1      42.502  21.271  28.044  1.00  0.00     0.020 A 
ATOM     70  C   UNL A   1      42.795  22.064  25.766  1.00  0.00     0.020 A 
ATOM     71  C   UNL A   1      42.509  21.036  26.666  1.00  0.00     0.054 A 
BRANCH  71  72
ATOM     72  S   UNL A   1      42.061  19.390  26.045  1.00  0.00     0.124 S 
ATOM     73  O   UNL A   1      42.884  19.286  24.845  1.00  0.00    -0.237 OA
ATOM     74  O   UNL A   1      42.441  18.515  27.152  1.00  0.00    -0.237 OA
ATOM     75  O   UNL A   1      40.622  19.496  25.813  1.00  0.00    -0.744 OA
ENDBRANCH  71  72
ENDBRANCH  43  66
BRANCH  55  76
ATOM     76  C   UNL A   1      48.691  27.556  28.696  1.00  0.00    -0.014 A 
ATOM     77  C   UNL A   1      49.479  27.072  29.754  1.00  0.00     0.010 A 
ATOM     78  C   UNL A   1      49.277  27.763  27.435  1.00  0.00     0.010 A 
ATOM     79  C   UNL A   1      50.840  26.817  29.558  1.00  0.00     0.020 A 
ATOM     80  C   UNL A   1      50.631  27.492  27.231  1.00  0.00     0.020 A 
ATOM     81  C   UNL A   1      51.407  27.031  28.298  1.00  0.00     0.054 A 
BRANCH  81  82
ATOM     82  S   UNL A   1      53.164  26.651  28.055  1.00  0.00     0.124 S 
ATOM     83  O   UNL A   1      53.574  26.244  29.396  1.00  0.00    -0.237 OA
ATOM     84  O   UNL A   1      53.128  25.584  27.057  1.00  0.00    -0.237 OA
ATOM     85  O   UNL A   1      53.728  27.915  27.587  1.00  0.00    -0.744 OA
ENDBRANCH  81  82
ENDBRANCH  55  76
ENDBRANCH  29  30
ENDBRANCH  22  24
ENDBRANCH  21  22
ENDBRANCH   1  21
TORSDOF 17
ENDMDL
MODEL 2
REMARK VINA RESULT:      -9.6      3.422      6.371
REMARK SMILES CC[C@]1(C(=O)OCCOC(=O)c2ccc(-c3c4nc(c(-c5ccc(S(=O)(=O)[O-])cc5)c5ccc([nH]5)c(-c5ccc(S(=O)(=O)[O-])cc5)c5nc(c(-c6ccc(S(=O)(=O)[O-])cc6)c6ccc3[nH]6)C=C5)C=C4)cc2)CCN(C(=O)[C@]2(C)CCCO2)C1
REMARK SMILES IDX 8 1 7 2 6 3 4 4 5 5 3 6 72 7 83 8 73 9 74 10 2 11 1 12 75 13
REMARK SMILES IDX 76 14 77 15 79 16 82 17 78 18 80 19 81 20 9 21 10 22 11 23
REMARK SMILES IDX 12 24 13 25 71 26 14 27 70 28 15 29 16 30 17 31 64 32 18 33
REMARK SMILES IDX 69 34 63 35 65 36 19 37 68 38 62 39 61 40 20 42 50 43 31 44
REMARK SMILES IDX 49 45 32 46 35 47 48 48 66 49 33 50 34 51 47 53 67 54 36 55
REMARK SMILES IDX 21 56 22 57 30 58 23 59 29 60 24 61 25 62 26 63 27 64 28 65
REMARK SMILES IDX 51 66 52 67 60 68 53 69 59 70 54 71 55 72 56 73 57 74 58 75
REMARK SMILES IDX 37 76 38 77 46 78 39 79 45 80 40 81 41 82 42 83 43 84 44 85
REMARK H PARENT 65 41 35 52
REMARK Flexibility Score: inf
ROOT
ATOM      1  C   UNL A   1      32.623  29.881  26.819  1.00  0.00     0.275 C 
ENDROOT
BRANCH   1   2
ATOM      2  C   UNL A   1      31.643  28.748  27.098  1.00  0.00     0.274 C 
BRANCH   2   3
ATOM      3  O   UNL A   1      31.453  27.963  25.902  1.00  0.00    -0.462 OA
BRANCH   3   4
ATOM      4  C   UNL A   1      31.315  26.619  26.058  1.00  0.00     0.314 C 
ATOM      5  O   UNL A   1      30.520  26.093  26.827  1.00  0.00    -0.252 OA
BRANCH   4   6
ATOM      6  C   UNL A   1      32.320  25.823  25.232  1.00  0.00     0.087 C 
ATOM      7  C   UNL A   1      33.794  26.207  25.455  1.00  0.00     0.042 C 
ATOM      8  C   UNL A   1      32.276  24.396  25.831  1.00  0.00     0.138 C 
ATOM      9  C   UNL A   1      34.515  24.905  25.182  1.00  0.00     0.121 C 
ATOM     10  N   UNL A   1      33.660  23.937  25.833  1.00  0.00    -0.339 N 
BRANCH   6  11
ATOM     11  C   UNL A   1      31.923  25.784  23.726  1.00  0.00     0.017 C 
ATOM     12  C   UNL A   1      30.518  25.269  23.420  1.00  0.00     0.005 C 
ENDBRANCH   6  11
BRANCH  10  13
ATOM     13  C   UNL A   1      34.011  22.757  26.453  1.00  0.00     0.254 C 
ATOM     14  O   UNL A   1      34.295  22.750  27.657  1.00  0.00    -0.272 OA
BRANCH  13  15
ATOM     15  C   UNL A   1      34.150  21.466  25.593  1.00  0.00     0.144 C 
ATOM     16  C   UNL A   1      33.555  21.668  24.192  1.00  0.00     0.048 C 
ATOM     17  O   UNL A   1      33.479  20.334  26.168  1.00  0.00    -0.365 OA
ATOM     18  C   UNL A   1      35.638  21.103  25.482  1.00  0.00     0.053 C 
ATOM     19  C   UNL A   1      32.610  20.506  23.977  1.00  0.00     0.032 C 
ATOM     20  C   UNL A   1      32.907  19.557  25.115  1.00  0.00     0.162 C 
ENDBRANCH  13  15
ENDBRANCH  10  13
ENDBRANCH   4   6
ENDBRANCH   3   4
ENDBRANCH   2   3
ENDBRANCH   1   2
BRANCH   1  21
ATOM     21  O   UNL A   1      33.915  29.491  27.311  1.00  0.00    -0.458 OA
BRANCH  21  22
ATOM     22  C   UNL A   1      34.556  30.380  28.098  1.00  0.00     0.338 C 
ATOM     23  O   UNL A   1      34.082  31.379  28.629  1.00  0.00    -0.246 OA
BRANCH  22  24
ATOM     24  C   UNL A   1      35.952  29.944  28.279  1.00  0.00     0.060 A 
ATOM     25  C   UNL A   1      36.388  29.531  29.538  1.00  0.00     0.016 A 
ATOM     26  C   UNL A   1      36.861  30.037  27.228  1.00  0.00     0.016 A 
ATOM     27  C   UNL A   1      37.741  29.297  29.768  1.00  0.00     0.010 A 
ATOM     28  C   UNL A   1      38.197  29.675  27.436  1.00  0.00     0.010 A 
ATOM     29  C   UNL A   1      38.662  29.317  28.714  1.00  0.00    -0.014 A 
BRANCH  29  30
ATOM     30  C   UNL A   1      40.090  28.946  28.942  1.00  0.00     0.031 A 
ATOM     31  C   UNL A   1      41.068  29.957  29.482  1.00  0.00     0.074 A 
ATOM     32  C   UNL A   1      40.527  27.702  28.648  1.00  0.00     0.049 A 
ATOM     33  N   UNL A   1      42.376  29.918  29.482  1.00  0.00    -0.248 NA
ATOM     34  C   UNL A   1      40.505  31.177  30.085  1.00  0.00     0.031 C 
ATOM     35  C   UNL A   1      39.698  26.591  28.173  1.00  0.00     0.029 A 
ATOM     36  N   UNL A   1      41.790  27.160  28.709  1.00  0.00    -0.354 N 
ATOM     37  C   UNL A   1      42.793  31.136  30.009  1.00  0.00     0.074 A 
ATOM     38  C   UNL A   1      41.599  31.884  30.337  1.00  0.00     0.031 C 
ATOM     39  C   UNL A   1      40.456  25.494  28.038  1.00  0.00     0.029 A 
ATOM     40  C   UNL A   1      41.846  25.852  28.288  1.00  0.00     0.049 A 
ATOM     41  H   UNL A   1      42.578  27.661  29.021  1.00  0.00     0.167 HD
ATOM     42  C   UNL A   1      44.058  31.591  30.185  1.00  0.00     0.031 A 
ATOM     43  C   UNL A   1      42.892  25.038  28.050  1.00  0.00     0.031 A 
ATOM     44  C   UNL A   1      45.241  30.818  29.907  1.00  0.00     0.049 A 
ATOM     45  C   UNL A   1      44.283  25.577  28.200  1.00  0.00     0.074 A 
ATOM     46  C   UNL A   1      46.566  31.186  30.067  1.00  0.00     0.029 A 
ATOM     47  N   UNL A   1      45.243  29.517  29.429  1.00  0.00    -0.354 N 
ATOM     48  N   UNL A   1      44.663  26.764  28.605  1.00  0.00    -0.248 NA
ATOM     49  C   UNL A   1      45.383  24.682  27.819  1.00  0.00     0.031 C 
ATOM     50  C   UNL A   1      47.370  30.119  29.649  1.00  0.00     0.029 A 
ATOM     51  C   UNL A   1      46.544  29.074  29.268  1.00  0.00     0.049 A 
ATOM     52  H   UNL A   1      44.437  28.987  29.232  1.00  0.00     0.167 HD
ATOM     53  C   UNL A   1      46.048  26.765  28.514  1.00  0.00     0.074 A 
ATOM     54  C   UNL A   1      46.440  25.451  28.044  1.00  0.00     0.031 C 
ATOM     55  C   UNL A   1      46.915  27.770  28.781  1.00  0.00     0.031 A 
BRANCH  42  56
ATOM     56  C   UNL A   1      44.234  33.012  30.650  1.00  0.00    -0.014 A 
ATOM     57  C   UNL A   1      44.427  33.328  32.005  1.00  0.00     0.010 A 
ATOM     58  C   UNL A   1      44.257  34.046  29.694  1.00  0.00     0.010 A 
ATOM     59  C   UNL A   1      44.609  34.659  32.400  1.00  0.00     0.020 A 
ATOM     60  C   UNL A   1      44.459  35.373  30.082  1.00  0.00     0.020 A 
ATOM     61  C   UNL A   1      44.617  35.673  31.436  1.00  0.00     0.054 A 
BRANCH  61  62
ATOM     62  S   UNL A   1      44.877  37.388  31.970  1.00  0.00     0.124 S 
ATOM     63  O   UNL A   1      46.109  37.276  32.748  1.00  0.00    -0.237 OA
ATOM     64  O   UNL A   1      44.999  38.107  30.704  1.00  0.00    -0.237 OA
ATOM     65  O   UNL A   1      43.677  37.695  32.744  1.00  0.00    -0.744 OA
ENDBRANCH  61  62
ENDBRANCH  42  56
BRANCH  43  66
ATOM     66  C   UNL A   1      42.648  23.662  27.541  1.00  0.00    -0.014 A 
ATOM     67  C   UNL A   1      42.729  23.383  26.167  1.00  0.00     0.010 A 
ATOM     68  C   UNL A   1      42.390  22.611  28.441  1.00  0.00     0.010 A 
ATOM     69  C   UNL A   1      42.570  22.073  25.704  1.00  0.00     0.020 A 
ATOM     70  C   UNL A   1      42.259  21.297  27.985  1.00  0.00     0.020 A 
ATOM     71  C   UNL A   1      42.344  21.038  26.616  1.00  0.00     0.054 A 
BRANCH  71  72
ATOM     72  S   UNL A   1      42.240  19.330  26.011  1.00  0.00     0.124 S 
ATOM     73  O   UNL A   1      42.706  18.572  27.167  1.00  0.00    -0.237 OA
ATOM     74  O   UNL A   1      40.822  19.189  25.690  1.00  0.00    -0.237 OA
ATOM     75  O   UNL A   1      43.134  19.326  24.855  1.00  0.00    -0.744 OA
ENDBRANCH  71  72
ENDBRANCH  43  66
BRANCH  55  76
ATOM     76  C   UNL A   1      48.375  27.487  28.570  1.00  0.00    -0.014 A 
ATOM     77  C   UNL A   1      49.174  27.026  29.630  1.00  0.00     0.010 A 
ATOM     78  C   UNL A   1      48.941  27.642  27.293  1.00  0.00     0.010 A 
ATOM     79  C   UNL A   1      50.527  26.743  29.420  1.00  0.00     0.020 A 
ATOM     80  C   UNL A   1      50.288  27.342  27.075  1.00  0.00     0.020 A 
ATOM     81  C   UNL A   1      51.075  26.905  28.144  1.00  0.00     0.054 A 
BRANCH  81  82
ATOM     82  S   UNL A   1      52.821  26.489  27.884  1.00  0.00     0.124 S 
ATOM     83  O   UNL A   1      52.730  25.379  26.939  1.00  0.00    -0.237 OA
ATOM     84  O   UNL A   1      53.373  27.729  27.345  1.00  0.00    -0.237 OA
ATOM     85  O   UNL A   1      53.293  26.133  29.221  1.00  0.00    -0.744 OA
ENDBRANCH  81  82
ENDBRANCH  55  76
ENDBRANCH  29  30
ENDBRANCH  22  24
ENDBRANCH  21  22
ENDBRANCH   1  21
TORSDOF 17
ENDMDL
MODEL 3
REMARK VINA RESULT:      -9.5      4.170     10.220
REMARK SMILES CC[C@]1(C(=O)OCCOC(=O)c2ccc(-c3c4nc(c(-c5ccc(S(=O)(=O)[O-])cc5)c5ccc([nH]5)c(-c5ccc(S(=O)(=O)[O-])cc5)c5nc(c(-c6ccc(S(=O)(=O)[O-])cc6)c6ccc3[nH]6)C=C5)C=C4)cc2)CCN(C(=O)[C@]2(C)CCCO2)C1
REMARK SMILES IDX 8 1 7 2 6 3 4 4 5 5 3 6 72 7 83 8 73 9 74 10 2 11 1 12 75 13
REMARK SMILES IDX 76 14 77 15 79 16 82 17 78 18 80 19 81 20 9 21 10 22 11 23
REMARK SMILES IDX 12 24 13 25 71 26 14 27 70 28 15 29 16 30 17 31 64 32 18 33
REMARK SMILES IDX 69 34 63 35 65 36 19 37 68 38 62 39 61 40 20 42 50 43 31 44
REMARK SMILES IDX 49 45 32 46 35 47 48 48 66 49 33 50 34 51 47 53 67 54 36 55
REMARK SMILES IDX 21 56 22 57 30 58 23 59 29 60 24 61 25 62 26 63 27 64 28 65
REMARK SMILES IDX 51 66 52 67 60 68 53 69 59 70 54 71 55 72 56 73 57 74 58 75
REMARK SMILES IDX 37 76 38 77 46 78 39 79 45 80 40 81 41 82 42 83 43 84 44 85
REMARK H PARENT 65 41 35 52
REMARK Flexibility Score: inf
ROOT
ATOM      1  C   UNL A   1      39.497  19.979  25.544  1.00  0.00     0.275 C 
ENDROOT
BRANCH   1   2
ATOM      2  C   UNL A   1      38.876  21.351  25.774  1.00  0.00     0.274 C 
BRANCH   2   3
ATOM      3  O   UNL A   1      37.454  21.288  25.538  1.00  0.00    -0.462 OA
BRANCH   3   4
ATOM      4  C   UNL A   1      36.765  22.459  25.588  1.00  0.00     0.314 C 
ATOM      5  O   UNL A   1      37.191  23.489  26.095  1.00  0.00    -0.252 OA
BRANCH   4   6
ATOM      6  C   UNL A   1      35.355  22.339  25.018  1.00  0.00     0.087 C 
ATOM      7  C   UNL A   1      34.703  20.953  25.182  1.00  0.00     0.042 C 
ATOM      8  C   UNL A   1      34.479  23.206  25.954  1.00  0.00     0.138 C 
ATOM      9  C   UNL A   1      33.231  21.292  25.265  1.00  0.00     0.121 C 
ATOM     10  N   UNL A   1      33.233  22.465  26.112  1.00  0.00    -0.339 N 
BRANCH   6  11
ATOM     11  C   UNL A   1      35.277  22.878  23.558  1.00  0.00     0.017 C 
ATOM     12  C   UNL A   1      36.599  22.926  22.795  1.00  0.00     0.005 C 
ENDBRANCH   6  11
BRANCH  10  13
ATOM     13  C   UNL A   1      32.278  22.874  27.018  1.00  0.00     0.254 C 
ATOM     14  O   UNL A   1      32.407  22.605  28.218  1.00  0.00    -0.272 OA
BRANCH  13  15
ATOM     15  C   UNL A   1      30.993  23.579  26.492  1.00  0.00     0.144 C 
ATOM     16  C   UNL A   1      30.974  23.621  24.957  1.00  0.00     0.048 C 
ATOM     17  O   UNL A   1      30.871  24.936  26.945  1.00  0.00    -0.365 OA
ATOM     18  C   UNL A   1      29.764  22.816  27.010  1.00  0.00     0.053 C 
ATOM     19  C   UNL A   1      30.706  25.065  24.591  1.00  0.00     0.032 C 
ATOM     20  C   UNL A   1      30.309  25.722  25.893  1.00  0.00     0.162 C 
ENDBRANCH  13  15
ENDBRANCH  10  13
ENDBRANCH   4   6
ENDBRANCH   3   4
ENDBRANCH   2   3
ENDBRANCH   1   2
BRANCH   1  21
ATOM     21  O   UNL A   1      40.516  19.774  26.535  1.00  0.00    -0.458 OA
BRANCH  21  22
ATOM     22  C   UNL A   1      41.791  19.747  26.094  1.00  0.00     0.338 C 
ATOM     23  O   UNL A   1      42.346  18.841  25.483  1.00  0.00    -0.246 OA
BRANCH  22  24
ATOM     24  C   UNL A   1      42.440  21.029  26.420  1.00  0.00     0.060 A 
ATOM     25  C   UNL A   1      42.790  21.310  27.740  1.00  0.00     0.016 A 
ATOM     26  C   UNL A   1      42.614  22.000  25.436  1.00  0.00     0.016 A 
ATOM     27  C   UNL A   1      43.229  22.583  28.093  1.00  0.00     0.010 A 
ATOM     28  C   UNL A   1      43.177  23.236  25.777  1.00  0.00     0.010 A 
ATOM     29  C   UNL A   1      43.477  23.553  27.114  1.00  0.00    -0.014 A 
BRANCH  29  30
ATOM     30  C   UNL A   1      44.063  24.876  27.482  1.00  0.00     0.031 A 
ATOM     31  C   UNL A   1      43.192  25.970  28.044  1.00  0.00     0.074 A 
ATOM     32  C   UNL A   1      45.379  25.115  27.298  1.00  0.00     0.049 A 
ATOM     33  N   UNL A   1      43.447  27.249  28.157  1.00  0.00    -0.248 NA
ATOM     34  C   UNL A   1      41.856  25.581  28.527  1.00  0.00     0.031 C 
ATOM     35  C   UNL A   1      46.368  24.144  26.818  1.00  0.00     0.029 A 
ATOM     36  N   UNL A   1      46.117  26.258  27.495  1.00  0.00    -0.354 N 
ATOM     37  C   UNL A   1      42.281  27.828  28.647  1.00  0.00     0.074 A 
ATOM     38  C   UNL A   1      41.325  26.758  28.831  1.00  0.00     0.031 C 
ATOM     39  C   UNL A   1      47.582  24.712  26.811  1.00  0.00     0.029 A 
ATOM     40  C   UNL A   1      47.443  26.120  27.156  1.00  0.00     0.049 A 
ATOM     41  H   UNL A   1      45.734  27.095  27.844  1.00  0.00     0.167 HD
ATOM     42  C   UNL A   1      42.032  29.136  28.904  1.00  0.00     0.031 A 
ATOM     43  C   UNL A   1      48.434  27.027  27.054  1.00  0.00     0.031 A 
ATOM     44  C   UNL A   1      43.008  30.186  28.771  1.00  0.00     0.049 A 
ATOM     45  C   UNL A   1      48.124  28.474  27.290  1.00  0.00     0.074 A 
ATOM     46  C   UNL A   1      42.855  31.539  29.021  1.00  0.00     0.029 A 
ATOM     47  N   UNL A   1      44.321  30.001  28.369  1.00  0.00    -0.354 N 
ATOM     48  N   UNL A   1      46.991  29.021  27.657  1.00  0.00    -0.248 NA
ATOM     49  C   UNL A   1      49.214  29.430  27.055  1.00  0.00     0.031 C 
ATOM     50  C   UNL A   1      44.067  32.178  28.733  1.00  0.00     0.029 A 
ATOM     51  C   UNL A   1      44.985  31.216  28.344  1.00  0.00     0.049 A 
ATOM     52  H   UNL A   1      44.723  29.133  28.135  1.00  0.00     0.167 HD
ATOM     53  C   UNL A   1      47.226  30.388  27.683  1.00  0.00     0.074 A 
ATOM     54  C   UNL A   1      48.617  30.583  27.324  1.00  0.00     0.031 C 
ATOM     55  C   UNL A   1      46.363  31.393  27.965  1.00  0.00     0.031 A 
BRANCH  42  56
ATOM     56  C   UNL A   1      40.631  29.517  29.300  1.00  0.00    -0.014 A 
ATOM     57  C   UNL A   1      40.289  29.798  30.633  1.00  0.00     0.010 A 
ATOM     58  C   UNL A   1      39.649  29.647  28.299  1.00  0.00     0.010 A 
ATOM     59  C   UNL A   1      38.982  30.171  30.963  1.00  0.00     0.020 A 
ATOM     60  C   UNL A   1      38.347  30.039  28.622  1.00  0.00     0.020 A 
ATOM     61  C   UNL A   1      38.017  30.283  29.956  1.00  0.00     0.054 A 
BRANCH  61  62
ATOM     62  S   UNL A   1      36.334  30.790  30.406  1.00  0.00     0.124 S 
ATOM     63  O   UNL A   1      36.503  32.223  30.634  1.00  0.00    -0.237 OA
ATOM     64  O   UNL A   1      35.559  30.431  29.220  1.00  0.00    -0.237 OA
ATOM     65  O   UNL A   1      36.042  29.999  31.599  1.00  0.00    -0.744 OA
ENDBRANCH  61  62
ENDBRANCH  42  56
BRANCH  43  66
ATOM     66  C   UNL A   1      49.783  26.589  26.605  1.00  0.00    -0.014 A 
ATOM     67  C   UNL A   1      50.644  25.912  27.484  1.00  0.00     0.010 A 
ATOM     68  C   UNL A   1      50.187  26.797  25.272  1.00  0.00     0.010 A 
ATOM     69  C   UNL A   1      51.881  25.440  27.034  1.00  0.00     0.020 A 
ATOM     70  C   UNL A   1      51.409  26.302  24.812  1.00  0.00     0.020 A 
ATOM     71  C   UNL A   1      52.252  25.631  25.699  1.00  0.00     0.054 A 
BRANCH  71  72
ATOM     72  S   UNL A   1      53.814  24.925  25.104  1.00  0.00     0.124 S 
ATOM     73  O   UNL A   1      53.959  25.568  23.803  1.00  0.00    -0.237 OA
ATOM     74  O   UNL A   1      54.767  25.346  26.128  1.00  0.00    -0.237 OA
ATOM     75  O   UNL A   1      53.545  23.489  25.070  1.00  0.00    -0.744 OA
ENDBRANCH  71  72
ENDBRANCH  43  66
BRANCH  55  76
ATOM     76  C   UNL A   1      46.899  32.794  27.894  1.00  0.00    -0.014 A 
ATOM     77  C   UNL A   1      46.808  33.534  26.703  1.00  0.00     0.010 A 
ATOM     78  C   UNL A   1      47.459  33.389  29.038  1.00  0.00     0.010 A 
ATOM     79  C   UNL A   1      47.289  34.846  26.651  1.00  0.00     0.020 A 
ATOM     80  C   UNL A   1      47.924  34.705  28.995  1.00  0.00     0.020 A 
ATOM     81  C   UNL A   1      47.847  35.421  27.798  1.00  0.00     0.054 A 
BRANCH  81  82
ATOM     82  S   UNL A   1      48.423  37.139  27.720  1.00  0.00     0.124 S 
ATOM     83  O   UNL A   1      48.345  37.421  26.290  1.00  0.00    -0.237 OA
ATOM     84  O   UNL A   1      47.453  37.843  28.555  1.00  0.00    -0.237 OA
ATOM     85  O   UNL A   1      49.776  37.073  28.270  1.00  0.00    -0.744 OA
ENDBRANCH  81  82
ENDBRANCH  55  76
ENDBRANCH  29  30
ENDBRANCH  22  24
ENDBRANCH  21  22
ENDBRANCH   1  21
TORSDOF 17
ENDMDL
