MODEL 1
REMARK VINA RESULT:      -9.0      0.000      0.000
REMARK SMILES Cc1cc(Br)cc([N+](=O)[O-])c1OCCC(=O)OCCOC(=O)c1ccc(-c2c3nc(c(-c4ccc(S(=O)(=O)[O-])cc4)c4ccc([nH]4)c(-c4ccc(S(=O)(=O)[O-])cc4)c4nc(c(-c5ccc(S(=O)(=O)[O-])cc5)c5ccc2[nH]5)C=C4)C=C3)cc1
REMARK SMILES IDX 18 1 17 2 15 3 16 4 14 5 13 6 12 7 11 8 1 9 2 10 3 11 4 12
REMARK SMILES IDX 7 13 5 14 6 15 8 16 9 17 10 18 19 19 20 20 21 21 22 22 23 23
REMARK SMILES IDX 24 24 82 25 25 26 81 27 26 28 27 29 28 30 75 31 29 32 80 33
REMARK SMILES IDX 74 34 76 35 30 36 79 37 73 38 72 39 31 41 61 42 42 43 60 44
REMARK SMILES IDX 43 45 46 46 59 47 77 48 44 49 45 50 58 52 78 53 47 54 32 55
REMARK SMILES IDX 33 56 41 57 34 58 40 59 35 60 36 61 37 62 38 63 39 64 62 65
REMARK SMILES IDX 63 66 71 67 64 68 70 69 65 70 66 71 67 72 68 73 69 74 48 75
REMARK SMILES IDX 49 76 57 77 50 78 56 79 51 80 52 81 53 82 54 83 55 84
REMARK H PARENT 76 40 46 51
REMARK Flexibility Score: inf
ROOT
ATOM      1  C   UNL A   1      34.728  33.549  29.488  1.00  0.00     0.274 C 
ENDROOT
BRANCH   1   2
ATOM      2  O   UNL A   1      35.691  32.931  30.370  1.00  0.00    -0.462 OA
BRANCH   2   3
ATOM      3  C   UNL A   1      35.201  32.391  31.518  1.00  0.00     0.309 C 
ATOM      4  O   UNL A   1      34.047  32.513  31.910  1.00  0.00    -0.252 OA
BRANCH   3   5
ATOM      5  C   UNL A   1      36.269  31.681  32.315  1.00  0.00     0.164 C 
BRANCH   5   6
ATOM      6  C   UNL A   1      36.661  32.393  33.608  1.00  0.00     0.241 C 
BRANCH   6   7
ATOM      7  O   UNL A   1      37.993  32.128  34.103  1.00  0.00    -0.486 OA
BRANCH   7   8
ATOM      8  C   UNL A   1      38.437  33.014  35.043  1.00  0.00     0.200 A 
ATOM      9  C   UNL A   1      39.496  34.544  33.268  1.00  0.00     0.049 C 
ATOM     10  C   UNL A   1      39.052  34.225  34.673  1.00  0.00    -0.001 A 
ATOM     11  C   UNL A   1      39.398  35.153  35.676  1.00  0.00     0.023 A 
ATOM     12  C   UNL A   1      39.207  34.852  37.021  1.00  0.00     0.025 A 
ATOM     13  C   UNL A   1      38.372  32.678  36.407  1.00  0.00     0.312 A 
ATOM     14  Br  UNL A   1      39.661  36.124  38.343  1.00  0.00    -0.051 Br
ATOM     15  C   UNL A   1      38.732  33.604  37.399  1.00  0.00     0.105 A 
BRANCH  13  16
ATOM     16  N   UNL A   1      38.022  31.325  36.853  1.00  0.00     0.066 N 
ATOM     17  O   UNL A   1      37.460  31.230  37.956  1.00  0.00    -0.258 OA
ATOM     18  O   UNL A   1      38.267  30.359  36.120  1.00  0.00    -0.258 OA
ENDBRANCH  13  16
ENDBRANCH   7   8
ENDBRANCH   6   7
ENDBRANCH   5   6
ENDBRANCH   3   5
ENDBRANCH   2   3
ENDBRANCH   1   2
BRANCH   1  19
ATOM     19  C   UNL A   1      34.536  32.786  28.173  1.00  0.00     0.275 C 
BRANCH  19  20
ATOM     20  O   UNL A   1      33.915  31.501  28.356  1.00  0.00    -0.458 OA
BRANCH  20  21
ATOM     21  C   UNL A   1      34.471  30.512  27.627  1.00  0.00     0.338 C 
ATOM     22  O   UNL A   1      33.996  29.977  26.640  1.00  0.00    -0.246 OA
BRANCH  21  23
ATOM     23  C   UNL A   1      35.785  30.125  28.130  1.00  0.00     0.060 A 
ATOM     24  C   UNL A   1      36.876  30.195  27.258  1.00  0.00     0.016 A 
ATOM     25  C   UNL A   1      35.903  29.556  29.400  1.00  0.00     0.016 A 
ATOM     26  C   UNL A   1      38.111  29.709  27.671  1.00  0.00     0.010 A 
ATOM     27  C   UNL A   1      37.144  29.080  29.814  1.00  0.00     0.010 A 
ATOM     28  C   UNL A   1      38.252  29.164  28.957  1.00  0.00    -0.014 A 
BRANCH  28  29
ATOM     29  C   UNL A   1      39.594  28.811  29.461  1.00  0.00     0.031 A 
ATOM     30  C   UNL A   1      40.375  29.755  30.320  1.00  0.00     0.074 A 
ATOM     31  C   UNL A   1      40.102  27.625  29.081  1.00  0.00     0.049 A 
ATOM     32  N   UNL A   1      41.583  29.617  30.800  1.00  0.00    -0.248 NA
ATOM     33  C   UNL A   1      39.720  31.022  30.682  1.00  0.00     0.031 C 
ATOM     34  C   UNL A   1      39.403  26.646  28.241  1.00  0.00     0.029 A 
ATOM     35  N   UNL A   1      41.311  27.041  29.340  1.00  0.00    -0.354 N 
ATOM     36  C   UNL A   1      41.843  30.781  31.514  1.00  0.00     0.074 A 
ATOM     37  C   UNL A   1      40.669  31.621  31.392  1.00  0.00     0.031 C 
ATOM     38  C   UNL A   1      40.195  25.578  28.063  1.00  0.00     0.029 A 
ATOM     39  C   UNL A   1      41.463  25.815  28.738  1.00  0.00     0.049 A 
ATOM     40  H   UNL A   1      42.004  27.458  29.901  1.00  0.00     0.167 HD
ATOM     41  C   UNL A   1      42.964  31.111  32.202  1.00  0.00     0.031 A 
ATOM     42  C   UNL A   1      42.519  24.981  28.721  1.00  0.00     0.031 A 
ATOM     43  C   UNL A   1      44.129  30.265  32.280  1.00  0.00     0.049 A 
ATOM     44  C   UNL A   1      43.753  25.378  29.472  1.00  0.00     0.074 A 
ATOM     45  C   UNL A   1      45.320  30.493  32.948  1.00  0.00     0.029 A 
ATOM     46  N   UNL A   1      44.250  29.029  31.659  1.00  0.00    -0.354 N 
ATOM     47  N   UNL A   1      43.975  26.472  30.164  1.00  0.00    -0.248 NA
ATOM     48  C   UNL A   1      44.876  24.435  29.447  1.00  0.00     0.031 C 
ATOM     49  C   UNL A   1      46.174  29.413  32.696  1.00  0.00     0.029 A 
ATOM     50  C   UNL A   1      45.500  28.490  31.910  1.00  0.00     0.049 A 
ATOM     51  H   UNL A   1      43.548  28.598  31.118  1.00  0.00     0.167 HD
ATOM     52  C   UNL A   1      45.261  26.346  30.666  1.00  0.00     0.074 A 
ATOM     53  C   UNL A   1      45.760  25.060  30.214  1.00  0.00     0.031 C 
ATOM     54  C   UNL A   1      45.970  27.213  31.430  1.00  0.00     0.031 A 
BRANCH  41  55
ATOM     55  C   UNL A   1      42.992  32.454  32.881  1.00  0.00    -0.014 A 
ATOM     56  C   UNL A   1      43.301  33.627  32.167  1.00  0.00     0.010 A 
ATOM     57  C   UNL A   1      42.695  32.551  34.252  1.00  0.00     0.010 A 
ATOM     58  C   UNL A   1      43.359  34.862  32.820  1.00  0.00     0.020 A 
ATOM     59  C   UNL A   1      42.731  33.789  34.906  1.00  0.00     0.020 A 
ATOM     60  C   UNL A   1      43.086  34.933  34.189  1.00  0.00     0.054 A 
BRANCH  60  61
ATOM     61  S   UNL A   1      43.184  36.543  35.020  1.00  0.00     0.124 S 
ATOM     62  O   UNL A   1      42.714  36.218  36.364  1.00  0.00    -0.237 OA
ATOM     63  O   UNL A   1      44.603  36.875  34.915  1.00  0.00    -0.237 OA
ATOM     64  O   UNL A   1      42.289  37.393  34.237  1.00  0.00    -0.744 OA
ENDBRANCH  60  61
ENDBRANCH  41  55
BRANCH  42  65
ATOM     65  C   UNL A   1      42.425  23.702  27.970  1.00  0.00    -0.014 A 
ATOM     66  C   UNL A   1      43.050  23.564  26.719  1.00  0.00     0.010 A 
ATOM     67  C   UNL A   1      41.780  22.590  28.543  1.00  0.00     0.010 A 
ATOM     68  C   UNL A   1      43.031  22.335  26.054  1.00  0.00     0.020 A 
ATOM     69  C   UNL A   1      41.780  21.354  27.890  1.00  0.00     0.020 A 
ATOM     70  C   UNL A   1      42.402  21.236  26.645  1.00  0.00     0.054 A 
BRANCH  70  71
ATOM     71  S   UNL A   1      42.466  19.629  25.805  1.00  0.00     0.124 S 
ATOM     72  O   UNL A   1      42.900  18.743  26.880  1.00  0.00    -0.237 OA
ATOM     73  O   UNL A   1      41.088  19.450  25.353  1.00  0.00    -0.237 OA
ATOM     74  O   UNL A   1      43.439  19.842  24.735  1.00  0.00    -0.744 OA
ENDBRANCH  70  71
ENDBRANCH  42  65
BRANCH  54  75
ATOM     75  C   UNL A   1      47.355  26.785  31.822  1.00  0.00    -0.014 A 
ATOM     76  C   UNL A   1      48.474  27.192  31.073  1.00  0.00     0.010 A 
ATOM     77  C   UNL A   1      47.540  25.993  32.969  1.00  0.00     0.010 A 
ATOM     78  C   UNL A   1      49.756  26.786  31.449  1.00  0.00     0.020 A 
ATOM     79  C   UNL A   1      48.823  25.603  33.359  1.00  0.00     0.020 A 
ATOM     80  C   UNL A   1      49.922  25.991  32.588  1.00  0.00     0.054 A 
BRANCH  80  81
ATOM     81  S   UNL A   1      51.598  25.504  33.079  1.00  0.00     0.124 S 
ATOM     82  O   UNL A   1      52.137  26.758  33.598  1.00  0.00    -0.237 OA
ATOM     83  O   UNL A   1      51.353  24.463  34.075  1.00  0.00    -0.237 OA
ATOM     84  O   UNL A   1      52.198  25.034  31.832  1.00  0.00    -0.744 OA
ENDBRANCH  80  81
ENDBRANCH  54  75
ENDBRANCH  28  29
ENDBRANCH  21  23
ENDBRANCH  20  21
ENDBRANCH  19  20
ENDBRANCH   1  19
TORSDOF 18
ENDMDL
MODEL 2
REMARK VINA RESULT:      -8.8      4.397      7.335
REMARK SMILES Cc1cc(Br)cc([N+](=O)[O-])c1OCCC(=O)OCCOC(=O)c1ccc(-c2c3nc(c(-c4ccc(S(=O)(=O)[O-])cc4)c4ccc([nH]4)c(-c4ccc(S(=O)(=O)[O-])cc4)c4nc(c(-c5ccc(S(=O)(=O)[O-])cc5)c5ccc2[nH]5)C=C4)C=C3)cc1
REMARK SMILES IDX 18 1 17 2 15 3 16 4 14 5 13 6 12 7 11 8 1 9 2 10 3 11 4 12
REMARK SMILES IDX 7 13 5 14 6 15 8 16 9 17 10 18 19 19 20 20 21 21 22 22 23 23
REMARK SMILES IDX 24 24 82 25 25 26 81 27 26 28 27 29 28 30 75 31 29 32 80 33
REMARK SMILES IDX 74 34 76 35 30 36 79 37 73 38 72 39 31 41 61 42 42 43 60 44
REMARK SMILES IDX 43 45 46 46 59 47 77 48 44 49 45 50 58 52 78 53 47 54 32 55
REMARK SMILES IDX 33 56 41 57 34 58 40 59 35 60 36 61 37 62 38 63 39 64 62 65
REMARK SMILES IDX 63 66 71 67 64 68 70 69 65 70 66 71 67 72 68 73 69 74 48 75
REMARK SMILES IDX 49 76 57 77 50 78 56 79 51 80 52 81 53 82 54 83 55 84
REMARK H PARENT 76 40 46 51
REMARK Flexibility Score: inf
ROOT
ATOM      1  C   UNL A   1      33.076  28.455  25.279  1.00  0.00     0.274 C 
ENDROOT
BRANCH   1   2
ATOM      2  O   UNL A   1      31.722  27.962  25.180  1.00  0.00    -0.462 OA
BRANCH   2   3
ATOM      3  C   UNL A   1      31.367  26.987  26.060  1.00  0.00     0.309 C 
ATOM      4  O   UNL A   1      31.124  27.172  27.246  1.00  0.00    -0.252 OA
BRANCH   3   5
ATOM      5  C   UNL A   1      31.385  25.616  25.429  1.00  0.00     0.164 C 
BRANCH   5   6
ATOM      6  C   UNL A   1      32.054  24.543  26.284  1.00  0.00     0.241 C 
BRANCH   6   7
ATOM      7  O   UNL A   1      33.298  24.008  25.778  1.00  0.00    -0.486 OA
BRANCH   7   8
ATOM      8  C   UNL A   1      33.227  22.716  25.341  1.00  0.00     0.200 A 
ATOM      9  C   UNL A   1      33.961  21.780  27.619  1.00  0.00     0.049 C 
ATOM     10  C   UNL A   1      33.423  21.634  26.220  1.00  0.00    -0.001 A 
ATOM     11  C   UNL A   1      33.235  20.321  25.743  1.00  0.00     0.023 A 
ATOM     12  C   UNL A   1      32.931  20.085  24.406  1.00  0.00     0.025 A 
ATOM     13  C   UNL A   1      33.049  22.450  23.971  1.00  0.00     0.312 A 
ATOM     14  Br  UNL A   1      32.664  18.315  23.801  1.00  0.00    -0.051 Br
ATOM     15  C   UNL A   1      32.875  21.138  23.504  1.00  0.00     0.105 A 
BRANCH  13  16
ATOM     16  N   UNL A   1      33.132  23.512  22.962  1.00  0.00     0.066 N 
ATOM     17  O   UNL A   1      34.272  23.865  22.617  1.00  0.00    -0.258 OA
ATOM     18  O   UNL A   1      32.093  23.983  22.485  1.00  0.00    -0.258 OA
ENDBRANCH  13  16
ENDBRANCH   7   8
ENDBRANCH   6   7
ENDBRANCH   5   6
ENDBRANCH   3   5
ENDBRANCH   2   3
ENDBRANCH   1   2
BRANCH   1  19
ATOM     19  C   UNL A   1      33.201  29.706  26.155  1.00  0.00     0.275 C 
BRANCH  19  20
ATOM     20  O   UNL A   1      33.797  29.436  27.437  1.00  0.00    -0.458 OA
BRANCH  20  21
ATOM     21  C   UNL A   1      34.461  30.483  27.967  1.00  0.00     0.338 C 
ATOM     22  O   UNL A   1      34.012  31.595  28.189  1.00  0.00    -0.246 OA
BRANCH  21  23
ATOM     23  C   UNL A   1      35.843  30.152  28.299  1.00  0.00     0.060 A 
ATOM     24  C   UNL A   1      36.790  30.146  27.271  1.00  0.00     0.016 A 
ATOM     25  C   UNL A   1      36.159  29.706  29.584  1.00  0.00     0.016 A 
ATOM     26  C   UNL A   1      38.081  29.708  27.536  1.00  0.00     0.010 A 
ATOM     27  C   UNL A   1      37.457  29.277  29.849  1.00  0.00     0.010 A 
ATOM     28  C   UNL A   1      38.424  29.286  28.830  1.00  0.00    -0.014 A 
BRANCH  28  29
ATOM     29  C   UNL A   1      39.833  28.989  29.157  1.00  0.00     0.031 A 
ATOM     30  C   UNL A   1      40.715  30.015  29.796  1.00  0.00     0.074 A 
ATOM     31  C   UNL A   1      40.300  27.774  28.819  1.00  0.00     0.049 A 
ATOM     32  N   UNL A   1      41.983  29.929  30.100  1.00  0.00    -0.248 NA
ATOM     33  C   UNL A   1      40.098  31.307  30.132  1.00  0.00     0.031 C 
ATOM     34  C   UNL A   1      39.502  26.716  28.189  1.00  0.00     0.029 A 
ATOM     35  N   UNL A   1      41.545  27.223  28.946  1.00  0.00    -0.354 N 
ATOM     36  C   UNL A   1      42.326  31.156  30.654  1.00  0.00     0.074 A 
ATOM     37  C   UNL A   1      41.131  31.976  30.631  1.00  0.00     0.031 C 
ATOM     38  C   UNL A   1      40.278  25.640  27.995  1.00  0.00     0.029 A 
ATOM     39  C   UNL A   1      41.628  25.946  28.446  1.00  0.00     0.049 A 
ATOM     40  H   UNL A   1      42.306  27.695  29.354  1.00  0.00     0.167 HD
ATOM     41  C   UNL A   1      43.531  31.556  31.130  1.00  0.00     0.031 A 
ATOM     42  C   UNL A   1      42.685  25.119  28.348  1.00  0.00     0.031 A 
ATOM     43  C   UNL A   1      44.711  30.727  31.111  1.00  0.00     0.049 A 
ATOM     44  C   UNL A   1      44.010  25.592  28.863  1.00  0.00     0.074 A 
ATOM     45  C   UNL A   1      45.983  31.023  31.567  1.00  0.00     0.029 A 
ATOM     46  N   UNL A   1      44.760  29.438  30.597  1.00  0.00    -0.354 N 
ATOM     47  N   UNL A   1      44.312  26.748  29.408  1.00  0.00    -0.248 NA
ATOM     48  C   UNL A   1      45.134  24.656  28.759  1.00  0.00     0.031 C 
ATOM     49  C   UNL A   1      46.810  29.928  31.291  1.00  0.00     0.029 A 
ATOM     50  C   UNL A   1      46.044  28.931  30.706  1.00  0.00     0.049 A 
ATOM     51  H   UNL A   1      43.994  28.954  30.211  1.00  0.00     0.167 HD
ATOM     52  C   UNL A   1      45.662  26.677  29.720  1.00  0.00     0.074 A 
ATOM     53  C   UNL A   1      46.111  25.355  29.321  1.00  0.00     0.031 C 
ATOM     54  C   UNL A   1      46.461  27.616  30.283  1.00  0.00     0.031 A 
BRANCH  41  55
ATOM     55  C   UNL A   1      43.635  32.959  31.667  1.00  0.00    -0.014 A 
ATOM     56  C   UNL A   1      43.448  33.232  33.035  1.00  0.00     0.010 A 
ATOM     57  C   UNL A   1      43.934  34.022  30.796  1.00  0.00     0.010 A 
ATOM     58  C   UNL A   1      43.511  34.545  33.513  1.00  0.00     0.020 A 
ATOM     59  C   UNL A   1      44.020  35.335  31.273  1.00  0.00     0.020 A 
ATOM     60  C   UNL A   1      43.785  35.590  32.625  1.00  0.00     0.054 A 
BRANCH  60  61
ATOM     61  S   UNL A   1      43.845  37.288  33.264  1.00  0.00     0.124 S 
ATOM     62  O   UNL A   1      45.110  37.290  33.993  1.00  0.00    -0.237 OA
ATOM     63  O   UNL A   1      43.821  38.093  32.045  1.00  0.00    -0.237 OA
ATOM     64  O   UNL A   1      42.647  37.388  34.096  1.00  0.00    -0.744 OA
ENDBRANCH  60  61
ENDBRANCH  41  55
BRANCH  42  65
ATOM     65  C   UNL A   1      42.504  23.774  27.743  1.00  0.00    -0.014 A 
ATOM     66  C   UNL A   1      42.582  23.603  26.351  1.00  0.00     0.010 A 
ATOM     67  C   UNL A   1      42.337  22.644  28.566  1.00  0.00     0.010 A 
ATOM     68  C   UNL A   1      42.495  22.325  25.791  1.00  0.00     0.020 A 
ATOM     69  C   UNL A   1      42.274  21.363  28.011  1.00  0.00     0.020 A 
ATOM     70  C   UNL A   1      42.347  21.212  26.624  1.00  0.00     0.054 A 
BRANCH  70  71
ATOM     71  S   UNL A   1      42.326  19.556  25.883  1.00  0.00     0.124 S 
ATOM     72  O   UNL A   1      40.955  19.462  25.393  1.00  0.00    -0.237 OA
ATOM     73  O   UNL A   1      43.361  19.652  24.857  1.00  0.00    -0.237 OA
ATOM     74  O   UNL A   1      42.653  18.678  27.005  1.00  0.00    -0.744 OA
ENDBRANCH  70  71
ENDBRANCH  42  65
BRANCH  54  75
ATOM     75  C   UNL A   1      47.897  27.234  30.500  1.00  0.00    -0.014 A 
ATOM     76  C   UNL A   1      48.870  27.505  29.522  1.00  0.00     0.010 A 
ATOM     77  C   UNL A   1      48.279  26.625  31.708  1.00  0.00     0.010 A 
ATOM     78  C   UNL A   1      50.201  27.143  29.737  1.00  0.00     0.020 A 
ATOM     79  C   UNL A   1      49.614  26.282  31.934  1.00  0.00     0.020 A 
ATOM     80  C   UNL A   1      50.564  26.531  30.940  1.00  0.00     0.054 A 
BRANCH  80  81
ATOM     81  S   UNL A   1      52.304  26.101  31.214  1.00  0.00     0.124 S 
ATOM     82  O   UNL A   1      52.857  26.206  29.867  1.00  0.00    -0.237 OA
ATOM     83  O   UNL A   1      52.745  27.127  32.158  1.00  0.00    -0.237 OA
ATOM     84  O   UNL A   1      52.242  24.748  31.761  1.00  0.00    -0.744 OA
ENDBRANCH  80  81
ENDBRANCH  54  75
ENDBRANCH  28  29
ENDBRANCH  21  23
ENDBRANCH  20  21
ENDBRANCH  19  20
ENDBRANCH   1  19
TORSDOF 18
ENDMDL
MODEL 3
REMARK VINA RESULT:      -8.5      3.941      7.042
REMARK SMILES Cc1cc(Br)cc([N+](=O)[O-])c1OCCC(=O)OCCOC(=O)c1ccc(-c2c3nc(c(-c4ccc(S(=O)(=O)[O-])cc4)c4ccc([nH]4)c(-c4ccc(S(=O)(=O)[O-])cc4)c4nc(c(-c5ccc(S(=O)(=O)[O-])cc5)c5ccc2[nH]5)C=C4)C=C3)cc1
REMARK SMILES IDX 18 1 17 2 15 3 16 4 14 5 13 6 12 7 11 8 1 9 2 10 3 11 4 12
REMARK SMILES IDX 7 13 5 14 6 15 8 16 9 17 10 18 19 19 20 20 21 21 22 22 23 23
REMARK SMILES IDX 24 24 82 25 25 26 81 27 26 28 27 29 28 30 75 31 29 32 80 33
REMARK SMILES IDX 74 34 76 35 30 36 79 37 73 38 72 39 31 41 61 42 42 43 60 44
REMARK SMILES IDX 43 45 46 46 59 47 77 48 44 49 45 50 58 52 78 53 47 54 32 55
REMARK SMILES IDX 33 56 41 57 34 58 40 59 35 60 36 61 37 62 38 63 39 64 62 65
REMARK SMILES IDX 63 66 71 67 64 68 70 69 65 70 66 71 67 72 68 73 69 74 48 75
REMARK SMILES IDX 49 76 57 77 50 78 56 79 51 80 52 81 53 82 54 83 55 84
REMARK H PARENT 76 40 46 51
REMARK Flexibility Score: inf
ROOT
ATOM      1  C   UNL A   1      31.792  29.991  26.280  1.00  0.00     0.274 C 
ENDROOT
BRANCH   1   2
ATOM      2  O   UNL A   1      32.368  28.666  26.305  1.00  0.00    -0.462 OA
BRANCH   2   3
ATOM      3  C   UNL A   1      31.706  27.732  27.041  1.00  0.00     0.309 C 
ATOM      4  O   UNL A   1      31.098  27.963  28.078  1.00  0.00    -0.252 OA
BRANCH   3   5
ATOM      5  C   UNL A   1      31.874  26.341  26.478  1.00  0.00     0.164 C 
BRANCH   5   6
ATOM      6  C   UNL A   1      32.720  26.279  25.208  1.00  0.00     0.241 C 
BRANCH   6   7
ATOM      7  O   UNL A   1      32.007  26.007  23.980  1.00  0.00    -0.486 OA
BRANCH   7   8
ATOM      8  C   UNL A   1      31.310  27.069  23.480  1.00  0.00     0.200 A 
ATOM      9  C   UNL A   1      29.043  26.004  24.057  1.00  0.00     0.049 C 
ATOM     10  C   UNL A   1      29.910  27.150  23.604  1.00  0.00    -0.001 A 
ATOM     11  C   UNL A   1      29.249  28.315  23.165  1.00  0.00     0.023 A 
ATOM     12  C   UNL A   1      29.953  29.344  22.548  1.00  0.00     0.025 A 
ATOM     13  C   UNL A   1      31.981  28.060  22.740  1.00  0.00     0.312 A 
ATOM     14  Br  UNL A   1      29.043  30.903  21.989  1.00  0.00    -0.051 Br
ATOM     15  C   UNL A   1      31.311  29.210  22.295  1.00  0.00     0.105 A 
BRANCH  13  16
ATOM     16  N   UNL A   1      33.377  27.895  22.318  1.00  0.00     0.066 N 
ATOM     17  O   UNL A   1      34.204  28.681  22.808  1.00  0.00    -0.258 OA
ATOM     18  O   UNL A   1      33.672  26.986  21.533  1.00  0.00    -0.258 OA
ENDBRANCH  13  16
ENDBRANCH   7   8
ENDBRANCH   6   7
ENDBRANCH   5   6
ENDBRANCH   3   5
ENDBRANCH   2   3
ENDBRANCH   1   2
BRANCH   1  19
ATOM     19  C   UNL A   1      32.578  31.007  27.114  1.00  0.00     0.275 C 
BRANCH  19  20
ATOM     20  O   UNL A   1      33.964  30.651  27.272  1.00  0.00    -0.458 OA
BRANCH  20  21
ATOM     21  C   UNL A   1      34.741  31.653  27.731  1.00  0.00     0.338 C 
ATOM     22  O   UNL A   1      34.529  32.849  27.623  1.00  0.00    -0.246 OA
BRANCH  21  23
ATOM     23  C   UNL A   1      35.919  31.161  28.437  1.00  0.00     0.060 A 
ATOM     24  C   UNL A   1      37.097  31.911  28.365  1.00  0.00     0.016 A 
ATOM     25  C   UNL A   1      35.895  29.898  29.032  1.00  0.00     0.016 A 
ATOM     26  C   UNL A   1      38.265  31.400  28.917  1.00  0.00     0.010 A 
ATOM     27  C   UNL A   1      37.065  29.394  29.593  1.00  0.00     0.010 A 
ATOM     28  C   UNL A   1      38.250  30.146  29.547  1.00  0.00    -0.014 A 
BRANCH  28  29
ATOM     29  C   UNL A   1      39.440  29.681  30.286  1.00  0.00     0.031 A 
ATOM     30  C   UNL A   1      39.890  30.359  31.542  1.00  0.00     0.074 A 
ATOM     31  C   UNL A   1      40.127  28.651  29.760  1.00  0.00     0.049 A 
ATOM     32  N   UNL A   1      40.939  30.106  32.279  1.00  0.00    -0.248 NA
ATOM     33  C   UNL A   1      39.059  31.469  32.033  1.00  0.00     0.031 C 
ATOM     34  C   UNL A   1      39.755  27.936  28.535  1.00  0.00     0.029 A 
ATOM     35  N   UNL A   1      41.273  28.030  30.175  1.00  0.00    -0.354 N 
ATOM     36  C   UNL A   1      40.906  31.029  33.317  1.00  0.00     0.074 A 
ATOM     37  C   UNL A   1      39.737  31.858  33.105  1.00  0.00     0.031 C 
ATOM     38  C   UNL A   1      40.653  26.966  28.304  1.00  0.00     0.029 A 
ATOM     39  C   UNL A   1      41.679  27.020  29.337  1.00  0.00     0.049 A 
ATOM     40  H   UNL A   1      41.759  28.283  30.993  1.00  0.00     0.167 HD
ATOM     41  C   UNL A   1      41.779  31.167  34.345  1.00  0.00     0.031 A 
ATOM     42  C   UNL A   1      42.769  26.234  29.388  1.00  0.00     0.031 A 
ATOM     43  C   UNL A   1      42.952  30.345  34.512  1.00  0.00     0.049 A 
ATOM     44  C   UNL A   1      43.729  26.421  30.524  1.00  0.00     0.074 A 
ATOM     45  C   UNL A   1      43.905  30.391  35.514  1.00  0.00     0.029 A 
ATOM     46  N   UNL A   1      43.333  29.329  33.644  1.00  0.00    -0.354 N 
ATOM     47  N   UNL A   1      43.671  27.282  31.513  1.00  0.00    -0.248 NA
ATOM     48  C   UNL A   1      44.895  25.532  30.558  1.00  0.00     0.031 C 
ATOM     49  C   UNL A   1      44.883  29.431  35.229  1.00  0.00     0.029 A 
ATOM     50  C   UNL A   1      44.516  28.755  34.075  1.00  0.00     0.049 A 
ATOM     51  H   UNL A   1      42.834  29.058  32.839  1.00  0.00     0.167 HD
ATOM     52  C   UNL A   1      44.790  27.036  32.294  1.00  0.00     0.074 A 
ATOM     53  C   UNL A   1      45.495  25.929  31.673  1.00  0.00     0.031 C 
ATOM     54  C   UNL A   1      45.201  27.665  33.422  1.00  0.00     0.031 A 
BRANCH  41  55
ATOM     55  C   UNL A   1      41.517  32.271  35.335  1.00  0.00    -0.014 A 
ATOM     56  C   UNL A   1      40.700  32.062  36.462  1.00  0.00     0.010 A 
ATOM     57  C   UNL A   1      42.103  33.536  35.145  1.00  0.00     0.010 A 
ATOM     58  C   UNL A   1      40.437  33.109  37.352  1.00  0.00     0.020 A 
ATOM     59  C   UNL A   1      41.859  34.580  36.045  1.00  0.00     0.020 A 
ATOM     60  C   UNL A   1      41.009  34.364  37.130  1.00  0.00     0.054 A 
BRANCH  60  61
ATOM     61  S   UNL A   1      40.638  35.712  38.289  1.00  0.00     0.124 S 
ATOM     62  O   UNL A   1      40.018  34.993  39.398  1.00  0.00    -0.237 OA
ATOM     63  O   UNL A   1      41.959  36.273  38.565  1.00  0.00    -0.237 OA
ATOM     64  O   UNL A   1      39.741  36.583  37.532  1.00  0.00    -0.744 OA
ENDBRANCH  60  61
ENDBRANCH  41  55
BRANCH  42  65
ATOM     65  C   UNL A   1      42.982  25.212  28.331  1.00  0.00    -0.014 A 
ATOM     66  C   UNL A   1      43.732  25.519  27.184  1.00  0.00     0.010 A 
ATOM     67  C   UNL A   1      42.503  23.900  28.508  1.00  0.00     0.010 A 
ATOM     68  C   UNL A   1      44.001  24.532  26.231  1.00  0.00     0.020 A 
ATOM     69  C   UNL A   1      42.791  22.906  27.569  1.00  0.00     0.020 A 
ATOM     70  C   UNL A   1      43.534  23.230  26.432  1.00  0.00     0.054 A 
BRANCH  70  71
ATOM     71  S   UNL A   1      43.969  21.945  25.227  1.00  0.00     0.124 S 
ATOM     72  O   UNL A   1      42.953  20.931  25.488  1.00  0.00    -0.237 OA
ATOM     73  O   UNL A   1      43.851  22.648  23.952  1.00  0.00    -0.237 OA
ATOM     74  O   UNL A   1      45.334  21.577  25.600  1.00  0.00    -0.744 OA
ENDBRANCH  70  71
ENDBRANCH  42  65
BRANCH  54  75
ATOM     75  C   UNL A   1      46.468  27.159  34.050  1.00  0.00    -0.014 A 
ATOM     76  C   UNL A   1      47.714  27.712  33.702  1.00  0.00     0.010 A 
ATOM     77  C   UNL A   1      46.407  26.142  35.018  1.00  0.00     0.010 A 
ATOM     78  C   UNL A   1      48.884  27.231  34.293  1.00  0.00     0.020 A 
ATOM     79  C   UNL A   1      47.574  25.674  35.626  1.00  0.00     0.020 A 
ATOM     80  C   UNL A   1      48.807  26.212  35.248  1.00  0.00     0.054 A 
BRANCH  80  81
ATOM     81  S   UNL A   1      50.335  25.627  36.029  1.00  0.00     0.124 S 
ATOM     82  O   UNL A   1      51.348  26.055  35.069  1.00  0.00    -0.237 OA
ATOM     83  O   UNL A   1      50.338  26.338  37.306  1.00  0.00    -0.237 OA
ATOM     84  O   UNL A   1      50.139  24.183  36.128  1.00  0.00    -0.744 OA
ENDBRANCH  80  81
ENDBRANCH  54  75
ENDBRANCH  28  29
ENDBRANCH  21  23
ENDBRANCH  20  21
ENDBRANCH  19  20
ENDBRANCH   1  19
TORSDOF 18
ENDMDL
