MODEL 1
REMARK VINA RESULT:      -9.5      0.000      0.000
REMARK SMILES CC[C@](C)([NH2+]CC(=O)Nc1c(Cl)ccc(C)c1Cl)C(=O)OCCOC(=O)c1ccc(-c2c3nc(c(-c4ccc(S(=O)(=O)[O-])cc4)c4ccc([nH]4)c(-c4ccc(S(=O)(=O)[O-])cc4)c4nc(c(-c5ccc(S(=O)(=O)[O-])cc5)c5ccc2[nH]5)C=C4)C=C3)cc1
REMARK SMILES IDX 22 1 21 2 19 3 20 4 3 5 4 6 2 7 1 8 5 9 6 12 7 13 8 14 9 15
REMARK SMILES IDX 10 17 11 18 17 19 12 20 13 21 15 22 18 23 14 24 16 25 23 26
REMARK SMILES IDX 24 27 25 28 26 29 27 30 28 31 86 32 29 33 85 34 30 35 31 36
REMARK SMILES IDX 32 37 79 38 33 39 84 40 78 41 80 42 34 43 83 44 77 45 76 46
REMARK SMILES IDX 35 48 65 49 46 50 64 51 47 52 50 53 63 54 81 55 48 56 49 57
REMARK SMILES IDX 62 59 82 60 51 61 36 62 37 63 45 64 38 65 44 66 39 67 40 68
REMARK SMILES IDX 41 69 42 70 43 71 66 72 67 73 75 74 68 75 74 76 69 77 70 78
REMARK SMILES IDX 71 79 72 80 73 81 52 82 53 83 61 84 54 85 60 86 55 87 56 88
REMARK SMILES IDX 57 89 58 90 59 91
REMARK H PARENT 5 10 5 11 9 16 80 47 50 58
REMARK Flexibility Score: inf
ROOT
ATOM      1  C   UNL A   1      40.255  21.679  26.347  1.00  0.00     0.274 C 
ENDROOT
BRANCH   1   2
ATOM      2  O   UNL A   1      41.490  21.685  25.600  1.00  0.00    -0.457 OA
BRANCH   2   3
ATOM      3  C   UNL A   1      42.670  21.248  26.174  1.00  0.00     0.367 C 
ATOM      4  O   UNL A   1      42.688  20.266  26.873  1.00  0.00    -0.245 OA
BRANCH   3   5
ATOM      5  C   UNL A   1      43.968  22.113  25.685  1.00  0.00     0.191 C 
ATOM      6  C   UNL A   1      43.271  23.124  24.739  1.00  0.00     0.092 C 
BRANCH   5   7
ATOM      7  C   UNL A   1      45.408  21.850  25.032  1.00  0.00     0.077 C 
ATOM      8  C   UNL A   1      46.376  22.766  24.314  1.00  0.00     0.011 C 
ENDBRANCH   5   7
BRANCH   5   9
ATOM      9  N   UNL A   1      44.448  22.690  26.959  1.00  0.00    -0.325 N 
ATOM     10  H   UNL A   1      45.467  22.698  26.945  1.00  0.00     0.347 HD
ATOM     11  H   UNL A   1      44.073  22.109  27.709  1.00  0.00     0.347 HD
BRANCH   9  12
ATOM     12  C   UNL A   1      43.965  24.096  27.208  1.00  0.00     0.363 C 
BRANCH  12  13
ATOM     13  C   UNL A   1      44.732  25.213  28.062  1.00  0.00     0.279 C 
ATOM     14  O   UNL A   1      44.675  26.371  27.611  1.00  0.00    -0.268 OA
ATOM     15  N   UNL A   1      45.635  25.002  29.099  1.00  0.00    -0.319 N 
ATOM     16  H   UNL A   1      46.546  24.774  28.802  1.00  0.00     0.170 HD
BRANCH  15  17
ATOM     17  C   UNL A   1      45.474  25.059  30.561  1.00  0.00     0.079 A 
ATOM     18  C   UNL A   1      46.146  26.066  31.333  1.00  0.00     0.066 A 
ATOM     19  C   UNL A   1      44.639  24.195  31.300  1.00  0.00     0.069 A 
ATOM     20  Cl  UNL A   1      47.117  27.358  30.736  1.00  0.00    -0.082 Cl
ATOM     21  C   UNL A   1      46.176  26.049  32.731  1.00  0.00     0.023 A 
ATOM     22  C   UNL A   1      44.613  24.237  32.726  1.00  0.00    -0.030 A 
ATOM     23  Cl  UNL A   1      43.534  23.123  30.509  1.00  0.00    -0.082 Cl
ATOM     24  C   UNL A   1      45.428  25.130  33.425  1.00  0.00     0.006 A 
ATOM     25  C   UNL A   1      43.670  23.423  33.566  1.00  0.00     0.046 C 
ENDBRANCH  15  17
ENDBRANCH  12  13
ENDBRANCH   9  12
ENDBRANCH   5   9
ENDBRANCH   3   5
ENDBRANCH   2   3
ENDBRANCH   1   2
BRANCH   1  26
ATOM     26  C   UNL A   1      40.262  22.657  27.515  1.00  0.00     0.275 C 
BRANCH  26  27
ATOM     27  O   UNL A   1      39.326  23.715  27.269  1.00  0.00    -0.458 OA
BRANCH  27  28
ATOM     28  C   UNL A   1      39.866  24.825  26.724  1.00  0.00     0.338 C 
ATOM     29  O   UNL A   1      40.068  25.058  25.541  1.00  0.00    -0.246 OA
BRANCH  28  30
ATOM     30  C   UNL A   1      40.136  25.789  27.790  1.00  0.00     0.060 A 
ATOM     31  C   UNL A   1      39.235  25.889  28.849  1.00  0.00     0.016 A 
ATOM     32  C   UNL A   1      41.209  26.668  27.685  1.00  0.00     0.016 A 
ATOM     33  C   UNL A   1      39.379  26.861  29.815  1.00  0.00     0.010 A 
ATOM     34  C   UNL A   1      41.365  27.648  28.663  1.00  0.00     0.010 A 
ATOM     35  C   UNL A   1      40.442  27.750  29.720  1.00  0.00    -0.014 A 
BRANCH  35  36
ATOM     36  C   UNL A   1      40.509  28.870  30.669  1.00  0.00     0.031 A 
ATOM     37  C   UNL A   1      41.524  28.807  31.761  1.00  0.00     0.074 A 
ATOM     38  C   UNL A   1      39.686  29.921  30.524  1.00  0.00     0.049 A 
ATOM     39  N   UNL A   1      41.598  29.508  32.857  1.00  0.00    -0.248 NA
ATOM     40  C   UNL A   1      42.593  27.805  31.603  1.00  0.00     0.031 C 
ATOM     41  C   UNL A   1      38.763  30.128  29.406  1.00  0.00     0.029 A 
ATOM     42  N   UNL A   1      39.480  31.000  31.339  1.00  0.00    -0.354 N 
ATOM     43  C   UNL A   1      42.674  28.982  33.558  1.00  0.00     0.074 A 
ATOM     44  C   UNL A   1      43.234  27.917  32.755  1.00  0.00     0.031 C 
ATOM     45  C   UNL A   1      38.067  31.254  29.620  1.00  0.00     0.029 A 
ATOM     46  C   UNL A   1      38.429  31.784  30.929  1.00  0.00     0.049 A 
ATOM     47  H   UNL A   1      40.028  31.195  32.133  1.00  0.00     0.167 HD
ATOM     48  C   UNL A   1      43.119  29.348  34.782  1.00  0.00     0.031 A 
ATOM     49  C   UNL A   1      37.777  32.762  31.582  1.00  0.00     0.031 A 
ATOM     50  C   UNL A   1      42.520  30.413  35.539  1.00  0.00     0.049 A 
ATOM     51  C   UNL A   1      38.230  33.107  32.971  1.00  0.00     0.074 A 
ATOM     52  C   UNL A   1      42.857  30.878  36.796  1.00  0.00     0.029 A 
ATOM     53  N   UNL A   1      41.446  31.180  35.100  1.00  0.00    -0.354 N 
ATOM     54  N   UNL A   1      39.200  32.568  33.675  1.00  0.00    -0.248 NA
ATOM     55  C   UNL A   1      37.504  34.179  33.660  1.00  0.00     0.031 C 
ATOM     56  C   UNL A   1      41.950  31.886  37.138  1.00  0.00     0.029 A 
ATOM     57  C   UNL A   1      41.093  32.101  36.067  1.00  0.00     0.049 A 
ATOM     58  H   UNL A   1      41.003  31.080  34.227  1.00  0.00     0.167 HD
ATOM     59  C   UNL A   1      39.218  33.251  34.882  1.00  0.00     0.074 A 
ATOM     60  C   UNL A   1      38.164  34.245  34.810  1.00  0.00     0.031 C 
ATOM     61  C   UNL A   1      40.036  33.078  35.952  1.00  0.00     0.031 A 
BRANCH  48  62
ATOM     62  C   UNL A   1      44.217  28.517  35.392  1.00  0.00    -0.014 A 
ATOM     63  C   UNL A   1      43.949  27.363  36.151  1.00  0.00     0.010 A 
ATOM     64  C   UNL A   1      45.551  28.937  35.240  1.00  0.00     0.010 A 
ATOM     65  C   UNL A   1      44.987  26.685  36.799  1.00  0.00     0.020 A 
ATOM     66  C   UNL A   1      46.596  28.244  35.857  1.00  0.00     0.020 A 
ATOM     67  C   UNL A   1      46.303  27.138  36.658  1.00  0.00     0.054 A 
BRANCH  67  68
ATOM     68  S   UNL A   1      47.629  26.265  37.534  1.00  0.00     0.124 S 
ATOM     69  O   UNL A   1      48.111  27.292  38.452  1.00  0.00    -0.237 OA
ATOM     70  O   UNL A   1      46.921  25.149  38.157  1.00  0.00    -0.237 OA
ATOM     71  O   UNL A   1      48.561  25.891  36.473  1.00  0.00    -0.744 OA
ENDBRANCH  67  68
ENDBRANCH  48  62
BRANCH  49  72
ATOM     72  C   UNL A   1      36.596  33.399  30.941  1.00  0.00    -0.014 A 
ATOM     73  C   UNL A   1      35.423  33.637  31.673  1.00  0.00     0.010 A 
ATOM     74  C   UNL A   1      36.682  33.864  29.613  1.00  0.00     0.010 A 
ATOM     75  C   UNL A   1      34.362  34.342  31.094  1.00  0.00     0.020 A 
ATOM     76  C   UNL A   1      35.635  34.593  29.041  1.00  0.00     0.020 A 
ATOM     77  C   UNL A   1      34.480  34.827  29.788  1.00  0.00     0.054 A 
BRANCH  77  78
ATOM     78  S   UNL A   1      33.134  35.832  29.102  1.00  0.00     0.124 S 
ATOM     79  O   UNL A   1      32.456  36.297  30.308  1.00  0.00    -0.237 OA
ATOM     80  O   UNL A   1      33.857  36.853  28.349  1.00  0.00    -0.237 OA
ATOM     81  O   UNL A   1      32.379  34.884  28.285  1.00  0.00    -0.744 OA
ENDBRANCH  77  78
ENDBRANCH  49  72
BRANCH  61  82
ATOM     82  C   UNL A   1      39.859  34.023  37.109  1.00  0.00    -0.014 A 
ATOM     83  C   UNL A   1      40.459  35.293  37.116  1.00  0.00     0.010 A 
ATOM     84  C   UNL A   1      38.999  33.657  38.159  1.00  0.00     0.010 A 
ATOM     85  C   UNL A   1      40.206  36.180  38.164  1.00  0.00     0.020 A 
ATOM     86  C   UNL A   1      38.722  34.551  39.193  1.00  0.00     0.020 A 
ATOM     87  C   UNL A   1      39.333  35.805  39.192  1.00  0.00     0.054 A 
BRANCH  87  88
ATOM     88  S   UNL A   1      38.958  37.004  40.498  1.00  0.00     0.124 S 
ATOM     89  O   UNL A   1      38.243  38.043  39.762  1.00  0.00    -0.237 OA
ATOM     90  O   UNL A   1      38.148  36.221  41.428  1.00  0.00    -0.237 OA
ATOM     91  O   UNL A   1      40.274  37.393  41.002  1.00  0.00    -0.744 OA
ENDBRANCH  87  88
ENDBRANCH  61  82
ENDBRANCH  35  36
ENDBRANCH  28  30
ENDBRANCH  27  28
ENDBRANCH  26  27
ENDBRANCH   1  26
TORSDOF 19
ENDMDL
MODEL 2
REMARK VINA RESULT:      -9.4      4.515      6.883
REMARK SMILES CC[C@](C)([NH2+]CC(=O)Nc1c(Cl)ccc(C)c1Cl)C(=O)OCCOC(=O)c1ccc(-c2c3nc(c(-c4ccc(S(=O)(=O)[O-])cc4)c4ccc([nH]4)c(-c4ccc(S(=O)(=O)[O-])cc4)c4nc(c(-c5ccc(S(=O)(=O)[O-])cc5)c5ccc2[nH]5)C=C4)C=C3)cc1
REMARK SMILES IDX 22 1 21 2 19 3 20 4 3 5 4 6 2 7 1 8 5 9 6 12 7 13 8 14 9 15
REMARK SMILES IDX 10 17 11 18 17 19 12 20 13 21 15 22 18 23 14 24 16 25 23 26
REMARK SMILES IDX 24 27 25 28 26 29 27 30 28 31 86 32 29 33 85 34 30 35 31 36
REMARK SMILES IDX 32 37 79 38 33 39 84 40 78 41 80 42 34 43 83 44 77 45 76 46
REMARK SMILES IDX 35 48 65 49 46 50 64 51 47 52 50 53 63 54 81 55 48 56 49 57
REMARK SMILES IDX 62 59 82 60 51 61 36 62 37 63 45 64 38 65 44 66 39 67 40 68
REMARK SMILES IDX 41 69 42 70 43 71 66 72 67 73 75 74 68 75 74 76 69 77 70 78
REMARK SMILES IDX 71 79 72 80 73 81 52 82 53 83 61 84 54 85 60 86 55 87 56 88
REMARK SMILES IDX 57 89 58 90 59 91
REMARK H PARENT 5 10 5 11 9 16 80 47 50 58
REMARK Flexibility Score: inf
ROOT
ATOM      1  C   UNL A   1      36.789  20.844  25.461  1.00  0.00     0.274 C 
ENDROOT
BRANCH   1   2
ATOM      2  O   UNL A   1      35.628  21.382  24.795  1.00  0.00    -0.457 OA
BRANCH   2   3
ATOM      3  C   UNL A   1      34.485  20.619  24.632  1.00  0.00     0.367 C 
ATOM      4  O   UNL A   1      34.466  19.460  24.963  1.00  0.00    -0.245 OA
BRANCH   3   5
ATOM      5  C   UNL A   1      33.212  21.495  24.097  1.00  0.00     0.191 C 
ATOM      6  C   UNL A   1      32.064  20.787  24.861  1.00  0.00     0.092 C 
BRANCH   5   7
ATOM      7  C   UNL A   1      32.572  21.949  22.700  1.00  0.00     0.077 C 
ATOM      8  C   UNL A   1      32.793  23.172  21.836  1.00  0.00     0.011 C 
ENDBRANCH   5   7
BRANCH   5   9
ATOM      9  N   UNL A   1      33.542  22.847  24.596  1.00  0.00    -0.325 N 
ATOM     10  H   UNL A   1      33.220  23.530  23.910  1.00  0.00     0.347 HD
ATOM     11  H   UNL A   1      34.553  22.877  24.730  1.00  0.00     0.347 HD
BRANCH   9  12
ATOM     12  C   UNL A   1      32.912  23.174  25.926  1.00  0.00     0.363 C 
BRANCH  12  13
ATOM     13  C   UNL A   1      32.051  24.484  26.258  1.00  0.00     0.279 C 
ATOM     14  O   UNL A   1      31.354  24.425  27.286  1.00  0.00    -0.268 OA
ATOM     15  N   UNL A   1      31.816  25.568  25.418  1.00  0.00    -0.319 N 
ATOM     16  H   UNL A   1      31.107  25.417  24.752  1.00  0.00     0.170 HD
BRANCH  15  17
ATOM     17  C   UNL A   1      32.436  26.901  25.348  1.00  0.00     0.079 A 
ATOM     18  C   UNL A   1      33.224  27.283  24.210  1.00  0.00     0.066 A 
ATOM     19  C   UNL A   1      32.277  27.902  26.329  1.00  0.00     0.069 A 
ATOM     20  Cl  UNL A   1      33.496  26.363  22.779  1.00  0.00    -0.082 Cl
ATOM     21  C   UNL A   1      33.983  28.458  24.179  1.00  0.00     0.023 A 
ATOM     22  C   UNL A   1      32.993  29.133  26.250  1.00  0.00    -0.030 A 
ATOM     23  Cl  UNL A   1      31.128  27.723  27.613  1.00  0.00    -0.082 Cl
ATOM     24  C   UNL A   1      33.882  29.371  25.199  1.00  0.00     0.006 A 
ATOM     25  C   UNL A   1      32.787  30.279  27.200  1.00  0.00     0.046 C 
ENDBRANCH  15  17
ENDBRANCH  12  13
ENDBRANCH   9  12
ENDBRANCH   5   9
ENDBRANCH   3   5
ENDBRANCH   2   3
ENDBRANCH   1   2
BRANCH   1  26
ATOM     26  C   UNL A   1      38.083  21.536  25.049  1.00  0.00     0.275 C 
BRANCH  26  27
ATOM     27  O   UNL A   1      38.313  22.677  25.886  1.00  0.00    -0.458 OA
BRANCH  27  28
ATOM     28  C   UNL A   1      39.606  22.885  26.208  1.00  0.00     0.338 C 
ATOM     29  O   UNL A   1      40.567  22.175  25.948  1.00  0.00    -0.246 OA
BRANCH  28  30
ATOM     30  C   UNL A   1      39.720  24.171  26.894  1.00  0.00     0.060 A 
ATOM     31  C   UNL A   1      40.610  25.121  26.394  1.00  0.00     0.016 A 
ATOM     32  C   UNL A   1      39.041  24.393  28.086  1.00  0.00     0.016 A 
ATOM     33  C   UNL A   1      40.843  26.300  27.069  1.00  0.00     0.010 A 
ATOM     34  C   UNL A   1      39.266  25.586  28.770  1.00  0.00     0.010 A 
ATOM     35  C   UNL A   1      40.177  26.532  28.265  1.00  0.00    -0.014 A 
BRANCH  35  36
ATOM     36  C   UNL A   1      40.536  27.721  29.050  1.00  0.00     0.031 A 
ATOM     37  C   UNL A   1      41.796  27.684  29.849  1.00  0.00     0.074 A 
ATOM     38  C   UNL A   1      39.749  28.809  29.016  1.00  0.00     0.049 A 
ATOM     39  N   UNL A   1      42.181  28.469  30.815  1.00  0.00    -0.248 NA
ATOM     40  C   UNL A   1      42.743  26.603  29.524  1.00  0.00     0.031 C 
ATOM     41  C   UNL A   1      38.577  28.981  28.154  1.00  0.00     0.029 A 
ATOM     42  N   UNL A   1      39.808  29.964  29.745  1.00  0.00    -0.354 N 
ATOM     43  C   UNL A   1      43.378  27.933  31.269  1.00  0.00     0.074 A 
ATOM     44  C   UNL A   1      43.665  26.770  30.459  1.00  0.00     0.031 C 
ATOM     45  C   UNL A   1      38.009  30.166  28.425  1.00  0.00     0.029 A 
ATOM     46  C   UNL A   1      38.721  30.779  29.540  1.00  0.00     0.049 A 
ATOM     47  H   UNL A   1      40.550  30.189  30.350  1.00  0.00     0.167 HD
ATOM     48  C   UNL A   1      44.141  28.371  32.297  1.00  0.00     0.031 A 
ATOM     49  C   UNL A   1      38.302  31.851  30.237  1.00  0.00     0.031 A 
ATOM     50  C   UNL A   1      43.804  29.534  33.072  1.00  0.00     0.049 A 
ATOM     51  C   UNL A   1      39.114  32.281  31.424  1.00  0.00     0.074 A 
ATOM     52  C   UNL A   1      44.475  30.081  34.150  1.00  0.00     0.029 A 
ATOM     53  N   UNL A   1      42.686  30.331  32.846  1.00  0.00    -0.354 N 
ATOM     54  N   UNL A   1      40.209  31.740  31.908  1.00  0.00    -0.248 NA
ATOM     55  C   UNL A   1      38.637  33.453  32.165  1.00  0.00     0.031 C 
ATOM     56  C   UNL A   1      43.731  31.173  34.609  1.00  0.00     0.029 A 
ATOM     57  C   UNL A   1      42.635  31.352  33.775  1.00  0.00     0.049 A 
ATOM     58  H   UNL A   1      42.028  30.188  32.129  1.00  0.00     0.167 HD
ATOM     59  C   UNL A   1      40.569  32.520  32.997  1.00  0.00     0.074 A 
ATOM     60  C   UNL A   1      39.575  33.573  33.097  1.00  0.00     0.031 C 
ATOM     61  C   UNL A   1      41.627  32.385  33.836  1.00  0.00     0.031 A 
BRANCH  48  62
ATOM     62  C   UNL A   1      45.323  27.524  32.687  1.00  0.00    -0.014 A 
ATOM     63  C   UNL A   1      45.213  26.462  33.604  1.00  0.00     0.010 A 
ATOM     64  C   UNL A   1      46.587  27.836  32.156  1.00  0.00     0.010 A 
ATOM     65  C   UNL A   1      46.354  25.774  34.030  1.00  0.00     0.020 A 
ATOM     66  C   UNL A   1      47.726  27.130  32.553  1.00  0.00     0.020 A 
ATOM     67  C   UNL A   1      47.605  26.122  33.511  1.00  0.00     0.054 A 
BRANCH  67  68
ATOM     68  S   UNL A   1      49.075  25.240  34.104  1.00  0.00     0.124 S 
ATOM     69  O   UNL A   1      49.552  24.595  32.884  1.00  0.00    -0.237 OA
ATOM     70  O   UNL A   1      49.915  26.321  34.612  1.00  0.00    -0.237 OA
ATOM     71  O   UNL A   1      48.549  24.333  35.121  1.00  0.00    -0.744 OA
ENDBRANCH  67  68
ENDBRANCH  48  62
BRANCH  49  72
ATOM     72  C   UNL A   1      37.024  32.508  29.857  1.00  0.00    -0.014 A 
ATOM     73  C   UNL A   1      35.837  32.226  30.550  1.00  0.00     0.010 A 
ATOM     74  C   UNL A   1      37.013  33.501  28.857  1.00  0.00     0.010 A 
ATOM     75  C   UNL A   1      34.666  32.935  30.263  1.00  0.00     0.020 A 
ATOM     76  C   UNL A   1      35.852  34.232  28.587  1.00  0.00     0.020 A 
ATOM     77  C   UNL A   1      34.685  33.943  29.293  1.00  0.00     0.054 A 
BRANCH  77  78
ATOM     78  S   UNL A   1      33.182  34.922  29.019  1.00  0.00     0.124 S 
ATOM     79  O   UNL A   1      32.486  34.134  28.007  1.00  0.00    -0.237 OA
ATOM     80  O   UNL A   1      32.569  34.935  30.344  1.00  0.00    -0.237 OA
ATOM     81  O   UNL A   1      33.692  36.214  28.565  1.00  0.00    -0.744 OA
ENDBRANCH  77  78
ENDBRANCH  49  72
BRANCH  61  82
ATOM     82  C   UNL A   1      41.797  33.433  34.901  1.00  0.00    -0.014 A 
ATOM     83  C   UNL A   1      41.292  33.248  36.198  1.00  0.00     0.010 A 
ATOM     84  C   UNL A   1      42.559  34.579  34.611  1.00  0.00     0.010 A 
ATOM     85  C   UNL A   1      41.540  34.201  37.189  1.00  0.00     0.020 A 
ATOM     86  C   UNL A   1      42.833  35.519  35.604  1.00  0.00     0.020 A 
ATOM     87  C   UNL A   1      42.315  35.326  36.886  1.00  0.00     0.054 A 
BRANCH  87  88
ATOM     88  S   UNL A   1      42.691  36.507  38.209  1.00  0.00     0.124 S 
ATOM     89  O   UNL A   1      43.684  37.370  37.573  1.00  0.00    -0.237 OA
ATOM     90  O   UNL A   1      41.393  37.124  38.464  1.00  0.00    -0.237 OA
ATOM     91  O   UNL A   1      43.199  35.667  39.291  1.00  0.00    -0.744 OA
ENDBRANCH  87  88
ENDBRANCH  61  82
ENDBRANCH  35  36
ENDBRANCH  28  30
ENDBRANCH  27  28
ENDBRANCH  26  27
ENDBRANCH   1  26
TORSDOF 19
ENDMDL
MODEL 3
REMARK VINA RESULT:      -9.1      6.710     12.874
REMARK SMILES CC[C@](C)([NH2+]CC(=O)Nc1c(Cl)ccc(C)c1Cl)C(=O)OCCOC(=O)c1ccc(-c2c3nc(c(-c4ccc(S(=O)(=O)[O-])cc4)c4ccc([nH]4)c(-c4ccc(S(=O)(=O)[O-])cc4)c4nc(c(-c5ccc(S(=O)(=O)[O-])cc5)c5ccc2[nH]5)C=C4)C=C3)cc1
REMARK SMILES IDX 22 1 21 2 19 3 20 4 3 5 4 6 2 7 1 8 5 9 6 12 7 13 8 14 9 15
REMARK SMILES IDX 10 17 11 18 17 19 12 20 13 21 15 22 18 23 14 24 16 25 23 26
REMARK SMILES IDX 24 27 25 28 26 29 27 30 28 31 86 32 29 33 85 34 30 35 31 36
REMARK SMILES IDX 32 37 79 38 33 39 84 40 78 41 80 42 34 43 83 44 77 45 76 46
REMARK SMILES IDX 35 48 65 49 46 50 64 51 47 52 50 53 63 54 81 55 48 56 49 57
REMARK SMILES IDX 62 59 82 60 51 61 36 62 37 63 45 64 38 65 44 66 39 67 40 68
REMARK SMILES IDX 41 69 42 70 43 71 66 72 67 73 75 74 68 75 74 76 69 77 70 78
REMARK SMILES IDX 71 79 72 80 73 81 52 82 53 83 61 84 54 85 60 86 55 87 56 88
REMARK SMILES IDX 57 89 58 90 59 91
REMARK H PARENT 5 10 5 11 9 16 80 47 50 58
REMARK Flexibility Score: inf
ROOT
ATOM      1  C   UNL A   1      32.796  27.537  26.673  1.00  0.00     0.274 C 
ENDROOT
BRANCH   1   2
ATOM      2  O   UNL A   1      33.254  26.283  26.125  1.00  0.00    -0.457 OA
BRANCH   2   3
ATOM      3  C   UNL A   1      32.660  25.088  26.490  1.00  0.00     0.367 C 
ATOM      4  O   UNL A   1      31.985  25.016  27.487  1.00  0.00    -0.245 OA
BRANCH   3   5
ATOM      5  C   UNL A   1      32.874  23.910  25.377  1.00  0.00     0.191 C 
ATOM      6  C   UNL A   1      32.020  22.785  26.015  1.00  0.00     0.092 C 
BRANCH   5   7
ATOM      7  C   UNL A   1      34.086  23.156  24.648  1.00  0.00     0.077 C 
ATOM      8  C   UNL A   1      35.185  23.656  23.735  1.00  0.00     0.011 C 
ENDBRANCH   5   7
BRANCH   5   9
ATOM      9  N   UNL A   1      32.285  24.523  24.168  1.00  0.00    -0.325 N 
ATOM     10  H   UNL A   1      32.662  24.046  23.350  1.00  0.00     0.347 HD
ATOM     11  H   UNL A   1      32.525  25.514  24.188  1.00  0.00     0.347 HD
BRANCH   9  12
ATOM     12  C   UNL A   1      30.780  24.436  24.116  1.00  0.00     0.363 C 
BRANCH  12  13
ATOM     13  C   UNL A   1      29.760  25.613  24.490  1.00  0.00     0.279 C 
ATOM     14  O   UNL A   1      29.449  25.696  25.691  1.00  0.00    -0.268 OA
ATOM     15  N   UNL A   1      29.013  26.386  23.608  1.00  0.00    -0.319 N 
ATOM     16  H   UNL A   1      28.197  25.947  23.275  1.00  0.00     0.170 HD
BRANCH  15  17
ATOM     17  C   UNL A   1      29.223  27.746  23.082  1.00  0.00     0.079 A 
ATOM     18  C   UNL A   1      30.455  28.098  22.435  1.00  0.00     0.066 A 
ATOM     19  C   UNL A   1      28.252  28.769  23.120  1.00  0.00     0.069 A 
ATOM     20  Cl  UNL A   1      31.784  27.056  22.091  1.00  0.00    -0.082 Cl
ATOM     21  C   UNL A   1      30.775  29.415  22.088  1.00  0.00     0.023 A 
ATOM     22  C   UNL A   1      28.560  30.093  22.689  1.00  0.00    -0.030 A 
ATOM     23  Cl  UNL A   1      26.619  28.437  23.591  1.00  0.00    -0.082 Cl
ATOM     24  C   UNL A   1      29.840  30.411  22.230  1.00  0.00     0.006 A 
ATOM     25  C   UNL A   1      27.545  31.198  22.603  1.00  0.00     0.046 C 
ENDBRANCH  15  17
ENDBRANCH  12  13
ENDBRANCH   9  12
ENDBRANCH   5   9
ENDBRANCH   3   5
ENDBRANCH   2   3
ENDBRANCH   1   2
BRANCH   1  26
ATOM     26  C   UNL A   1      33.862  28.625  26.638  1.00  0.00     0.275 C 
BRANCH  26  27
ATOM     27  O   UNL A   1      33.676  29.524  27.739  1.00  0.00    -0.458 OA
BRANCH  27  28
ATOM     28  C   UNL A   1      34.593  30.511  27.818  1.00  0.00     0.338 C 
ATOM     29  O   UNL A   1      34.401  31.718  27.777  1.00  0.00    -0.246 OA
BRANCH  28  30
ATOM     30  C   UNL A   1      35.910  29.914  28.032  1.00  0.00     0.060 A 
ATOM     31  C   UNL A   1      36.229  29.426  29.299  1.00  0.00     0.016 A 
ATOM     32  C   UNL A   1      36.865  29.941  27.021  1.00  0.00     0.016 A 
ATOM     33  C   UNL A   1      37.495  28.964  29.585  1.00  0.00     0.010 A 
ATOM     34  C   UNL A   1      38.145  29.467  27.301  1.00  0.00     0.010 A 
ATOM     35  C   UNL A   1      38.461  28.991  28.588  1.00  0.00    -0.014 A 
BRANCH  35  36
ATOM     36  C   UNL A   1      39.842  28.633  28.937  1.00  0.00     0.031 A 
ATOM     37  C   UNL A   1      40.717  29.689  29.525  1.00  0.00     0.074 A 
ATOM     38  C   UNL A   1      40.277  27.377  28.745  1.00  0.00     0.049 A 
ATOM     39  N   UNL A   1      42.013  29.706  29.654  1.00  0.00    -0.248 NA
ATOM     40  C   UNL A   1      40.037  30.899  30.020  1.00  0.00     0.031 C 
ATOM     41  C   UNL A   1      39.449  26.250  28.309  1.00  0.00     0.029 A 
ATOM     42  N   UNL A   1      41.531  26.847  28.873  1.00  0.00    -0.354 N 
ATOM     43  C   UNL A   1      42.315  30.958  30.173  1.00  0.00     0.074 A 
ATOM     44  C   UNL A   1      41.065  31.663  30.353  1.00  0.00     0.031 C 
ATOM     45  C   UNL A   1      40.227  25.165  28.177  1.00  0.00     0.029 A 
ATOM     46  C   UNL A   1      41.610  25.551  28.426  1.00  0.00     0.049 A 
ATOM     47  H   UNL A   1      42.295  27.342  29.247  1.00  0.00     0.167 HD
ATOM     48  C   UNL A   1      43.539  31.468  30.437  1.00  0.00     0.031 A 
ATOM     49  C   UNL A   1      42.691  24.794  28.162  1.00  0.00     0.031 A 
ATOM     50  C   UNL A   1      44.751  30.721  30.234  1.00  0.00     0.049 A 
ATOM     51  C   UNL A   1      44.047  25.398  28.384  1.00  0.00     0.074 A 
ATOM     52  C   UNL A   1      46.058  31.118  30.443  1.00  0.00     0.029 A 
ATOM     53  N   UNL A   1      44.797  29.412  29.766  1.00  0.00    -0.354 N 
ATOM     54  N   UNL A   1      44.347  26.605  28.806  1.00  0.00    -0.248 NA
ATOM     55  C   UNL A   1      45.207  24.551  28.092  1.00  0.00     0.031 C 
ATOM     56  C   UNL A   1      46.894  30.069  30.047  1.00  0.00     0.029 A 
ATOM     57  C   UNL A   1      46.109  28.992  29.659  1.00  0.00     0.049 A 
ATOM     58  H   UNL A   1      44.010  28.866  29.543  1.00  0.00     0.167 HD
ATOM     59  C   UNL A   1      45.733  26.657  28.853  1.00  0.00     0.074 A 
ATOM     60  C   UNL A   1      46.209  25.356  28.421  1.00  0.00     0.031 C 
ATOM     61  C   UNL A   1      46.539  27.683  29.227  1.00  0.00     0.031 A 
BRANCH  48  62
ATOM     62  C   UNL A   1      43.608  32.912  30.857  1.00  0.00    -0.014 A 
ATOM     63  C   UNL A   1      43.653  33.962  29.921  1.00  0.00     0.010 A 
ATOM     64  C   UNL A   1      43.679  33.219  32.228  1.00  0.00     0.010 A 
ATOM     65  C   UNL A   1      43.834  35.282  30.348  1.00  0.00     0.020 A 
ATOM     66  C   UNL A   1      43.827  34.540  32.661  1.00  0.00     0.020 A 
ATOM     67  C   UNL A   1      43.933  35.560  31.715  1.00  0.00     0.054 A 
BRANCH  67  68
ATOM     68  S   UNL A   1      44.203  37.275  32.243  1.00  0.00     0.124 S 
ATOM     69  O   UNL A   1      43.943  38.013  31.011  1.00  0.00    -0.237 OA
ATOM     70  O   UNL A   1      43.208  37.445  33.298  1.00  0.00    -0.237 OA
ATOM     71  O   UNL A   1      45.592  37.285  32.693  1.00  0.00    -0.744 OA
ENDBRANCH  67  68
ENDBRANCH  48  62
BRANCH  49  72
ATOM     72  C   UNL A   1      42.500  23.435  27.589  1.00  0.00    -0.014 A 
ATOM     73  C   UNL A   1      42.672  23.203  26.216  1.00  0.00     0.010 A 
ATOM     74  C   UNL A   1      42.244  22.342  28.441  1.00  0.00     0.010 A 
ATOM     75  C   UNL A   1      42.606  21.902  25.706  1.00  0.00     0.020 A 
ATOM     76  C   UNL A   1      42.206  21.037  27.940  1.00  0.00     0.020 A 
ATOM     77  C   UNL A   1      42.388  20.827  26.573  1.00  0.00     0.054 A 
BRANCH  77  78
ATOM     78  S   UNL A   1      42.418  19.141  25.903  1.00  0.00     0.124 S 
ATOM     79  O   UNL A   1      42.969  18.380  27.019  1.00  0.00    -0.237 OA
ATOM     80  O   UNL A   1      41.010  18.897  25.603  1.00  0.00    -0.237 OA
ATOM     81  O   UNL A   1      43.285  19.253  24.732  1.00  0.00    -0.744 OA
ENDBRANCH  77  78
ENDBRANCH  49  72
BRANCH  61  82
ATOM     82  C   UNL A   1      48.021  27.421  29.238  1.00  0.00    -0.014 A 
ATOM     83  C   UNL A   1      48.820  27.689  28.114  1.00  0.00     0.010 A 
ATOM     84  C   UNL A   1      48.625  26.988  30.431  1.00  0.00     0.010 A 
ATOM     85  C   UNL A   1      50.204  27.517  28.183  1.00  0.00     0.020 A 
ATOM     86  C   UNL A   1      50.010  26.843  30.513  1.00  0.00     0.020 A 
ATOM     87  C   UNL A   1      50.790  27.102  29.385  1.00  0.00     0.054 A 
BRANCH  87  88
ATOM     88  S   UNL A   1      52.595  26.965  29.473  1.00  0.00     0.124 S 
ATOM     89  O   UNL A   1      53.006  28.367  29.496  1.00  0.00    -0.237 OA
ATOM     90  O   UNL A   1      52.799  26.229  30.718  1.00  0.00    -0.237 OA
ATOM     91  O   UNL A   1      52.948  26.233  28.258  1.00  0.00    -0.744 OA
ENDBRANCH  87  88
ENDBRANCH  61  82
ENDBRANCH  35  36
ENDBRANCH  28  30
ENDBRANCH  27  28
ENDBRANCH  26  27
ENDBRANCH   1  26
TORSDOF 19
ENDMDL
