MODEL 1
REMARK VINA RESULT:     -11.5      0.000      0.000
REMARK SMILES Cc1cc2c(c(C)c1Br)C=C(C(=O)OCCOC(=O)c1ccc(-c3c4nc(c(-c5ccc(S(=O)(=O)[O-])cc5)c5ccc([nH]5)c(-c5ccc(S(=O)(=O)[O-])cc5)c5nc(c(-c6ccc(S(=O)(=O)[O-])cc6)c6ccc3[nH]6)C=C5)C=C4)cc1)[C@@H](C(F)(F)F)O2
REMARK SMILES IDX 16 1 15 2 14 3 12 4 13 5 11 6 1 7 2 8 3 9 8 10 4 11 6 12
REMARK SMILES IDX 9 13 5 14 85 15 7 16 10 17 80 18 81 19 82 20 83 21 84 22
REMARK SMILES IDX 17 23 18 24 19 25 20 26 21 27 79 28 22 29 78 30 23 31 24 32
REMARK SMILES IDX 25 33 72 34 26 35 77 36 71 37 73 38 27 39 76 40 70 41 69 42
REMARK SMILES IDX 28 44 58 45 39 46 57 47 40 48 43 49 56 50 74 51 41 52 42 53
REMARK SMILES IDX 55 55 75 56 44 57 29 58 30 59 38 60 31 61 37 62 32 63 33 64
REMARK SMILES IDX 34 65 35 66 36 67 59 68 60 69 68 70 61 71 67 72 62 73 63 74
REMARK SMILES IDX 64 75 65 76 66 77 45 78 46 79 54 80 47 81 53 82 48 83 49 84
REMARK SMILES IDX 50 85 51 86 52 87
REMARK H PARENT 73 43 43 54
REMARK Flexibility Score: inf
ROOT
ATOM      1  C   UNL A   1      32.682  31.391  27.015  1.00  0.00     0.275 C 
ENDROOT
BRANCH   1   2
ATOM      2  C   UNL A   1      31.639  30.634  26.194  1.00  0.00     0.275 C 
BRANCH   2   3
ATOM      3  O   UNL A   1      31.792  29.205  26.331  1.00  0.00    -0.459 OA
BRANCH   3   4
ATOM      4  C   UNL A   1      32.315  28.570  25.256  1.00  0.00     0.338 C 
ATOM      5  O   UNL A   1      32.892  29.090  24.314  1.00  0.00    -0.246 OA
BRANCH   4   6
ATOM      6  C   UNL A   1      32.089  27.115  25.349  1.00  0.00     0.087 C 
ATOM      7  C   UNL A   1      32.168  20.639  24.909  1.00  0.00     0.046 C 
ATOM      8  C   UNL A   1      32.494  22.099  25.075  1.00  0.00    -0.033 A 
ATOM      9  C   UNL A   1      31.435  23.016  25.125  1.00  0.00     0.051 A 
ATOM     10  C   UNL A   1      33.815  22.573  25.210  1.00  0.00     0.024 A 
ATOM     11  C   UNL A   1      31.671  24.382  25.256  1.00  0.00     0.128 A 
ATOM     12  C   UNL A   1      34.078  23.958  25.334  1.00  0.00    -0.026 A 
ATOM     13  Br  UNL A   1      35.242  21.295  25.233  1.00  0.00    -0.050 Br
ATOM     14  C   UNL A   1      32.980  24.864  25.344  1.00  0.00     0.021 A 
ATOM     15  O   UNL A   1      30.550  25.165  25.303  1.00  0.00    -0.475 OA
ATOM     16  C   UNL A   1      35.485  24.494  25.460  1.00  0.00     0.046 C 
ATOM     17  C   UNL A   1      33.158  26.312  25.418  1.00  0.00     0.027 C 
ATOM     18  C   UNL A   1      30.689  26.606  25.210  1.00  0.00     0.316 C 
BRANCH  18  19
ATOM     19  C   UNL A   1      30.042  27.083  23.900  1.00  0.00     0.430 C 
ATOM     20  F   UNL A   1      28.873  26.438  23.663  1.00  0.00    -0.167 F 
ATOM     21  F   UNL A   1      29.742  28.406  23.944  1.00  0.00    -0.167 F 
ATOM     22  F   UNL A   1      30.839  26.884  22.827  1.00  0.00    -0.167 F 
ENDBRANCH  18  19
ENDBRANCH   4   6
ENDBRANCH   3   4
ENDBRANCH   2   3
ENDBRANCH   1   2
BRANCH   1  23
ATOM     23  O   UNL A   1      33.550  30.466  27.694  1.00  0.00    -0.458 OA
BRANCH  23  24
ATOM     24  C   UNL A   1      34.533  31.040  28.426  1.00  0.00     0.338 C 
ATOM     25  O   UNL A   1      34.464  32.078  29.063  1.00  0.00    -0.246 OA
BRANCH  24  26
ATOM     26  C   UNL A   1      35.732  30.190  28.441  1.00  0.00     0.060 A 
ATOM     27  C   UNL A   1      36.155  29.655  29.650  1.00  0.00     0.016 A 
ATOM     28  C   UNL A   1      36.563  30.130  27.327  1.00  0.00     0.016 A 
ATOM     29  C   UNL A   1      37.475  29.240  29.796  1.00  0.00     0.010 A 
ATOM     30  C   UNL A   1      37.844  29.573  27.447  1.00  0.00     0.010 A 
ATOM     31  C   UNL A   1      38.353  29.197  28.705  1.00  0.00    -0.014 A 
BRANCH  31  32
ATOM     32  C   UNL A   1      39.802  28.851  28.876  1.00  0.00     0.031 A 
ATOM     33  C   UNL A   1      40.766  29.882  29.430  1.00  0.00     0.074 A 
ATOM     34  C   UNL A   1      40.280  27.621  28.586  1.00  0.00     0.049 A 
ATOM     35  N   UNL A   1      42.074  29.904  29.384  1.00  0.00    -0.248 NA
ATOM     36  C   UNL A   1      40.177  31.051  30.108  1.00  0.00     0.031 C 
ATOM     37  C   UNL A   1      39.486  26.469  28.148  1.00  0.00     0.029 A 
ATOM     38  N   UNL A   1      41.564  27.129  28.630  1.00  0.00    -0.354 N 
ATOM     39  C   UNL A   1      42.458  31.118  29.949  1.00  0.00     0.074 A 
ATOM     40  C   UNL A   1      41.244  31.805  30.333  1.00  0.00     0.031 C 
ATOM     41  C   UNL A   1      40.283  25.399  28.031  1.00  0.00     0.029 A 
ATOM     42  C   UNL A   1      41.663  25.816  28.230  1.00  0.00     0.049 A 
ATOM     43  H   UNL A   1      42.337  27.665  28.918  1.00  0.00     0.167 HD
ATOM     44  C   UNL A   1      43.707  31.616  30.126  1.00  0.00     0.031 A 
ATOM     45  C   UNL A   1      42.737  25.044  27.971  1.00  0.00     0.031 A 
ATOM     46  C   UNL A   1      44.914  30.897  29.802  1.00  0.00     0.049 A 
ATOM     47  C   UNL A   1      44.109  25.642  28.080  1.00  0.00     0.074 A 
ATOM     48  C   UNL A   1      46.228  31.317  29.930  1.00  0.00     0.029 A 
ATOM     49  N   UNL A   1      44.957  29.601  29.315  1.00  0.00    -0.354 N 
ATOM     50  N   UNL A   1      44.456  26.840  28.483  1.00  0.00    -0.248 NA
ATOM     51  C   UNL A   1      45.233  24.791  27.666  1.00  0.00     0.031 C 
ATOM     52  C   UNL A   1      47.062  30.291  29.470  1.00  0.00     0.029 A 
ATOM     53  C   UNL A   1      46.272  29.211  29.117  1.00  0.00     0.049 A 
ATOM     54  H   UNL A   1      44.168  29.038  29.136  1.00  0.00     0.167 HD
ATOM     55  C   UNL A   1      45.842  26.887  28.372  1.00  0.00     0.074 A 
ATOM     56  C   UNL A   1      46.268  25.586  27.899  1.00  0.00     0.031 C 
ATOM     57  C   UNL A   1      46.682  27.920  28.627  1.00  0.00     0.031 A 
BRANCH  44  58
ATOM     58  C   UNL A   1      43.843  33.025  30.649  1.00  0.00    -0.014 A 
ATOM     59  C   UNL A   1      44.045  33.296  32.014  1.00  0.00     0.010 A 
ATOM     60  C   UNL A   1      43.834  34.100  29.737  1.00  0.00     0.010 A 
ATOM     61  C   UNL A   1      44.202  34.614  32.459  1.00  0.00     0.020 A 
ATOM     62  C   UNL A   1      44.021  35.415  30.174  1.00  0.00     0.020 A 
ATOM     63  C   UNL A   1      44.191  35.665  31.535  1.00  0.00     0.054 A 
BRANCH  63  64
ATOM     64  S   UNL A   1      44.433  37.359  32.140  1.00  0.00     0.124 S 
ATOM     65  O   UNL A   1      43.414  37.456  33.181  1.00  0.00    -0.237 OA
ATOM     66  O   UNL A   1      45.814  37.335  32.613  1.00  0.00    -0.237 OA
ATOM     67  O   UNL A   1      44.196  38.187  30.959  1.00  0.00    -0.744 OA
ENDBRANCH  63  64
ENDBRANCH  44  58
BRANCH  45  68
ATOM     68  C   UNL A   1      42.545  23.644  27.494  1.00  0.00    -0.014 A 
ATOM     69  C   UNL A   1      42.586  23.344  26.122  1.00  0.00     0.010 A 
ATOM     70  C   UNL A   1      42.349  22.597  28.416  1.00  0.00     0.010 A 
ATOM     71  C   UNL A   1      42.441  22.025  25.682  1.00  0.00     0.020 A 
ATOM     72  C   UNL A   1      42.242  21.273  27.982  1.00  0.00     0.020 A 
ATOM     73  C   UNL A   1      42.282  20.997  26.616  1.00  0.00     0.054 A 
BRANCH  73  74
ATOM     74  S   UNL A   1      42.177  19.285  26.023  1.00  0.00     0.124 S 
ATOM     75  O   UNL A   1      40.745  19.135  25.781  1.00  0.00    -0.237 OA
ATOM     76  O   UNL A   1      43.022  19.314  24.833  1.00  0.00    -0.237 OA
ATOM     77  O   UNL A   1      42.709  18.504  27.138  1.00  0.00    -0.744 OA
ENDBRANCH  73  74
ENDBRANCH  45  68
BRANCH  57  78
ATOM     78  C   UNL A   1      48.151  27.674  28.408  1.00  0.00    -0.014 A 
ATOM     79  C   UNL A   1      48.948  27.102  29.417  1.00  0.00     0.010 A 
ATOM     80  C   UNL A   1      48.740  28.005  27.174  1.00  0.00     0.010 A 
ATOM     81  C   UNL A   1      50.316  26.911  29.212  1.00  0.00     0.020 A 
ATOM     82  C   UNL A   1      50.102  27.785  26.955  1.00  0.00     0.020 A 
ATOM     83  C   UNL A   1      50.886  27.259  27.983  1.00  0.00     0.054 A 
BRANCH  83  84
ATOM     84  S   UNL A   1      52.663  26.993  27.744  1.00  0.00     0.124 S 
ATOM     85  O   UNL A   1      53.171  27.091  29.110  1.00  0.00    -0.237 OA
ATOM     86  O   UNL A   1      52.710  25.660  27.150  1.00  0.00    -0.237 OA
ATOM     87  O   UNL A   1      53.061  28.081  26.853  1.00  0.00    -0.744 OA
ENDBRANCH  83  84
ENDBRANCH  57  78
ENDBRANCH  31  32
ENDBRANCH  24  26
ENDBRANCH  23  24
ENDBRANCH   1  23
TORSDOF 15
ENDMDL
MODEL 2
REMARK VINA RESULT:     -11.5      5.536      8.247
REMARK SMILES Cc1cc2c(c(C)c1Br)C=C(C(=O)OCCOC(=O)c1ccc(-c3c4nc(c(-c5ccc(S(=O)(=O)[O-])cc5)c5ccc([nH]5)c(-c5ccc(S(=O)(=O)[O-])cc5)c5nc(c(-c6ccc(S(=O)(=O)[O-])cc6)c6ccc3[nH]6)C=C5)C=C4)cc1)[C@@H](C(F)(F)F)O2
REMARK SMILES IDX 16 1 15 2 14 3 12 4 13 5 11 6 1 7 2 8 3 9 8 10 4 11 6 12
REMARK SMILES IDX 9 13 5 14 85 15 7 16 10 17 80 18 81 19 82 20 83 21 84 22
REMARK SMILES IDX 17 23 18 24 19 25 20 26 21 27 79 28 22 29 78 30 23 31 24 32
REMARK SMILES IDX 25 33 72 34 26 35 77 36 71 37 73 38 27 39 76 40 70 41 69 42
REMARK SMILES IDX 28 44 58 45 39 46 57 47 40 48 43 49 56 50 74 51 41 52 42 53
REMARK SMILES IDX 55 55 75 56 44 57 29 58 30 59 38 60 31 61 37 62 32 63 33 64
REMARK SMILES IDX 34 65 35 66 36 67 59 68 60 69 68 70 61 71 67 72 62 73 63 74
REMARK SMILES IDX 64 75 65 76 66 77 45 78 46 79 54 80 47 81 53 82 48 83 49 84
REMARK SMILES IDX 50 85 51 86 52 87
REMARK H PARENT 73 43 43 54
REMARK Flexibility Score: inf
ROOT
ATOM      1  C   UNL A   1      33.471  33.872  28.123  1.00  0.00     0.275 C 
ENDROOT
BRANCH   1   2
ATOM      2  C   UNL A   1      33.659  34.384  29.551  1.00  0.00     0.275 C 
BRANCH   2   3
ATOM      3  O   UNL A   1      35.048  34.357  29.944  1.00  0.00    -0.459 OA
BRANCH   3   4
ATOM      4  C   UNL A   1      35.361  33.470  30.917  1.00  0.00     0.338 C 
ATOM      5  O   UNL A   1      34.809  32.401  31.131  1.00  0.00    -0.246 OA
BRANCH   4   6
ATOM      6  C   UNL A   1      36.483  33.966  31.736  1.00  0.00     0.087 C 
ATOM      7  C   UNL A   1      41.989  34.943  35.031  1.00  0.00     0.046 C 
ATOM      8  C   UNL A   1      40.933  34.622  34.008  1.00  0.00    -0.033 A 
ATOM      9  C   UNL A   1      39.603  34.955  34.299  1.00  0.00     0.051 A 
ATOM     10  C   UNL A   1      41.233  34.030  32.764  1.00  0.00     0.024 A 
ATOM     11  C   UNL A   1      38.576  34.665  33.403  1.00  0.00     0.128 A 
ATOM     12  C   UNL A   1      40.204  33.718  31.844  1.00  0.00    -0.026 A 
ATOM     13  Br  UNL A   1      43.067  33.669  32.348  1.00  0.00    -0.050 Br
ATOM     14  C   UNL A   1      38.860  34.036  32.188  1.00  0.00     0.021 A 
ATOM     15  O   UNL A   1      37.327  35.053  33.805  1.00  0.00    -0.475 OA
ATOM     16  C   UNL A   1      40.496  33.065  30.513  1.00  0.00     0.046 C 
ATOM     17  C   UNL A   1      37.730  33.707  31.323  1.00  0.00     0.027 C 
ATOM     18  C   UNL A   1      36.170  34.598  33.056  1.00  0.00     0.316 C 
BRANCH  18  19
ATOM     19  C   UNL A   1      35.337  33.664  33.947  1.00  0.00     0.430 C 
ATOM     20  F   UNL A   1      35.422  34.022  35.252  1.00  0.00    -0.167 F 
ATOM     21  F   UNL A   1      34.020  33.712  33.627  1.00  0.00    -0.167 F 
ATOM     22  F   UNL A   1      35.730  32.374  33.854  1.00  0.00    -0.167 F 
ENDBRANCH  18  19
ENDBRANCH   4   6
ENDBRANCH   3   4
ENDBRANCH   2   3
ENDBRANCH   1   2
BRANCH   1  23
ATOM     23  O   UNL A   1      34.629  33.127  27.703  1.00  0.00    -0.458 OA
BRANCH  23  24
ATOM     24  C   UNL A   1      34.463  31.785  27.678  1.00  0.00     0.338 C 
ATOM     25  O   UNL A   1      33.443  31.175  27.405  1.00  0.00    -0.246 OA
BRANCH  24  26
ATOM     26  C   UNL A   1      35.737  31.101  27.948  1.00  0.00     0.060 A 
ATOM     27  C   UNL A   1      35.718  29.740  28.219  1.00  0.00     0.016 A 
ATOM     28  C   UNL A   1      36.894  31.839  28.175  1.00  0.00     0.016 A 
ATOM     29  C   UNL A   1      36.784  29.158  28.899  1.00  0.00     0.010 A 
ATOM     30  C   UNL A   1      38.019  31.210  28.725  1.00  0.00     0.010 A 
ATOM     31  C   UNL A   1      37.954  29.878  29.176  1.00  0.00    -0.014 A 
BRANCH  31  32
ATOM     32  C   UNL A   1      39.062  29.288  29.997  1.00  0.00     0.031 A 
ATOM     33  C   UNL A   1      39.215  29.680  31.454  1.00  0.00     0.074 A 
ATOM     34  C   UNL A   1      39.919  28.377  29.488  1.00  0.00     0.049 A 
ATOM     35  N   UNL A   1      40.244  29.532  32.249  1.00  0.00    -0.248 NA
ATOM     36  C   UNL A   1      38.063  30.341  32.093  1.00  0.00     0.031 C 
ATOM     37  C   UNL A   1      39.861  27.797  28.144  1.00  0.00     0.029 A 
ATOM     38  N   UNL A   1      41.011  27.763  30.056  1.00  0.00    -0.354 N 
ATOM     39  C   UNL A   1      39.896  30.152  33.448  1.00  0.00     0.074 A 
ATOM     40  C   UNL A   1      38.558  30.676  33.276  1.00  0.00     0.031 C 
ATOM     41  C   UNL A   1      40.822  26.872  28.016  1.00  0.00     0.029 A 
ATOM     42  C   UNL A   1      41.662  26.900  29.204  1.00  0.00     0.049 A 
ATOM     43  H   UNL A   1      41.301  27.927  30.982  1.00  0.00     0.167 HD
ATOM     44  C   UNL A   1      40.626  30.278  34.583  1.00  0.00     0.031 A 
ATOM     45  C   UNL A   1      42.841  26.258  29.319  1.00  0.00     0.031 A 
ATOM     46  C   UNL A   1      41.932  29.696  34.769  1.00  0.00     0.049 A 
ATOM     47  C   UNL A   1      43.681  26.485  30.542  1.00  0.00     0.074 A 
ATOM     48  C   UNL A   1      42.762  29.775  35.876  1.00  0.00     0.029 A 
ATOM     49  N   UNL A   1      42.586  28.903  33.839  1.00  0.00    -0.354 N 
ATOM     50  N   UNL A   1      43.402  27.188  31.613  1.00  0.00    -0.248 NA
ATOM     51  C   UNL A   1      45.009  25.858  30.555  1.00  0.00     0.031 C 
ATOM     52  C   UNL A   1      43.939  29.073  35.593  1.00  0.00     0.029 A 
ATOM     53  C   UNL A   1      43.816  28.504  34.337  1.00  0.00     0.049 A 
ATOM     54  H   UNL A   1      42.228  28.659  32.955  1.00  0.00     0.167 HD
ATOM     55  C   UNL A   1      44.522  27.087  32.431  1.00  0.00     0.074 A 
ATOM     56  C   UNL A   1      45.465  26.226  31.745  1.00  0.00     0.031 C 
ATOM     57  C   UNL A   1      44.754  27.664  33.635  1.00  0.00     0.031 A 
BRANCH  44  58
ATOM     58  C   UNL A   1      40.061  31.116  35.704  1.00  0.00    -0.014 A 
ATOM     59  C   UNL A   1      38.702  31.060  36.063  1.00  0.00     0.010 A 
ATOM     60  C   UNL A   1      40.929  31.932  36.457  1.00  0.00     0.010 A 
ATOM     61  C   UNL A   1      38.219  31.825  37.130  1.00  0.00     0.020 A 
ATOM     62  C   UNL A   1      40.456  32.674  37.543  1.00  0.00     0.020 A 
ATOM     63  C   UNL A   1      39.100  32.626  37.865  1.00  0.00     0.054 A 
BRANCH  63  64
ATOM     64  S   UNL A   1      38.449  33.580  39.265  1.00  0.00     0.124 S 
ATOM     65  O   UNL A   1      38.657  34.954  38.817  1.00  0.00    -0.237 OA
ATOM     66  O   UNL A   1      37.058  33.143  39.329  1.00  0.00    -0.237 OA
ATOM     67  O   UNL A   1      39.284  33.161  40.390  1.00  0.00    -0.744 OA
ENDBRANCH  63  64
ENDBRANCH  44  58
BRANCH  45  68
ATOM     68  C   UNL A   1      43.335  25.409  28.196  1.00  0.00    -0.014 A 
ATOM     69  C   UNL A   1      42.899  24.080  28.059  1.00  0.00     0.010 A 
ATOM     70  C   UNL A   1      44.225  25.938  27.241  1.00  0.00     0.010 A 
ATOM     71  C   UNL A   1      43.338  23.300  26.984  1.00  0.00     0.020 A 
ATOM     72  C   UNL A   1      44.635  25.174  26.146  1.00  0.00     0.020 A 
ATOM     73  C   UNL A   1      44.194  23.856  26.029  1.00  0.00     0.054 A 
BRANCH  73  74
ATOM     74  S   UNL A   1      44.683  22.848  24.602  1.00  0.00     0.124 S 
ATOM     75  O   UNL A   1      45.298  21.691  25.245  1.00  0.00    -0.237 OA
ATOM     76  O   UNL A   1      43.406  22.602  23.939  1.00  0.00    -0.237 OA
ATOM     77  O   UNL A   1      45.601  23.717  23.868  1.00  0.00    -0.744 OA
ENDBRANCH  73  74
ENDBRANCH  45  68
BRANCH  57  78
ATOM     78  C   UNL A   1      46.077  27.371  34.290  1.00  0.00    -0.014 A 
ATOM     79  C   UNL A   1      47.185  28.216  34.096  1.00  0.00     0.010 A 
ATOM     80  C   UNL A   1      46.211  26.246  35.123  1.00  0.00     0.010 A 
ATOM     81  C   UNL A   1      48.415  27.913  34.682  1.00  0.00     0.020 A 
ATOM     82  C   UNL A   1      47.433  25.957  35.737  1.00  0.00     0.020 A 
ATOM     83  C   UNL A   1      48.533  26.782  35.496  1.00  0.00     0.054 A 
BRANCH  83  84
ATOM     84  S   UNL A   1      50.141  26.418  36.249  1.00  0.00     0.124 S 
ATOM     85  O   UNL A   1      50.625  27.752  36.593  1.00  0.00    -0.237 OA
ATOM     86  O   UNL A   1      49.779  25.569  37.381  1.00  0.00    -0.237 OA
ATOM     87  O   UNL A   1      50.880  25.744  35.184  1.00  0.00    -0.744 OA
ENDBRANCH  83  84
ENDBRANCH  57  78
ENDBRANCH  31  32
ENDBRANCH  24  26
ENDBRANCH  23  24
ENDBRANCH   1  23
TORSDOF 15
ENDMDL
MODEL 3
REMARK VINA RESULT:     -11.5      5.862     10.879
REMARK SMILES Cc1cc2c(c(C)c1Br)C=C(C(=O)OCCOC(=O)c1ccc(-c3c4nc(c(-c5ccc(S(=O)(=O)[O-])cc5)c5ccc([nH]5)c(-c5ccc(S(=O)(=O)[O-])cc5)c5nc(c(-c6ccc(S(=O)(=O)[O-])cc6)c6ccc3[nH]6)C=C5)C=C4)cc1)[C@@H](C(F)(F)F)O2
REMARK SMILES IDX 16 1 15 2 14 3 12 4 13 5 11 6 1 7 2 8 3 9 8 10 4 11 6 12
REMARK SMILES IDX 9 13 5 14 85 15 7 16 10 17 80 18 81 19 82 20 83 21 84 22
REMARK SMILES IDX 17 23 18 24 19 25 20 26 21 27 79 28 22 29 78 30 23 31 24 32
REMARK SMILES IDX 25 33 72 34 26 35 77 36 71 37 73 38 27 39 76 40 70 41 69 42
REMARK SMILES IDX 28 44 58 45 39 46 57 47 40 48 43 49 56 50 74 51 41 52 42 53
REMARK SMILES IDX 55 55 75 56 44 57 29 58 30 59 38 60 31 61 37 62 32 63 33 64
REMARK SMILES IDX 34 65 35 66 36 67 59 68 60 69 68 70 61 71 67 72 62 73 63 74
REMARK SMILES IDX 64 75 65 76 66 77 45 78 46 79 54 80 47 81 53 82 48 83 49 84
REMARK SMILES IDX 50 85 51 86 52 87
REMARK H PARENT 73 43 43 54
REMARK Flexibility Score: inf
ROOT
ATOM      1  C   UNL A   1      33.150  32.833  27.631  1.00  0.00     0.275 C 
ENDROOT
BRANCH   1   2
ATOM      2  C   UNL A   1      33.581  34.022  28.491  1.00  0.00     0.275 C 
BRANCH   2   3
ATOM      3  O   UNL A   1      34.271  33.590  29.683  1.00  0.00    -0.459 OA
BRANCH   3   4
ATOM      4  C   UNL A   1      34.141  34.403  30.757  1.00  0.00     0.338 C 
ATOM      5  O   UNL A   1      33.115  34.945  31.140  1.00  0.00    -0.246 OA
BRANCH   4   6
ATOM      6  C   UNL A   1      35.439  34.582  31.437  1.00  0.00     0.087 C 
ATOM      7  C   UNL A   1      41.566  34.383  33.570  1.00  0.00     0.046 C 
ATOM      8  C   UNL A   1      40.300  34.447  32.759  1.00  0.00    -0.033 A 
ATOM      9  C   UNL A   1      39.083  34.606  33.436  1.00  0.00     0.051 A 
ATOM     10  C   UNL A   1      40.295  34.384  31.351  1.00  0.00     0.024 A 
ATOM     11  C   UNL A   1      37.875  34.650  32.745  1.00  0.00     0.128 A 
ATOM     12  C   UNL A   1      39.077  34.417  30.629  1.00  0.00    -0.026 A 
ATOM     13  Br  UNL A   1      41.975  34.261  30.439  1.00  0.00    -0.050 Br
ATOM     14  C   UNL A   1      37.857  34.542  31.352  1.00  0.00     0.021 A 
ATOM     15  O   UNL A   1      36.764  34.820  33.525  1.00  0.00    -0.475 OA
ATOM     16  C   UNL A   1      39.042  34.330  29.120  1.00  0.00     0.046 C 
ATOM     17  C   UNL A   1      36.552  34.535  30.696  1.00  0.00     0.027 C 
ATOM     18  C   UNL A   1      35.450  34.653  32.932  1.00  0.00     0.316 C 
BRANCH  18  19
ATOM     19  C   UNL A   1      34.773  33.426  33.561  1.00  0.00     0.430 C 
ATOM     20  F   UNL A   1      35.191  33.232  34.836  1.00  0.00    -0.167 F 
ATOM     21  F   UNL A   1      33.426  33.576  33.624  1.00  0.00    -0.167 F 
ATOM     22  F   UNL A   1      35.022  32.288  32.876  1.00  0.00    -0.167 F 
ENDBRANCH  18  19
ENDBRANCH   4   6
ENDBRANCH   3   4
ENDBRANCH   2   3
ENDBRANCH   1   2
BRANCH   1  23
ATOM     23  O   UNL A   1      33.672  31.608  28.176  1.00  0.00    -0.458 OA
BRANCH  23  24
ATOM     24  C   UNL A   1      34.214  30.767  27.265  1.00  0.00     0.338 C 
ATOM     25  O   UNL A   1      33.696  30.364  26.237  1.00  0.00    -0.246 OA
BRANCH  24  26
ATOM     26  C   UNL A   1      35.601  30.438  27.624  1.00  0.00     0.060 A 
ATOM     27  C   UNL A   1      35.941  29.108  27.826  1.00  0.00     0.016 A 
ATOM     28  C   UNL A   1      36.486  31.446  27.997  1.00  0.00     0.016 A 
ATOM     29  C   UNL A   1      37.070  28.791  28.577  1.00  0.00     0.010 A 
ATOM     30  C   UNL A   1      37.694  31.109  28.623  1.00  0.00     0.010 A 
ATOM     31  C   UNL A   1      37.967  29.781  29.000  1.00  0.00    -0.014 A 
BRANCH  31  32
ATOM     32  C   UNL A   1      39.125  29.458  29.895  1.00  0.00     0.031 A 
ATOM     33  C   UNL A   1      40.256  28.585  29.385  1.00  0.00     0.074 A 
ATOM     34  C   UNL A   1      39.218  29.955  31.148  1.00  0.00     0.049 A 
ATOM     35  N   UNL A   1      41.182  27.949  30.057  1.00  0.00    -0.248 NA
ATOM     36  C   UNL A   1      40.344  28.391  27.927  1.00  0.00     0.031 C 
ATOM     37  C   UNL A   1      38.286  30.897  31.773  1.00  0.00     0.029 A 
ATOM     38  N   UNL A   1      40.163  29.742  32.126  1.00  0.00    -0.354 N 
ATOM     39  C   UNL A   1      41.906  27.218  29.118  1.00  0.00     0.074 A 
ATOM     40  C   UNL A   1      41.312  27.491  27.827  1.00  0.00     0.031 C 
ATOM     41  C   UNL A   1      38.736  31.229  32.989  1.00  0.00     0.029 A 
ATOM     42  C   UNL A   1      39.901  30.412  33.299  1.00  0.00     0.049 A 
ATOM     43  H   UNL A   1      40.949  29.164  31.999  1.00  0.00     0.167 HD
ATOM     44  C   UNL A   1      42.961  26.391  29.315  1.00  0.00     0.031 A 
ATOM     45  C   UNL A   1      40.472  30.330  34.517  1.00  0.00     0.031 A 
ATOM     46  C   UNL A   1      43.588  26.175  30.595  1.00  0.00     0.049 A 
ATOM     47  C   UNL A   1      41.577  29.339  34.740  1.00  0.00     0.074 A 
ATOM     48  C   UNL A   1      44.656  25.348  30.904  1.00  0.00     0.029 A 
ATOM     49  N   UNL A   1      43.226  26.812  31.771  1.00  0.00    -0.354 N 
ATOM     50  N   UNL A   1      42.161  28.548  33.872  1.00  0.00    -0.248 NA
ATOM     51  C   UNL A   1      42.075  29.206  36.115  1.00  0.00     0.031 C 
ATOM     52  C   UNL A   1      44.903  25.446  32.278  1.00  0.00     0.029 A 
ATOM     53  C   UNL A   1      44.033  26.382  32.812  1.00  0.00     0.049 A 
ATOM     54  H   UNL A   1      42.501  27.474  31.855  1.00  0.00     0.167 HD
ATOM     55  C   UNL A   1      43.100  27.823  34.599  1.00  0.00     0.074 A 
ATOM     56  C   UNL A   1      43.028  28.296  35.966  1.00  0.00     0.031 C 
ATOM     57  C   UNL A   1      43.937  26.846  34.173  1.00  0.00     0.031 A 
BRANCH  44  58
ATOM     58  C   UNL A   1      43.485  25.611  28.132  1.00  0.00    -0.014 A 
ATOM     59  C   UNL A   1      44.559  26.075  27.352  1.00  0.00     0.010 A 
ATOM     60  C   UNL A   1      42.925  24.352  27.838  1.00  0.00     0.010 A 
ATOM     61  C   UNL A   1      45.041  25.309  26.284  1.00  0.00     0.020 A 
ATOM     62  C   UNL A   1      43.424  23.571  26.792  1.00  0.00     0.020 A 
ATOM     63  C   UNL A   1      44.471  24.061  26.012  1.00  0.00     0.054 A 
BRANCH  63  64
ATOM     64  S   UNL A   1      45.142  23.076  24.643  1.00  0.00     0.124 S 
ATOM     65  O   UNL A   1      43.930  22.705  23.916  1.00  0.00    -0.237 OA
ATOM     66  O   UNL A   1      46.015  24.029  23.963  1.00  0.00    -0.237 OA
ATOM     67  O   UNL A   1      45.828  21.972  25.310  1.00  0.00    -0.744 OA
ENDBRANCH  63  64
ENDBRANCH  44  58
BRANCH  45  68
ATOM     68  C   UNL A   1      39.940  31.152  35.641  1.00  0.00    -0.014 A 
ATOM     69  C   UNL A   1      38.660  30.903  36.167  1.00  0.00     0.010 A 
ATOM     70  C   UNL A   1      40.725  32.172  36.212  1.00  0.00     0.010 A 
ATOM     71  C   UNL A   1      38.181  31.654  37.244  1.00  0.00     0.020 A 
ATOM     72  C   UNL A   1      40.264  32.899  37.313  1.00  0.00     0.020 A 
ATOM     73  C   UNL A   1      38.990  32.639  37.818  1.00  0.00     0.054 A 
BRANCH  73  74
ATOM     74  S   UNL A   1      38.376  33.543  39.266  1.00  0.00     0.124 S 
ATOM     75  O   UNL A   1      39.255  33.054  40.324  1.00  0.00    -0.237 OA
ATOM     76  O   UNL A   1      38.570  34.934  38.871  1.00  0.00    -0.237 OA
ATOM     77  O   UNL A   1      36.980  33.120  39.367  1.00  0.00    -0.744 OA
ENDBRANCH  73  74
ENDBRANCH  45  68
BRANCH  57  78
ATOM     78  C   UNL A   1      44.850  26.232  35.201  1.00  0.00    -0.014 A 
ATOM     79  C   UNL A   1      44.470  25.080  35.912  1.00  0.00     0.010 A 
ATOM     80  C   UNL A   1      46.110  26.807  35.449  1.00  0.00     0.010 A 
ATOM     81  C   UNL A   1      45.312  24.542  36.887  1.00  0.00     0.020 A 
ATOM     82  C   UNL A   1      46.969  26.252  36.401  1.00  0.00     0.020 A 
ATOM     83  C   UNL A   1      46.555  25.135  37.129  1.00  0.00     0.054 A 
BRANCH  83  84
ATOM     84  S   UNL A   1      47.631  24.411  38.397  1.00  0.00     0.124 S 
ATOM     85  O   UNL A   1      47.840  23.060  37.882  1.00  0.00    -0.237 OA
ATOM     86  O   UNL A   1      48.800  25.285  38.361  1.00  0.00    -0.237 OA
ATOM     87  O   UNL A   1      46.834  24.495  39.618  1.00  0.00    -0.744 OA
ENDBRANCH  83  84
ENDBRANCH  57  78
ENDBRANCH  31  32
ENDBRANCH  24  26
ENDBRANCH  23  24
ENDBRANCH   1  23
TORSDOF 15
ENDMDL
