MODEL 1
REMARK VINA RESULT:     -11.2      0.000      0.000
REMARK SMILES O=C(OCCOC(=O)c1cc(SCC(=O)N2CCOCC2)ccn1)c1ccc(-c2c3nc(c(-c4ccc(S(=O)(=O)[O-])cc4)c4ccc([nH]4)c(-c4ccc(S(=O)(=O)[O-])cc4)c4nc(c(-c5ccc(S(=O)(=O)[O-])cc5)c5ccc2[nH]5)C=C4)C=C3)cc1
REMARK SMILES IDX 4 1 3 2 2 3 1 4 25 5 26 6 84 7 27 8 83 9 28 10 29 11 30 12
REMARK SMILES IDX 77 13 31 14 82 15 76 16 78 17 32 18 81 19 75 20 74 21 33 23
REMARK SMILES IDX 63 24 44 25 62 26 45 27 48 28 61 29 79 30 46 31 47 32 60 34
REMARK SMILES IDX 80 35 49 36 34 37 35 38 43 39 36 40 42 41 37 42 38 43 39 44
REMARK SMILES IDX 40 45 41 46 64 47 65 48 73 49 66 50 72 51 67 52 68 53 69 54
REMARK SMILES IDX 70 55 71 56 50 57 51 58 59 59 52 60 58 61 53 62 54 63 55 64
REMARK SMILES IDX 56 65 57 66 5 67 6 68 7 69 8 70 9 71 10 72 24 73 11 74 23 75
REMARK SMILES IDX 22 76 12 77 13 78 14 79 15 80 16 81 17 82 21 83 18 84 20 85
REMARK SMILES IDX 19 86
REMARK H PARENT 78 22 48 33
REMARK Flexibility Score: inf
ROOT
ATOM      1  C   UNL A   1      34.393  32.883  29.471  1.00  0.00     0.275 C 
ENDROOT
BRANCH   1   2
ATOM      2  O   UNL A   1      35.651  32.473  28.896  1.00  0.00    -0.458 OA
BRANCH   2   3
ATOM      3  C   UNL A   1      35.865  31.266  28.314  1.00  0.00     0.338 C 
ATOM      4  O   UNL A   1      34.926  30.584  27.920  1.00  0.00    -0.246 OA
BRANCH   3   5
ATOM      5  C   UNL A   1      37.228  30.641  28.378  1.00  0.00     0.060 A 
ATOM      6  C   UNL A   1      38.212  31.001  29.292  1.00  0.00     0.016 A 
ATOM      7  C   UNL A   1      37.563  29.698  27.381  1.00  0.00     0.016 A 
ATOM      8  C   UNL A   1      39.486  30.442  29.207  1.00  0.00     0.010 A 
ATOM      9  C   UNL A   1      38.848  29.124  27.303  1.00  0.00     0.010 A 
ATOM     10  C   UNL A   1      39.821  29.502  28.220  1.00  0.00    -0.014 A 
BRANCH  10  11
ATOM     11  C   UNL A   1      41.225  29.083  28.213  1.00  0.00     0.031 A 
ATOM     12  C   UNL A   1      41.674  27.719  27.663  1.00  0.00     0.074 A 
ATOM     13  C   UNL A   1      42.196  30.008  28.345  1.00  0.00     0.049 A 
ATOM     14  N   UNL A   1      42.896  27.289  27.420  1.00  0.00    -0.248 NA
ATOM     15  C   UNL A   1      40.660  26.686  27.466  1.00  0.00     0.031 C 
ATOM     16  C   UNL A   1      42.535  31.474  29.516  1.00  0.00     0.029 A 
ATOM     17  N   UNL A   1      43.743  29.749  27.513  1.00  0.00    -0.354 N 
ATOM     18  C   UNL A   1      42.849  25.940  27.112  1.00  0.00     0.074 A 
ATOM     19  C   UNL A   1      41.412  25.634  27.143  1.00  0.00     0.031 C 
ATOM     20  C   UNL A   1      44.073  32.082  29.351  1.00  0.00     0.029 A 
ATOM     21  C   UNL A   1      45.116  31.021  28.074  1.00  0.00     0.049 A 
ATOM     22  H   UNL A   1      43.893  29.043  26.842  1.00  0.00     0.167 HD
ATOM     23  C   UNL A   1      43.849  25.019  26.904  1.00  0.00     0.031 A 
ATOM     24  C   UNL A   1      46.499  31.192  28.002  1.00  0.00     0.031 A 
ATOM     25  C   UNL A   1      45.327  25.130  26.921  1.00  0.00     0.049 A 
ATOM     26  C   UNL A   1      47.592  30.179  27.563  1.00  0.00     0.074 A 
ATOM     27  C   UNL A   1      46.248  24.082  26.944  1.00  0.00     0.029 A 
ATOM     28  N   UNL A   1      46.135  26.268  26.839  1.00  0.00    -0.354 N 
ATOM     29  N   UNL A   1      47.427  28.895  27.472  1.00  0.00    -0.248 NA
ATOM     30  C   UNL A   1      48.987  30.537  27.266  1.00  0.00     0.031 C 
ATOM     31  C   UNL A   1      47.564  24.592  26.929  1.00  0.00     0.029 A 
ATOM     32  C   UNL A   1      47.510  25.974  26.880  1.00  0.00     0.049 A 
ATOM     33  H   UNL A   1      45.777  27.183  26.760  1.00  0.00     0.167 HD
ATOM     34  C   UNL A   1      48.546  28.273  27.046  1.00  0.00     0.074 A 
ATOM     35  C   UNL A   1      49.528  29.340  26.967  1.00  0.00     0.031 C 
ATOM     36  C   UNL A   1      48.628  26.938  26.804  1.00  0.00     0.031 A 
BRANCH  23  37
ATOM     37  C   UNL A   1      43.303  23.613  26.762  1.00  0.00    -0.014 A 
ATOM     38  C   UNL A   1      42.951  22.849  27.890  1.00  0.00     0.010 A 
ATOM     39  C   UNL A   1      43.229  23.034  25.478  1.00  0.00     0.010 A 
ATOM     40  C   UNL A   1      42.598  21.504  27.742  1.00  0.00     0.020 A 
ATOM     41  C   UNL A   1      42.859  21.696  25.327  1.00  0.00     0.020 A 
ATOM     42  C   UNL A   1      42.580  20.932  26.463  1.00  0.00     0.054 A 
BRANCH  42  43
ATOM     43  S   UNL A   1      42.195  19.168  26.277  1.00  0.00     0.124 S 
ATOM     44  O   UNL A   1      43.204  18.746  25.309  1.00  0.00    -0.237 OA
ATOM     45  O   UNL A   1      42.367  18.643  27.629  1.00  0.00    -0.237 OA
ATOM     46  O   UNL A   1      40.820  19.173  25.786  1.00  0.00    -0.744 OA
ENDBRANCH  42  43
ENDBRANCH  23  37
BRANCH  24  47
ATOM     47  C   UNL A   1      46.964  32.586  28.209  1.00  0.00    -0.014 A 
ATOM     48  C   UNL A   1      46.773  33.491  27.141  1.00  0.00     0.010 A 
ATOM     49  C   UNL A   1      47.585  33.026  29.384  1.00  0.00     0.010 A 
ATOM     50  C   UNL A   1      47.182  34.819  27.250  1.00  0.00     0.020 A 
ATOM     51  C   UNL A   1      47.978  34.366  29.505  1.00  0.00     0.020 A 
ATOM     52  C   UNL A   1      47.780  35.249  28.435  1.00  0.00     0.054 A 
BRANCH  52  53
ATOM     53  S   UNL A   1      48.248  36.995  28.604  1.00  0.00     0.124 S 
ATOM     54  O   UNL A   1      49.634  36.890  29.048  1.00  0.00    -0.237 OA
ATOM     55  O   UNL A   1      48.056  37.519  27.253  1.00  0.00    -0.237 OA
ATOM     56  O   UNL A   1      47.298  37.491  29.597  1.00  0.00    -0.744 OA
ENDBRANCH  52  53
ENDBRANCH  24  47
BRANCH  36  57
ATOM     57  C   UNL A   1      50.011  26.432  26.538  1.00  0.00    -0.014 A 
ATOM     58  C   UNL A   1      50.461  26.303  25.211  1.00  0.00     0.010 A 
ATOM     59  C   UNL A   1      50.880  26.117  27.593  1.00  0.00     0.010 A 
ATOM     60  C   UNL A   1      51.748  25.839  24.940  1.00  0.00     0.020 A 
ATOM     61  C   UNL A   1      52.175  25.656  27.326  1.00  0.00     0.020 A 
ATOM     62  C   UNL A   1      52.596  25.509  26.000  1.00  0.00     0.054 A 
BRANCH  62  63
ATOM     63  S   UNL A   1      54.274  24.926  25.628  1.00  0.00     0.124 S 
ATOM     64  O   UNL A   1      54.014  23.624  25.019  1.00  0.00    -0.237 OA
ATOM     65  O   UNL A   1      54.782  25.953  24.720  1.00  0.00    -0.237 OA
ATOM     66  O   UNL A   1      54.922  24.886  26.937  1.00  0.00    -0.744 OA
ENDBRANCH  62  63
ENDBRANCH  36  57
ENDBRANCH  10  11
ENDBRANCH   3   5
ENDBRANCH   2   3
ENDBRANCH   1   2
BRANCH   1  67
ATOM     67  C   UNL A   1      33.732  33.984  28.631  1.00  0.00     0.275 C 
BRANCH  67  68
ATOM     68  O   UNL A   1      32.695  34.662  29.360  1.00  0.00    -0.457 OA
BRANCH  68  69
ATOM     69  C   UNL A   1      32.914  35.995  29.538  1.00  0.00     0.357 C 
ATOM     70  O   UNL A   1      32.819  36.858  28.678  1.00  0.00    -0.244 OA
BRANCH  69  71
ATOM     71  C   UNL A   1      33.236  36.282  30.962  1.00  0.00     0.149 A 
ATOM     72  C   UNL A   1      33.818  35.312  31.776  1.00  0.00     0.051 A 
ATOM     73  N   UNL A   1      33.034  37.576  31.337  1.00  0.00    -0.249 NA
ATOM     74  C   UNL A   1      34.241  35.702  33.042  1.00  0.00     0.012 A 
ATOM     75  C   UNL A   1      33.439  37.918  32.569  1.00  0.00     0.113 A 
ATOM     76  C   UNL A   1      34.066  37.038  33.430  1.00  0.00     0.035 A 
BRANCH  74  77
ATOM     77  S   UNL A   1      35.161  34.655  34.159  1.00  0.00    -0.116 SA
BRANCH  77  78
ATOM     78  C   UNL A   1      35.176  32.974  33.420  1.00  0.00     0.175 C 
BRANCH  78  79
ATOM     79  C   UNL A   1      36.412  32.595  32.602  1.00  0.00     0.233 C 
ATOM     80  O   UNL A   1      37.058  33.493  32.044  1.00  0.00    -0.274 OA
ATOM     81  N   UNL A   1      36.962  31.224  32.796  1.00  0.00    -0.337 N 
ATOM     82  C   UNL A   1      36.928  29.244  31.872  1.00  0.00     0.148 C 
ATOM     83  C   UNL A   1      38.259  31.544  33.971  1.00  0.00     0.148 C 
ATOM     84  C   UNL A   1      38.354  28.138  32.460  1.00  0.00     0.181 C 
ATOM     85  C   UNL A   1      39.340  30.212  34.374  1.00  0.00     0.181 C 
ATOM     86  O   UNL A   1      39.570  28.933  33.406  1.00  0.00    -0.378 OA
ENDBRANCH  78  79
ENDBRANCH  77  78
ENDBRANCH  74  77
ENDBRANCH  69  71
ENDBRANCH  68  69
ENDBRANCH  67  68
ENDBRANCH   1  67
TORSDOF 17
ENDMDL
MODEL 2
REMARK VINA RESULT:     -10.8      4.011      5.887
REMARK SMILES O=C(OCCOC(=O)c1cc(SCC(=O)N2CCOCC2)ccn1)c1ccc(-c2c3nc(c(-c4ccc(S(=O)(=O)[O-])cc4)c4ccc([nH]4)c(-c4ccc(S(=O)(=O)[O-])cc4)c4nc(c(-c5ccc(S(=O)(=O)[O-])cc5)c5ccc2[nH]5)C=C4)C=C3)cc1
REMARK SMILES IDX 4 1 3 2 2 3 1 4 25 5 26 6 84 7 27 8 83 9 28 10 29 11 30 12
REMARK SMILES IDX 77 13 31 14 82 15 76 16 78 17 32 18 81 19 75 20 74 21 33 23
REMARK SMILES IDX 63 24 44 25 62 26 45 27 48 28 61 29 79 30 46 31 47 32 60 34
REMARK SMILES IDX 80 35 49 36 34 37 35 38 43 39 36 40 42 41 37 42 38 43 39 44
REMARK SMILES IDX 40 45 41 46 64 47 65 48 73 49 66 50 72 51 67 52 68 53 69 54
REMARK SMILES IDX 70 55 71 56 50 57 51 58 59 59 52 60 58 61 53 62 54 63 55 64
REMARK SMILES IDX 56 65 57 66 5 67 6 68 7 69 8 70 9 71 10 72 24 73 11 74 23 75
REMARK SMILES IDX 22 76 12 77 13 78 14 79 15 80 16 81 17 82 21 83 18 84 20 85
REMARK SMILES IDX 19 86
REMARK H PARENT 78 22 48 33
REMARK Flexibility Score: inf
ROOT
ATOM      1  C   UNL A   1      34.098  29.969  27.413  1.00  0.00     0.275 C 
ENDROOT
BRANCH   1   2
ATOM      2  O   UNL A   1      34.821  31.116  27.906  1.00  0.00    -0.458 OA
BRANCH   2   3
ATOM      3  C   UNL A   1      35.616  31.100  29.005  1.00  0.00     0.338 C 
ATOM      4  O   UNL A   1      35.329  31.757  29.999  1.00  0.00    -0.246 OA
BRANCH   3   5
ATOM      5  C   UNL A   1      36.982  30.482  28.925  1.00  0.00     0.060 A 
ATOM      6  C   UNL A   1      37.883  30.434  29.983  1.00  0.00     0.016 A 
ATOM      7  C   UNL A   1      37.414  30.009  27.666  1.00  0.00     0.016 A 
ATOM      8  C   UNL A   1      39.169  29.936  29.787  1.00  0.00     0.010 A 
ATOM      9  C   UNL A   1      38.711  29.496  27.470  1.00  0.00     0.010 A 
ATOM     10  C   UNL A   1      39.601  29.463  28.538  1.00  0.00    -0.014 A 
BRANCH  10  11
ATOM     11  C   UNL A   1      41.009  29.062  28.478  1.00  0.00     0.031 A 
ATOM     12  C   UNL A   1      41.458  27.724  27.867  1.00  0.00     0.074 A 
ATOM     13  C   UNL A   1      41.972  29.994  28.617  1.00  0.00     0.049 A 
ATOM     14  N   UNL A   1      42.677  27.317  27.576  1.00  0.00    -0.248 NA
ATOM     15  C   UNL A   1      40.451  26.686  27.660  1.00  0.00     0.031 C 
ATOM     16  C   UNL A   1      42.327  31.420  29.830  1.00  0.00     0.029 A 
ATOM     17  N   UNL A   1      43.499  29.783  27.735  1.00  0.00    -0.354 N 
ATOM     18  C   UNL A   1      42.638  25.980  27.221  1.00  0.00     0.074 A 
ATOM     19  C   UNL A   1      41.206  25.655  27.279  1.00  0.00     0.031 C 
ATOM     20  C   UNL A   1      43.852  32.053  29.647  1.00  0.00     0.029 A 
ATOM     21  C   UNL A   1      44.872  31.051  28.305  1.00  0.00     0.049 A 
ATOM     22  H   UNL A   1      43.639  29.103  27.036  1.00  0.00     0.167 HD
ATOM     23  C   UNL A   1      43.642  25.079  26.954  1.00  0.00     0.031 A 
ATOM     24  C   UNL A   1      46.251  31.241  28.203  1.00  0.00     0.031 A 
ATOM     25  C   UNL A   1      45.118  25.208  26.936  1.00  0.00     0.049 A 
ATOM     26  C   UNL A   1      47.343  30.258  27.698  1.00  0.00     0.074 A 
ATOM     27  C   UNL A   1      46.051  24.171  26.896  1.00  0.00     0.029 A 
ATOM     28  N   UNL A   1      45.910  26.358  26.873  1.00  0.00    -0.354 N 
ATOM     29  N   UNL A   1      47.190  28.976  27.565  1.00  0.00    -0.248 NA
ATOM     30  C   UNL A   1      48.725  30.643  27.377  1.00  0.00     0.031 C 
ATOM     31  C   UNL A   1      47.361  24.697  26.864  1.00  0.00     0.029 A 
ATOM     32  C   UNL A   1      47.290  26.079  26.866  1.00  0.00     0.049 A 
ATOM     33  H   UNL A   1      45.541  27.270  26.837  1.00  0.00     0.167 HD
ATOM     34  C   UNL A   1      48.304  28.384  27.087  1.00  0.00     0.074 A 
ATOM     35  C   UNL A   1      49.271  29.465  27.020  1.00  0.00     0.031 C 
ATOM     36  C   UNL A   1      48.395  27.059  26.796  1.00  0.00     0.031 A 
BRANCH  23  37
ATOM     37  C   UNL A   1      43.108  23.673  26.776  1.00  0.00    -0.014 A 
ATOM     38  C   UNL A   1      42.758  22.879  27.884  1.00  0.00     0.010 A 
ATOM     39  C   UNL A   1      43.044  23.125  25.478  1.00  0.00     0.010 A 
ATOM     40  C   UNL A   1      42.417  21.535  27.702  1.00  0.00     0.020 A 
ATOM     41  C   UNL A   1      42.685  21.787  25.293  1.00  0.00     0.020 A 
ATOM     42  C   UNL A   1      42.408  20.994  26.410  1.00  0.00     0.054 A 
BRANCH  42  43
ATOM     43  S   UNL A   1      42.039  19.232  26.180  1.00  0.00     0.124 S 
ATOM     44  O   UNL A   1      42.403  18.681  27.483  1.00  0.00    -0.237 OA
ATOM     45  O   UNL A   1      40.610  19.226  25.875  1.00  0.00    -0.237 OA
ATOM     46  O   UNL A   1      42.909  18.847  25.072  1.00  0.00    -0.744 OA
ENDBRANCH  42  43
ENDBRANCH  23  37
BRANCH  24  47
ATOM     47  C   UNL A   1      46.706  32.633  28.446  1.00  0.00    -0.014 A 
ATOM     48  C   UNL A   1      46.470  33.574  27.420  1.00  0.00     0.010 A 
ATOM     49  C   UNL A   1      47.358  33.036  29.618  1.00  0.00     0.010 A 
ATOM     50  C   UNL A   1      46.867  34.902  27.566  1.00  0.00     0.020 A 
ATOM     51  C   UNL A   1      47.739  34.376  29.777  1.00  0.00     0.020 A 
ATOM     52  C   UNL A   1      47.497  35.295  28.747  1.00  0.00     0.054 A 
BRANCH  52  53
ATOM     53  S   UNL A   1      47.949  37.040  28.967  1.00  0.00     0.124 S 
ATOM     54  O   UNL A   1      49.292  36.931  29.527  1.00  0.00    -0.237 OA
ATOM     55  O   UNL A   1      47.874  37.573  27.607  1.00  0.00    -0.237 OA
ATOM     56  O   UNL A   1      46.918  37.530  29.878  1.00  0.00    -0.744 OA
ENDBRANCH  52  53
ENDBRANCH  24  47
BRANCH  36  57
ATOM     57  C   UNL A   1      49.775  26.580  26.475  1.00  0.00    -0.014 A 
ATOM     58  C   UNL A   1      50.595  26.083  27.505  1.00  0.00     0.010 A 
ATOM     59  C   UNL A   1      50.254  26.585  25.156  1.00  0.00     0.010 A 
ATOM     60  C   UNL A   1      51.884  25.626  27.228  1.00  0.00     0.020 A 
ATOM     61  C   UNL A   1      51.545  26.122  24.873  1.00  0.00     0.020 A 
ATOM     62  C   UNL A   1      52.356  25.657  25.913  1.00  0.00     0.054 A 
BRANCH  62  63
ATOM     63  S   UNL A   1      54.028  25.039  25.570  1.00  0.00     0.124 S 
ATOM     64  O   UNL A   1      53.798  23.604  25.434  1.00  0.00    -0.237 OA
ATOM     65  O   UNL A   1      54.385  25.737  24.336  1.00  0.00    -0.237 OA
ATOM     66  O   UNL A   1      54.791  25.442  26.749  1.00  0.00    -0.744 OA
ENDBRANCH  62  63
ENDBRANCH  36  57
ENDBRANCH  10  11
ENDBRANCH   3   5
ENDBRANCH   2   3
ENDBRANCH   1   2
BRANCH   1  67
ATOM     67  C   UNL A   1      32.639  30.324  27.099  1.00  0.00     0.275 C 
BRANCH  67  68
ATOM     68  O   UNL A   1      31.872  29.163  26.741  1.00  0.00    -0.457 OA
BRANCH  68  69
ATOM     69  C   UNL A   1      31.562  29.082  25.417  1.00  0.00     0.357 C 
ATOM     70  O   UNL A   1      31.569  30.010  24.620  1.00  0.00    -0.244 OA
BRANCH  69  71
ATOM     71  C   UNL A   1      31.263  27.675  25.039  1.00  0.00     0.149 A 
ATOM     72  C   UNL A   1      31.413  26.638  25.958  1.00  0.00     0.051 A 
ATOM     73  N   UNL A   1      30.725  27.525  23.797  1.00  0.00    -0.249 NA
ATOM     74  C   UNL A   1      30.958  25.377  25.587  1.00  0.00     0.012 A 
ATOM     75  C   UNL A   1      30.309  26.294  23.462  1.00  0.00     0.113 A 
ATOM     76  C   UNL A   1      30.375  25.215  24.322  1.00  0.00     0.035 A 
BRANCH  74  77
ATOM     77  S   UNL A   1      30.902  23.968  26.684  1.00  0.00    -0.116 SA
BRANCH  77  78
ATOM     78  C   UNL A   1      30.791  22.473  25.623  1.00  0.00     0.175 C 
BRANCH  78  79
ATOM     79  C   UNL A   1      32.068  21.644  25.469  1.00  0.00     0.233 C 
ATOM     80  O   UNL A   1      31.975  20.467  25.094  1.00  0.00    -0.274 OA
ATOM     81  N   UNL A   1      33.360  22.384  25.451  1.00  0.00    -0.337 N 
ATOM     82  C   UNL A   1      35.017  22.924  26.771  1.00  0.00     0.148 C 
ATOM     83  C   UNL A   1      33.647  22.522  23.701  1.00  0.00     0.148 C 
ATOM     84  C   UNL A   1      36.572  23.446  25.817  1.00  0.00     0.181 C 
ATOM     85  C   UNL A   1      35.195  23.181  23.177  1.00  0.00     0.181 C 
ATOM     86  O   UNL A   1      36.522  23.170  24.106  1.00  0.00    -0.378 OA
ENDBRANCH  78  79
ENDBRANCH  77  78
ENDBRANCH  74  77
ENDBRANCH  69  71
ENDBRANCH  68  69
ENDBRANCH  67  68
ENDBRANCH   1  67
TORSDOF 17
ENDMDL
MODEL 3
REMARK VINA RESULT:     -10.7      3.229     12.308
REMARK SMILES O=C(OCCOC(=O)c1cc(SCC(=O)N2CCOCC2)ccn1)c1ccc(-c2c3nc(c(-c4ccc(S(=O)(=O)[O-])cc4)c4ccc([nH]4)c(-c4ccc(S(=O)(=O)[O-])cc4)c4nc(c(-c5ccc(S(=O)(=O)[O-])cc5)c5ccc2[nH]5)C=C4)C=C3)cc1
REMARK SMILES IDX 4 1 3 2 2 3 1 4 25 5 26 6 84 7 27 8 83 9 28 10 29 11 30 12
REMARK SMILES IDX 77 13 31 14 82 15 76 16 78 17 32 18 81 19 75 20 74 21 33 23
REMARK SMILES IDX 63 24 44 25 62 26 45 27 48 28 61 29 79 30 46 31 47 32 60 34
REMARK SMILES IDX 80 35 49 36 34 37 35 38 43 39 36 40 42 41 37 42 38 43 39 44
REMARK SMILES IDX 40 45 41 46 64 47 65 48 73 49 66 50 72 51 67 52 68 53 69 54
REMARK SMILES IDX 70 55 71 56 50 57 51 58 59 59 52 60 58 61 53 62 54 63 55 64
REMARK SMILES IDX 56 65 57 66 5 67 6 68 7 69 8 70 9 71 10 72 24 73 11 74 23 75
REMARK SMILES IDX 22 76 12 77 13 78 14 79 15 80 16 81 17 82 21 83 18 84 20 85
REMARK SMILES IDX 19 86
REMARK H PARENT 78 22 48 33
REMARK Flexibility Score: inf
ROOT
ATOM      1  C   UNL A   1      39.744  19.938  25.816  1.00  0.00     0.275 C 
ENDROOT
BRANCH   1   2
ATOM      2  O   UNL A   1      39.778  21.363  25.588  1.00  0.00    -0.458 OA
BRANCH   2   3
ATOM      3  C   UNL A   1      38.913  22.245  26.150  1.00  0.00     0.338 C 
ATOM      4  O   UNL A   1      37.730  22.254  25.830  1.00  0.00    -0.246 OA
BRANCH   3   5
ATOM      5  C   UNL A   1      39.442  23.381  26.975  1.00  0.00     0.060 A 
ATOM      6  C   UNL A   1      38.916  24.669  26.963  1.00  0.00     0.016 A 
ATOM      7  C   UNL A   1      40.609  23.150  27.736  1.00  0.00     0.016 A 
ATOM      8  C   UNL A   1      39.539  25.687  27.681  1.00  0.00     0.010 A 
ATOM      9  C   UNL A   1      41.232  24.178  28.471  1.00  0.00     0.010 A 
ATOM     10  C   UNL A   1      40.697  25.461  28.441  1.00  0.00    -0.014 A 
BRANCH  10  11
ATOM     11  C   UNL A   1      41.278  26.655  29.059  1.00  0.00     0.031 A 
ATOM     12  C   UNL A   1      42.751  27.051  28.860  1.00  0.00     0.074 A 
ATOM     13  C   UNL A   1      40.467  27.630  29.513  1.00  0.00     0.049 A 
ATOM     14  N   UNL A   1      43.355  28.175  29.190  1.00  0.00    -0.248 NA
ATOM     15  C   UNL A   1      43.672  26.045  28.338  1.00  0.00     0.031 C 
ATOM     16  C   UNL A   1      38.901  27.710  30.597  1.00  0.00     0.029 A 
ATOM     17  N   UNL A   1      41.027  29.314  29.434  1.00  0.00    -0.354 N 
ATOM     18  C   UNL A   1      44.719  28.030  28.999  1.00  0.00     0.074 A 
ATOM     19  C   UNL A   1      44.843  26.674  28.447  1.00  0.00     0.031 C 
ATOM     20  C   UNL A   1      38.512  29.261  31.048  1.00  0.00     0.029 A 
ATOM     21  C   UNL A   1      39.861  30.536  30.418  1.00  0.00     0.049 A 
ATOM     22  H   UNL A   1      41.834  29.601  28.948  1.00  0.00     0.167 HD
ATOM     23  C   UNL A   1      45.773  28.858  29.307  1.00  0.00     0.031 A 
ATOM     24  C   UNL A   1      39.870  31.837  30.922  1.00  0.00     0.031 A 
ATOM     25  C   UNL A   1      45.839  30.197  29.936  1.00  0.00     0.049 A 
ATOM     26  C   UNL A   1      41.059  32.826  31.067  1.00  0.00     0.074 A 
ATOM     27  C   UNL A   1      46.976  30.840  30.428  1.00  0.00     0.029 A 
ATOM     28  N   UNL A   1      44.830  31.149  30.111  1.00  0.00    -0.354 N 
ATOM     29  N   UNL A   1      42.314  32.498  31.017  1.00  0.00    -0.248 NA
ATOM     30  C   UNL A   1      40.918  34.260  31.357  1.00  0.00     0.031 C 
ATOM     31  C   UNL A   1      46.635  32.115  30.929  1.00  0.00     0.029 A 
ATOM     32  C   UNL A   1      45.278  32.319  30.751  1.00  0.00     0.049 A 
ATOM     33  H   UNL A   1      43.900  31.014  29.816  1.00  0.00     0.167 HD
ATOM     34  C   UNL A   1      43.120  33.571  31.154  1.00  0.00     0.074 A 
ATOM     35  C   UNL A   1      42.201  34.666  31.411  1.00  0.00     0.031 C 
ATOM     36  C   UNL A   1      44.477  33.518  31.077  1.00  0.00     0.031 A 
BRANCH  23  37
ATOM     37  C   UNL A   1      47.109  28.187  29.061  1.00  0.00    -0.014 A 
ATOM     38  C   UNL A   1      47.888  28.504  27.932  1.00  0.00     0.010 A 
ATOM     39  C   UNL A   1      47.535  27.167  29.936  1.00  0.00     0.010 A 
ATOM     40  C   UNL A   1      49.038  27.762  27.645  1.00  0.00     0.020 A 
ATOM     41  C   UNL A   1      48.694  26.437  29.661  1.00  0.00     0.020 A 
ATOM     42  C   UNL A   1      49.417  26.718  28.499  1.00  0.00     0.054 A 
BRANCH  42  43
ATOM     43  S   UNL A   1      50.867  25.707  28.087  1.00  0.00     0.124 S 
ATOM     44  O   UNL A   1      51.316  26.326  26.842  1.00  0.00    -0.237 OA
ATOM     45  O   UNL A   1      51.748  25.901  29.236  1.00  0.00    -0.237 OA
ATOM     46  O   UNL A   1      50.313  24.362  27.954  1.00  0.00    -0.744 OA
ENDBRANCH  42  43
ENDBRANCH  23  37
BRANCH  24  47
ATOM     47  C   UNL A   1      38.527  32.407  31.193  1.00  0.00    -0.014 A 
ATOM     48  C   UNL A   1      37.790  32.870  30.080  1.00  0.00     0.010 A 
ATOM     49  C   UNL A   1      37.981  32.516  32.478  1.00  0.00     0.010 A 
ATOM     50  C   UNL A   1      36.520  33.421  30.246  1.00  0.00     0.020 A 
ATOM     51  C   UNL A   1      36.695  33.051  32.645  1.00  0.00     0.020 A 
ATOM     52  C   UNL A   1      35.980  33.505  31.529  1.00  0.00     0.054 A 
BRANCH  52  53
ATOM     53  S   UNL A   1      34.298  34.157  31.737  1.00  0.00     0.124 S 
ATOM     54  O   UNL A   1      33.782  34.090  30.374  1.00  0.00    -0.237 OA
ATOM     55  O   UNL A   1      33.698  33.222  32.686  1.00  0.00    -0.237 OA
ATOM     56  O   UNL A   1      34.533  35.500  32.261  1.00  0.00    -0.744 OA
ENDBRANCH  52  53
ENDBRANCH  24  47
BRANCH  36  57
ATOM     57  C   UNL A   1      45.177  34.783  31.460  1.00  0.00    -0.014 A 
ATOM     58  C   UNL A   1      45.454  35.041  32.815  1.00  0.00     0.010 A 
ATOM     59  C   UNL A   1      45.594  35.701  30.485  1.00  0.00     0.010 A 
ATOM     60  C   UNL A   1      46.112  36.212  33.194  1.00  0.00     0.020 A 
ATOM     61  C   UNL A   1      46.260  36.875  30.860  1.00  0.00     0.020 A 
ATOM     62  C   UNL A   1      46.503  37.127  32.215  1.00  0.00     0.054 A 
BRANCH  62  63
ATOM     63  S   UNL A   1      47.375  38.635  32.725  1.00  0.00     0.124 S 
ATOM     64  O   UNL A   1      46.303  39.626  32.705  1.00  0.00    -0.237 OA
ATOM     65  O   UNL A   1      47.881  38.286  34.051  1.00  0.00    -0.237 OA
ATOM     66  O   UNL A   1      48.401  38.803  31.698  1.00  0.00    -0.744 OA
ENDBRANCH  62  63
ENDBRANCH  36  57
ENDBRANCH  10  11
ENDBRANCH   3   5
ENDBRANCH   2   3
ENDBRANCH   1   2
BRANCH   1  67
ATOM     67  C   UNL A   1      41.020  19.459  26.520  1.00  0.00     0.275 C 
BRANCH  67  68
ATOM     68  O   UNL A   1      41.761  18.532  25.709  1.00  0.00    -0.457 OA
BRANCH  68  69
ATOM     69  C   UNL A   1      42.937  18.120  26.260  1.00  0.00     0.357 C 
ATOM     70  O   UNL A   1      43.057  17.325  27.182  1.00  0.00    -0.244 OA
BRANCH  69  71
ATOM     71  C   UNL A   1      44.088  18.731  25.544  1.00  0.00     0.149 A 
ATOM     72  C   UNL A   1      43.938  19.914  24.822  1.00  0.00     0.051 A 
ATOM     73  N   UNL A   1      45.283  18.115  25.764  1.00  0.00    -0.249 NA
ATOM     74  C   UNL A   1      45.089  20.513  24.319  1.00  0.00     0.012 A 
ATOM     75  C   UNL A   1      46.372  18.708  25.254  1.00  0.00     0.113 A 
ATOM     76  C   UNL A   1      46.328  19.904  24.563  1.00  0.00     0.035 A 
BRANCH  74  77
ATOM     77  S   UNL A   1      45.122  22.112  23.524  1.00  0.00    -0.116 SA
BRANCH  77  78
ATOM     78  C   UNL A   1      46.388  23.114  24.398  1.00  0.00     0.175 C 
BRANCH  78  79
ATOM     79  C   UNL A   1      45.902  23.956  25.580  1.00  0.00     0.233 C 
ATOM     80  O   UNL A   1      46.466  23.830  26.675  1.00  0.00    -0.274 OA
ATOM     81  N   UNL A   1      45.012  25.110  25.272  1.00  0.00    -0.337 N 
ATOM     82  C   UNL A   1      42.896  25.653  25.253  1.00  0.00     0.148 C 
ATOM     83  C   UNL A   1      46.188  26.445  25.246  1.00  0.00     0.148 C 
ATOM     84  C   UNL A   1      42.622  27.531  25.243  1.00  0.00     0.181 C 
ATOM     85  C   UNL A   1      45.556  28.083  25.099  1.00  0.00     0.181 C 
ATOM     86  O   UNL A   1      44.043  28.490  25.506  1.00  0.00    -0.378 OA
ENDBRANCH  78  79
ENDBRANCH  77  78
ENDBRANCH  74  77
ENDBRANCH  69  71
ENDBRANCH  68  69
ENDBRANCH  67  68
ENDBRANCH   1  67
TORSDOF 17
ENDMDL
