MODEL 1
REMARK VINA RESULT:     -10.8      0.000      0.000
REMARK SMILES O=C(OCCOC(=O)[C@@H]1C=C[C@@H](NC(=O)[C@@H]2CCS(=O)(=O)C2)C1)c1ccc(-c2c3nc(c(-c4ccc(S(=O)(=O)[O-])cc4)c4ccc([nH]4)c(-c4ccc(S(=O)(=O)[O-])cc4)c4nc(c(-c5ccc(S(=O)(=O)[O-])cc5)c5ccc2[nH]5)C=C4)C=C3)cc1
REMARK SMILES IDX 4 1 3 2 2 3 1 4 24 5 25 6 83 7 26 8 82 9 27 10 28 11 29 12
REMARK SMILES IDX 76 13 30 14 81 15 75 16 77 17 31 18 80 19 74 20 73 21 32 23
REMARK SMILES IDX 62 24 43 25 61 26 44 27 47 28 60 29 78 30 45 31 46 32 59 34
REMARK SMILES IDX 79 35 48 36 33 37 34 38 42 39 35 40 41 41 36 42 37 43 38 44
REMARK SMILES IDX 39 45 40 46 63 47 64 48 72 49 65 50 71 51 66 52 67 53 68 54
REMARK SMILES IDX 69 55 70 56 49 57 50 58 58 59 51 60 57 61 52 62 53 63 54 64
REMARK SMILES IDX 55 65 56 66 5 67 6 68 7 69 8 70 9 71 10 72 23 73 11 74 12 75
REMARK SMILES IDX 13 76 14 77 15 79 16 80 17 81 22 82 18 83 19 84 20 85 21 86
REMARK H PARENT 77 22 47 33 13 78
REMARK Flexibility Score: inf
ROOT
ATOM      1  C   UNL A   1      35.013  33.547  29.002  1.00  0.00     0.275 C 
ENDROOT
BRANCH   1   2
ATOM      2  O   UNL A   1      34.653  32.343  29.667  1.00  0.00    -0.458 OA
BRANCH   2   3
ATOM      3  C   UNL A   1      35.465  31.582  30.426  1.00  0.00     0.338 C 
ATOM      4  O   UNL A   1      35.290  31.611  31.645  1.00  0.00    -0.246 OA
BRANCH   3   5
ATOM      5  C   UNL A   1      36.624  30.768  29.899  1.00  0.00     0.060 A 
ATOM      6  C   UNL A   1      37.099  30.601  28.586  1.00  0.00     0.016 A 
ATOM      7  C   UNL A   1      37.396  30.202  30.900  1.00  0.00     0.016 A 
ATOM      8  C   UNL A   1      38.374  30.063  28.298  1.00  0.00     0.010 A 
ATOM      9  C   UNL A   1      38.661  29.706  30.607  1.00  0.00     0.010 A 
ATOM     10  C   UNL A   1      39.213  29.672  29.325  1.00  0.00    -0.014 A 
BRANCH  10  11
ATOM     11  C   UNL A   1      40.629  29.205  29.188  1.00  0.00     0.031 A 
ATOM     12  C   UNL A   1      41.725  30.236  29.367  1.00  0.00     0.074 A 
ATOM     13  C   UNL A   1      40.943  27.976  28.718  1.00  0.00     0.049 A 
ATOM     14  N   UNL A   1      42.936  30.266  28.881  1.00  0.00    -0.248 NA
ATOM     15  C   UNL A   1      41.340  31.463  30.083  1.00  0.00     0.031 C 
ATOM     16  C   UNL A   1      40.012  26.872  28.475  1.00  0.00     0.029 A 
ATOM     17  N   UNL A   1      42.158  27.459  28.332  1.00  0.00    -0.354 N 
ATOM     18  C   UNL A   1      43.391  31.572  29.087  1.00  0.00     0.074 A 
ATOM     19  C   UNL A   1      42.302  32.290  29.708  1.00  0.00     0.031 C 
ATOM     20  C   UNL A   1      40.690  25.804  28.011  1.00  0.00     0.029 A 
ATOM     21  C   UNL A   1      42.100  26.153  27.894  1.00  0.00     0.049 A 
ATOM     22  H   UNL A   1      42.995  27.975  28.366  1.00  0.00     0.167 HD
ATOM     23  C   UNL A   1      44.600  32.105  28.778  1.00  0.00     0.031 A 
ATOM     24  C   UNL A   1      43.080  25.328  27.469  1.00  0.00     0.031 A 
ATOM     25  C   UNL A   1      45.707  31.287  28.351  1.00  0.00     0.049 A 
ATOM     26  C   UNL A   1      44.493  25.851  27.438  1.00  0.00     0.074 A 
ATOM     27  C   UNL A   1      47.030  31.646  28.162  1.00  0.00     0.029 A 
ATOM     28  N   UNL A   1      45.626  29.923  28.108  1.00  0.00    -0.354 N 
ATOM     29  N   UNL A   1      44.912  27.085  27.591  1.00  0.00    -0.248 NA
ATOM     30  C   UNL A   1      45.567  24.870  27.232  1.00  0.00     0.031 C 
ATOM     31  C   UNL A   1      47.745  30.501  27.797  1.00  0.00     0.029 A 
ATOM     32  C   UNL A   1      46.881  29.418  27.837  1.00  0.00     0.049 A 
ATOM     33  H   UNL A   1      44.795  29.394  28.127  1.00  0.00     0.167 HD
ATOM     34  C   UNL A   1      46.299  27.021  27.558  1.00  0.00     0.074 A 
ATOM     35  C   UNL A   1      46.649  25.627  27.368  1.00  0.00     0.031 C 
ATOM     36  C   UNL A   1      47.203  28.021  27.689  1.00  0.00     0.031 A 
BRANCH  23  37
ATOM     37  C   UNL A   1      44.787  33.611  28.855  1.00  0.00    -0.014 A 
ATOM     38  C   UNL A   1      45.162  34.291  30.029  1.00  0.00     0.010 A 
ATOM     39  C   UNL A   1      44.535  34.384  27.701  1.00  0.00     0.010 A 
ATOM     40  C   UNL A   1      45.126  35.691  30.090  1.00  0.00     0.020 A 
ATOM     41  C   UNL A   1      44.564  35.783  27.737  1.00  0.00     0.020 A 
ATOM     42  C   UNL A   1      44.803  36.427  28.948  1.00  0.00     0.054 A 
BRANCH  42  43
ATOM     43  S   UNL A   1      44.702  38.235  29.066  1.00  0.00     0.124 S 
ATOM     44  O   UNL A   1      45.595  38.525  30.186  1.00  0.00    -0.237 OA
ATOM     45  O   UNL A   1      45.187  38.673  27.759  1.00  0.00    -0.237 OA
ATOM     46  O   UNL A   1      43.285  38.493  29.314  1.00  0.00    -0.744 OA
ENDBRANCH  42  43
ENDBRANCH  23  37
BRANCH  24  47
ATOM     47  C   UNL A   1      42.796  23.891  27.192  1.00  0.00    -0.014 A 
ATOM     48  C   UNL A   1      42.796  23.433  25.860  1.00  0.00     0.010 A 
ATOM     49  C   UNL A   1      42.536  22.973  28.225  1.00  0.00     0.010 A 
ATOM     50  C   UNL A   1      42.521  22.097  25.562  1.00  0.00     0.020 A 
ATOM     51  C   UNL A   1      42.282  21.625  27.930  1.00  0.00     0.020 A 
ATOM     52  C   UNL A   1      42.270  21.198  26.600  1.00  0.00     0.054 A 
BRANCH  52  53
ATOM     53  S   UNL A   1      41.974  19.456  26.180  1.00  0.00     0.124 S 
ATOM     54  O   UNL A   1      42.315  18.778  27.427  1.00  0.00    -0.237 OA
ATOM     55  O   UNL A   1      40.557  19.458  25.828  1.00  0.00    -0.237 OA
ATOM     56  O   UNL A   1      42.885  19.214  25.065  1.00  0.00    -0.744 OA
ENDBRANCH  52  53
ENDBRANCH  24  47
BRANCH  36  57
ATOM     57  C   UNL A   1      48.661  27.660  27.748  1.00  0.00    -0.014 A 
ATOM     58  C   UNL A   1      49.448  27.547  26.591  1.00  0.00     0.010 A 
ATOM     59  C   UNL A   1      49.271  27.548  29.013  1.00  0.00     0.010 A 
ATOM     60  C   UNL A   1      50.823  27.316  26.700  1.00  0.00     0.020 A 
ATOM     61  C   UNL A   1      50.646  27.344  29.125  1.00  0.00     0.020 A 
ATOM     62  C   UNL A   1      51.413  27.223  27.965  1.00  0.00     0.054 A 
BRANCH  62  63
ATOM     63  S   UNL A   1      53.209  27.003  28.078  1.00  0.00     0.124 S 
ATOM     64  O   UNL A   1      53.682  28.383  28.135  1.00  0.00    -0.237 OA
ATOM     65  O   UNL A   1      53.360  26.235  29.310  1.00  0.00    -0.237 OA
ATOM     66  O   UNL A   1      53.549  26.280  26.854  1.00  0.00    -0.744 OA
ENDBRANCH  62  63
ENDBRANCH  36  57
ENDBRANCH  10  11
ENDBRANCH   3   5
ENDBRANCH   2   3
ENDBRANCH   1   2
BRANCH   1  67
ATOM     67  C   UNL A   1      33.815  34.275  28.359  1.00  0.00     0.274 C 
BRANCH  67  68
ATOM     68  O   UNL A   1      32.749  34.692  29.261  1.00  0.00    -0.462 OA
BRANCH  68  69
ATOM     69  C   UNL A   1      32.918  35.901  29.867  1.00  0.00     0.312 C 
ATOM     70  O   UNL A   1      33.134  36.934  29.238  1.00  0.00    -0.252 OA
BRANCH  69  71
ATOM     71  C   UNL A   1      32.862  35.911  31.414  1.00  0.00     0.124 C 
ATOM     72  C   UNL A   1      33.173  37.112  32.255  1.00  0.00    -0.014 C 
ATOM     73  C   UNL A   1      33.722  34.809  32.077  1.00  0.00     0.048 C 
ATOM     74  C   UNL A   1      34.072  36.845  33.217  1.00  0.00    -0.006 C 
ATOM     75  C   UNL A   1      34.698  35.505  33.046  1.00  0.00     0.106 C 
BRANCH  75  76
ATOM     76  N   UNL A   1      34.914  34.820  34.310  1.00  0.00    -0.350 N 
ATOM     77  C   UNL A   1      36.035  34.212  34.828  1.00  0.00     0.224 C 
ATOM     78  H   UNL A   1      34.123  34.784  34.895  1.00  0.00     0.164 HD
ATOM     79  O   UNL A   1      35.921  33.542  35.855  1.00  0.00    -0.275 OA
BRANCH  77  80
ATOM     80  C   UNL A   1      37.404  34.393  34.178  1.00  0.00     0.094 C 
ATOM     81  C   UNL A   1      37.784  33.329  33.136  1.00  0.00     0.030 C 
ATOM     82  C   UNL A   1      38.517  34.394  35.228  1.00  0.00     0.150 C 
ATOM     83  C   UNL A   1      38.399  32.130  33.844  1.00  0.00     0.138 C 
ATOM     84  S   UNL A   1      39.281  32.795  35.227  1.00  0.00     0.151 S 
ATOM     85  O   UNL A   1      38.905  32.078  36.430  1.00  0.00    -0.229 OA
ATOM     86  O   UNL A   1      40.651  32.985  34.816  1.00  0.00    -0.229 OA
ENDBRANCH  77  80
ENDBRANCH  75  76
ENDBRANCH  69  71
ENDBRANCH  68  69
ENDBRANCH  67  68
ENDBRANCH   1  67
TORSDOF 16
ENDMDL
MODEL 2
REMARK VINA RESULT:     -10.7      5.764     10.017
REMARK SMILES O=C(OCCOC(=O)[C@@H]1C=C[C@@H](NC(=O)[C@@H]2CCS(=O)(=O)C2)C1)c1ccc(-c2c3nc(c(-c4ccc(S(=O)(=O)[O-])cc4)c4ccc([nH]4)c(-c4ccc(S(=O)(=O)[O-])cc4)c4nc(c(-c5ccc(S(=O)(=O)[O-])cc5)c5ccc2[nH]5)C=C4)C=C3)cc1
REMARK SMILES IDX 4 1 3 2 2 3 1 4 24 5 25 6 83 7 26 8 82 9 27 10 28 11 29 12
REMARK SMILES IDX 76 13 30 14 81 15 75 16 77 17 31 18 80 19 74 20 73 21 32 23
REMARK SMILES IDX 62 24 43 25 61 26 44 27 47 28 60 29 78 30 45 31 46 32 59 34
REMARK SMILES IDX 79 35 48 36 33 37 34 38 42 39 35 40 41 41 36 42 37 43 38 44
REMARK SMILES IDX 39 45 40 46 63 47 64 48 72 49 65 50 71 51 66 52 67 53 68 54
REMARK SMILES IDX 69 55 70 56 49 57 50 58 58 59 51 60 57 61 52 62 53 63 54 64
REMARK SMILES IDX 55 65 56 66 5 67 6 68 7 69 8 70 9 71 10 72 23 73 11 74 12 75
REMARK SMILES IDX 13 76 14 77 15 79 16 80 17 81 22 82 18 83 19 84 20 85 21 86
REMARK H PARENT 77 22 47 33 13 78
REMARK Flexibility Score: inf
ROOT
ATOM      1  C   UNL A   1      33.304  37.241  29.685  1.00  0.00     0.275 C 
ENDROOT
BRANCH   1   2
ATOM      2  O   UNL A   1      32.339  36.500  30.422  1.00  0.00    -0.458 OA
BRANCH   2   3
ATOM      3  C   UNL A   1      32.490  36.020  31.670  1.00  0.00     0.338 C 
ATOM      4  O   UNL A   1      31.637  36.330  32.503  1.00  0.00    -0.246 OA
BRANCH   3   5
ATOM      5  C   UNL A   1      33.671  35.203  32.142  1.00  0.00     0.060 A 
ATOM      6  C   UNL A   1      34.195  33.992  31.654  1.00  0.00     0.016 A 
ATOM      7  C   UNL A   1      34.407  35.826  33.135  1.00  0.00     0.016 A 
ATOM      8  C   UNL A   1      35.482  33.522  32.003  1.00  0.00     0.010 A 
ATOM      9  C   UNL A   1      35.684  35.372  33.444  1.00  0.00     0.010 A 
ATOM     10  C   UNL A   1      36.284  34.256  32.857  1.00  0.00    -0.014 A 
BRANCH  10  11
ATOM     11  C   UNL A   1      37.706  33.958  33.220  1.00  0.00     0.031 A 
ATOM     12  C   UNL A   1      38.027  33.766  34.688  1.00  0.00     0.074 A 
ATOM     13  C   UNL A   1      38.715  34.058  32.326  1.00  0.00     0.049 A 
ATOM     14  N   UNL A   1      39.145  33.957  35.333  1.00  0.00    -0.248 NA
ATOM     15  C   UNL A   1      36.883  33.449  35.559  1.00  0.00     0.031 C 
ATOM     16  C   UNL A   1      38.584  34.255  30.880  1.00  0.00     0.029 A 
ATOM     17  N   UNL A   1      40.077  34.030  32.520  1.00  0.00    -0.354 N 
ATOM     18  C   UNL A   1      38.803  33.948  36.688  1.00  0.00     0.074 A 
ATOM     19  C   UNL A   1      37.370  33.769  36.747  1.00  0.00     0.031 C 
ATOM     20  C   UNL A   1      39.807  34.302  30.318  1.00  0.00     0.029 A 
ATOM     21  C   UNL A   1      40.814  34.168  31.363  1.00  0.00     0.049 A 
ATOM     22  H   UNL A   1      40.490  33.921  33.407  1.00  0.00     0.167 HD
ATOM     23  C   UNL A   1      39.615  34.082  37.768  1.00  0.00     0.031 A 
ATOM     24  C   UNL A   1      42.150  34.163  31.171  1.00  0.00     0.031 A 
ATOM     25  C   UNL A   1      41.052  34.052  37.649  1.00  0.00     0.049 A 
ATOM     26  C   UNL A   1      43.045  33.986  32.369  1.00  0.00     0.074 A 
ATOM     27  C   UNL A   1      42.005  34.008  38.651  1.00  0.00     0.029 A 
ATOM     28  N   UNL A   1      41.737  33.997  36.443  1.00  0.00    -0.354 N 
ATOM     29  N   UNL A   1      42.726  34.019  33.641  1.00  0.00    -0.248 NA
ATOM     30  C   UNL A   1      44.466  33.716  32.111  1.00  0.00     0.031 C 
ATOM     31  C   UNL A   1      43.265  33.935  38.050  1.00  0.00     0.029 A 
ATOM     32  C   UNL A   1      43.090  33.854  36.678  1.00  0.00     0.049 A 
ATOM     33  H   UNL A   1      41.320  34.052  35.553  1.00  0.00     0.167 HD
ATOM     34  C   UNL A   1      43.892  33.718  34.333  1.00  0.00     0.074 A 
ATOM     35  C   UNL A   1      44.926  33.508  33.339  1.00  0.00     0.031 C 
ATOM     36  C   UNL A   1      44.088  33.609  35.669  1.00  0.00     0.031 A 
BRANCH  23  37
ATOM     37  C   UNL A   1      38.996  34.302  39.138  1.00  0.00    -0.014 A 
ATOM     38  C   UNL A   1      38.910  35.561  39.761  1.00  0.00     0.010 A 
ATOM     39  C   UNL A   1      38.514  33.183  39.850  1.00  0.00     0.010 A 
ATOM     40  C   UNL A   1      38.511  35.674  41.100  1.00  0.00     0.020 A 
ATOM     41  C   UNL A   1      38.050  33.298  41.166  1.00  0.00     0.020 A 
ATOM     42  C   UNL A   1      38.106  34.536  41.801  1.00  0.00     0.054 A 
BRANCH  42  43
ATOM     43  S   UNL A   1      37.654  34.696  43.551  1.00  0.00     0.124 S 
ATOM     44  O   UNL A   1      38.277  33.514  44.143  1.00  0.00    -0.237 OA
ATOM     45  O   UNL A   1      38.261  35.971  43.928  1.00  0.00    -0.237 OA
ATOM     46  O   UNL A   1      36.193  34.691  43.539  1.00  0.00    -0.744 OA
ENDBRANCH  42  43
ENDBRANCH  23  37
BRANCH  24  47
ATOM     47  C   UNL A   1      42.718  34.170  29.793  1.00  0.00    -0.014 A 
ATOM     48  C   UNL A   1      43.170  32.961  29.229  1.00  0.00     0.010 A 
ATOM     49  C   UNL A   1      42.809  35.349  29.032  1.00  0.00     0.010 A 
ATOM     50  C   UNL A   1      43.721  32.930  27.946  1.00  0.00     0.020 A 
ATOM     51  C   UNL A   1      43.340  35.318  27.734  1.00  0.00     0.020 A 
ATOM     52  C   UNL A   1      43.798  34.110  27.202  1.00  0.00     0.054 A 
BRANCH  52  53
ATOM     53  S   UNL A   1      44.465  34.024  25.515  1.00  0.00     0.124 S 
ATOM     54  O   UNL A   1      44.881  32.629  25.421  1.00  0.00    -0.237 OA
ATOM     55  O   UNL A   1      43.307  34.395  24.705  1.00  0.00    -0.237 OA
ATOM     56  O   UNL A   1      45.548  35.003  25.524  1.00  0.00    -0.744 OA
ENDBRANCH  52  53
ENDBRANCH  24  47
BRANCH  36  57
ATOM     57  C   UNL A   1      45.431  33.139  36.155  1.00  0.00    -0.014 A 
ATOM     58  C   UNL A   1      46.457  34.036  36.494  1.00  0.00     0.010 A 
ATOM     59  C   UNL A   1      45.614  31.762  36.385  1.00  0.00     0.010 A 
ATOM     60  C   UNL A   1      47.650  33.559  37.044  1.00  0.00     0.020 A 
ATOM     61  C   UNL A   1      46.792  31.286  36.959  1.00  0.00     0.020 A 
ATOM     62  C   UNL A   1      47.806  32.189  37.279  1.00  0.00     0.054 A 
BRANCH  62  63
ATOM     63  S   UNL A   1      49.332  31.606  38.068  1.00  0.00     0.124 S 
ATOM     64  O   UNL A   1      49.456  30.255  37.529  1.00  0.00    -0.237 OA
ATOM     65  O   UNL A   1      50.324  32.567  37.593  1.00  0.00    -0.237 OA
ATOM     66  O   UNL A   1      49.034  31.680  39.497  1.00  0.00    -0.744 OA
ENDBRANCH  62  63
ENDBRANCH  36  57
ENDBRANCH  10  11
ENDBRANCH   3   5
ENDBRANCH   2   3
ENDBRANCH   1   2
BRANCH   1  67
ATOM     67  C   UNL A   1      33.751  36.544  28.384  1.00  0.00     0.274 C 
BRANCH  67  68
ATOM     68  O   UNL A   1      34.458  35.278  28.535  1.00  0.00    -0.462 OA
BRANCH  68  69
ATOM     69  C   UNL A   1      33.794  34.168  28.105  1.00  0.00     0.312 C 
ATOM     70  O   UNL A   1      32.568  34.106  28.057  1.00  0.00    -0.252 OA
BRANCH  69  71
ATOM     71  C   UNL A   1      34.666  32.953  27.706  1.00  0.00     0.124 C 
ATOM     72  C   UNL A   1      34.343  31.535  28.069  1.00  0.00    -0.014 C 
ATOM     73  C   UNL A   1      36.146  33.078  28.140  1.00  0.00     0.048 C 
ATOM     74  C   UNL A   1      35.378  30.907  28.651  1.00  0.00    -0.006 C 
ATOM     75  C   UNL A   1      36.481  31.843  28.999  1.00  0.00     0.106 C 
BRANCH  75  76
ATOM     76  N   UNL A   1      37.798  31.268  28.774  1.00  0.00    -0.350 N 
ATOM     77  C   UNL A   1      38.718  30.746  29.655  1.00  0.00     0.224 C 
ATOM     78  H   UNL A   1      38.080  31.250  27.832  1.00  0.00     0.164 HD
ATOM     79  O   UNL A   1      39.845  30.475  29.240  1.00  0.00    -0.275 OA
BRANCH  77  80
ATOM     80  C   UNL A   1      38.347  30.462  31.109  1.00  0.00     0.094 C 
ATOM     81  C   UNL A   1      39.534  30.305  32.073  1.00  0.00     0.030 C 
ATOM     82  C   UNL A   1      37.518  29.180  31.225  1.00  0.00     0.150 C 
ATOM     83  C   UNL A   1      40.030  28.867  32.031  1.00  0.00     0.138 C 
ATOM     84  S   UNL A   1      38.589  27.874  31.764  1.00  0.00     0.151 S 
ATOM     85  O   UNL A   1      38.829  26.960  30.665  1.00  0.00    -0.229 OA
ATOM     86  O   UNL A   1      38.112  27.448  33.057  1.00  0.00    -0.229 OA
ENDBRANCH  77  80
ENDBRANCH  75  76
ENDBRANCH  69  71
ENDBRANCH  68  69
ENDBRANCH  67  68
ENDBRANCH   1  67
TORSDOF 16
ENDMDL
MODEL 3
REMARK VINA RESULT:     -10.5      5.495     11.994
REMARK SMILES O=C(OCCOC(=O)[C@@H]1C=C[C@@H](NC(=O)[C@@H]2CCS(=O)(=O)C2)C1)c1ccc(-c2c3nc(c(-c4ccc(S(=O)(=O)[O-])cc4)c4ccc([nH]4)c(-c4ccc(S(=O)(=O)[O-])cc4)c4nc(c(-c5ccc(S(=O)(=O)[O-])cc5)c5ccc2[nH]5)C=C4)C=C3)cc1
REMARK SMILES IDX 4 1 3 2 2 3 1 4 24 5 25 6 83 7 26 8 82 9 27 10 28 11 29 12
REMARK SMILES IDX 76 13 30 14 81 15 75 16 77 17 31 18 80 19 74 20 73 21 32 23
REMARK SMILES IDX 62 24 43 25 61 26 44 27 47 28 60 29 78 30 45 31 46 32 59 34
REMARK SMILES IDX 79 35 48 36 33 37 34 38 42 39 35 40 41 41 36 42 37 43 38 44
REMARK SMILES IDX 39 45 40 46 63 47 64 48 72 49 65 50 71 51 66 52 67 53 68 54
REMARK SMILES IDX 69 55 70 56 49 57 50 58 58 59 51 60 57 61 52 62 53 63 54 64
REMARK SMILES IDX 55 65 56 66 5 67 6 68 7 69 8 70 9 71 10 72 23 73 11 74 12 75
REMARK SMILES IDX 13 76 14 77 15 79 16 80 17 81 22 82 18 83 19 84 20 85 21 86
REMARK H PARENT 77 22 47 33 13 78
REMARK Flexibility Score: inf
ROOT
ATOM      1  C   UNL A   1      36.998  22.906  24.251  1.00  0.00     0.275 C 
ENDROOT
BRANCH   1   2
ATOM      2  O   UNL A   1      37.478  23.485  25.458  1.00  0.00    -0.458 OA
BRANCH   2   3
ATOM      3  C   UNL A   1      38.711  23.332  25.976  1.00  0.00     0.338 C 
ATOM      4  O   UNL A   1      39.214  22.209  25.917  1.00  0.00    -0.246 OA
BRANCH   3   5
ATOM      5  C   UNL A   1      39.483  24.413  26.697  1.00  0.00     0.060 A 
ATOM      6  C   UNL A   1      40.346  25.405  26.198  1.00  0.00     0.016 A 
ATOM      7  C   UNL A   1      39.181  24.494  28.046  1.00  0.00     0.016 A 
ATOM      8  C   UNL A   1      40.739  26.528  26.961  1.00  0.00     0.010 A 
ATOM      9  C   UNL A   1      39.545  25.621  28.775  1.00  0.00     0.010 A 
ATOM     10  C   UNL A   1      40.276  26.690  28.253  1.00  0.00    -0.014 A 
BRANCH  10  11
ATOM     11  C   UNL A   1      40.498  27.879  29.136  1.00  0.00     0.031 A 
ATOM     12  C   UNL A   1      41.692  27.843  30.068  1.00  0.00     0.074 A 
ATOM     13  C   UNL A   1      39.578  28.860  29.273  1.00  0.00     0.049 A 
ATOM     14  N   UNL A   1      41.883  28.446  31.210  1.00  0.00    -0.248 NA
ATOM     15  C   UNL A   1      42.751  26.883  29.717  1.00  0.00     0.031 C 
ATOM     16  C   UNL A   1      38.365  29.035  28.470  1.00  0.00     0.029 A 
ATOM     17  N   UNL A   1      39.515  29.897  30.176  1.00  0.00    -0.354 N 
ATOM     18  C   UNL A   1      42.990  27.816  31.786  1.00  0.00     0.074 A 
ATOM     19  C   UNL A   1      43.388  26.771  30.872  1.00  0.00     0.031 C 
ATOM     20  C   UNL A   1      37.697  30.125  28.895  1.00  0.00     0.029 A 
ATOM     21  C   UNL A   1      38.413  30.712  30.020  1.00  0.00     0.049 A 
ATOM     22  H   UNL A   1      40.194  30.043  30.872  1.00  0.00     0.167 HD
ATOM     23  C   UNL A   1      43.602  28.092  32.966  1.00  0.00     0.031 A 
ATOM     24  C   UNL A   1      38.043  31.819  30.696  1.00  0.00     0.031 A 
ATOM     25  C   UNL A   1      43.286  29.273  33.730  1.00  0.00     0.049 A 
ATOM     26  C   UNL A   1      38.924  32.302  31.819  1.00  0.00     0.074 A 
ATOM     27  C   UNL A   1      43.924  29.780  34.849  1.00  0.00     0.029 A 
ATOM     28  N   UNL A   1      42.276  30.168  33.408  1.00  0.00    -0.354 N 
ATOM     29  N   UNL A   1      39.937  31.689  32.385  1.00  0.00    -0.248 NA
ATOM     30  C   UNL A   1      38.650  33.640  32.359  1.00  0.00     0.031 C 
ATOM     31  C   UNL A   1      43.293  30.975  35.206  1.00  0.00     0.029 A 
ATOM     32  C   UNL A   1      42.315  31.251  34.264  1.00  0.00     0.049 A 
ATOM     33  H   UNL A   1      41.627  30.049  32.677  1.00  0.00     0.167 HD
ATOM     34  C   UNL A   1      40.458  32.589  33.306  1.00  0.00     0.074 A 
ATOM     35  C   UNL A   1      39.646  33.787  33.225  1.00  0.00     0.031 C 
ATOM     36  C   UNL A   1      41.520  32.445  34.133  1.00  0.00     0.031 A 
BRANCH  23  37
ATOM     37  C   UNL A   1      44.627  27.114  33.516  1.00  0.00    -0.014 A 
ATOM     38  C   UNL A   1      46.002  27.181  33.226  1.00  0.00     0.010 A 
ATOM     39  C   UNL A   1      44.180  26.053  34.332  1.00  0.00     0.010 A 
ATOM     40  C   UNL A   1      46.866  26.142  33.598  1.00  0.00     0.020 A 
ATOM     41  C   UNL A   1      45.051  25.047  34.766  1.00  0.00     0.020 A 
ATOM     42  C   UNL A   1      46.378  25.069  34.346  1.00  0.00     0.054 A 
BRANCH  42  43
ATOM     43  S   UNL A   1      47.500  23.706  34.764  1.00  0.00     0.124 S 
ATOM     44  O   UNL A   1      46.721  22.531  34.376  1.00  0.00    -0.237 OA
ATOM     45  O   UNL A   1      48.667  23.978  33.927  1.00  0.00    -0.237 OA
ATOM     46  O   UNL A   1      47.724  23.860  36.199  1.00  0.00    -0.744 OA
ENDBRANCH  42  43
ENDBRANCH  23  37
BRANCH  24  47
ATOM     47  C   UNL A   1      36.881  32.634  30.239  1.00  0.00    -0.014 A 
ATOM     48  C   UNL A   1      35.686  32.606  30.984  1.00  0.00     0.010 A 
ATOM     49  C   UNL A   1      36.945  33.439  29.088  1.00  0.00     0.010 A 
ATOM     50  C   UNL A   1      34.572  33.346  30.579  1.00  0.00     0.020 A 
ATOM     51  C   UNL A   1      35.835  34.201  28.691  1.00  0.00     0.020 A 
ATOM     52  C   UNL A   1      34.655  34.144  29.436  1.00  0.00     0.054 A 
BRANCH  52  53
ATOM     53  S   UNL A   1      33.207  35.138  28.972  1.00  0.00     0.124 S 
ATOM     54  O   UNL A   1      32.529  35.309  30.252  1.00  0.00    -0.237 OA
ATOM     55  O   UNL A   1      33.823  36.341  28.416  1.00  0.00    -0.237 OA
ATOM     56  O   UNL A   1      32.512  34.298  28.000  1.00  0.00    -0.744 OA
ENDBRANCH  52  53
ENDBRANCH  24  47
BRANCH  36  57
ATOM     57  C   UNL A   1      41.957  33.632  34.945  1.00  0.00    -0.014 A 
ATOM     58  C   UNL A   1      41.443  33.889  36.226  1.00  0.00     0.010 A 
ATOM     59  C   UNL A   1      42.998  34.438  34.444  1.00  0.00     0.010 A 
ATOM     60  C   UNL A   1      41.957  34.943  36.988  1.00  0.00     0.020 A 
ATOM     61  C   UNL A   1      43.531  35.473  35.212  1.00  0.00     0.020 A 
ATOM     62  C   UNL A   1      43.002  35.722  36.478  1.00  0.00     0.054 A 
BRANCH  62  63
ATOM     63  S   UNL A   1      43.704  37.030  37.519  1.00  0.00     0.124 S 
ATOM     64  O   UNL A   1      44.933  36.409  38.001  1.00  0.00    -0.237 OA
ATOM     65  O   UNL A   1      43.882  38.129  36.574  1.00  0.00    -0.237 OA
ATOM     66  O   UNL A   1      42.679  37.253  38.537  1.00  0.00    -0.744 OA
ENDBRANCH  62  63
ENDBRANCH  36  57
ENDBRANCH  10  11
ENDBRANCH   3   5
ENDBRANCH   2   3
ENDBRANCH   1   2
BRANCH   1  67
ATOM     67  C   UNL A   1      36.151  21.636  24.474  1.00  0.00     0.274 C 
BRANCH  67  68
ATOM     68  O   UNL A   1      35.251  21.650  25.621  1.00  0.00    -0.462 OA
BRANCH  68  69
ATOM     69  C   UNL A   1      33.973  21.237  25.382  1.00  0.00     0.312 C 
ATOM     70  O   UNL A   1      33.702  20.350  24.577  1.00  0.00    -0.252 OA
BRANCH  69  71
ATOM     71  C   UNL A   1      32.854  21.974  26.158  1.00  0.00     0.124 C 
ATOM     72  C   UNL A   1      31.395  21.855  25.837  1.00  0.00    -0.014 C 
ATOM     73  C   UNL A   1      33.053  23.507  26.235  1.00  0.00     0.048 C 
ATOM     74  C   UNL A   1      30.802  23.052  25.695  1.00  0.00    -0.006 C 
ATOM     75  C   UNL A   1      31.788  24.167  25.654  1.00  0.00     0.106 C 
BRANCH  75  76
ATOM     76  N   UNL A   1      31.325  25.352  26.358  1.00  0.00    -0.350 N 
ATOM     77  C   UNL A   1      31.943  26.559  26.596  1.00  0.00     0.224 C 
ATOM     78  H   UNL A   1      30.416  25.279  26.727  1.00  0.00     0.164 HD
ATOM     79  O   UNL A   1      31.409  27.352  27.373  1.00  0.00    -0.275 OA
BRANCH  77  80
ATOM     80  C   UNL A   1      33.240  26.938  25.885  1.00  0.00     0.094 C 
ATOM     81  C   UNL A   1      33.887  28.253  26.350  1.00  0.00     0.030 C 
ATOM     82  C   UNL A   1      33.022  27.067  24.376  1.00  0.00     0.150 C 
ATOM     83  C   UNL A   1      33.260  29.415  25.594  1.00  0.00     0.138 C 
ATOM     84  S   UNL A   1      32.888  28.790  23.981  1.00  0.00     0.151 S 
ATOM     85  O   UNL A   1      31.512  29.104  23.647  1.00  0.00    -0.229 OA
ATOM     86  O   UNL A   1      34.002  29.112  23.124  1.00  0.00    -0.229 OA
ENDBRANCH  77  80
ENDBRANCH  75  76
ENDBRANCH  69  71
ENDBRANCH  68  69
ENDBRANCH  67  68
ENDBRANCH   1  67
TORSDOF 16
ENDMDL
