MODEL 1
REMARK VINA RESULT:     -11.6      0.000      0.000
REMARK SMILES C[C@@H](C(=O)OCCOC(=O)c1ccc(-c2c3nc(c(-c4ccc(S(=O)(=O)[O-])cc4)c4ccc([nH]4)c(-c4ccc(S(=O)(=O)[O-])cc4)c4nc(c(-c5ccc(S(=O)(=O)[O-])cc5)c5ccc2[nH]5)C=C4)C=C3)cc1)c1ccc2c3cc(Cl)ccc3n(C(=O)c3cocn3)c2c1
REMARK SMILES IDX 6 1 5 2 3 3 4 4 2 5 1 6 71 7 72 8 91 9 73 10 90 11 74 12
REMARK SMILES IDX 82 13 75 14 81 15 76 16 80 17 77 18 79 19 78 20 83 21 84 22
REMARK SMILES IDX 85 23 86 24 89 25 87 26 88 27 7 28 8 29 9 30 10 31 11 32
REMARK SMILES IDX 12 33 70 34 13 35 69 36 14 37 15 38 16 39 63 40 17 41 68 42
REMARK SMILES IDX 62 43 64 44 18 45 67 46 61 47 60 48 19 50 49 51 30 52 48 53
REMARK SMILES IDX 31 54 34 55 47 56 65 57 32 58 33 59 46 61 66 62 35 63 20 64
REMARK SMILES IDX 21 65 29 66 22 67 28 68 23 69 24 70 25 71 26 72 27 73 50 74
REMARK SMILES IDX 51 75 59 76 52 77 58 78 53 79 54 80 55 81 56 82 57 83 36 84
REMARK SMILES IDX 37 85 45 86 38 87 44 88 39 89 40 90 41 91 42 92 43 93
REMARK H PARENT 64 49 34 60
REMARK Flexibility Score: inf
ROOT
ATOM      1  C   UNL A   1      35.890  21.202  25.199  1.00  0.00     0.274 C 
ENDROOT
BRANCH   1   2
ATOM      2  O   UNL A   1      34.892  21.523  24.208  1.00  0.00    -0.462 OA
BRANCH   2   3
ATOM      3  C   UNL A   1      33.607  21.598  24.661  1.00  0.00     0.313 C 
ATOM      4  O   UNL A   1      33.151  20.769  25.438  1.00  0.00    -0.252 OA
BRANCH   3   5
ATOM      5  C   UNL A   1      32.783  22.728  23.981  1.00  0.00     0.126 C 
ATOM      6  C   UNL A   1      32.815  22.579  22.451  1.00  0.00     0.025 C 
BRANCH   5   7
ATOM      7  C   UNL A   1      33.141  24.153  24.457  1.00  0.00    -0.032 A 
ATOM      8  C   UNL A   1      34.055  24.408  25.491  1.00  0.00     0.005 A 
ATOM      9  C   UNL A   1      32.518  25.260  23.861  1.00  0.00     0.032 A 
ATOM     10  C   UNL A   1      34.299  25.710  25.961  1.00  0.00     0.011 A 
ATOM     11  C   UNL A   1      32.575  26.513  24.501  1.00  0.00     0.058 A 
ATOM     12  C   UNL A   1      33.508  26.773  25.486  1.00  0.00     0.008 A 
ATOM     13  N   UNL A   1      31.683  27.601  24.426  1.00  0.00    -0.274 N 
ATOM     14  C   UNL A   1      33.375  28.141  25.837  1.00  0.00     0.009 A 
ATOM     15  C   UNL A   1      32.205  28.632  25.228  1.00  0.00     0.057 A 
ATOM     16  C   UNL A   1      34.105  28.950  26.735  1.00  0.00     0.031 A 
ATOM     17  C   UNL A   1      31.699  29.887  25.616  1.00  0.00     0.029 A 
ATOM     18  C   UNL A   1      33.600  30.192  27.101  1.00  0.00     0.041 A 
ATOM     19  C   UNL A   1      32.398  30.639  26.578  1.00  0.00     0.023 A 
ATOM     20  Cl  UNL A   1      34.461  31.141  28.250  1.00  0.00    -0.084 Cl
BRANCH  13  21
ATOM     21  C   UNL A   1      30.378  27.445  23.866  1.00  0.00     0.284 C 
ATOM     22  O   UNL A   1      29.854  26.356  24.102  1.00  0.00    -0.266 OA
BRANCH  21  23
ATOM     23  C   UNL A   1      29.602  28.377  23.061  1.00  0.00     0.167 A 
ATOM     24  C   UNL A   1      29.963  29.238  22.052  1.00  0.00     0.231 A 
ATOM     25  N   UNL A   1      28.206  28.386  23.165  1.00  0.00    -0.211 NA
ATOM     26  O   UNL A   1      28.823  29.786  21.530  1.00  0.00    -0.451 OA
ATOM     27  C   UNL A   1      27.813  29.223  22.240  1.00  0.00     0.308 A 
ENDBRANCH  21  23
ENDBRANCH  13  21
ENDBRANCH   5   7
ENDBRANCH   3   5
ENDBRANCH   2   3
ENDBRANCH   1   2
BRANCH   1  28
ATOM     28  C   UNL A   1      37.284  21.653  24.755  1.00  0.00     0.275 C 
BRANCH  28  29
ATOM     29  O   UNL A   1      37.886  22.585  25.675  1.00  0.00    -0.458 OA
BRANCH  29  30
ATOM     30  C   UNL A   1      39.079  22.205  26.185  1.00  0.00     0.338 C 
ATOM     31  O   UNL A   1      39.629  21.120  26.024  1.00  0.00    -0.246 OA
BRANCH  30  32
ATOM     32  C   UNL A   1      39.726  23.320  26.901  1.00  0.00     0.060 A 
ATOM     33  C   UNL A   1      39.382  24.609  26.503  1.00  0.00     0.016 A 
ATOM     34  C   UNL A   1      40.726  23.132  27.859  1.00  0.00     0.016 A 
ATOM     35  C   UNL A   1      40.012  25.712  27.074  1.00  0.00     0.010 A 
ATOM     36  C   UNL A   1      41.364  24.249  28.433  1.00  0.00     0.010 A 
ATOM     37  C   UNL A   1      41.003  25.550  28.048  1.00  0.00    -0.014 A 
BRANCH  37  38
ATOM     38  C   UNL A   1      41.671  26.781  28.552  1.00  0.00     0.031 A 
ATOM     39  C   UNL A   1      43.075  27.078  28.125  1.00  0.00     0.074 A 
ATOM     40  C   UNL A   1      40.977  27.709  29.238  1.00  0.00     0.049 A 
ATOM     41  N   UNL A   1      43.784  28.157  28.329  1.00  0.00    -0.248 NA
ATOM     42  C   UNL A   1      43.772  26.021  27.378  1.00  0.00     0.031 C 
ATOM     43  C   UNL A   1      39.590  27.561  29.652  1.00  0.00     0.029 A 
ATOM     44  N   UNL A   1      41.309  28.990  29.632  1.00  0.00    -0.354 N 
ATOM     45  C   UNL A   1      45.040  27.879  27.809  1.00  0.00     0.074 A 
ATOM     46  C   UNL A   1      44.974  26.558  27.221  1.00  0.00     0.031 C 
ATOM     47  C   UNL A   1      39.154  28.739  30.126  1.00  0.00     0.029 A 
ATOM     48  C   UNL A   1      40.225  29.725  30.068  1.00  0.00     0.049 A 
ATOM     49  H   UNL A   1      42.226  29.344  29.605  1.00  0.00     0.167 HD
ATOM     50  C   UNL A   1      46.162  28.635  27.878  1.00  0.00     0.031 A 
ATOM     51  C   UNL A   1      40.092  31.046  30.327  1.00  0.00     0.031 A 
ATOM     52  C   UNL A   1      46.224  29.942  28.479  1.00  0.00     0.049 A 
ATOM     53  C   UNL A   1      41.334  31.899  30.318  1.00  0.00     0.074 A 
ATOM     54  C   UNL A   1      47.336  30.738  28.693  1.00  0.00     0.029 A 
ATOM     55  N   UNL A   1      45.131  30.647  28.954  1.00  0.00    -0.354 N 
ATOM     56  N   UNL A   1      42.535  31.600  29.887  1.00  0.00    -0.248 NA
ATOM     57  C   UNL A   1      41.214  33.252  30.883  1.00  0.00     0.031 C 
ATOM     58  C   UNL A   1      46.922  31.900  29.355  1.00  0.00     0.029 A 
ATOM     59  C   UNL A   1      45.543  31.858  29.486  1.00  0.00     0.049 A 
ATOM     60  H   UNL A   1      44.197  30.335  28.919  1.00  0.00     0.167 HD
ATOM     61  C   UNL A   1      43.325  32.708  30.177  1.00  0.00     0.074 A 
ATOM     62  C   UNL A   1      42.447  33.717  30.731  1.00  0.00     0.031 C 
ATOM     63  C   UNL A   1      44.666  32.854  30.048  1.00  0.00     0.031 A 
BRANCH  50  64
ATOM     64  C   UNL A   1      47.443  27.991  27.429  1.00  0.00    -0.014 A 
ATOM     65  C   UNL A   1      48.176  27.119  28.251  1.00  0.00     0.010 A 
ATOM     66  C   UNL A   1      47.917  28.281  26.135  1.00  0.00     0.010 A 
ATOM     67  C   UNL A   1      49.382  26.576  27.796  1.00  0.00     0.020 A 
ATOM     68  C   UNL A   1      49.104  27.718  25.667  1.00  0.00     0.020 A 
ATOM     69  C   UNL A   1      49.838  26.882  26.508  1.00  0.00     0.054 A 
BRANCH  69  70
ATOM     70  S   UNL A   1      51.398  26.155  25.936  1.00  0.00     0.124 S 
ATOM     71  O   UNL A   1      51.390  24.858  26.608  1.00  0.00    -0.237 OA
ATOM     72  O   UNL A   1      51.219  26.113  24.487  1.00  0.00    -0.237 OA
ATOM     73  O   UNL A   1      52.413  27.094  26.409  1.00  0.00    -0.744 OA
ENDBRANCH  69  70
ENDBRANCH  50  64
BRANCH  51  74
ATOM     74  C   UNL A   1      38.756  31.676  30.586  1.00  0.00    -0.014 A 
ATOM     75  C   UNL A   1      38.091  32.374  29.555  1.00  0.00     0.010 A 
ATOM     76  C   UNL A   1      38.146  31.624  31.852  1.00  0.00     0.010 A 
ATOM     77  C   UNL A   1      36.869  33.019  29.790  1.00  0.00     0.020 A 
ATOM     78  C   UNL A   1      36.902  32.223  32.079  1.00  0.00     0.020 A 
ATOM     79  C   UNL A   1      36.281  32.936  31.053  1.00  0.00     0.054 A 
BRANCH  79  80
ATOM     80  S   UNL A   1      34.683  33.748  31.341  1.00  0.00     0.124 S 
ATOM     81  O   UNL A   1      35.072  34.899  32.150  1.00  0.00    -0.237 OA
ATOM     82  O   UNL A   1      34.230  34.049  29.986  1.00  0.00    -0.237 OA
ATOM     83  O   UNL A   1      33.905  32.725  32.038  1.00  0.00    -0.744 OA
ENDBRANCH  79  80
ENDBRANCH  51  74
BRANCH  63  84
ATOM     84  C   UNL A   1      45.280  34.135  30.551  1.00  0.00    -0.014 A 
ATOM     85  C   UNL A   1      45.406  35.252  29.704  1.00  0.00     0.010 A 
ATOM     86  C   UNL A   1      45.670  34.249  31.896  1.00  0.00     0.010 A 
ATOM     87  C   UNL A   1      45.941  36.451  30.186  1.00  0.00     0.020 A 
ATOM     88  C   UNL A   1      46.178  35.456  32.390  1.00  0.00     0.020 A 
ATOM     89  C   UNL A   1      46.322  36.545  31.527  1.00  0.00     0.054 A 
BRANCH  89  90
ATOM     90  S   UNL A   1      46.967  38.126  32.138  1.00  0.00     0.124 S 
ATOM     91  O   UNL A   1      47.074  37.877  33.573  1.00  0.00    -0.237 OA
ATOM     92  O   UNL A   1      48.237  38.251  31.426  1.00  0.00    -0.237 OA
ATOM     93  O   UNL A   1      45.943  39.093  31.748  1.00  0.00    -0.744 OA
ENDBRANCH  89  90
ENDBRANCH  63  84
ENDBRANCH  37  38
ENDBRANCH  30  32
ENDBRANCH  29  30
ENDBRANCH  28  29
ENDBRANCH   1  28
TORSDOF 17
ENDMDL
MODEL 2
REMARK VINA RESULT:     -11.6      4.487      9.933
REMARK SMILES C[C@@H](C(=O)OCCOC(=O)c1ccc(-c2c3nc(c(-c4ccc(S(=O)(=O)[O-])cc4)c4ccc([nH]4)c(-c4ccc(S(=O)(=O)[O-])cc4)c4nc(c(-c5ccc(S(=O)(=O)[O-])cc5)c5ccc2[nH]5)C=C4)C=C3)cc1)c1ccc2c3cc(Cl)ccc3n(C(=O)c3cocn3)c2c1
REMARK SMILES IDX 6 1 5 2 3 3 4 4 2 5 1 6 71 7 72 8 91 9 73 10 90 11 74 12
REMARK SMILES IDX 82 13 75 14 81 15 76 16 80 17 77 18 79 19 78 20 83 21 84 22
REMARK SMILES IDX 85 23 86 24 89 25 87 26 88 27 7 28 8 29 9 30 10 31 11 32
REMARK SMILES IDX 12 33 70 34 13 35 69 36 14 37 15 38 16 39 63 40 17 41 68 42
REMARK SMILES IDX 62 43 64 44 18 45 67 46 61 47 60 48 19 50 49 51 30 52 48 53
REMARK SMILES IDX 31 54 34 55 47 56 65 57 32 58 33 59 46 61 66 62 35 63 20 64
REMARK SMILES IDX 21 65 29 66 22 67 28 68 23 69 24 70 25 71 26 72 27 73 50 74
REMARK SMILES IDX 51 75 59 76 52 77 58 78 53 79 54 80 55 81 56 82 57 83 36 84
REMARK SMILES IDX 37 85 45 86 38 87 44 88 39 89 40 90 41 91 42 92 43 93
REMARK H PARENT 64 49 34 60
REMARK Flexibility Score: inf
ROOT
ATOM      1  C   UNL A   1      31.860  29.722  25.460  1.00  0.00     0.274 C 
ENDROOT
BRANCH   1   2
ATOM      2  O   UNL A   1      31.006  28.577  25.257  1.00  0.00    -0.462 OA
BRANCH   2   3
ATOM      3  C   UNL A   1      31.275  27.824  24.151  1.00  0.00     0.313 C 
ATOM      4  O   UNL A   1      31.535  28.339  23.072  1.00  0.00    -0.252 OA
BRANCH   3   5
ATOM      5  C   UNL A   1      31.069  26.300  24.384  1.00  0.00     0.126 C 
ATOM      6  C   UNL A   1      29.850  26.048  25.285  1.00  0.00     0.025 C 
BRANCH   5   7
ATOM      7  C   UNL A   1      32.335  25.551  24.855  1.00  0.00    -0.032 A 
ATOM      8  C   UNL A   1      33.555  26.193  25.112  1.00  0.00     0.005 A 
ATOM      9  C   UNL A   1      32.295  24.157  25.018  1.00  0.00     0.032 A 
ATOM     10  C   UNL A   1      34.713  25.476  25.458  1.00  0.00     0.011 A 
ATOM     11  C   UNL A   1      33.502  23.437  25.111  1.00  0.00     0.058 A 
ATOM     12  C   UNL A   1      34.693  24.070  25.410  1.00  0.00     0.008 A 
ATOM     13  N   UNL A   1      33.774  22.095  24.781  1.00  0.00    -0.274 N 
ATOM     14  C   UNL A   1      35.681  23.061  25.541  1.00  0.00     0.009 A 
ATOM     15  C   UNL A   1      35.124  21.850  25.088  1.00  0.00     0.057 A 
ATOM     16  C   UNL A   1      37.046  23.131  25.895  1.00  0.00     0.031 A 
ATOM     17  C   UNL A   1      35.967  20.743  24.870  1.00  0.00     0.029 A 
ATOM     18  C   UNL A   1      37.864  22.027  25.685  1.00  0.00     0.041 A 
ATOM     19  C   UNL A   1      37.341  20.862  25.146  1.00  0.00     0.023 A 
ATOM     20  Cl  UNL A   1      39.541  22.144  26.052  1.00  0.00    -0.084 Cl
BRANCH  13  21
ATOM     21  C   UNL A   1      32.858  21.330  23.994  1.00  0.00     0.284 C 
ATOM     22  O   UNL A   1      32.245  21.987  23.153  1.00  0.00    -0.266 OA
BRANCH  21  23
ATOM     23  C   UNL A   1      32.550  19.910  24.059  1.00  0.00     0.167 A 
ATOM     24  C   UNL A   1      32.421  18.954  23.079  1.00  0.00     0.231 A 
ATOM     25  N   UNL A   1      32.477  19.273  25.303  1.00  0.00    -0.211 NA
ATOM     26  O   UNL A   1      32.264  17.738  23.687  1.00  0.00    -0.451 OA
ATOM     27  C   UNL A   1      32.317  18.006  25.015  1.00  0.00     0.308 A 
ENDBRANCH  21  23
ENDBRANCH  13  21
ENDBRANCH   5   7
ENDBRANCH   3   5
ENDBRANCH   2   3
ENDBRANCH   1   2
BRANCH   1  28
ATOM     28  C   UNL A   1      32.353  29.804  26.907  1.00  0.00     0.275 C 
BRANCH  28  29
ATOM     29  O   UNL A   1      33.786  29.924  27.000  1.00  0.00    -0.458 OA
BRANCH  29  30
ATOM     30  C   UNL A   1      34.233  31.039  27.620  1.00  0.00     0.338 C 
ATOM     31  O   UNL A   1      33.583  32.052  27.858  1.00  0.00    -0.246 OA
BRANCH  30  32
ATOM     32  C   UNL A   1      35.618  30.860  28.094  1.00  0.00     0.060 A 
ATOM     33  C   UNL A   1      35.977  29.587  28.528  1.00  0.00     0.016 A 
ATOM     34  C   UNL A   1      36.522  31.919  28.223  1.00  0.00     0.016 A 
ATOM     35  C   UNL A   1      37.240  29.358  29.068  1.00  0.00     0.010 A 
ATOM     36  C   UNL A   1      37.799  31.686  28.771  1.00  0.00     0.010 A 
ATOM     37  C   UNL A   1      38.168  30.398  29.190  1.00  0.00    -0.014 A 
BRANCH  37  38
ATOM     38  C   UNL A   1      39.467  30.078  29.842  1.00  0.00     0.031 A 
ATOM     39  C   UNL A   1      39.714  30.535  31.246  1.00  0.00     0.074 A 
ATOM     40  C   UNL A   1      40.345  29.242  29.254  1.00  0.00     0.049 A 
ATOM     41  N   UNL A   1      40.708  30.242  32.042  1.00  0.00    -0.248 NA
ATOM     42  C   UNL A   1      38.715  31.445  31.825  1.00  0.00     0.031 C 
ATOM     43  C   UNL A   1      40.182  28.682  27.920  1.00  0.00     0.029 A 
ATOM     44  N   UNL A   1      41.498  28.649  29.728  1.00  0.00    -0.354 N 
ATOM     45  C   UNL A   1      40.500  30.996  33.188  1.00  0.00     0.074 A 
ATOM     46  C   UNL A   1      39.251  31.706  33.009  1.00  0.00     0.031 C 
ATOM     47  C   UNL A   1      41.121  27.740  27.732  1.00  0.00     0.029 A 
ATOM     48  C   UNL A   1      41.963  27.634  28.915  1.00  0.00     0.049 A 
ATOM     49  H   UNL A   1      41.943  28.921  30.561  1.00  0.00     0.167 HD
ATOM     50  C   UNL A   1      41.315  31.132  34.261  1.00  0.00     0.031 A 
ATOM     51  C   UNL A   1      42.908  26.690  29.126  1.00  0.00     0.031 A 
ATOM     52  C   UNL A   1      42.564  30.435  34.425  1.00  0.00     0.049 A 
ATOM     53  C   UNL A   1      43.756  26.797  30.367  1.00  0.00     0.074 A 
ATOM     54  C   UNL A   1      43.510  30.588  35.425  1.00  0.00     0.029 A 
ATOM     55  N   UNL A   1      43.039  29.450  33.574  1.00  0.00    -0.354 N 
ATOM     56  N   UNL A   1      43.587  27.566  31.415  1.00  0.00    -0.248 NA
ATOM     57  C   UNL A   1      44.955  25.948  30.428  1.00  0.00     0.031 C 
ATOM     58  C   UNL A   1      44.586  29.738  35.143  1.00  0.00     0.029 A 
ATOM     59  C   UNL A   1      44.277  29.004  34.009  1.00  0.00     0.049 A 
ATOM     60  H   UNL A   1      42.567  29.115  32.778  1.00  0.00     0.167 HD
ATOM     61  C   UNL A   1      44.686  27.331  32.234  1.00  0.00     0.074 A 
ATOM     62  C   UNL A   1      45.461  26.280  31.608  1.00  0.00     0.031 C 
ATOM     63  C   UNL A   1      45.049  27.967  33.374  1.00  0.00     0.031 A 
BRANCH  50  64
ATOM     64  C   UNL A   1      40.950  32.192  35.261  1.00  0.00    -0.014 A 
ATOM     65  C   UNL A   1      40.176  31.918  36.401  1.00  0.00     0.010 A 
ATOM     66  C   UNL A   1      41.407  33.505  35.037  1.00  0.00     0.010 A 
ATOM     67  C   UNL A   1      39.835  32.952  37.281  1.00  0.00     0.020 A 
ATOM     68  C   UNL A   1      41.094  34.531  35.928  1.00  0.00     0.020 A 
ATOM     69  C   UNL A   1      40.295  34.251  37.036  1.00  0.00     0.054 A 
BRANCH  69  70
ATOM     70  S   UNL A   1      39.851  35.570  38.198  1.00  0.00     0.124 S 
ATOM     71  O   UNL A   1      38.630  35.041  38.800  1.00  0.00    -0.237 OA
ATOM     72  O   UNL A   1      41.014  35.625  39.079  1.00  0.00    -0.237 OA
ATOM     73  O   UNL A   1      39.666  36.739  37.342  1.00  0.00    -0.744 OA
ENDBRANCH  69  70
ENDBRANCH  50  64
BRANCH  51  74
ATOM     74  C   UNL A   1      43.108  25.539  28.184  1.00  0.00    -0.014 A 
ATOM     75  C   UNL A   1      42.430  24.321  28.402  1.00  0.00     0.010 A 
ATOM     76  C   UNL A   1      43.987  25.622  27.090  1.00  0.00     0.010 A 
ATOM     77  C   UNL A   1      42.645  23.215  27.568  1.00  0.00     0.020 A 
ATOM     78  C   UNL A   1      44.167  24.538  26.224  1.00  0.00     0.020 A 
ATOM     79  C   UNL A   1      43.512  23.333  26.481  1.00  0.00     0.054 A 
BRANCH  79  80
ATOM     80  S   UNL A   1      43.761  21.906  25.388  1.00  0.00     0.124 S 
ATOM     81  O   UNL A   1      45.152  21.557  25.659  1.00  0.00    -0.237 OA
ATOM     82  O   UNL A   1      42.763  20.956  25.872  1.00  0.00    -0.237 OA
ATOM     83  O   UNL A   1      43.498  22.449  24.056  1.00  0.00    -0.744 OA
ENDBRANCH  79  80
ENDBRANCH  51  74
BRANCH  63  84
ATOM     84  C   UNL A   1      46.363  27.579  34.002  1.00  0.00    -0.014 A 
ATOM     85  C   UNL A   1      46.427  26.541  34.951  1.00  0.00     0.010 A 
ATOM     86  C   UNL A   1      47.553  28.204  33.592  1.00  0.00     0.010 A 
ATOM     87  C   UNL A   1      47.653  26.158  35.503  1.00  0.00     0.020 A 
ATOM     88  C   UNL A   1      48.785  27.804  34.120  1.00  0.00     0.020 A 
ATOM     89  C   UNL A   1      48.825  26.792  35.082  1.00  0.00     0.054 A 
BRANCH  89  90
ATOM     90  S   UNL A   1      50.408  26.242  35.777  1.00  0.00     0.124 S 
ATOM     91  O   UNL A   1      50.599  24.954  35.115  1.00  0.00    -0.237 OA
ATOM     92  O   UNL A   1      51.324  27.303  35.365  1.00  0.00    -0.237 OA
ATOM     93  O   UNL A   1      50.150  26.172  37.214  1.00  0.00    -0.744 OA
ENDBRANCH  89  90
ENDBRANCH  63  84
ENDBRANCH  37  38
ENDBRANCH  30  32
ENDBRANCH  29  30
ENDBRANCH  28  29
ENDBRANCH   1  28
TORSDOF 17
ENDMDL
MODEL 3
REMARK VINA RESULT:     -11.4      3.260      8.619
REMARK SMILES C[C@@H](C(=O)OCCOC(=O)c1ccc(-c2c3nc(c(-c4ccc(S(=O)(=O)[O-])cc4)c4ccc([nH]4)c(-c4ccc(S(=O)(=O)[O-])cc4)c4nc(c(-c5ccc(S(=O)(=O)[O-])cc5)c5ccc2[nH]5)C=C4)C=C3)cc1)c1ccc2c3cc(Cl)ccc3n(C(=O)c3cocn3)c2c1
REMARK SMILES IDX 6 1 5 2 3 3 4 4 2 5 1 6 71 7 72 8 91 9 73 10 90 11 74 12
REMARK SMILES IDX 82 13 75 14 81 15 76 16 80 17 77 18 79 19 78 20 83 21 84 22
REMARK SMILES IDX 85 23 86 24 89 25 87 26 88 27 7 28 8 29 9 30 10 31 11 32
REMARK SMILES IDX 12 33 70 34 13 35 69 36 14 37 15 38 16 39 63 40 17 41 68 42
REMARK SMILES IDX 62 43 64 44 18 45 67 46 61 47 60 48 19 50 49 51 30 52 48 53
REMARK SMILES IDX 31 54 34 55 47 56 65 57 32 58 33 59 46 61 66 62 35 63 20 64
REMARK SMILES IDX 21 65 29 66 22 67 28 68 23 69 24 70 25 71 26 72 27 73 50 74
REMARK SMILES IDX 51 75 59 76 52 77 58 78 53 79 54 80 55 81 56 82 57 83 36 84
REMARK SMILES IDX 37 85 45 86 38 87 44 88 39 89 40 90 41 91 42 92 43 93
REMARK H PARENT 64 49 34 60
REMARK Flexibility Score: inf
ROOT
ATOM      1  C   UNL A   1      32.637  28.614  27.392  1.00  0.00     0.274 C 
ENDROOT
BRANCH   1   2
ATOM      2  O   UNL A   1      32.807  27.595  26.385  1.00  0.00    -0.462 OA
BRANCH   2   3
ATOM      3  C   UNL A   1      32.373  27.920  25.133  1.00  0.00     0.313 C 
ATOM      4  O   UNL A   1      31.273  28.424  24.945  1.00  0.00    -0.252 OA
BRANCH   3   5
ATOM      5  C   UNL A   1      33.340  27.451  24.009  1.00  0.00     0.126 C 
ATOM      6  C   UNL A   1      33.191  28.335  22.760  1.00  0.00     0.025 C 
BRANCH   5   7
ATOM      7  C   UNL A   1      33.264  25.941  23.693  1.00  0.00    -0.032 A 
ATOM      8  C   UNL A   1      32.143  25.335  23.107  1.00  0.00     0.005 A 
ATOM      9  C   UNL A   1      34.346  25.109  24.023  1.00  0.00     0.032 A 
ATOM     10  C   UNL A   1      32.068  23.946  22.908  1.00  0.00     0.011 A 
ATOM     11  C   UNL A   1      34.160  23.714  24.056  1.00  0.00     0.058 A 
ATOM     12  C   UNL A   1      33.078  23.120  23.437  1.00  0.00     0.008 A 
ATOM     13  N   UNL A   1      34.851  22.734  24.796  1.00  0.00    -0.274 N 
ATOM     14  C   UNL A   1      33.246  21.717  23.557  1.00  0.00     0.009 A 
ATOM     15  C   UNL A   1      34.306  21.484  24.453  1.00  0.00     0.057 A 
ATOM     16  C   UNL A   1      32.481  20.639  23.061  1.00  0.00     0.031 A 
ATOM     17  C   UNL A   1      34.517  20.182  24.948  1.00  0.00     0.029 A 
ATOM     18  C   UNL A   1      32.707  19.357  23.550  1.00  0.00     0.041 A 
ATOM     19  C   UNL A   1      33.686  19.137  24.506  1.00  0.00     0.023 A 
ATOM     20  Cl  UNL A   1      31.723  18.061  22.993  1.00  0.00    -0.084 Cl
BRANCH  13  21
ATOM     21  C   UNL A   1      35.698  23.097  25.888  1.00  0.00     0.284 C 
ATOM     22  O   UNL A   1      35.102  23.576  26.852  1.00  0.00    -0.266 OA
BRANCH  21  23
ATOM     23  C   UNL A   1      37.145  22.990  26.007  1.00  0.00     0.167 A 
ATOM     24  C   UNL A   1      38.090  23.855  26.504  1.00  0.00     0.231 A 
ATOM     25  N   UNL A   1      37.777  21.778  25.706  1.00  0.00    -0.211 NA
ATOM     26  O   UNL A   1      39.297  23.209  26.515  1.00  0.00    -0.451 OA
ATOM     27  C   UNL A   1      39.029  21.970  26.032  1.00  0.00     0.308 A 
ENDBRANCH  21  23
ENDBRANCH  13  21
ENDBRANCH   5   7
ENDBRANCH   3   5
ENDBRANCH   2   3
ENDBRANCH   1   2
BRANCH   1  28
ATOM     28  C   UNL A   1      33.761  29.651  27.334  1.00  0.00     0.275 C 
BRANCH  28  29
ATOM     29  O   UNL A   1      35.050  29.094  27.662  1.00  0.00    -0.458 OA
BRANCH  29  30
ATOM     30  C   UNL A   1      35.844  29.882  28.420  1.00  0.00     0.338 C 
ATOM     31  O   UNL A   1      35.477  30.768  29.185  1.00  0.00    -0.246 OA
BRANCH  30  32
ATOM     32  C   UNL A   1      37.257  29.476  28.303  1.00  0.00     0.060 A 
ATOM     33  C   UNL A   1      37.862  28.960  29.445  1.00  0.00     0.016 A 
ATOM     34  C   UNL A   1      38.018  29.689  27.149  1.00  0.00     0.016 A 
ATOM     35  C   UNL A   1      39.215  28.632  29.437  1.00  0.00     0.010 A 
ATOM     36  C   UNL A   1      39.387  29.359  27.144  1.00  0.00     0.010 A 
ATOM     37  C   UNL A   1      39.993  28.819  28.289  1.00  0.00    -0.014 A 
BRANCH  37  38
ATOM     38  C   UNL A   1      41.444  28.507  28.392  1.00  0.00     0.031 A 
ATOM     39  C   UNL A   1      41.951  27.198  27.870  1.00  0.00     0.074 A 
ATOM     40  C   UNL A   1      42.325  29.448  28.785  1.00  0.00     0.049 A 
ATOM     41  N   UNL A   1      43.185  26.791  27.732  1.00  0.00    -0.248 NA
ATOM     42  C   UNL A   1      40.935  26.219  27.457  1.00  0.00     0.031 C 
ATOM     43  C   UNL A   1      41.956  30.777  29.251  1.00  0.00     0.029 A 
ATOM     44  N   UNL A   1      43.705  29.467  28.776  1.00  0.00    -0.354 N 
ATOM     45  C   UNL A   1      43.096  25.478  27.294  1.00  0.00     0.074 A 
ATOM     46  C   UNL A   1      41.689  25.181  27.125  1.00  0.00     0.031 C 
ATOM     47  C   UNL A   1      43.071  31.517  29.362  1.00  0.00     0.029 A 
ATOM     48  C   UNL A   1      44.234  30.723  28.995  1.00  0.00     0.049 A 
ATOM     49  H   UNL A   1      44.256  28.666  28.627  1.00  0.00     0.167 HD
ATOM     50  C   UNL A   1      44.098  24.585  27.114  1.00  0.00     0.031 A 
ATOM     51  C   UNL A   1      45.494  31.193  28.852  1.00  0.00     0.031 A 
ATOM     52  C   UNL A   1      45.494  24.883  27.300  1.00  0.00     0.049 A 
ATOM     53  C   UNL A   1      46.594  30.204  28.567  1.00  0.00     0.074 A 
ATOM     54  C   UNL A   1      46.574  24.018  27.247  1.00  0.00     0.029 A 
ATOM     55  N   UNL A   1      46.006  26.143  27.565  1.00  0.00    -0.354 N 
ATOM     56  N   UNL A   1      46.498  28.943  28.221  1.00  0.00    -0.248 NA
ATOM     57  C   UNL A   1      47.976  30.688  28.708  1.00  0.00     0.031 C 
ATOM     58  C   UNL A   1      47.732  24.745  27.542  1.00  0.00     0.029 A 
ATOM     59  C   UNL A   1      47.383  26.075  27.706  1.00  0.00     0.049 A 
ATOM     60  H   UNL A   1      45.471  26.966  27.641  1.00  0.00     0.167 HD
ATOM     61  C   UNL A   1      47.805  28.471  28.156  1.00  0.00     0.074 A 
ATOM     62  C   UNL A   1      48.674  29.602  28.402  1.00  0.00     0.031 C 
ATOM     63  C   UNL A   1      48.242  27.202  27.964  1.00  0.00     0.031 A 
BRANCH  50  64
ATOM     64  C   UNL A   1      43.699  23.160  26.853  1.00  0.00    -0.014 A 
ATOM     65  C   UNL A   1      42.780  22.474  27.664  1.00  0.00     0.010 A 
ATOM     66  C   UNL A   1      44.275  22.498  25.751  1.00  0.00     0.010 A 
ATOM     67  C   UNL A   1      42.472  21.136  27.395  1.00  0.00     0.020 A 
ATOM     68  C   UNL A   1      43.947  21.174  25.464  1.00  0.00     0.020 A 
ATOM     69  C   UNL A   1      43.060  20.495  26.298  1.00  0.00     0.054 A 
BRANCH  69  70
ATOM     70  S   UNL A   1      42.635  18.765  25.964  1.00  0.00     0.124 S 
ATOM     71  O   UNL A   1      43.038  18.110  27.206  1.00  0.00    -0.237 OA
ATOM     72  O   UNL A   1      41.195  18.830  25.727  1.00  0.00    -0.237 OA
ATOM     73  O   UNL A   1      43.442  18.428  24.794  1.00  0.00    -0.744 OA
ENDBRANCH  69  70
ENDBRANCH  50  64
BRANCH  51  74
ATOM     74  C   UNL A   1      45.812  32.657  28.938  1.00  0.00    -0.014 A 
ATOM     75  C   UNL A   1      46.050  33.257  30.193  1.00  0.00     0.010 A 
ATOM     76  C   UNL A   1      45.850  33.474  27.794  1.00  0.00     0.010 A 
ATOM     77  C   UNL A   1      46.292  34.634  30.301  1.00  0.00     0.020 A 
ATOM     78  C   UNL A   1      46.141  34.839  27.891  1.00  0.00     0.020 A 
ATOM     79  C   UNL A   1      46.339  35.416  29.147  1.00  0.00     0.054 A 
BRANCH  79  80
ATOM     80  S   UNL A   1      46.684  37.191  29.294  1.00  0.00     0.124 S 
ATOM     81  O   UNL A   1      45.613  37.634  30.181  1.00  0.00    -0.237 OA
ATOM     82  O   UNL A   1      48.028  37.209  29.865  1.00  0.00    -0.237 OA
ATOM     83  O   UNL A   1      46.595  37.669  27.915  1.00  0.00    -0.744 OA
ENDBRANCH  79  80
ENDBRANCH  51  74
BRANCH  63  84
ATOM     84  C   UNL A   1      49.726  26.955  28.053  1.00  0.00    -0.014 A 
ATOM     85  C   UNL A   1      50.550  27.111  26.922  1.00  0.00     0.010 A 
ATOM     86  C   UNL A   1      50.314  26.634  29.288  1.00  0.00     0.010 A 
ATOM     87  C   UNL A   1      51.931  26.919  27.018  1.00  0.00     0.020 A 
ATOM     88  C   UNL A   1      51.700  26.469  29.395  1.00  0.00     0.020 A 
ATOM     89  C   UNL A   1      52.497  26.600  28.256  1.00  0.00     0.054 A 
BRANCH  89  90
ATOM     90  S   UNL A   1      54.297  26.404  28.362  1.00  0.00     0.124 S 
ATOM     91  O   UNL A   1      54.771  27.730  27.976  1.00  0.00    -0.237 OA
ATOM     92  O   UNL A   1      54.498  26.049  29.766  1.00  0.00    -0.237 OA
ATOM     93  O   UNL A   1      54.588  25.336  27.408  1.00  0.00    -0.744 OA
ENDBRANCH  89  90
ENDBRANCH  63  84
ENDBRANCH  37  38
ENDBRANCH  30  32
ENDBRANCH  29  30
ENDBRANCH  28  29
ENDBRANCH   1  28
TORSDOF 17
ENDMDL
