MODEL 1
REMARK VINA RESULT:     -10.3      0.000      0.000
REMARK SMILES COc1ccc2c(c1)c(CC(=O)OCCOC(=O)c1ccc(-c3c4nc(c(-c5ccc(S(=O)(=O)[O-])cc5)c5ccc([nH]5)c(-c5ccc(S(=O)(=O)[O-])cc5)c5nc(c(-c6ccc(S(=O)(=O)[O-])cc6)c6ccc3[nH]6)C=C5)C=C4)cc1)c(C)n2Cc1ccc(Br)cc1
REMARK SMILES IDX 14 1 13 2 11 3 12 4 10 5 9 6 3 7 4 8 8 9 5 10 7 11 6 12
REMARK SMILES IDX 81 13 79 14 80 15 2 16 1 17 82 18 83 19 84 20 89 21 85 22
REMARK SMILES IDX 88 23 86 24 87 25 15 26 16 27 17 28 18 29 19 30 20 31 78 32
REMARK SMILES IDX 21 33 77 34 22 35 23 36 24 37 71 38 25 39 76 40 70 41 72 42
REMARK SMILES IDX 26 43 75 44 69 45 68 46 27 48 57 49 38 50 56 51 39 52 42 53
REMARK SMILES IDX 55 54 73 55 40 56 41 57 54 59 74 60 43 61 28 62 29 63 37 64
REMARK SMILES IDX 30 65 36 66 31 67 32 68 33 69 34 70 35 71 58 72 59 73 67 74
REMARK SMILES IDX 60 75 66 76 61 77 62 78 63 79 64 80 65 81 44 82 45 83 53 84
REMARK SMILES IDX 46 85 52 86 47 87 48 88 49 89 50 90 51 91
REMARK H PARENT 72 47 42 58
REMARK Flexibility Score: inf
ROOT
ATOM      1  C   UNL A   1      43.695  21.482  25.539  1.00  0.00     0.274 C 
ENDROOT
BRANCH   1   2
ATOM      2  O   UNL A   1      43.627  22.850  25.077  1.00  0.00    -0.462 OA
BRANCH   2   3
ATOM      3  C   UNL A   1      44.651  23.633  25.490  1.00  0.00     0.310 C 
ATOM      4  O   UNL A   1      45.020  24.642  24.892  1.00  0.00    -0.252 OA
BRANCH   3   5
ATOM      5  C   UNL A   1      45.428  23.131  26.667  1.00  0.00     0.160 C 
BRANCH   5   6
ATOM      6  C   UNL A   1      45.682  23.944  27.899  1.00  0.00    -0.008 A 
ATOM      7  C   UNL A   1      48.933  25.882  28.625  1.00  0.00     0.119 A 
ATOM      8  C   UNL A   1      48.530  26.408  29.843  1.00  0.00     0.048 A 
ATOM      9  C   UNL A   1      48.030  25.157  27.832  1.00  0.00     0.057 A 
ATOM     10  C   UNL A   1      47.245  26.152  30.331  1.00  0.00     0.031 A 
ATOM     11  C   UNL A   1      46.764  24.784  28.339  1.00  0.00     0.007 A 
ATOM     12  C   UNL A   1      46.403  25.297  29.596  1.00  0.00     0.049 A 
ATOM     13  N   UNL A   1      45.136  24.816  29.863  1.00  0.00    -0.340 N 
ATOM     14  C   UNL A   1      44.882  23.759  29.021  1.00  0.00     0.020 A 
ATOM     15  C   UNL A   1      43.876  22.682  29.266  1.00  0.00     0.065 C 
BRANCH   7  16
ATOM     16  O   UNL A   1      50.188  26.102  28.117  1.00  0.00    -0.497 OA
ATOM     17  C   UNL A   1      50.539  25.182  27.080  1.00  0.00     0.278 C 
ENDBRANCH   7  16
BRANCH  13  18
ATOM     18  C   UNL A   1      44.199  25.350  30.845  1.00  0.00     0.157 C 
BRANCH  18  19
ATOM     19  C   UNL A   1      44.591  24.906  32.243  1.00  0.00    -0.028 A 
ATOM     20  C   UNL A   1      44.549  23.550  32.608  1.00  0.00     0.007 A 
ATOM     21  C   UNL A   1      44.925  25.849  33.224  1.00  0.00     0.007 A 
ATOM     22  C   UNL A   1      44.777  23.147  33.924  1.00  0.00     0.016 A 
ATOM     23  C   UNL A   1      45.193  25.444  34.536  1.00  0.00     0.016 A 
ATOM     24  C   UNL A   1      45.100  24.098  34.884  1.00  0.00     0.017 A 
ATOM     25  Br  UNL A   1      45.409  23.558  36.668  1.00  0.00    -0.051 Br
ENDBRANCH  18  19
ENDBRANCH  13  18
ENDBRANCH   5   6
ENDBRANCH   3   5
ENDBRANCH   2   3
ENDBRANCH   1   2
BRANCH   1  26
ATOM     26  C   UNL A   1      42.385  21.072  26.219  1.00  0.00     0.275 C 
BRANCH  26  27
ATOM     27  O   UNL A   1      41.397  22.089  25.989  1.00  0.00    -0.458 OA
BRANCH  27  28
ATOM     28  C   UNL A   1      40.690  22.532  27.057  1.00  0.00     0.338 C 
ATOM     29  O   UNL A   1      40.263  21.868  27.987  1.00  0.00    -0.246 OA
BRANCH  28  30
ATOM     30  C   UNL A   1      40.847  24.001  27.060  1.00  0.00     0.060 A 
ATOM     31  C   UNL A   1      41.960  24.589  27.664  1.00  0.00     0.016 A 
ATOM     32  C   UNL A   1      39.729  24.770  26.723  1.00  0.00     0.016 A 
ATOM     33  C   UNL A   1      41.870  25.904  28.103  1.00  0.00     0.010 A 
ATOM     34  C   UNL A   1      39.630  26.072  27.192  1.00  0.00     0.010 A 
ATOM     35  C   UNL A   1      40.667  26.607  27.953  1.00  0.00    -0.014 A 
BRANCH  35  36
ATOM     36  C   UNL A   1      40.585  27.976  28.434  1.00  0.00     0.031 A 
ATOM     37  C   UNL A   1      41.721  28.813  28.002  1.00  0.00     0.074 A 
ATOM     38  C   UNL A   1      39.624  28.551  29.181  1.00  0.00     0.049 A 
ATOM     39  N   UNL A   1      42.753  29.111  28.714  1.00  0.00    -0.248 NA
ATOM     40  C   UNL A   1      41.786  29.259  26.610  1.00  0.00     0.031 C 
ATOM     41  C   UNL A   1      38.291  28.090  29.559  1.00  0.00     0.029 A 
ATOM     42  N   UNL A   1      39.691  29.787  29.754  1.00  0.00    -0.354 N 
ATOM     43  C   UNL A   1      43.585  29.860  27.899  1.00  0.00     0.074 A 
ATOM     44  C   UNL A   1      42.991  29.832  26.583  1.00  0.00     0.031 C 
ATOM     45  C   UNL A   1      37.608  29.107  30.147  1.00  0.00     0.029 A 
ATOM     46  C   UNL A   1      38.522  30.222  30.347  1.00  0.00     0.049 A 
ATOM     47  H   UNL A   1      40.514  30.329  29.746  1.00  0.00     0.167 HD
ATOM     48  C   UNL A   1      44.658  30.533  28.394  1.00  0.00     0.031 A 
ATOM     49  C   UNL A   1      38.343  31.400  30.993  1.00  0.00     0.031 A 
ATOM     50  C   UNL A   1      44.932  30.173  29.763  1.00  0.00     0.049 A 
ATOM     51  C   UNL A   1      39.682  31.834  31.473  1.00  0.00     0.074 A 
ATOM     52  C   UNL A   1      45.345  29.009  30.381  1.00  0.00     0.029 A 
ATOM     53  N   UNL A   1      44.384  30.956  30.754  1.00  0.00    -0.354 N 
ATOM     54  N   UNL A   1      40.343  31.218  32.411  1.00  0.00    -0.248 NA
ATOM     55  C   UNL A   1      40.471  32.732  30.644  1.00  0.00     0.031 C 
ATOM     56  C   UNL A   1      44.609  28.956  31.600  1.00  0.00     0.029 A 
ATOM     57  C   UNL A   1      43.824  30.110  31.682  1.00  0.00     0.049 A 
ATOM     58  H   UNL A   1      44.392  31.940  30.791  1.00  0.00     0.167 HD
ATOM     59  C   UNL A   1      41.674  31.314  32.036  1.00  0.00     0.074 A 
ATOM     60  C   UNL A   1      41.698  32.346  31.003  1.00  0.00     0.031 C 
ATOM     61  C   UNL A   1      42.594  30.375  32.409  1.00  0.00     0.031 A 
BRANCH  48  62
ATOM     62  C   UNL A   1      45.346  31.665  27.697  1.00  0.00    -0.014 A 
ATOM     63  C   UNL A   1      44.831  32.976  27.678  1.00  0.00     0.010 A 
ATOM     64  C   UNL A   1      46.647  31.474  27.192  1.00  0.00     0.010 A 
ATOM     65  C   UNL A   1      45.552  34.042  27.140  1.00  0.00     0.020 A 
ATOM     66  C   UNL A   1      47.397  32.546  26.692  1.00  0.00     0.020 A 
ATOM     67  C   UNL A   1      46.839  33.823  26.662  1.00  0.00     0.054 A 
BRANCH  67  68
ATOM     68  S   UNL A   1      47.785  35.250  26.081  1.00  0.00     0.124 S 
ATOM     69  O   UNL A   1      46.730  36.225  25.816  1.00  0.00    -0.237 OA
ATOM     70  O   UNL A   1      48.642  35.544  27.226  1.00  0.00    -0.237 OA
ATOM     71  O   UNL A   1      48.481  34.744  24.900  1.00  0.00    -0.744 OA
ENDBRANCH  67  68
ENDBRANCH  48  62
BRANCH  49  72
ATOM     72  C   UNL A   1      37.246  32.376  30.766  1.00  0.00    -0.014 A 
ATOM     73  C   UNL A   1      35.924  32.054  31.130  1.00  0.00     0.010 A 
ATOM     74  C   UNL A   1      37.444  33.462  29.890  1.00  0.00     0.010 A 
ATOM     75  C   UNL A   1      34.835  32.712  30.549  1.00  0.00     0.020 A 
ATOM     76  C   UNL A   1      36.357  34.124  29.300  1.00  0.00     0.020 A 
ATOM     77  C   UNL A   1      35.059  33.711  29.601  1.00  0.00     0.054 A 
BRANCH  77  78
ATOM     78  S   UNL A   1      33.632  34.371  28.693  1.00  0.00     0.124 S 
ATOM     79  O   UNL A   1      33.238  33.226  27.877  1.00  0.00    -0.237 OA
ATOM     80  O   UNL A   1      32.707  34.721  29.769  1.00  0.00    -0.237 OA
ATOM     81  O   UNL A   1      34.183  35.505  27.955  1.00  0.00    -0.744 OA
ENDBRANCH  77  78
ENDBRANCH  49  72
BRANCH  61  82
ATOM     82  C   UNL A   1      42.207  29.350  33.461  1.00  0.00    -0.014 A 
ATOM     83  C   UNL A   1      42.553  29.619  34.799  1.00  0.00     0.010 A 
ATOM     84  C   UNL A   1      41.698  28.073  33.151  1.00  0.00     0.010 A 
ATOM     85  C   UNL A   1      42.436  28.637  35.788  1.00  0.00     0.020 A 
ATOM     86  C   UNL A   1      41.552  27.090  34.144  1.00  0.00     0.020 A 
ATOM     87  C   UNL A   1      41.949  27.373  35.453  1.00  0.00     0.054 A 
BRANCH  87  88
ATOM     88  S   UNL A   1      41.876  26.107  36.751  1.00  0.00     0.124 S 
ATOM     89  O   UNL A   1      43.018  26.460  37.592  1.00  0.00    -0.237 OA
ATOM     90  O   UNL A   1      40.565  26.339  37.355  1.00  0.00    -0.237 OA
ATOM     91  O   UNL A   1      42.005  24.846  36.027  1.00  0.00    -0.744 OA
ENDBRANCH  87  88
ENDBRANCH  61  82
ENDBRANCH  35  36
ENDBRANCH  28  30
ENDBRANCH  27  28
ENDBRANCH  26  27
ENDBRANCH   1  26
TORSDOF 18
ENDMDL
MODEL 2
REMARK VINA RESULT:     -10.1      4.674      8.228
REMARK SMILES COc1ccc2c(c1)c(CC(=O)OCCOC(=O)c1ccc(-c3c4nc(c(-c5ccc(S(=O)(=O)[O-])cc5)c5ccc([nH]5)c(-c5ccc(S(=O)(=O)[O-])cc5)c5nc(c(-c6ccc(S(=O)(=O)[O-])cc6)c6ccc3[nH]6)C=C5)C=C4)cc1)c(C)n2Cc1ccc(Br)cc1
REMARK SMILES IDX 14 1 13 2 11 3 12 4 10 5 9 6 3 7 4 8 8 9 5 10 7 11 6 12
REMARK SMILES IDX 81 13 79 14 80 15 2 16 1 17 82 18 83 19 84 20 89 21 85 22
REMARK SMILES IDX 88 23 86 24 87 25 15 26 16 27 17 28 18 29 19 30 20 31 78 32
REMARK SMILES IDX 21 33 77 34 22 35 23 36 24 37 71 38 25 39 76 40 70 41 72 42
REMARK SMILES IDX 26 43 75 44 69 45 68 46 27 48 57 49 38 50 56 51 39 52 42 53
REMARK SMILES IDX 55 54 73 55 40 56 41 57 54 59 74 60 43 61 28 62 29 63 37 64
REMARK SMILES IDX 30 65 36 66 31 67 32 68 33 69 34 70 35 71 58 72 59 73 67 74
REMARK SMILES IDX 60 75 66 76 61 77 62 78 63 79 64 80 65 81 44 82 45 83 53 84
REMARK SMILES IDX 46 85 52 86 47 87 48 88 49 89 50 90 51 91
REMARK H PARENT 72 47 42 58
REMARK Flexibility Score: inf
ROOT
ATOM      1  C   UNL A   1      36.988  21.889  25.740  1.00  0.00     0.274 C 
ENDROOT
BRANCH   1   2
ATOM      2  O   UNL A   1      36.506  23.061  25.045  1.00  0.00    -0.462 OA
BRANCH   2   3
ATOM      3  C   UNL A   1      36.030  22.820  23.800  1.00  0.00     0.310 C 
ATOM      4  O   UNL A   1      36.686  22.991  22.775  1.00  0.00    -0.252 OA
BRANCH   3   5
ATOM      5  C   UNL A   1      34.581  22.451  23.713  1.00  0.00     0.160 C 
BRANCH   5   6
ATOM      6  C   UNL A   1      33.469  23.453  23.731  1.00  0.00    -0.008 A 
ATOM      7  C   UNL A   1      30.791  23.722  26.489  1.00  0.00     0.119 A 
ATOM      8  C   UNL A   1      30.118  24.806  25.945  1.00  0.00     0.048 A 
ATOM      9  C   UNL A   1      31.988  23.269  25.912  1.00  0.00     0.057 A 
ATOM     10  C   UNL A   1      30.580  25.405  24.769  1.00  0.00     0.031 A 
ATOM     11  C   UNL A   1      32.424  23.774  24.667  1.00  0.00     0.007 A 
ATOM     12  C   UNL A   1      31.695  24.842  24.119  1.00  0.00     0.049 A 
ATOM     13  N   UNL A   1      32.317  25.169  22.930  1.00  0.00    -0.340 N 
ATOM     14  C   UNL A   1      33.133  24.128  22.562  1.00  0.00     0.020 A 
ATOM     15  C   UNL A   1      33.609  23.852  21.173  1.00  0.00     0.065 C 
BRANCH   7  16
ATOM     16  O   UNL A   1      30.364  23.101  27.634  1.00  0.00    -0.497 OA
ATOM     17  C   UNL A   1      29.064  22.519  27.501  1.00  0.00     0.278 C 
ENDBRANCH   7  16
BRANCH  13  18
ATOM     18  C   UNL A   1      32.168  26.421  22.194  1.00  0.00     0.157 C 
BRANCH  18  19
ATOM     19  C   UNL A   1      32.106  27.593  23.156  1.00  0.00    -0.028 A 
ATOM     20  C   UNL A   1      33.207  27.925  23.962  1.00  0.00     0.007 A 
ATOM     21  C   UNL A   1      30.919  28.321  23.318  1.00  0.00     0.007 A 
ATOM     22  C   UNL A   1      33.116  28.913  24.943  1.00  0.00     0.016 A 
ATOM     23  C   UNL A   1      30.836  29.339  24.275  1.00  0.00     0.016 A 
ATOM     24  C   UNL A   1      31.929  29.618  25.094  1.00  0.00     0.017 A 
ATOM     25  Br  UNL A   1      31.798  30.957  26.420  1.00  0.00    -0.051 Br
ENDBRANCH  18  19
ENDBRANCH  13  18
ENDBRANCH   5   6
ENDBRANCH   3   5
ENDBRANCH   2   3
ENDBRANCH   1   2
BRANCH   1  26
ATOM     26  C   UNL A   1      38.518  21.825  25.701  1.00  0.00     0.275 C 
BRANCH  26  27
ATOM     27  O   UNL A   1      39.054  22.869  26.530  1.00  0.00    -0.458 OA
BRANCH  27  28
ATOM     28  C   UNL A   1      40.362  22.790  26.873  1.00  0.00     0.338 C 
ATOM     29  O   UNL A   1      41.117  21.848  26.696  1.00  0.00    -0.246 OA
BRANCH  28  30
ATOM     30  C   UNL A   1      40.784  24.175  27.168  1.00  0.00     0.060 A 
ATOM     31  C   UNL A   1      41.465  24.467  28.351  1.00  0.00     0.016 A 
ATOM     32  C   UNL A   1      40.225  25.198  26.396  1.00  0.00     0.016 A 
ATOM     33  C   UNL A   1      41.414  25.761  28.854  1.00  0.00     0.010 A 
ATOM     34  C   UNL A   1      40.147  26.481  26.917  1.00  0.00     0.010 A 
ATOM     35  C   UNL A   1      40.669  26.740  28.183  1.00  0.00    -0.014 A 
BRANCH  35  36
ATOM     36  C   UNL A   1      40.613  28.084  28.732  1.00  0.00     0.031 A 
ATOM     37  C   UNL A   1      41.793  28.902  28.389  1.00  0.00     0.074 A 
ATOM     38  C   UNL A   1      39.642  28.653  29.472  1.00  0.00     0.049 A 
ATOM     39  N   UNL A   1      42.804  29.127  29.154  1.00  0.00    -0.248 NA
ATOM     40  C   UNL A   1      41.927  29.417  27.026  1.00  0.00     0.031 C 
ATOM     41  C   UNL A   1      38.281  28.219  29.773  1.00  0.00     0.029 A 
ATOM     42  N   UNL A   1      39.727  29.854  30.111  1.00  0.00    -0.354 N 
ATOM     43  C   UNL A   1      43.692  29.888  28.413  1.00  0.00     0.074 A 
ATOM     44  C   UNL A   1      43.150  29.949  27.075  1.00  0.00     0.031 C 
ATOM     45  C   UNL A   1      37.609  29.228  30.388  1.00  0.00     0.029 A 
ATOM     46  C   UNL A   1      38.549  30.298  30.681  1.00  0.00     0.049 A 
ATOM     47  H   UNL A   1      40.567  30.367  30.164  1.00  0.00     0.167 HD
ATOM     48  C   UNL A   1      44.766  30.496  28.984  1.00  0.00     0.031 A 
ATOM     49  C   UNL A   1      38.384  31.447  31.382  1.00  0.00     0.031 A 
ATOM     50  C   UNL A   1      44.973  30.057  30.341  1.00  0.00     0.049 A 
ATOM     51  C   UNL A   1      39.716  31.808  31.935  1.00  0.00     0.074 A 
ATOM     52  C   UNL A   1      45.323  28.849  30.912  1.00  0.00     0.029 A 
ATOM     53  N   UNL A   1      44.412  30.805  31.350  1.00  0.00    -0.354 N 
ATOM     54  N   UNL A   1      40.318  31.122  32.864  1.00  0.00    -0.248 NA
ATOM     55  C   UNL A   1      40.567  32.720  31.186  1.00  0.00     0.031 C 
ATOM     56  C   UNL A   1      44.537  28.758  32.097  1.00  0.00     0.029 A 
ATOM     57  C   UNL A   1      43.788  29.933  32.210  1.00  0.00     0.049 A 
ATOM     58  H   UNL A   1      44.450  31.786  31.440  1.00  0.00     0.167 HD
ATOM     59  C   UNL A   1      41.666  31.191  32.545  1.00  0.00     0.074 A 
ATOM     60  C   UNL A   1      41.765  32.273  31.570  1.00  0.00     0.031 C 
ATOM     61  C   UNL A   1      42.539  30.202  32.902  1.00  0.00     0.031 A 
BRANCH  48  62
ATOM     62  C   UNL A   1      45.518  31.638  28.375  1.00  0.00    -0.014 A 
ATOM     63  C   UNL A   1      46.637  31.455  27.539  1.00  0.00     0.010 A 
ATOM     64  C   UNL A   1      44.997  32.942  28.481  1.00  0.00     0.010 A 
ATOM     65  C   UNL A   1      47.241  32.523  26.874  1.00  0.00     0.020 A 
ATOM     66  C   UNL A   1      45.567  34.012  27.782  1.00  0.00     0.020 A 
ATOM     67  C   UNL A   1      46.694  33.796  26.989  1.00  0.00     0.054 A 
BRANCH  67  68
ATOM     68  S   UNL A   1      47.434  35.131  26.020  1.00  0.00     0.124 S 
ATOM     69  O   UNL A   1      48.373  35.713  26.975  1.00  0.00    -0.237 OA
ATOM     70  O   UNL A   1      48.037  34.410  24.902  1.00  0.00    -0.237 OA
ATOM     71  O   UNL A   1      46.293  35.975  25.670  1.00  0.00    -0.744 OA
ENDBRANCH  67  68
ENDBRANCH  48  62
BRANCH  49  72
ATOM     72  C   UNL A   1      37.329  32.471  31.165  1.00  0.00    -0.014 A 
ATOM     73  C   UNL A   1      36.002  32.217  31.563  1.00  0.00     0.010 A 
ATOM     74  C   UNL A   1      37.559  33.535  30.270  1.00  0.00     0.010 A 
ATOM     75  C   UNL A   1      34.933  32.919  30.997  1.00  0.00     0.020 A 
ATOM     76  C   UNL A   1      36.491  34.240  29.695  1.00  0.00     0.020 A 
ATOM     77  C   UNL A   1      35.182  33.894  30.030  1.00  0.00     0.054 A 
BRANCH  77  78
ATOM     78  S   UNL A   1      33.768  34.608  29.144  1.00  0.00     0.124 S 
ATOM     79  O   UNL A   1      32.888  34.994  30.244  1.00  0.00    -0.237 OA
ATOM     80  O   UNL A   1      34.380  35.716  28.414  1.00  0.00    -0.237 OA
ATOM     81  O   UNL A   1      33.286  33.508  28.313  1.00  0.00    -0.744 OA
ENDBRANCH  77  78
ENDBRANCH  49  72
BRANCH  61  82
ATOM     82  C   UNL A   1      42.077  29.139  33.883  1.00  0.00    -0.014 A 
ATOM     83  C   UNL A   1      42.213  29.409  35.258  1.00  0.00     0.010 A 
ATOM     84  C   UNL A   1      41.703  27.836  33.497  1.00  0.00     0.010 A 
ATOM     85  C   UNL A   1      42.023  28.407  36.215  1.00  0.00     0.020 A 
ATOM     86  C   UNL A   1      41.484  26.830  34.453  1.00  0.00     0.020 A 
ATOM     87  C   UNL A   1      41.674  27.119  35.807  1.00  0.00     0.054 A 
BRANCH  87  88
ATOM     88  S   UNL A   1      41.503  25.831  37.074  1.00  0.00     0.124 S 
ATOM     89  O   UNL A   1      42.644  26.102  37.946  1.00  0.00    -0.237 OA
ATOM     90  O   UNL A   1      40.194  26.121  37.656  1.00  0.00    -0.237 OA
ATOM     91  O   UNL A   1      41.579  24.580  36.324  1.00  0.00    -0.744 OA
ENDBRANCH  87  88
ENDBRANCH  61  82
ENDBRANCH  35  36
ENDBRANCH  28  30
ENDBRANCH  27  28
ENDBRANCH  26  27
ENDBRANCH   1  26
TORSDOF 18
ENDMDL
MODEL 3
REMARK VINA RESULT:     -10.0      8.275     13.409
REMARK SMILES COc1ccc2c(c1)c(CC(=O)OCCOC(=O)c1ccc(-c3c4nc(c(-c5ccc(S(=O)(=O)[O-])cc5)c5ccc([nH]5)c(-c5ccc(S(=O)(=O)[O-])cc5)c5nc(c(-c6ccc(S(=O)(=O)[O-])cc6)c6ccc3[nH]6)C=C5)C=C4)cc1)c(C)n2Cc1ccc(Br)cc1
REMARK SMILES IDX 14 1 13 2 11 3 12 4 10 5 9 6 3 7 4 8 8 9 5 10 7 11 6 12
REMARK SMILES IDX 81 13 79 14 80 15 2 16 1 17 82 18 83 19 84 20 89 21 85 22
REMARK SMILES IDX 88 23 86 24 87 25 15 26 16 27 17 28 18 29 19 30 20 31 78 32
REMARK SMILES IDX 21 33 77 34 22 35 23 36 24 37 71 38 25 39 76 40 70 41 72 42
REMARK SMILES IDX 26 43 75 44 69 45 68 46 27 48 57 49 38 50 56 51 39 52 42 53
REMARK SMILES IDX 55 54 73 55 40 56 41 57 54 59 74 60 43 61 28 62 29 63 37 64
REMARK SMILES IDX 30 65 36 66 31 67 32 68 33 69 34 70 35 71 58 72 59 73 67 74
REMARK SMILES IDX 60 75 66 76 61 77 62 78 63 79 64 80 65 81 44 82 45 83 53 84
REMARK SMILES IDX 46 85 52 86 47 87 48 88 49 89 50 90 51 91
REMARK H PARENT 72 47 42 58
REMARK Flexibility Score: inf
ROOT
ATOM      1  C   UNL A   1      39.239  34.664  33.300  1.00  0.00     0.274 C 
ENDROOT
BRANCH   1   2
ATOM      2  O   UNL A   1      37.809  34.780  33.120  1.00  0.00    -0.462 OA
BRANCH   2   3
ATOM      3  C   UNL A   1      37.076  33.963  33.914  1.00  0.00     0.310 C 
ATOM      4  O   UNL A   1      37.108  34.000  35.142  1.00  0.00    -0.252 OA
BRANCH   3   5
ATOM      5  C   UNL A   1      36.301  32.890  33.213  1.00  0.00     0.160 C 
BRANCH   5   6
ATOM      6  C   UNL A   1      35.720  33.050  31.843  1.00  0.00    -0.008 A 
ATOM      7  C   UNL A   1      33.137  35.730  30.845  1.00  0.00     0.119 A 
ATOM      8  C   UNL A   1      33.043  35.364  29.511  1.00  0.00     0.048 A 
ATOM      9  C   UNL A   1      34.083  35.119  31.682  1.00  0.00     0.057 A 
ATOM     10  C   UNL A   1      33.832  34.326  29.007  1.00  0.00     0.031 A 
ATOM     11  C   UNL A   1      34.818  33.995  31.241  1.00  0.00     0.007 A 
ATOM     12  C   UNL A   1      34.667  33.621  29.895  1.00  0.00     0.049 A 
ATOM     13  N   UNL A   1      35.487  32.527  29.701  1.00  0.00    -0.340 N 
ATOM     14  C   UNL A   1      35.822  32.007  30.928  1.00  0.00     0.020 A 
ATOM     15  C   UNL A   1      36.277  30.606  31.177  1.00  0.00     0.065 C 
BRANCH   7  16
ATOM     16  O   UNL A   1      32.372  36.734  31.379  1.00  0.00    -0.497 OA
ATOM     17  C   UNL A   1      32.011  36.496  32.742  1.00  0.00     0.278 C 
ENDBRANCH   7  16
BRANCH  13  18
ATOM     18  C   UNL A   1      35.956  32.018  28.417  1.00  0.00     0.157 C 
BRANCH  18  19
ATOM     19  C   UNL A   1      35.000  30.965  27.886  1.00  0.00    -0.028 A 
ATOM     20  C   UNL A   1      35.447  29.666  27.593  1.00  0.00     0.007 A 
ATOM     21  C   UNL A   1      33.667  31.290  27.601  1.00  0.00     0.007 A 
ATOM     22  C   UNL A   1      34.610  28.733  26.980  1.00  0.00     0.016 A 
ATOM     23  C   UNL A   1      32.813  30.345  27.022  1.00  0.00     0.016 A 
ATOM     24  C   UNL A   1      33.294  29.077  26.699  1.00  0.00     0.017 A 
ATOM     25  Br  UNL A   1      32.155  27.818  25.869  1.00  0.00    -0.051 Br
ENDBRANCH  18  19
ENDBRANCH  13  18
ENDBRANCH   5   6
ENDBRANCH   3   5
ENDBRANCH   2   3
ENDBRANCH   1   2
BRANCH   1  26
ATOM     26  C   UNL A   1      39.827  33.634  32.330  1.00  0.00     0.275 C 
BRANCH  26  27
ATOM     27  O   UNL A   1      40.644  34.313  31.362  1.00  0.00    -0.458 OA
BRANCH  27  28
ATOM     28  C   UNL A   1      40.202  34.348  30.082  1.00  0.00     0.338 C 
ATOM     29  O   UNL A   1      39.061  34.166  29.688  1.00  0.00    -0.246 OA
BRANCH  28  30
ATOM     30  C   UNL A   1      41.277  34.997  29.305  1.00  0.00     0.060 A 
ATOM     31  C   UNL A   1      42.365  35.581  29.957  1.00  0.00     0.016 A 
ATOM     32  C   UNL A   1      41.025  35.270  27.956  1.00  0.00     0.016 A 
ATOM     33  C   UNL A   1      43.077  36.583  29.312  1.00  0.00     0.010 A 
ATOM     34  C   UNL A   1      41.716  36.295  27.326  1.00  0.00     0.010 A 
ATOM     35  C   UNL A   1      42.684  37.004  28.034  1.00  0.00    -0.014 A 
BRANCH  35  36
ATOM     36  C   UNL A   1      43.430  38.067  27.380  1.00  0.00     0.031 A 
ATOM     37  C   UNL A   1      44.866  37.761  27.230  1.00  0.00     0.074 A 
ATOM     38  C   UNL A   1      42.979  39.241  26.899  1.00  0.00     0.049 A 
ATOM     39  N   UNL A   1      45.813  38.191  27.990  1.00  0.00    -0.248 NA
ATOM     40  C   UNL A   1      45.283  36.787  26.221  1.00  0.00     0.031 C 
ATOM     41  C   UNL A   1      41.623  39.733  26.674  1.00  0.00     0.029 A 
ATOM     42  N   UNL A   1      43.754  40.274  26.462  1.00  0.00    -0.354 N 
ATOM     43  C   UNL A   1      46.981  37.614  27.521  1.00  0.00     0.074 A 
ATOM     44  C   UNL A   1      46.583  36.677  26.496  1.00  0.00     0.031 C 
ATOM     45  C   UNL A   1      41.674  40.899  25.975  1.00  0.00     0.029 A 
ATOM     46  C   UNL A   1      43.064  41.315  25.871  1.00  0.00     0.049 A 
ATOM     47  H   UNL A   1      44.735  40.277  26.560  1.00  0.00     0.167 HD
ATOM     48  C   UNL A   1      48.205  38.025  27.947  1.00  0.00     0.031 A 
ATOM     49  C   UNL A   1      43.606  42.455  25.376  1.00  0.00     0.031 A 
ATOM     50  C   UNL A   1      48.109  38.920  29.073  1.00  0.00     0.049 A 
ATOM     51  C   UNL A   1      44.893  42.664  26.091  1.00  0.00     0.074 A 
ATOM     52  C   UNL A   1      47.677  38.774  30.376  1.00  0.00     0.029 A 
ATOM     53  N   UNL A   1      48.095  40.272  28.817  1.00  0.00    -0.354 N 
ATOM     54  N   UNL A   1      44.971  42.967  27.356  1.00  0.00    -0.248 NA
ATOM     55  C   UNL A   1      46.120  42.158  25.497  1.00  0.00     0.031 C 
ATOM     56  C   UNL A   1      46.986  39.984  30.675  1.00  0.00     0.029 A 
ATOM     57  C   UNL A   1      47.074  40.820  29.558  1.00  0.00     0.049 A 
ATOM     58  H   UNL A   1      48.704  40.759  28.215  1.00  0.00     0.167 HD
ATOM     59  C   UNL A   1      46.101  42.306  27.815  1.00  0.00     0.074 A 
ATOM     60  C   UNL A   1      46.823  41.916  26.606  1.00  0.00     0.031 C 
ATOM     61  C   UNL A   1      46.222  41.911  29.117  1.00  0.00     0.031 A 
BRANCH  48  62
ATOM     62  C   UNL A   1      49.488  37.767  27.220  1.00  0.00    -0.014 A 
ATOM     63  C   UNL A   1      50.745  37.800  27.855  1.00  0.00     0.010 A 
ATOM     64  C   UNL A   1      49.447  37.295  25.894  1.00  0.00     0.010 A 
ATOM     65  C   UNL A   1      51.914  37.425  27.193  1.00  0.00     0.020 A 
ATOM     66  C   UNL A   1      50.608  36.872  25.236  1.00  0.00     0.020 A 
ATOM     67  C   UNL A   1      51.837  36.950  25.889  1.00  0.00     0.054 A 
BRANCH  67  68
ATOM     68  S   UNL A   1      53.358  36.364  25.105  1.00  0.00     0.124 S 
ATOM     69  O   UNL A   1      54.383  36.887  26.005  1.00  0.00    -0.237 OA
ATOM     70  O   UNL A   1      53.182  34.915  25.125  1.00  0.00    -0.237 OA
ATOM     71  O   UNL A   1      53.319  36.975  23.778  1.00  0.00    -0.744 OA
ENDBRANCH  67  68
ENDBRANCH  48  62
BRANCH  49  72
ATOM     72  C   UNL A   1      43.359  43.042  24.034  1.00  0.00    -0.014 A 
ATOM     73  C   UNL A   1      42.855  42.240  22.991  1.00  0.00     0.010 A 
ATOM     74  C   UNL A   1      43.936  44.282  23.695  1.00  0.00     0.010 A 
ATOM     75  C   UNL A   1      43.028  42.605  21.652  1.00  0.00     0.020 A 
ATOM     76  C   UNL A   1      44.117  44.653  22.354  1.00  0.00     0.020 A 
ATOM     77  C   UNL A   1      43.702  43.787  21.342  1.00  0.00     0.054 A 
BRANCH  77  78
ATOM     78  S   UNL A   1      44.122  44.107  19.605  1.00  0.00     0.124 S 
ATOM     79  O   UNL A   1      45.325  43.298  19.432  1.00  0.00    -0.237 OA
ATOM     80  O   UNL A   1      42.937  43.626  18.899  1.00  0.00    -0.237 OA
ATOM     81  O   UNL A   1      44.328  45.552  19.558  1.00  0.00    -0.744 OA
ENDBRANCH  77  78
ENDBRANCH  49  72
BRANCH  61  82
ATOM     82  C   UNL A   1      45.218  42.427  30.133  1.00  0.00    -0.014 A 
ATOM     83  C   UNL A   1      45.648  43.417  31.037  1.00  0.00     0.010 A 
ATOM     84  C   UNL A   1      43.955  41.839  30.344  1.00  0.00     0.010 A 
ATOM     85  C   UNL A   1      44.865  43.782  32.137  1.00  0.00     0.020 A 
ATOM     86  C   UNL A   1      43.150  42.220  31.431  1.00  0.00     0.020 A 
ATOM     87  C   UNL A   1      43.627  43.171  32.337  1.00  0.00     0.054 A 
BRANCH  87  88
ATOM     88  S   UNL A   1      42.672  43.623  33.812  1.00  0.00     0.124 S 
ATOM     89  O   UNL A   1      41.899  44.771  33.339  1.00  0.00    -0.237 OA
ATOM     90  O   UNL A   1      41.892  42.416  34.076  1.00  0.00    -0.237 OA
ATOM     91  O   UNL A   1      43.688  43.931  34.814  1.00  0.00    -0.744 OA
ENDBRANCH  87  88
ENDBRANCH  61  82
ENDBRANCH  35  36
ENDBRANCH  28  30
ENDBRANCH  27  28
ENDBRANCH  26  27
ENDBRANCH   1  26
TORSDOF 18
ENDMDL
