MODEL 1
REMARK VINA RESULT:     -12.4      0.000      0.000
REMARK SMILES COc1cc2c(CC(=O)OCCOC(=O)c3ccc(-c4c5nc(c(-c6ccc(S(=O)(=O)[O-])cc6)c6ccc([nH]6)c(-c6ccc(S(=O)(=O)[O-])cc6)c6nc(c(-c7ccc(S(=O)(=O)[O-])cc7)c7ccc4[nH]7)C=C6)C=C5)cc3)c(C)n(C(=O)c3ccc(Cl)cc3)c2cc1Cl
REMARK SMILES IDX 11 1 10 2 8 3 9 4 7 5 6 6 3 7 4 8 90 9 5 10 89 11 91 12
REMARK SMILES IDX 88 13 76 14 78 15 77 16 2 17 1 18 79 19 80 20 81 21 82 22
REMARK SMILES IDX 87 23 83 24 86 25 84 26 85 27 12 28 13 29 14 30 15 31 16 32
REMARK SMILES IDX 17 33 75 34 18 35 74 36 19 37 20 38 21 39 68 40 22 41 73 42
REMARK SMILES IDX 67 43 69 44 23 45 72 46 66 47 65 48 24 50 54 51 35 52 53 53
REMARK SMILES IDX 36 54 39 55 52 56 70 57 37 58 38 59 51 61 71 62 40 63 25 64
REMARK SMILES IDX 26 65 34 66 27 67 33 68 28 69 29 70 30 71 31 72 32 73 55 74
REMARK SMILES IDX 56 75 64 76 57 77 63 78 58 79 59 80 60 81 61 82 62 83 41 84
REMARK SMILES IDX 42 85 50 86 43 87 49 88 44 89 45 90 46 91 47 92 48 93
REMARK H PARENT 69 49 39 60
REMARK Flexibility Score: inf
ROOT
ATOM      1  C   UNL A   1      40.045  21.958  27.273  1.00  0.00     0.274 C 
ENDROOT
BRANCH   1   2
ATOM      2  O   UNL A   1      39.374  21.756  26.007  1.00  0.00    -0.462 OA
BRANCH   2   3
ATOM      3  C   UNL A   1      38.389  22.646  25.740  1.00  0.00     0.310 C 
ATOM      4  O   UNL A   1      38.245  23.705  26.344  1.00  0.00    -0.252 OA
BRANCH   3   5
ATOM      5  C   UNL A   1      37.405  22.234  24.682  1.00  0.00     0.160 C 
BRANCH   5   6
ATOM      6  C   UNL A   1      35.973  21.903  25.013  1.00  0.00    -0.008 A 
ATOM      7  C   UNL A   1      34.606  18.306  24.520  1.00  0.00     0.138 A 
ATOM      8  C   UNL A   1      35.587  19.308  24.667  1.00  0.00     0.058 A 
ATOM      9  C   UNL A   1      33.275  18.633  24.725  1.00  0.00     0.085 A 
ATOM     10  C   UNL A   1      35.254  20.663  24.937  1.00  0.00     0.008 A 
ATOM     11  C   UNL A   1      32.916  19.956  24.984  1.00  0.00     0.051 A 
ATOM     12  Cl  UNL A   1      32.002  17.466  24.816  1.00  0.00    -0.080 Cl
ATOM     13  C   UNL A   1      33.900  20.959  25.137  1.00  0.00     0.058 A 
ATOM     14  C   UNL A   1      35.027  22.898  25.245  1.00  0.00     0.028 A 
ATOM     15  N   UNL A   1      33.808  22.302  25.536  1.00  0.00    -0.280 N 
ATOM     16  C   UNL A   1      35.256  24.381  25.210  1.00  0.00     0.065 C 
BRANCH   7  17
ATOM     17  O   UNL A   1      35.065  17.039  24.259  1.00  0.00    -0.495 OA
ATOM     18  C   UNL A   1      35.021  16.154  25.383  1.00  0.00     0.278 C 
ENDBRANCH   7  17
BRANCH  15  19
ATOM     19  C   UNL A   1      32.683  22.926  26.143  1.00  0.00     0.262 C 
ATOM     20  O   UNL A   1      32.325  22.585  27.267  1.00  0.00    -0.268 OA
BRANCH  19  21
ATOM     21  C   UNL A   1      31.863  23.951  25.487  1.00  0.00     0.040 A 
ATOM     22  C   UNL A   1      31.523  25.117  26.183  1.00  0.00     0.015 A 
ATOM     23  C   UNL A   1      31.340  23.678  24.220  1.00  0.00     0.015 A 
ATOM     24  C   UNL A   1      30.589  25.989  25.626  1.00  0.00     0.021 A 
ATOM     25  C   UNL A   1      30.411  24.559  23.667  1.00  0.00     0.021 A 
ATOM     26  C   UNL A   1      30.029  25.700  24.379  1.00  0.00     0.041 A 
ATOM     27  Cl  UNL A   1      28.830  26.747  23.725  1.00  0.00    -0.084 Cl
ENDBRANCH  19  21
ENDBRANCH  15  19
ENDBRANCH   5   6
ENDBRANCH   3   5
ENDBRANCH   2   3
ENDBRANCH   1   2
BRANCH   1  28
ATOM     28  C   UNL A   1      41.397  21.240  27.293  1.00  0.00     0.275 C 
BRANCH  28  29
ATOM     29  O   UNL A   1      42.445  22.216  27.375  1.00  0.00    -0.458 OA
BRANCH  29  30
ATOM     30  C   UNL A   1      42.774  22.870  26.228  1.00  0.00     0.338 C 
ATOM     31  O   UNL A   1      42.764  22.436  25.105  1.00  0.00    -0.246 OA
BRANCH  30  32
ATOM     32  C   UNL A   1      42.775  24.307  26.593  1.00  0.00     0.060 A 
ATOM     33  C   UNL A   1      43.259  24.728  27.833  1.00  0.00     0.016 A 
ATOM     34  C   UNL A   1      42.013  25.162  25.795  1.00  0.00     0.016 A 
ATOM     35  C   UNL A   1      42.818  25.939  28.349  1.00  0.00     0.010 A 
ATOM     36  C   UNL A   1      41.537  26.346  26.332  1.00  0.00     0.010 A 
ATOM     37  C   UNL A   1      41.881  26.695  27.634  1.00  0.00    -0.014 A 
BRANCH  37  38
ATOM     38  C   UNL A   1      41.422  27.963  28.176  1.00  0.00     0.031 A 
ATOM     39  C   UNL A   1      42.389  29.058  27.977  1.00  0.00     0.074 A 
ATOM     40  C   UNL A   1      40.230  28.248  28.729  1.00  0.00     0.049 A 
ATOM     41  N   UNL A   1      43.282  29.451  28.819  1.00  0.00    -0.248 NA
ATOM     42  C   UNL A   1      42.487  29.673  26.649  1.00  0.00     0.031 C 
ATOM     43  C   UNL A   1      38.989  27.479  28.748  1.00  0.00     0.029 A 
ATOM     44  N   UNL A   1      39.890  29.401  29.372  1.00  0.00    -0.354 N 
ATOM     45  C   UNL A   1      43.956  30.490  28.196  1.00  0.00     0.074 A 
ATOM     46  C   UNL A   1      43.561  30.447  26.809  1.00  0.00     0.031 C 
ATOM     47  C   UNL A   1      37.981  28.267  29.203  1.00  0.00     0.029 A 
ATOM     48  C   UNL A   1      38.544  29.525  29.669  1.00  0.00     0.049 A 
ATOM     49  H   UNL A   1      40.551  30.092  29.606  1.00  0.00     0.167 HD
ATOM     50  C   UNL A   1      44.632  31.430  28.910  1.00  0.00     0.031 A 
ATOM     51  C   UNL A   1      37.954  30.602  30.243  1.00  0.00     0.031 A 
ATOM     52  C   UNL A   1      44.713  31.076  30.306  1.00  0.00     0.049 A 
ATOM     53  C   UNL A   1      39.006  31.331  30.997  1.00  0.00     0.074 A 
ATOM     54  C   UNL A   1      45.278  30.036  31.016  1.00  0.00     0.029 A 
ATOM     55  N   UNL A   1      43.794  31.663  31.145  1.00  0.00    -0.354 N 
ATOM     56  N   UNL A   1      39.610  30.848  32.049  1.00  0.00    -0.248 NA
ATOM     57  C   UNL A   1      39.670  32.460  30.364  1.00  0.00     0.031 C 
ATOM     58  C   UNL A   1      44.371  29.779  32.084  1.00  0.00     0.029 A 
ATOM     59  C   UNL A   1      43.322  30.699  31.997  1.00  0.00     0.049 A 
ATOM     60  H   UNL A   1      43.523  32.610  31.136  1.00  0.00     0.167 HD
ATOM     61  C   UNL A   1      40.910  31.328  31.968  1.00  0.00     0.074 A 
ATOM     62  C   UNL A   1      40.853  32.403  30.984  1.00  0.00     0.031 C 
ATOM     63  C   UNL A   1      41.959  30.636  32.502  1.00  0.00     0.031 A 
BRANCH  50  64
ATOM     64  C   UNL A   1      44.920  32.827  28.431  1.00  0.00    -0.014 A 
ATOM     65  C   UNL A   1      43.930  33.813  28.257  1.00  0.00     0.010 A 
ATOM     66  C   UNL A   1      46.263  33.253  28.370  1.00  0.00     0.010 A 
ATOM     67  C   UNL A   1      44.250  35.152  28.037  1.00  0.00     0.020 A 
ATOM     68  C   UNL A   1      46.595  34.602  28.200  1.00  0.00     0.020 A 
ATOM     69  C   UNL A   1      45.583  35.543  28.034  1.00  0.00     0.054 A 
BRANCH  69  70
ATOM     70  S   UNL A   1      45.950  37.308  27.915  1.00  0.00     0.124 S 
ATOM     71  O   UNL A   1      45.834  37.542  26.478  1.00  0.00    -0.237 OA
ATOM     72  O   UNL A   1      44.899  37.901  28.737  1.00  0.00    -0.237 OA
ATOM     73  O   UNL A   1      47.301  37.415  28.461  1.00  0.00    -0.744 OA
ENDBRANCH  69  70
ENDBRANCH  50  64
BRANCH  51  74
ATOM     74  C   UNL A   1      36.674  31.243  29.852  1.00  0.00    -0.014 A 
ATOM     75  C   UNL A   1      36.499  31.712  28.534  1.00  0.00     0.010 A 
ATOM     76  C   UNL A   1      35.768  31.686  30.835  1.00  0.00     0.010 A 
ATOM     77  C   UNL A   1      35.516  32.658  28.225  1.00  0.00     0.020 A 
ATOM     78  C   UNL A   1      34.780  32.639  30.532  1.00  0.00     0.020 A 
ATOM     79  C   UNL A   1      34.690  33.148  29.235  1.00  0.00     0.054 A 
BRANCH  79  80
ATOM     80  S   UNL A   1      33.571  34.523  28.839  1.00  0.00     0.124 S 
ATOM     81  O   UNL A   1      34.492  35.510  28.280  1.00  0.00    -0.237 OA
ATOM     82  O   UNL A   1      32.650  33.914  27.881  1.00  0.00    -0.237 OA
ATOM     83  O   UNL A   1      32.982  34.875  30.128  1.00  0.00    -0.744 OA
ENDBRANCH  79  80
ENDBRANCH  51  74
BRANCH  63  84
ATOM     84  C   UNL A   1      41.682  29.520  33.487  1.00  0.00    -0.014 A 
ATOM     85  C   UNL A   1      41.790  29.830  34.857  1.00  0.00     0.010 A 
ATOM     86  C   UNL A   1      41.552  28.168  33.114  1.00  0.00     0.010 A 
ATOM     87  C   UNL A   1      41.831  28.824  35.823  1.00  0.00     0.020 A 
ATOM     88  C   UNL A   1      41.566  27.152  34.084  1.00  0.00     0.020 A 
ATOM     89  C   UNL A   1      41.740  27.487  35.430  1.00  0.00     0.054 A 
BRANCH  89  90
ATOM     90  S   UNL A   1      41.907  26.206  36.703  1.00  0.00     0.124 S 
ATOM     91  O   UNL A   1      42.401  25.066  35.933  1.00  0.00    -0.237 OA
ATOM     92  O   UNL A   1      42.873  26.793  37.630  1.00  0.00    -0.237 OA
ATOM     93  O   UNL A   1      40.555  26.056  37.236  1.00  0.00    -0.744 OA
ENDBRANCH  89  90
ENDBRANCH  63  84
ENDBRANCH  37  38
ENDBRANCH  30  32
ENDBRANCH  29  30
ENDBRANCH  28  29
ENDBRANCH   1  28
TORSDOF 18
ENDMDL
MODEL 2
REMARK VINA RESULT:     -11.9      2.249      3.201
REMARK SMILES COc1cc2c(CC(=O)OCCOC(=O)c3ccc(-c4c5nc(c(-c6ccc(S(=O)(=O)[O-])cc6)c6ccc([nH]6)c(-c6ccc(S(=O)(=O)[O-])cc6)c6nc(c(-c7ccc(S(=O)(=O)[O-])cc7)c7ccc4[nH]7)C=C6)C=C5)cc3)c(C)n(C(=O)c3ccc(Cl)cc3)c2cc1Cl
REMARK SMILES IDX 11 1 10 2 8 3 9 4 7 5 6 6 3 7 4 8 90 9 5 10 89 11 91 12
REMARK SMILES IDX 88 13 76 14 78 15 77 16 2 17 1 18 79 19 80 20 81 21 82 22
REMARK SMILES IDX 87 23 83 24 86 25 84 26 85 27 12 28 13 29 14 30 15 31 16 32
REMARK SMILES IDX 17 33 75 34 18 35 74 36 19 37 20 38 21 39 68 40 22 41 73 42
REMARK SMILES IDX 67 43 69 44 23 45 72 46 66 47 65 48 24 50 54 51 35 52 53 53
REMARK SMILES IDX 36 54 39 55 52 56 70 57 37 58 38 59 51 61 71 62 40 63 25 64
REMARK SMILES IDX 26 65 34 66 27 67 33 68 28 69 29 70 30 71 31 72 32 73 55 74
REMARK SMILES IDX 56 75 64 76 57 77 63 78 58 79 59 80 60 81 61 82 62 83 41 84
REMARK SMILES IDX 42 85 50 86 43 87 49 88 44 89 45 90 46 91 47 92 48 93
REMARK H PARENT 69 49 39 60
REMARK Flexibility Score: inf
ROOT
ATOM      1  C   UNL A   1      36.696  22.070  24.969  1.00  0.00     0.274 C 
ENDROOT
BRANCH   1   2
ATOM      2  O   UNL A   1      36.035  23.257  24.474  1.00  0.00    -0.462 OA
BRANCH   2   3
ATOM      3  C   UNL A   1      35.871  23.297  23.130  1.00  0.00     0.310 C 
ATOM      4  O   UNL A   1      36.631  22.752  22.334  1.00  0.00    -0.252 OA
BRANCH   3   5
ATOM      5  C   UNL A   1      34.719  24.125  22.636  1.00  0.00     0.160 C 
BRANCH   5   6
ATOM      6  C   UNL A   1      33.596  24.550  23.545  1.00  0.00    -0.008 A 
ATOM      7  C   UNL A   1      31.523  21.915  25.498  1.00  0.00     0.138 A 
ATOM      8  C   UNL A   1      32.618  22.413  24.762  1.00  0.00     0.058 A 
ATOM      9  C   UNL A   1      30.547  22.798  25.930  1.00  0.00     0.085 A 
ATOM     10  C   UNL A   1      32.716  23.777  24.375  1.00  0.00     0.008 A 
ATOM     11  C   UNL A   1      30.611  24.143  25.561  1.00  0.00     0.051 A 
ATOM     12  Cl  UNL A   1      29.288  22.373  27.037  1.00  0.00    -0.080 Cl
ATOM     13  C   UNL A   1      31.712  24.641  24.828  1.00  0.00     0.058 A 
ATOM     14  C   UNL A   1      33.086  25.846  23.522  1.00  0.00     0.028 A 
ATOM     15  N   UNL A   1      32.075  25.949  24.468  1.00  0.00    -0.280 N 
ATOM     16  C   UNL A   1      33.538  26.974  22.642  1.00  0.00     0.065 C 
BRANCH   7  17
ATOM     17  O   UNL A   1      31.554  20.578  25.803  1.00  0.00    -0.495 OA
ATOM     18  C   UNL A   1      32.683  19.878  25.271  1.00  0.00     0.278 C 
ENDBRANCH   7  17
BRANCH  15  19
ATOM     19  C   UNL A   1      31.527  27.152  24.993  1.00  0.00     0.262 C 
ATOM     20  O   UNL A   1      30.357  27.445  24.760  1.00  0.00    -0.268 OA
BRANCH  19  21
ATOM     21  C   UNL A   1      32.292  28.125  25.780  1.00  0.00     0.040 A 
ATOM     22  C   UNL A   1      32.054  29.494  25.612  1.00  0.00     0.015 A 
ATOM     23  C   UNL A   1      33.330  27.659  26.593  1.00  0.00     0.015 A 
ATOM     24  C   UNL A   1      32.914  30.410  26.216  1.00  0.00     0.021 A 
ATOM     25  C   UNL A   1      34.182  28.583  27.199  1.00  0.00     0.021 A 
ATOM     26  C   UNL A   1      33.979  29.951  26.995  1.00  0.00     0.041 A 
ATOM     27  Cl  UNL A   1      35.075  31.083  27.685  1.00  0.00    -0.084 Cl
ENDBRANCH  19  21
ENDBRANCH  15  19
ENDBRANCH   5   6
ENDBRANCH   3   5
ENDBRANCH   2   3
ENDBRANCH   1   2
BRANCH   1  28
ATOM     28  C   UNL A   1      37.468  22.372  26.256  1.00  0.00     0.275 C 
BRANCH  28  29
ATOM     29  O   UNL A   1      38.858  22.539  25.941  1.00  0.00    -0.458 OA
BRANCH  29  30
ATOM     30  C   UNL A   1      39.738  22.499  26.979  1.00  0.00     0.338 C 
ATOM     31  O   UNL A   1      40.231  21.526  27.488  1.00  0.00    -0.246 OA
BRANCH  30  32
ATOM     32  C   UNL A   1      40.251  23.885  27.099  1.00  0.00     0.060 A 
ATOM     33  C   UNL A   1      41.244  24.201  28.028  1.00  0.00     0.016 A 
ATOM     34  C   UNL A   1      39.507  24.890  26.479  1.00  0.00     0.016 A 
ATOM     35  C   UNL A   1      41.357  25.512  28.470  1.00  0.00     0.010 A 
ATOM     36  C   UNL A   1      39.589  26.187  26.956  1.00  0.00     0.010 A 
ATOM     37  C   UNL A   1      40.460  26.479  28.001  1.00  0.00    -0.014 A 
BRANCH  37  38
ATOM     38  C   UNL A   1      40.582  27.851  28.464  1.00  0.00     0.031 A 
ATOM     39  C   UNL A   1      41.820  28.507  28.004  1.00  0.00     0.074 A 
ATOM     40  C   UNL A   1      39.686  28.578  29.155  1.00  0.00     0.049 A 
ATOM     41  N   UNL A   1      42.929  28.586  28.656  1.00  0.00    -0.248 NA
ATOM     42  C   UNL A   1      41.889  28.979  26.618  1.00  0.00     0.031 C 
ATOM     43  C   UNL A   1      38.278  28.317  29.443  1.00  0.00     0.029 A 
ATOM     44  N   UNL A   1      39.894  29.804  29.711  1.00  0.00    -0.354 N 
ATOM     45  C   UNL A   1      43.803  29.275  27.830  1.00  0.00     0.074 A 
ATOM     46  C   UNL A   1      43.177  29.315  26.531  1.00  0.00     0.031 C 
ATOM     47  C   UNL A   1      37.710  29.439  29.955  1.00  0.00     0.029 A 
ATOM     48  C   UNL A   1      38.754  30.426  30.191  1.00  0.00     0.049 A 
ATOM     49  H   UNL A   1      40.786  30.217  29.768  1.00  0.00     0.167 HD
ATOM     50  C   UNL A   1      44.883  29.937  28.329  1.00  0.00     0.031 A 
ATOM     51  C   UNL A   1      38.693  31.669  30.726  1.00  0.00     0.031 A 
ATOM     52  C   UNL A   1      45.081  29.644  29.727  1.00  0.00     0.049 A 
ATOM     53  C   UNL A   1      40.051  31.998  31.230  1.00  0.00     0.074 A 
ATOM     54  C   UNL A   1      45.362  28.505  30.454  1.00  0.00     0.029 A 
ATOM     55  N   UNL A   1      44.594  30.566  30.625  1.00  0.00    -0.354 N 
ATOM     56  N   UNL A   1      40.624  31.379  32.227  1.00  0.00    -0.248 NA
ATOM     57  C   UNL A   1      40.946  32.776  30.387  1.00  0.00     0.031 C 
ATOM     58  C   UNL A   1      44.628  28.648  31.666  1.00  0.00     0.029 A 
ATOM     59  C   UNL A   1      43.973  29.882  31.638  1.00  0.00     0.049 A 
ATOM     60  H   UNL A   1      44.677  31.544  30.553  1.00  0.00     0.167 HD
ATOM     61  C   UNL A   1      41.973  31.346  31.901  1.00  0.00     0.074 A 
ATOM     62  C   UNL A   1      42.123  32.321  30.825  1.00  0.00     0.031 C 
ATOM     63  C   UNL A   1      42.789  30.345  32.344  1.00  0.00     0.031 A 
BRANCH  50  64
ATOM     64  C   UNL A   1      45.553  31.108  27.663  1.00  0.00    -0.014 A 
ATOM     65  C   UNL A   1      44.992  32.398  27.600  1.00  0.00     0.010 A 
ATOM     66  C   UNL A   1      46.905  30.980  27.282  1.00  0.00     0.010 A 
ATOM     67  C   UNL A   1      45.729  33.506  27.185  1.00  0.00     0.020 A 
ATOM     68  C   UNL A   1      47.669  32.093  26.912  1.00  0.00     0.020 A 
ATOM     69  C   UNL A   1      47.073  33.351  26.867  1.00  0.00     0.054 A 
BRANCH  69  70
ATOM     70  S   UNL A   1      48.034  34.835  26.498  1.00  0.00     0.124 S 
ATOM     71  O   UNL A   1      49.313  34.267  26.078  1.00  0.00    -0.237 OA
ATOM     72  O   UNL A   1      47.245  35.463  25.442  1.00  0.00    -0.237 OA
ATOM     73  O   UNL A   1      48.055  35.554  27.770  1.00  0.00    -0.744 OA
ENDBRANCH  69  70
ENDBRANCH  50  64
BRANCH  51  74
ATOM     74  C   UNL A   1      37.673  32.715  30.464  1.00  0.00    -0.014 A 
ATOM     75  C   UNL A   1      36.599  32.886  31.360  1.00  0.00     0.010 A 
ATOM     76  C   UNL A   1      37.571  33.310  29.191  1.00  0.00     0.010 A 
ATOM     77  C   UNL A   1      35.428  33.545  30.971  1.00  0.00     0.020 A 
ATOM     78  C   UNL A   1      36.397  33.971  28.793  1.00  0.00     0.020 A 
ATOM     79  C   UNL A   1      35.318  34.047  29.675  1.00  0.00     0.054 A 
BRANCH  79  80
ATOM     80  S   UNL A   1      33.711  34.707  29.143  1.00  0.00     0.124 S 
ATOM     81  O   UNL A   1      34.098  35.958  28.496  1.00  0.00    -0.237 OA
ATOM     82  O   UNL A   1      33.222  33.663  28.246  1.00  0.00    -0.237 OA
ATOM     83  O   UNL A   1      32.965  34.852  30.390  1.00  0.00    -0.744 OA
ENDBRANCH  79  80
ENDBRANCH  51  74
BRANCH  63  84
ATOM     84  C   UNL A   1      42.318  29.455  33.475  1.00  0.00    -0.014 A 
ATOM     85  C   UNL A   1      42.803  29.745  34.766  1.00  0.00     0.010 A 
ATOM     86  C   UNL A   1      41.622  28.247  33.276  1.00  0.00     0.010 A 
ATOM     87  C   UNL A   1      42.657  28.832  35.812  1.00  0.00     0.020 A 
ATOM     88  C   UNL A   1      41.448  27.337  34.331  1.00  0.00     0.020 A 
ATOM     89  C   UNL A   1      41.999  27.622  35.584  1.00  0.00     0.054 A 
BRANCH  89  90
ATOM     90  S   UNL A   1      41.926  26.418  36.939  1.00  0.00     0.124 S 
ATOM     91  O   UNL A   1      40.595  26.657  37.494  1.00  0.00    -0.237 OA
ATOM     92  O   UNL A   1      42.090  25.141  36.247  1.00  0.00    -0.237 OA
ATOM     93  O   UNL A   1      43.038  26.794  37.809  1.00  0.00    -0.744 OA
ENDBRANCH  89  90
ENDBRANCH  63  84
ENDBRANCH  37  38
ENDBRANCH  30  32
ENDBRANCH  29  30
ENDBRANCH  28  29
ENDBRANCH   1  28
TORSDOF 18
ENDMDL
MODEL 3
REMARK VINA RESULT:     -11.9      1.293      3.343
REMARK SMILES COc1cc2c(CC(=O)OCCOC(=O)c3ccc(-c4c5nc(c(-c6ccc(S(=O)(=O)[O-])cc6)c6ccc([nH]6)c(-c6ccc(S(=O)(=O)[O-])cc6)c6nc(c(-c7ccc(S(=O)(=O)[O-])cc7)c7ccc4[nH]7)C=C6)C=C5)cc3)c(C)n(C(=O)c3ccc(Cl)cc3)c2cc1Cl
REMARK SMILES IDX 11 1 10 2 8 3 9 4 7 5 6 6 3 7 4 8 90 9 5 10 89 11 91 12
REMARK SMILES IDX 88 13 76 14 78 15 77 16 2 17 1 18 79 19 80 20 81 21 82 22
REMARK SMILES IDX 87 23 83 24 86 25 84 26 85 27 12 28 13 29 14 30 15 31 16 32
REMARK SMILES IDX 17 33 75 34 18 35 74 36 19 37 20 38 21 39 68 40 22 41 73 42
REMARK SMILES IDX 67 43 69 44 23 45 72 46 66 47 65 48 24 50 54 51 35 52 53 53
REMARK SMILES IDX 36 54 39 55 52 56 70 57 37 58 38 59 51 61 71 62 40 63 25 64
REMARK SMILES IDX 26 65 34 66 27 67 33 68 28 69 29 70 30 71 31 72 32 73 55 74
REMARK SMILES IDX 56 75 64 76 57 77 63 78 58 79 59 80 60 81 61 82 62 83 41 84
REMARK SMILES IDX 42 85 50 86 43 87 49 88 44 89 45 90 46 91 47 92 48 93
REMARK H PARENT 69 49 39 60
REMARK Flexibility Score: inf
ROOT
ATOM      1  C   UNL A   1      39.622  23.056  26.936  1.00  0.00     0.274 C 
ENDROOT
BRANCH   1   2
ATOM      2  O   UNL A   1      38.792  23.616  25.892  1.00  0.00    -0.462 OA
BRANCH   2   3
ATOM      3  C   UNL A   1      37.565  23.056  25.782  1.00  0.00     0.310 C 
ATOM      4  O   UNL A   1      37.367  21.931  25.331  1.00  0.00    -0.252 OA
BRANCH   3   5
ATOM      5  C   UNL A   1      36.409  23.928  26.183  1.00  0.00     0.160 C 
BRANCH   5   6
ATOM      6  C   UNL A   1      35.021  23.709  25.642  1.00  0.00    -0.008 A 
ATOM      7  C   UNL A   1      33.317  26.393  23.417  1.00  0.00     0.138 A 
ATOM      8  C   UNL A   1      34.384  25.734  24.061  1.00  0.00     0.058 A 
ATOM      9  C   UNL A   1      32.061  25.807  23.429  1.00  0.00     0.085 A 
ATOM     10  C   UNL A   1      34.203  24.530  24.794  1.00  0.00     0.008 A 
ATOM     11  C   UNL A   1      31.850  24.628  24.146  1.00  0.00     0.051 A 
ATOM     12  Cl  UNL A   1      30.728  26.373  22.484  1.00  0.00    -0.080 Cl
ATOM     13  C   UNL A   1      32.922  23.966  24.786  1.00  0.00     0.058 A 
ATOM     14  C   UNL A   1      34.201  22.689  26.119  1.00  0.00     0.028 A 
ATOM     15  N   UNL A   1      32.995  22.722  25.431  1.00  0.00    -0.280 N 
ATOM     16  C   UNL A   1      34.537  21.692  27.188  1.00  0.00     0.065 C 
BRANCH   7  17
ATOM     17  O   UNL A   1      33.631  27.547  22.746  1.00  0.00    -0.495 OA
ATOM     18  C   UNL A   1      33.068  28.732  23.316  1.00  0.00     0.278 C 
ENDBRANCH   7  17
BRANCH  15  19
ATOM     19  C   UNL A   1      32.026  21.682  25.372  1.00  0.00     0.262 C 
ATOM     20  O   UNL A   1      30.900  21.866  25.827  1.00  0.00    -0.268 OA
BRANCH  19  21
ATOM     21  C   UNL A   1      32.294  20.344  24.831  1.00  0.00     0.040 A 
ATOM     22  C   UNL A   1      32.700  19.317  25.690  1.00  0.00     0.015 A 
ATOM     23  C   UNL A   1      32.251  20.163  23.445  1.00  0.00     0.015 A 
ATOM     24  C   UNL A   1      33.137  18.111  25.144  1.00  0.00     0.021 A 
ATOM     25  C   UNL A   1      32.684  18.951  22.908  1.00  0.00     0.021 A 
ATOM     26  C   UNL A   1      33.138  17.939  23.757  1.00  0.00     0.041 A 
ATOM     27  Cl  UNL A   1      33.738  16.473  23.086  1.00  0.00    -0.084 Cl
ENDBRANCH  19  21
ENDBRANCH  15  19
ENDBRANCH   5   6
ENDBRANCH   3   5
ENDBRANCH   2   3
ENDBRANCH   1   2
BRANCH   1  28
ATOM     28  C   UNL A   1      40.630  22.060  26.355  1.00  0.00     0.275 C 
BRANCH  28  29
ATOM     29  O   UNL A   1      41.700  22.784  25.732  1.00  0.00    -0.458 OA
BRANCH  29  30
ATOM     30  C   UNL A   1      42.843  22.944  26.454  1.00  0.00     0.338 C 
ATOM     31  O   UNL A   1      43.784  22.196  26.515  1.00  0.00    -0.246 OA
BRANCH  30  32
ATOM     32  C   UNL A   1      42.858  24.376  26.836  1.00  0.00     0.060 A 
ATOM     33  C   UNL A   1      43.175  24.765  28.139  1.00  0.00     0.016 A 
ATOM     34  C   UNL A   1      42.261  25.273  25.948  1.00  0.00     0.016 A 
ATOM     35  C   UNL A   1      42.720  25.992  28.603  1.00  0.00     0.010 A 
ATOM     36  C   UNL A   1      41.768  26.475  26.427  1.00  0.00     0.010 A 
ATOM     37  C   UNL A   1      41.934  26.797  27.770  1.00  0.00    -0.014 A 
BRANCH  37  38
ATOM     38  C   UNL A   1      41.461  28.082  28.258  1.00  0.00     0.031 A 
ATOM     39  C   UNL A   1      42.415  29.179  28.011  1.00  0.00     0.074 A 
ATOM     40  C   UNL A   1      40.266  28.377  28.799  1.00  0.00     0.049 A 
ATOM     41  N   UNL A   1      43.304  29.618  28.834  1.00  0.00    -0.248 NA
ATOM     42  C   UNL A   1      42.505  29.737  26.658  1.00  0.00     0.031 C 
ATOM     43  C   UNL A   1      39.034  27.595  28.853  1.00  0.00     0.029 A 
ATOM     44  N   UNL A   1      39.913  29.552  29.392  1.00  0.00    -0.354 N 
ATOM     45  C   UNL A   1      43.966  30.636  28.167  1.00  0.00     0.074 A 
ATOM     46  C   UNL A   1      43.570  30.530  26.783  1.00  0.00     0.031 C 
ATOM     47  C   UNL A   1      38.017  28.390  29.275  1.00  0.00     0.029 A 
ATOM     48  C   UNL A   1      38.566  29.673  29.685  1.00  0.00     0.049 A 
ATOM     49  H   UNL A   1      40.566  30.260  29.596  1.00  0.00     0.167 HD
ATOM     50  C   UNL A   1      44.631  31.614  28.840  1.00  0.00     0.031 A 
ATOM     51  C   UNL A   1      37.963  30.767  30.214  1.00  0.00     0.031 A 
ATOM     52  C   UNL A   1      44.717  31.321  30.249  1.00  0.00     0.049 A 
ATOM     53  C   UNL A   1      39.008  31.539  30.934  1.00  0.00     0.074 A 
ATOM     54  C   UNL A   1      45.294  30.319  31.003  1.00  0.00     0.029 A 
ATOM     55  N   UNL A   1      43.791  31.933  31.064  1.00  0.00    -0.354 N 
ATOM     56  N   UNL A   1      39.618  31.109  32.005  1.00  0.00    -0.248 NA
ATOM     57  C   UNL A   1      39.659  32.648  30.253  1.00  0.00     0.031 C 
ATOM     58  C   UNL A   1      44.391  30.097  32.081  1.00  0.00     0.029 A 
ATOM     59  C   UNL A   1      43.331  31.000  31.956  1.00  0.00     0.049 A 
ATOM     60  H   UNL A   1      43.510  32.875  31.013  1.00  0.00     0.167 HD
ATOM     61  C   UNL A   1      40.912  31.600  31.903  1.00  0.00     0.074 A 
ATOM     62  C   UNL A   1      40.842  32.632  30.874  1.00  0.00     0.031 C 
ATOM     63  C   UNL A   1      41.970  30.944  32.465  1.00  0.00     0.031 A 
BRANCH  50  64
ATOM     64  C   UNL A   1      44.903  32.992  28.301  1.00  0.00    -0.014 A 
ATOM     65  C   UNL A   1      43.936  33.780  27.647  1.00  0.00     0.010 A 
ATOM     66  C   UNL A   1      46.108  33.630  28.662  1.00  0.00     0.010 A 
ATOM     67  C   UNL A   1      44.147  35.130  27.367  1.00  0.00     0.020 A 
ATOM     68  C   UNL A   1      46.310  34.995  28.431  1.00  0.00     0.020 A 
ATOM     69  C   UNL A   1      45.326  35.736  27.784  1.00  0.00     0.054 A 
BRANCH  69  70
ATOM     70  S   UNL A   1      45.490  37.520  27.553  1.00  0.00     0.124 S 
ATOM     71  O   UNL A   1      44.200  37.866  26.961  1.00  0.00    -0.237 OA
ATOM     72  O   UNL A   1      45.705  37.993  28.918  1.00  0.00    -0.237 OA
ATOM     73  O   UNL A   1      46.642  37.646  26.663  1.00  0.00    -0.744 OA
ENDBRANCH  69  70
ENDBRANCH  50  64
BRANCH  51  74
ATOM     74  C   UNL A   1      36.676  31.376  29.797  1.00  0.00    -0.014 A 
ATOM     75  C   UNL A   1      36.532  31.883  28.490  1.00  0.00     0.010 A 
ATOM     76  C   UNL A   1      35.720  31.753  30.760  1.00  0.00     0.010 A 
ATOM     77  C   UNL A   1      35.527  32.805  28.176  1.00  0.00     0.020 A 
ATOM     78  C   UNL A   1      34.709  32.680  30.452  1.00  0.00     0.020 A 
ATOM     79  C   UNL A   1      34.647  33.230  29.171  1.00  0.00     0.054 A 
BRANCH  79  80
ATOM     80  S   UNL A   1      33.495  34.578  28.779  1.00  0.00     0.124 S 
ATOM     81  O   UNL A   1      34.381  35.565  28.166  1.00  0.00    -0.237 OA
ATOM     82  O   UNL A   1      32.553  33.933  27.867  1.00  0.00    -0.237 OA
ATOM     83  O   UNL A   1      32.943  34.953  30.078  1.00  0.00    -0.744 OA
ENDBRANCH  79  80
ENDBRANCH  51  74
BRANCH  63  84
ATOM     84  C   UNL A   1      41.706  29.868  33.497  1.00  0.00    -0.014 A 
ATOM     85  C   UNL A   1      41.983  30.185  34.841  1.00  0.00     0.010 A 
ATOM     86  C   UNL A   1      41.425  28.527  33.169  1.00  0.00     0.010 A 
ATOM     87  C   UNL A   1      42.042  29.190  35.819  1.00  0.00     0.020 A 
ATOM     88  C   UNL A   1      41.456  27.526  34.153  1.00  0.00     0.020 A 
ATOM     89  C   UNL A   1      41.799  27.861  35.466  1.00  0.00     0.054 A 
BRANCH  89  90
ATOM     90  S   UNL A   1      41.992  26.587  36.742  1.00  0.00     0.124 S 
ATOM     91  O   UNL A   1      42.179  25.376  35.945  1.00  0.00    -0.237 OA
ATOM     92  O   UNL A   1      43.175  27.037  37.474  1.00  0.00    -0.237 OA
ATOM     93  O   UNL A   1      40.742  26.646  37.496  1.00  0.00    -0.744 OA
ENDBRANCH  89  90
ENDBRANCH  63  84
ENDBRANCH  37  38
ENDBRANCH  30  32
ENDBRANCH  29  30
ENDBRANCH  28  29
ENDBRANCH   1  28
TORSDOF 18
ENDMDL
