MODEL 1
REMARK VINA RESULT:     -11.9      0.000      0.000
REMARK SMILES Cc1nn(CC(=O)OCCOC(=O)c2ccc(-c3c4nc(c(-c5ccc(S(=O)(=O)[O-])cc5)c5ccc([nH]5)c(-c5ccc(S(=O)(=O)[O-])cc5)c5nc(c(-c6ccc(S(=O)(=O)[O-])cc6)c6ccc3[nH]6)C=C5)C=C4)cc2)c(C)c1NC(=O)C(=O)Nc1ccc(F)cc1
REMARK SMILES IDX 9 1 8 2 6 3 7 4 5 5 4 6 1 7 2 8 3 9 76 10 74 11 75 12 77 13
REMARK SMILES IDX 78 14 79 16 80 17 81 18 82 19 83 21 84 22 89 23 85 24 88 25
REMARK SMILES IDX 86 26 87 27 10 28 11 29 12 30 13 31 14 32 15 33 73 34 16 35
REMARK SMILES IDX 72 36 17 37 18 38 19 39 66 40 20 41 71 42 65 43 67 44 21 45
REMARK SMILES IDX 70 46 64 47 63 48 22 50 52 51 33 52 51 53 34 54 37 55 50 56
REMARK SMILES IDX 68 57 35 58 36 59 49 61 69 62 38 63 23 64 24 65 32 66 25 67
REMARK SMILES IDX 31 68 26 69 27 70 28 71 29 72 30 73 53 74 54 75 62 76 55 77
REMARK SMILES IDX 61 78 56 79 57 80 58 81 59 82 60 83 39 84 40 85 48 86 41 87
REMARK SMILES IDX 47 88 42 89 43 90 44 91 45 92 46 93
REMARK H PARENT 77 15 82 20 67 49 37 60
REMARK Flexibility Score: inf
ROOT
ATOM      1  C   UNL A   1      37.159  21.337  24.767  1.00  0.00     0.274 C 
ENDROOT
BRANCH   1   2
ATOM      2  O   UNL A   1      37.053  22.236  23.644  1.00  0.00    -0.461 OA
BRANCH   2   3
ATOM      3  C   UNL A   1      36.050  23.156  23.682  1.00  0.00     0.327 C 
ATOM      4  O   UNL A   1      35.172  23.237  22.825  1.00  0.00    -0.250 OA
BRANCH   3   5
ATOM      5  C   UNL A   1      36.076  24.083  24.867  1.00  0.00     0.267 C 
BRANCH   5   6
ATOM      6  N   UNL A   1      34.887  24.095  25.705  1.00  0.00    -0.256 N 
ATOM      7  C   UNL A   1      32.762  22.278  27.867  1.00  0.00     0.071 C 
ATOM      8  C   UNL A   1      33.389  23.258  26.942  1.00  0.00     0.083 A 
ATOM      9  N   UNL A   1      34.557  22.972  26.365  1.00  0.00    -0.175 NA
ATOM     10  C   UNL A   1      32.867  24.491  26.462  1.00  0.00     0.086 A 
ATOM     11  C   UNL A   1      33.911  25.067  25.759  1.00  0.00     0.060 A 
ATOM     12  C   UNL A   1      34.130  26.409  25.161  1.00  0.00     0.069 C 
BRANCH  10  13
ATOM     13  N   UNL A   1      31.585  24.944  26.718  1.00  0.00    -0.315 N 
ATOM     14  C   UNL A   1      30.539  25.156  25.847  1.00  0.00     0.314 C 
ATOM     15  H   UNL A   1      31.391  25.144  27.662  1.00  0.00     0.170 HD
ATOM     16  O   UNL A   1      29.430  25.465  26.272  1.00  0.00    -0.263 OA
BRANCH  14  17
ATOM     17  C   UNL A   1      30.727  24.843  24.364  1.00  0.00     0.314 C 
ATOM     18  O   UNL A   1      30.535  23.697  23.957  1.00  0.00    -0.263 OA
ATOM     19  N   UNL A   1      31.064  25.811  23.436  1.00  0.00    -0.318 N 
ATOM     20  H   UNL A   1      31.574  25.492  22.657  1.00  0.00     0.170 HD
BRANCH  19  21
ATOM     21  C   UNL A   1      30.782  27.183  23.451  1.00  0.00     0.041 A 
ATOM     22  C   UNL A   1      29.495  27.523  23.006  1.00  0.00     0.029 A 
ATOM     23  C   UNL A   1      31.621  28.179  23.945  1.00  0.00     0.029 A 
ATOM     24  C   UNL A   1      29.002  28.812  23.187  1.00  0.00     0.041 A 
ATOM     25  C   UNL A   1      31.132  29.480  24.108  1.00  0.00     0.041 A 
ATOM     26  C   UNL A   1      29.819  29.776  23.757  1.00  0.00     0.123 A 
ATOM     27  F   UNL A   1      29.333  31.003  23.977  1.00  0.00    -0.207 F 
ENDBRANCH  19  21
ENDBRANCH  14  17
ENDBRANCH  10  13
ENDBRANCH   5   6
ENDBRANCH   3   5
ENDBRANCH   2   3
ENDBRANCH   1   2
BRANCH   1  28
ATOM     28  C   UNL A   1      38.541  21.404  25.415  1.00  0.00     0.275 C 
BRANCH  28  29
ATOM     29  O   UNL A   1      38.585  22.441  26.395  1.00  0.00    -0.458 OA
BRANCH  29  30
ATOM     30  C   UNL A   1      39.790  22.516  27.007  1.00  0.00     0.338 C 
ATOM     31  O   UNL A   1      40.317  21.638  27.664  1.00  0.00    -0.246 OA
BRANCH  30  32
ATOM     32  C   UNL A   1      40.357  23.856  26.889  1.00  0.00     0.060 A 
ATOM     33  C   UNL A   1      41.640  24.037  27.422  1.00  0.00     0.016 A 
ATOM     34  C   UNL A   1      39.485  24.920  26.646  1.00  0.00     0.016 A 
ATOM     35  C   UNL A   1      41.954  25.266  27.949  1.00  0.00     0.010 A 
ATOM     36  C   UNL A   1      39.790  26.138  27.197  1.00  0.00     0.010 A 
ATOM     37  C   UNL A   1      40.974  26.258  27.927  1.00  0.00    -0.014 A 
BRANCH  37  38
ATOM     38  C   UNL A   1      41.188  27.430  28.745  1.00  0.00     0.031 A 
ATOM     39  C   UNL A   1      42.296  28.292  28.292  1.00  0.00     0.074 A 
ATOM     40  C   UNL A   1      40.339  27.751  29.737  1.00  0.00     0.049 A 
ATOM     41  N   UNL A   1      43.397  28.569  28.903  1.00  0.00    -0.248 NA
ATOM     42  C   UNL A   1      42.218  28.796  26.912  1.00  0.00     0.031 C 
ATOM     43  C   UNL A   1      39.037  27.148  30.041  1.00  0.00     0.029 A 
ATOM     44  N   UNL A   1      40.400  28.804  30.593  1.00  0.00    -0.354 N 
ATOM     45  C   UNL A   1      44.073  29.443  28.060  1.00  0.00     0.074 A 
ATOM     46  C   UNL A   1      43.403  29.387  26.786  1.00  0.00     0.031 C 
ATOM     47  C   UNL A   1      38.332  28.001  30.818  1.00  0.00     0.029 A 
ATOM     48  C   UNL A   1      39.177  29.135  31.158  1.00  0.00     0.049 A 
ATOM     49  H   UNL A   1      41.234  29.287  30.793  1.00  0.00     0.167 HD
ATOM     50  C   UNL A   1      44.972  30.350  28.525  1.00  0.00     0.031 A 
ATOM     51  C   UNL A   1      38.869  30.316  31.750  1.00  0.00     0.031 A 
ATOM     52  C   UNL A   1      45.406  30.058  29.864  1.00  0.00     0.049 A 
ATOM     53  C   UNL A   1      40.151  31.000  32.073  1.00  0.00     0.074 A 
ATOM     54  C   UNL A   1      46.034  28.984  30.464  1.00  0.00     0.029 A 
ATOM     55  N   UNL A   1      44.852  30.793  30.886  1.00  0.00    -0.354 N 
ATOM     56  N   UNL A   1      41.002  30.563  32.960  1.00  0.00    -0.248 NA
ATOM     57  C   UNL A   1      40.698  31.929  31.095  1.00  0.00     0.031 C 
ATOM     58  C   UNL A   1      45.432  28.875  31.751  1.00  0.00     0.029 A 
ATOM     59  C   UNL A   1      44.505  29.912  31.879  1.00  0.00     0.049 A 
ATOM     60  H   UNL A   1      44.728  31.769  30.902  1.00  0.00     0.167 HD
ATOM     61  C   UNL A   1      42.254  30.825  32.418  1.00  0.00     0.074 A 
ATOM     62  C   UNL A   1      42.004  31.754  31.319  1.00  0.00     0.031 C 
ATOM     63  C   UNL A   1      43.340  30.055  32.728  1.00  0.00     0.031 A 
BRANCH  50  64
ATOM     64  C   UNL A   1      45.141  31.708  27.897  1.00  0.00    -0.014 A 
ATOM     65  C   UNL A   1      46.402  32.088  27.404  1.00  0.00     0.010 A 
ATOM     66  C   UNL A   1      44.163  32.721  28.016  1.00  0.00     0.010 A 
ATOM     67  C   UNL A   1      46.683  33.427  27.100  1.00  0.00     0.020 A 
ATOM     68  C   UNL A   1      44.415  34.045  27.666  1.00  0.00     0.020 A 
ATOM     69  C   UNL A   1      45.689  34.397  27.247  1.00  0.00     0.054 A 
BRANCH  69  70
ATOM     70  S   UNL A   1      46.091  36.138  26.971  1.00  0.00     0.124 S 
ATOM     71  O   UNL A   1      44.764  36.729  26.827  1.00  0.00    -0.237 OA
ATOM     72  O   UNL A   1      46.812  36.487  28.191  1.00  0.00    -0.237 OA
ATOM     73  O   UNL A   1      46.903  36.113  25.758  1.00  0.00    -0.744 OA
ENDBRANCH  69  70
ENDBRANCH  50  64
BRANCH  51  74
ATOM     74  C   UNL A   1      37.569  31.032  31.695  1.00  0.00    -0.014 A 
ATOM     75  C   UNL A   1      36.792  31.203  32.855  1.00  0.00     0.010 A 
ATOM     76  C   UNL A   1      37.214  31.784  30.555  1.00  0.00     0.010 A 
ATOM     77  C   UNL A   1      35.741  32.137  32.890  1.00  0.00     0.020 A 
ATOM     78  C   UNL A   1      36.162  32.704  30.577  1.00  0.00     0.020 A 
ATOM     79  C   UNL A   1      35.445  32.896  31.754  1.00  0.00     0.054 A 
BRANCH  79  80
ATOM     80  S   UNL A   1      34.212  34.225  31.859  1.00  0.00     0.124 S 
ATOM     81  O   UNL A   1      35.015  35.360  32.303  1.00  0.00    -0.237 OA
ATOM     82  O   UNL A   1      33.710  34.302  30.489  1.00  0.00    -0.237 OA
ATOM     83  O   UNL A   1      33.249  33.723  32.839  1.00  0.00    -0.744 OA
ENDBRANCH  79  80
ENDBRANCH  51  74
BRANCH  63  84
ATOM     84  C   UNL A   1      43.227  29.078  33.877  1.00  0.00    -0.014 A 
ATOM     85  C   UNL A   1      43.424  29.439  35.225  1.00  0.00     0.010 A 
ATOM     86  C   UNL A   1      42.740  27.789  33.595  1.00  0.00     0.010 A 
ATOM     87  C   UNL A   1      43.162  28.528  36.258  1.00  0.00     0.020 A 
ATOM     88  C   UNL A   1      42.460  26.883  34.621  1.00  0.00     0.020 A 
ATOM     89  C   UNL A   1      42.679  27.253  35.948  1.00  0.00     0.054 A 
BRANCH  89  90
ATOM     90  S   UNL A   1      42.284  26.099  37.293  1.00  0.00     0.124 S 
ATOM     91  O   UNL A   1      42.506  24.797  36.670  1.00  0.00    -0.237 OA
ATOM     92  O   UNL A   1      43.242  26.469  38.333  1.00  0.00    -0.237 OA
ATOM     93  O   UNL A   1      40.890  26.401  37.613  1.00  0.00    -0.744 OA
ENDBRANCH  89  90
ENDBRANCH  63  84
ENDBRANCH  37  38
ENDBRANCH  30  32
ENDBRANCH  29  30
ENDBRANCH  28  29
ENDBRANCH   1  28
TORSDOF 18
ENDMDL
MODEL 2
REMARK VINA RESULT:     -11.7      1.345      2.067
REMARK SMILES Cc1nn(CC(=O)OCCOC(=O)c2ccc(-c3c4nc(c(-c5ccc(S(=O)(=O)[O-])cc5)c5ccc([nH]5)c(-c5ccc(S(=O)(=O)[O-])cc5)c5nc(c(-c6ccc(S(=O)(=O)[O-])cc6)c6ccc3[nH]6)C=C5)C=C4)cc2)c(C)c1NC(=O)C(=O)Nc1ccc(F)cc1
REMARK SMILES IDX 9 1 8 2 6 3 7 4 5 5 4 6 1 7 2 8 3 9 76 10 74 11 75 12 77 13
REMARK SMILES IDX 78 14 79 16 80 17 81 18 82 19 83 21 84 22 89 23 85 24 88 25
REMARK SMILES IDX 86 26 87 27 10 28 11 29 12 30 13 31 14 32 15 33 73 34 16 35
REMARK SMILES IDX 72 36 17 37 18 38 19 39 66 40 20 41 71 42 65 43 67 44 21 45
REMARK SMILES IDX 70 46 64 47 63 48 22 50 52 51 33 52 51 53 34 54 37 55 50 56
REMARK SMILES IDX 68 57 35 58 36 59 49 61 69 62 38 63 23 64 24 65 32 66 25 67
REMARK SMILES IDX 31 68 26 69 27 70 28 71 29 72 30 73 53 74 54 75 62 76 55 77
REMARK SMILES IDX 61 78 56 79 57 80 58 81 59 82 60 83 39 84 40 85 48 86 41 87
REMARK SMILES IDX 47 88 42 89 43 90 44 91 45 92 46 93
REMARK H PARENT 77 15 82 20 67 49 37 60
REMARK Flexibility Score: inf
ROOT
ATOM      1  C   UNL A   1      36.954  21.312  24.689  1.00  0.00     0.274 C 
ENDROOT
BRANCH   1   2
ATOM      2  O   UNL A   1      35.878  20.743  25.461  1.00  0.00    -0.461 OA
BRANCH   2   3
ATOM      3  C   UNL A   1      34.610  21.067  25.087  1.00  0.00     0.327 C 
ATOM      4  O   UNL A   1      33.864  20.299  24.481  1.00  0.00    -0.250 OA
BRANCH   3   5
ATOM      5  C   UNL A   1      34.161  22.451  25.475  1.00  0.00     0.267 C 
BRANCH   5   6
ATOM      6  N   UNL A   1      33.225  23.103  24.574  1.00  0.00    -0.256 N 
ATOM      7  C   UNL A   1      32.783  25.188  21.754  1.00  0.00     0.071 C 
ATOM      8  C   UNL A   1      32.638  24.386  22.997  1.00  0.00     0.083 A 
ATOM      9  N   UNL A   1      33.716  23.842  23.563  1.00  0.00    -0.175 NA
ATOM     10  C   UNL A   1      31.476  24.172  23.790  1.00  0.00     0.086 A 
ATOM     11  C   UNL A   1      31.863  23.238  24.736  1.00  0.00     0.060 A 
ATOM     12  C   UNL A   1      31.126  22.435  25.745  1.00  0.00     0.069 C 
BRANCH  10  13
ATOM     13  N   UNL A   1      30.260  24.791  23.568  1.00  0.00    -0.315 N 
ATOM     14  C   UNL A   1      29.562  25.667  24.370  1.00  0.00     0.314 C 
ATOM     15  H   UNL A   1      29.829  24.575  22.709  1.00  0.00     0.170 HD
ATOM     16  O   UNL A   1      28.536  26.202  23.960  1.00  0.00    -0.263 OA
BRANCH  14  17
ATOM     17  C   UNL A   1      30.162  26.094  25.707  1.00  0.00     0.314 C 
ATOM     18  O   UNL A   1      29.935  25.424  26.716  1.00  0.00    -0.263 OA
ATOM     19  N   UNL A   1      30.997  27.189  25.833  1.00  0.00    -0.318 N 
ATOM     20  H   UNL A   1      30.977  27.638  26.709  1.00  0.00     0.170 HD
BRANCH  19  21
ATOM     21  C   UNL A   1      31.866  27.748  24.887  1.00  0.00     0.041 A 
ATOM     22  C   UNL A   1      33.218  27.413  25.063  1.00  0.00     0.029 A 
ATOM     23  C   UNL A   1      31.485  28.501  23.780  1.00  0.00     0.029 A 
ATOM     24  C   UNL A   1      34.151  27.703  24.071  1.00  0.00     0.041 A 
ATOM     25  C   UNL A   1      32.428  28.810  22.793  1.00  0.00     0.041 A 
ATOM     26  C   UNL A   1      33.743  28.380  22.933  1.00  0.00     0.123 A 
ATOM     27  F   UNL A   1      34.628  28.617  21.957  1.00  0.00    -0.207 F 
ENDBRANCH  19  21
ENDBRANCH  14  17
ENDBRANCH  10  13
ENDBRANCH   5   6
ENDBRANCH   3   5
ENDBRANCH   2   3
ENDBRANCH   1   2
BRANCH   1  28
ATOM     28  C   UNL A   1      38.287  21.226  25.430  1.00  0.00     0.275 C 
BRANCH  28  29
ATOM     29  O   UNL A   1      38.500  22.398  26.216  1.00  0.00    -0.458 OA
BRANCH  29  30
ATOM     30  C   UNL A   1      39.694  22.378  26.854  1.00  0.00     0.338 C 
ATOM     31  O   UNL A   1      40.131  21.465  27.529  1.00  0.00    -0.246 OA
BRANCH  30  32
ATOM     32  C   UNL A   1      40.375  23.664  26.738  1.00  0.00     0.060 A 
ATOM     33  C   UNL A   1      41.627  23.762  27.356  1.00  0.00     0.016 A 
ATOM     34  C   UNL A   1      39.610  24.784  26.401  1.00  0.00     0.016 A 
ATOM     35  C   UNL A   1      42.002  24.981  27.869  1.00  0.00     0.010 A 
ATOM     36  C   UNL A   1      39.974  25.993  26.936  1.00  0.00     0.010 A 
ATOM     37  C   UNL A   1      41.109  26.045  27.747  1.00  0.00    -0.014 A 
BRANCH  37  38
ATOM     38  C   UNL A   1      41.360  27.225  28.543  1.00  0.00     0.031 A 
ATOM     39  C   UNL A   1      42.525  28.016  28.105  1.00  0.00     0.074 A 
ATOM     40  C   UNL A   1      40.500  27.614  29.500  1.00  0.00     0.049 A 
ATOM     41  N   UNL A   1      43.620  28.251  28.744  1.00  0.00    -0.248 NA
ATOM     42  C   UNL A   1      42.515  28.489  26.712  1.00  0.00     0.031 C 
ATOM     43  C   UNL A   1      39.159  27.087  29.777  1.00  0.00     0.029 A 
ATOM     44  N   UNL A   1      40.590  28.683  30.332  1.00  0.00    -0.354 N 
ATOM     45  C   UNL A   1      44.366  29.068  27.902  1.00  0.00     0.074 A 
ATOM     46  C   UNL A   1      43.732  29.015  26.609  1.00  0.00     0.031 C 
ATOM     47  C   UNL A   1      38.477  27.994  30.511  1.00  0.00     0.029 A 
ATOM     48  C   UNL A   1      39.369  29.091  30.851  1.00  0.00     0.049 A 
ATOM     49  H   UNL A   1      41.441  29.128  30.547  1.00  0.00     0.167 HD
ATOM     50  C   UNL A   1      45.297  29.939  28.373  1.00  0.00     0.031 A 
ATOM     51  C   UNL A   1      39.106  30.301  31.405  1.00  0.00     0.031 A 
ATOM     52  C   UNL A   1      45.674  29.658  29.733  1.00  0.00     0.049 A 
ATOM     53  C   UNL A   1      40.411  30.926  31.752  1.00  0.00     0.074 A 
ATOM     54  C   UNL A   1      46.226  28.569  30.377  1.00  0.00     0.029 A 
ATOM     55  N   UNL A   1      45.129  30.447  30.719  1.00  0.00    -0.354 N 
ATOM     56  N   UNL A   1      41.211  30.468  32.675  1.00  0.00    -0.248 NA
ATOM     57  C   UNL A   1      41.036  31.801  30.770  1.00  0.00     0.031 C 
ATOM     58  C   UNL A   1      45.581  28.524  31.646  1.00  0.00     0.029 A 
ATOM     59  C   UNL A   1      44.706  29.610  31.721  1.00  0.00     0.049 A 
ATOM     60  H   UNL A   1      45.056  31.428  30.708  1.00  0.00     0.167 HD
ATOM     61  C   UNL A   1      42.491  30.652  32.167  1.00  0.00     0.074 A 
ATOM     62  C   UNL A   1      42.324  31.564  31.039  1.00  0.00     0.031 C 
ATOM     63  C   UNL A   1      43.525  29.834  32.529  1.00  0.00     0.031 A 
BRANCH  50  64
ATOM     64  C   UNL A   1      45.555  31.270  27.719  1.00  0.00    -0.014 A 
ATOM     65  C   UNL A   1      46.863  31.601  27.322  1.00  0.00     0.010 A 
ATOM     66  C   UNL A   1      44.600  32.311  27.724  1.00  0.00     0.010 A 
ATOM     67  C   UNL A   1      47.206  32.921  27.001  1.00  0.00     0.020 A 
ATOM     68  C   UNL A   1      44.917  33.616  27.355  1.00  0.00     0.020 A 
ATOM     69  C   UNL A   1      46.231  33.921  27.034  1.00  0.00     0.054 A 
BRANCH  69  70
ATOM     70  S   UNL A   1      46.703  35.641  26.737  1.00  0.00     0.124 S 
ATOM     71  O   UNL A   1      47.461  35.952  27.945  1.00  0.00    -0.237 OA
ATOM     72  O   UNL A   1      47.480  35.541  25.506  1.00  0.00    -0.237 OA
ATOM     73  O   UNL A   1      45.421  36.329  26.605  1.00  0.00    -0.744 OA
ENDBRANCH  69  70
ENDBRANCH  50  64
BRANCH  51  74
ATOM     74  C   UNL A   1      37.847  31.081  31.293  1.00  0.00    -0.014 A 
ATOM     75  C   UNL A   1      36.700  30.705  32.014  1.00  0.00     0.010 A 
ATOM     76  C   UNL A   1      37.848  32.355  30.685  1.00  0.00     0.010 A 
ATOM     77  C   UNL A   1      35.621  31.594  32.172  1.00  0.00     0.020 A 
ATOM     78  C   UNL A   1      36.774  33.240  30.826  1.00  0.00     0.020 A 
ATOM     79  C   UNL A   1      35.675  32.865  31.593  1.00  0.00     0.054 A 
BRANCH  79  80
ATOM     80  S   UNL A   1      34.365  34.070  31.952  1.00  0.00     0.124 S 
ATOM     81  O   UNL A   1      33.583  33.384  32.976  1.00  0.00    -0.237 OA
ATOM     82  O   UNL A   1      35.121  35.234  32.408  1.00  0.00    -0.237 OA
ATOM     83  O   UNL A   1      33.692  34.240  30.665  1.00  0.00    -0.744 OA
ENDBRANCH  79  80
ENDBRANCH  51  74
BRANCH  63  84
ATOM     84  C   UNL A   1      43.327  28.893  33.696  1.00  0.00    -0.014 A 
ATOM     85  C   UNL A   1      43.834  29.142  34.988  1.00  0.00     0.010 A 
ATOM     86  C   UNL A   1      42.454  27.805  33.519  1.00  0.00     0.010 A 
ATOM     87  C   UNL A   1      43.495  28.310  36.065  1.00  0.00     0.020 A 
ATOM     88  C   UNL A   1      42.098  26.983  34.592  1.00  0.00     0.020 A 
ATOM     89  C   UNL A   1      42.626  27.234  35.858  1.00  0.00     0.054 A 
BRANCH  89  90
ATOM     90  S   UNL A   1      42.142  26.198  37.269  1.00  0.00     0.124 S 
ATOM     91  O   UNL A   1      40.769  26.626  37.522  1.00  0.00    -0.237 OA
ATOM     92  O   UNL A   1      42.291  24.842  36.744  1.00  0.00    -0.237 OA
ATOM     93  O   UNL A   1      43.104  26.556  38.311  1.00  0.00    -0.744 OA
ENDBRANCH  89  90
ENDBRANCH  63  84
ENDBRANCH  37  38
ENDBRANCH  30  32
ENDBRANCH  29  30
ENDBRANCH  28  29
ENDBRANCH   1  28
TORSDOF 18
ENDMDL
MODEL 3
REMARK VINA RESULT:     -11.7      1.468      2.236
REMARK SMILES Cc1nn(CC(=O)OCCOC(=O)c2ccc(-c3c4nc(c(-c5ccc(S(=O)(=O)[O-])cc5)c5ccc([nH]5)c(-c5ccc(S(=O)(=O)[O-])cc5)c5nc(c(-c6ccc(S(=O)(=O)[O-])cc6)c6ccc3[nH]6)C=C5)C=C4)cc2)c(C)c1NC(=O)C(=O)Nc1ccc(F)cc1
REMARK SMILES IDX 9 1 8 2 6 3 7 4 5 5 4 6 1 7 2 8 3 9 76 10 74 11 75 12 77 13
REMARK SMILES IDX 78 14 79 16 80 17 81 18 82 19 83 21 84 22 89 23 85 24 88 25
REMARK SMILES IDX 86 26 87 27 10 28 11 29 12 30 13 31 14 32 15 33 73 34 16 35
REMARK SMILES IDX 72 36 17 37 18 38 19 39 66 40 20 41 71 42 65 43 67 44 21 45
REMARK SMILES IDX 70 46 64 47 63 48 22 50 52 51 33 52 51 53 34 54 37 55 50 56
REMARK SMILES IDX 68 57 35 58 36 59 49 61 69 62 38 63 23 64 24 65 32 66 25 67
REMARK SMILES IDX 31 68 26 69 27 70 28 71 29 72 30 73 53 74 54 75 62 76 55 77
REMARK SMILES IDX 61 78 56 79 57 80 58 81 59 82 60 83 39 84 40 85 48 86 41 87
REMARK SMILES IDX 47 88 42 89 43 90 44 91 45 92 46 93
REMARK H PARENT 77 15 82 20 67 49 37 60
REMARK Flexibility Score: inf
ROOT
ATOM      1  C   UNL A   1      37.243  21.866  25.557  1.00  0.00     0.274 C 
ENDROOT
BRANCH   1   2
ATOM      2  O   UNL A   1      36.908  21.527  24.196  1.00  0.00    -0.461 OA
BRANCH   2   3
ATOM      3  C   UNL A   1      36.210  22.453  23.483  1.00  0.00     0.327 C 
ATOM      4  O   UNL A   1      36.732  23.222  22.676  1.00  0.00    -0.250 OA
BRANCH   3   5
ATOM      5  C   UNL A   1      34.727  22.475  23.739  1.00  0.00     0.267 C 
BRANCH   5   6
ATOM      6  N   UNL A   1      34.062  23.758  23.575  1.00  0.00    -0.256 N 
ATOM      7  C   UNL A   1      32.511  26.036  21.362  1.00  0.00     0.071 C 
ATOM      8  C   UNL A   1      33.179  25.351  22.500  1.00  0.00     0.083 A 
ATOM      9  N   UNL A   1      33.636  24.108  22.350  1.00  0.00    -0.175 NA
ATOM     10  C   UNL A   1      33.524  25.875  23.777  1.00  0.00     0.086 A 
ATOM     11  C   UNL A   1      33.984  24.783  24.493  1.00  0.00     0.060 A 
ATOM     12  C   UNL A   1      34.328  24.564  25.921  1.00  0.00     0.069 C 
BRANCH  10  13
ATOM     13  N   UNL A   1      33.370  27.201  24.140  1.00  0.00    -0.315 N 
ATOM     14  C   UNL A   1      32.275  27.842  24.677  1.00  0.00     0.314 C 
ATOM     15  H   UNL A   1      34.159  27.771  23.994  1.00  0.00     0.170 HD
ATOM     16  O   UNL A   1      32.356  29.013  25.036  1.00  0.00    -0.263 OA
BRANCH  14  17
ATOM     17  C   UNL A   1      31.011  27.039  24.975  1.00  0.00     0.314 C 
ATOM     18  O   UNL A   1      30.930  26.404  26.027  1.00  0.00    -0.263 OA
ATOM     19  N   UNL A   1      29.920  27.027  24.127  1.00  0.00    -0.318 N 
ATOM     20  H   UNL A   1      29.377  26.206  24.146  1.00  0.00     0.170 HD
BRANCH  19  21
ATOM     21  C   UNL A   1      29.479  28.021  23.243  1.00  0.00     0.041 A 
ATOM     22  C   UNL A   1      28.094  28.246  23.256  1.00  0.00     0.029 A 
ATOM     23  C   UNL A   1      30.297  28.829  22.458  1.00  0.00     0.029 A 
ATOM     24  C   UNL A   1      27.552  29.353  22.608  1.00  0.00     0.041 A 
ATOM     25  C   UNL A   1      29.749  29.931  21.790  1.00  0.00     0.041 A 
ATOM     26  C   UNL A   1      28.389  30.199  21.898  1.00  0.00     0.123 A 
ATOM     27  F   UNL A   1      27.879  31.291  21.315  1.00  0.00    -0.207 F 
ENDBRANCH  19  21
ENDBRANCH  14  17
ENDBRANCH  10  13
ENDBRANCH   5   6
ENDBRANCH   3   5
ENDBRANCH   2   3
ENDBRANCH   1   2
BRANCH   1  28
ATOM     28  C   UNL A   1      38.596  21.286  25.965  1.00  0.00     0.275 C 
BRANCH  28  29
ATOM     29  O   UNL A   1      39.645  22.208  25.675  1.00  0.00    -0.458 OA
BRANCH  29  30
ATOM     30  C   UNL A   1      40.685  22.090  26.534  1.00  0.00     0.338 C 
ATOM     31  O   UNL A   1      40.935  21.122  27.227  1.00  0.00    -0.246 OA
BRANCH  30  32
ATOM     32  C   UNL A   1      41.433  23.339  26.630  1.00  0.00     0.060 A 
ATOM     33  C   UNL A   1      42.354  23.432  27.681  1.00  0.00     0.016 A 
ATOM     34  C   UNL A   1      40.927  24.462  25.969  1.00  0.00     0.016 A 
ATOM     35  C   UNL A   1      42.575  24.668  28.240  1.00  0.00     0.010 A 
ATOM     36  C   UNL A   1      41.127  25.690  26.546  1.00  0.00     0.010 A 
ATOM     37  C   UNL A   1      41.864  25.754  27.730  1.00  0.00    -0.014 A 
BRANCH  37  38
ATOM     38  C   UNL A   1      41.858  26.974  28.504  1.00  0.00     0.031 A 
ATOM     39  C   UNL A   1      43.037  27.835  28.289  1.00  0.00     0.074 A 
ATOM     40  C   UNL A   1      40.786  27.332  29.234  1.00  0.00     0.049 A 
ATOM     41  N   UNL A   1      43.949  28.170  29.137  1.00  0.00    -0.248 NA
ATOM     42  C   UNL A   1      43.301  28.259  26.906  1.00  0.00     0.031 C 
ATOM     43  C   UNL A   1      39.454  26.717  29.240  1.00  0.00     0.029 A 
ATOM     44  N   UNL A   1      40.624  28.431  30.013  1.00  0.00    -0.354 N 
ATOM     45  C   UNL A   1      44.806  29.011  28.438  1.00  0.00     0.074 A 
ATOM     46  C   UNL A   1      44.475  28.869  27.043  1.00  0.00     0.031 C 
ATOM     47  C   UNL A   1      38.572  27.595  29.766  1.00  0.00     0.029 A 
ATOM     48  C   UNL A   1      39.296  28.765  30.237  1.00  0.00     0.049 A 
ATOM     49  H   UNL A   1      41.377  28.943  30.385  1.00  0.00     0.167 HD
ATOM     50  C   UNL A   1      45.554  29.963  29.056  1.00  0.00     0.031 A 
ATOM     51  C   UNL A   1      38.841  29.970  30.662  1.00  0.00     0.031 A 
ATOM     52  C   UNL A   1      45.643  29.756  30.476  1.00  0.00     0.049 A 
ATOM     53  C   UNL A   1      39.996  30.700  31.251  1.00  0.00     0.074 A 
ATOM     54  C   UNL A   1      46.110  28.732  31.275  1.00  0.00     0.029 A 
ATOM     55  N   UNL A   1      44.846  30.535  31.283  1.00  0.00    -0.354 N 
ATOM     56  N   UNL A   1      40.603  30.333  32.346  1.00  0.00    -0.248 NA
ATOM     57  C   UNL A   1      40.762  31.586  30.386  1.00  0.00     0.031 C 
ATOM     58  C   UNL A   1      45.208  28.681  32.377  1.00  0.00     0.029 A 
ATOM     59  C   UNL A   1      44.269  29.702  32.209  1.00  0.00     0.049 A 
ATOM     60  H   UNL A   1      44.714  31.507  31.209  1.00  0.00     0.167 HD
ATOM     61  C   UNL A   1      41.948  30.593  32.118  1.00  0.00     0.074 A 
ATOM     62  C   UNL A   1      41.972  31.452  30.938  1.00  0.00     0.031 C 
ATOM     63  C   UNL A   1      42.929  29.866  32.732  1.00  0.00     0.031 A 
BRANCH  50  64
ATOM     64  C   UNL A   1      45.863  31.287  28.409  1.00  0.00    -0.014 A 
ATOM     65  C   UNL A   1      44.821  32.204  28.184  1.00  0.00     0.010 A 
ATOM     66  C   UNL A   1      47.100  31.548  27.778  1.00  0.00     0.010 A 
ATOM     67  C   UNL A   1      44.996  33.296  27.323  1.00  0.00     0.020 A 
ATOM     68  C   UNL A   1      47.301  32.659  26.963  1.00  0.00     0.020 A 
ATOM     69  C   UNL A   1      46.233  33.506  26.709  1.00  0.00     0.054 A 
BRANCH  69  70
ATOM     70  S   UNL A   1      46.419  34.843  25.506  1.00  0.00     0.124 S 
ATOM     71  O   UNL A   1      47.819  34.703  25.121  1.00  0.00    -0.237 OA
ATOM     72  O   UNL A   1      45.439  34.481  24.486  1.00  0.00    -0.237 OA
ATOM     73  O   UNL A   1      46.096  36.042  26.275  1.00  0.00    -0.744 OA
ENDBRANCH  69  70
ENDBRANCH  50  64
BRANCH  51  74
ATOM     74  C   UNL A   1      37.589  30.652  30.244  1.00  0.00    -0.014 A 
ATOM     75  C   UNL A   1      36.672  31.125  31.201  1.00  0.00     0.010 A 
ATOM     76  C   UNL A   1      37.419  31.080  28.910  1.00  0.00     0.010 A 
ATOM     77  C   UNL A   1      35.664  32.039  30.846  1.00  0.00     0.020 A 
ATOM     78  C   UNL A   1      36.411  31.979  28.546  1.00  0.00     0.020 A 
ATOM     79  C   UNL A   1      35.553  32.475  29.523  1.00  0.00     0.054 A 
BRANCH  79  80
ATOM     80  S   UNL A   1      34.371  33.790  29.108  1.00  0.00     0.124 S 
ATOM     81  O   UNL A   1      33.772  34.089  30.404  1.00  0.00    -0.237 OA
ATOM     82  O   UNL A   1      35.235  34.830  28.555  1.00  0.00    -0.237 OA
ATOM     83  O   UNL A   1      33.476  33.155  28.141  1.00  0.00    -0.744 OA
ENDBRANCH  79  80
ENDBRANCH  51  74
BRANCH  63  84
ATOM     84  C   UNL A   1      42.542  28.952  33.873  1.00  0.00    -0.014 A 
ATOM     85  C   UNL A   1      41.835  27.746  33.696  1.00  0.00     0.010 A 
ATOM     86  C   UNL A   1      43.061  29.240  35.148  1.00  0.00     0.010 A 
ATOM     87  C   UNL A   1      41.632  26.867  34.770  1.00  0.00     0.020 A 
ATOM     88  C   UNL A   1      42.879  28.360  36.218  1.00  0.00     0.020 A 
ATOM     89  C   UNL A   1      42.159  27.181  36.026  1.00  0.00     0.054 A 
BRANCH  89  90
ATOM     90  S   UNL A   1      41.947  26.010  37.398  1.00  0.00     0.124 S 
ATOM     91  O   UNL A   1      42.904  26.501  38.386  1.00  0.00    -0.237 OA
ATOM     92  O   UNL A   1      40.539  26.173  37.752  1.00  0.00    -0.237 OA
ATOM     93  O   UNL A   1      42.280  24.715  36.805  1.00  0.00    -0.744 OA
ENDBRANCH  89  90
ENDBRANCH  63  84
ENDBRANCH  37  38
ENDBRANCH  30  32
ENDBRANCH  29  30
ENDBRANCH  28  29
ENDBRANCH   1  28
TORSDOF 18
ENDMDL
