MODEL 1
REMARK VINA RESULT:      -9.7      0.000      0.000
REMARK SMILES COc1ccc(C(=O)Nc2cccc(C(=O)OCCOC(=O)c3ccc(-c4c5nc(c(-c6ccc(S(=O)(=O)[O-])cc6)c6ccc([nH]6)c(-c6ccc(S(=O)(=O)[O-])cc6)c6nc(c(-c7ccc(S(=O)(=O)[O-])cc7)c7ccc4[nH]7)C=C6)C=C5)cc3)c2)cc1
REMARK SMILES IDX 18 1 17 2 15 3 16 4 14 5 10 6 11 7 83 8 12 9 13 10 9 11 7 12
REMARK SMILES IDX 8 13 6 15 3 16 4 17 85 18 5 19 84 20 2 21 1 22 19 23 20 24
REMARK SMILES IDX 21 25 22 26 23 27 24 28 82 29 25 30 81 31 26 32 27 33 28 34
REMARK SMILES IDX 75 35 29 36 80 37 74 38 76 39 30 40 79 41 73 42 72 43 31 45
REMARK SMILES IDX 61 46 42 47 60 48 43 49 46 50 59 51 77 52 44 53 45 54 58 56
REMARK SMILES IDX 78 57 47 58 32 59 33 60 41 61 34 62 40 63 35 64 36 65 37 66
REMARK SMILES IDX 38 67 39 68 62 69 63 70 71 71 64 72 70 73 65 74 66 75 67 76
REMARK SMILES IDX 68 77 69 78 48 79 49 80 57 81 50 82 56 83 51 84 52 85 53 86
REMARK SMILES IDX 54 87 55 88
REMARK H PARENT 9 14 76 44 46 55
REMARK Flexibility Score: inf
ROOT
ATOM      1  C   UNL A   1      33.734  33.363  28.189  1.00  0.00     0.275 C 
ENDROOT
BRANCH   1   2
ATOM      2  O   UNL A   1      33.732  33.327  29.629  1.00  0.00    -0.458 OA
BRANCH   2   3
ATOM      3  C   UNL A   1      33.755  34.530  30.254  1.00  0.00     0.338 C 
ATOM      4  O   UNL A   1      33.443  35.608  29.783  1.00  0.00    -0.246 OA
BRANCH   3   5
ATOM      5  C   UNL A   1      34.201  34.366  31.658  1.00  0.00     0.062 A 
ATOM      6  C   UNL A   1      35.381  33.028  33.257  1.00  0.00     0.042 A 
ATOM      7  C   UNL A   1      35.423  34.095  34.158  1.00  0.00     0.026 A 
ATOM      8  C   UNL A   1      34.635  33.116  32.082  1.00  0.00     0.041 A 
ATOM      9  C   UNL A   1      34.939  35.336  33.759  1.00  0.00     0.003 A 
ATOM     10  C   UNL A   1      34.407  35.483  32.479  1.00  0.00     0.016 A 
BRANCH   6  11
ATOM     11  N   UNL A   1      36.273  31.970  33.464  1.00  0.00    -0.322 N 
ATOM     12  C   UNL A   1      37.408  31.652  32.734  1.00  0.00     0.255 C 
ATOM     13  O   UNL A   1      37.988  30.589  32.968  1.00  0.00    -0.269 OA
ATOM     14  H   UNL A   1      36.069  31.377  34.223  1.00  0.00     0.170 HD
BRANCH  12  15
ATOM     15  C   UNL A   1      38.004  32.584  31.718  1.00  0.00     0.040 A 
ATOM     16  C   UNL A   1      39.310  34.264  29.855  1.00  0.00     0.118 A 
ATOM     17  C   UNL A   1      39.673  34.271  31.206  1.00  0.00     0.047 A 
ATOM     18  C   UNL A   1      38.247  33.463  29.449  1.00  0.00     0.047 A 
ATOM     19  C   UNL A   1      39.035  33.432  32.128  1.00  0.00     0.017 A 
ATOM     20  C   UNL A   1      37.564  32.674  30.388  1.00  0.00     0.017 A 
BRANCH  16  21
ATOM     21  O   UNL A   1      40.055  35.082  29.051  1.00  0.00    -0.497 OA
ATOM     22  C   UNL A   1      41.447  35.176  29.340  1.00  0.00     0.278 C 
ENDBRANCH  16  21
ENDBRANCH  12  15
ENDBRANCH   6  11
ENDBRANCH   3   5
ENDBRANCH   2   3
ENDBRANCH   1   2
BRANCH   1  23
ATOM     23  C   UNL A   1      34.381  32.096  27.629  1.00  0.00     0.275 C 
BRANCH  23  24
ATOM     24  O   UNL A   1      34.750  31.209  28.701  1.00  0.00    -0.458 OA
BRANCH  24  25
ATOM     25  C   UNL A   1      35.116  29.965  28.321  1.00  0.00     0.338 C 
ATOM     26  O   UNL A   1      34.431  29.125  27.760  1.00  0.00    -0.246 OA
BRANCH  25  27
ATOM     27  C   UNL A   1      36.546  29.766  28.593  1.00  0.00     0.060 A 
ATOM     28  C   UNL A   1      37.452  30.068  27.586  1.00  0.00     0.016 A 
ATOM     29  C   UNL A   1      36.986  29.151  29.760  1.00  0.00     0.016 A 
ATOM     30  C   UNL A   1      38.771  29.648  27.668  1.00  0.00     0.010 A 
ATOM     31  C   UNL A   1      38.350  28.862  29.906  1.00  0.00     0.010 A 
ATOM     32  C   UNL A   1      39.256  29.080  28.849  1.00  0.00    -0.014 A 
BRANCH  32  33
ATOM     33  C   UNL A   1      40.701  28.741  28.977  1.00  0.00     0.031 A 
ATOM     34  C   UNL A   1      41.691  29.781  29.434  1.00  0.00     0.074 A 
ATOM     35  C   UNL A   1      41.131  27.496  28.678  1.00  0.00     0.049 A 
ATOM     36  N   UNL A   1      42.998  29.737  29.421  1.00  0.00    -0.248 NA
ATOM     37  C   UNL A   1      41.140  31.039  29.962  1.00  0.00     0.031 C 
ATOM     38  C   UNL A   1      40.278  26.371  28.280  1.00  0.00     0.029 A 
ATOM     39  N   UNL A   1      42.397  26.963  28.660  1.00  0.00    -0.354 N 
ATOM     40  C   UNL A   1      43.427  30.978  29.880  1.00  0.00     0.074 A 
ATOM     41  C   UNL A   1      42.238  31.756  30.158  1.00  0.00     0.031 C 
ATOM     42  C   UNL A   1      41.035  25.280  28.100  1.00  0.00     0.029 A 
ATOM     43  C   UNL A   1      42.435  25.650  28.251  1.00  0.00     0.049 A 
ATOM     44  H   UNL A   1      43.201  27.472  28.916  1.00  0.00     0.167 HD
ATOM     45  C   UNL A   1      44.694  31.427  30.046  1.00  0.00     0.031 A 
ATOM     46  C   UNL A   1      43.473  24.842  27.962  1.00  0.00     0.031 A 
ATOM     47  C   UNL A   1      45.868  30.634  29.784  1.00  0.00     0.049 A 
ATOM     48  C   UNL A   1      44.866  25.387  28.073  1.00  0.00     0.074 A 
ATOM     49  C   UNL A   1      47.197  30.990  29.934  1.00  0.00     0.029 A 
ATOM     50  N   UNL A   1      45.855  29.327  29.321  1.00  0.00    -0.354 N 
ATOM     51  N   UNL A   1      45.253  26.574  28.476  1.00  0.00    -0.248 NA
ATOM     52  C   UNL A   1      45.960  24.493  27.676  1.00  0.00     0.031 C 
ATOM     53  C   UNL A   1      47.987  29.920  29.501  1.00  0.00     0.029 A 
ATOM     54  C   UNL A   1      47.153  28.872  29.147  1.00  0.00     0.049 A 
ATOM     55  H   UNL A   1      45.044  28.799  29.141  1.00  0.00     0.167 HD
ATOM     56  C   UNL A   1      46.639  26.564  28.392  1.00  0.00     0.074 A 
ATOM     57  C   UNL A   1      47.023  25.247  27.925  1.00  0.00     0.031 C 
ATOM     58  C   UNL A   1      47.516  27.559  28.674  1.00  0.00     0.031 A 
BRANCH  45  59
ATOM     59  C   UNL A   1      44.880  32.861  30.480  1.00  0.00    -0.014 A 
ATOM     60  C   UNL A   1      44.972  33.911  29.550  1.00  0.00     0.010 A 
ATOM     61  C   UNL A   1      44.928  33.163  31.855  1.00  0.00     0.010 A 
ATOM     62  C   UNL A   1      45.158  35.227  29.985  1.00  0.00     0.020 A 
ATOM     63  C   UNL A   1      45.082  34.480  32.294  1.00  0.00     0.020 A 
ATOM     64  C   UNL A   1      45.215  35.503  31.355  1.00  0.00     0.054 A 
BRANCH  64  65
ATOM     65  S   UNL A   1      45.449  37.221  31.888  1.00  0.00     0.124 S 
ATOM     66  O   UNL A   1      46.637  37.116  32.732  1.00  0.00    -0.237 OA
ATOM     67  O   UNL A   1      45.638  37.926  30.624  1.00  0.00    -0.237 OA
ATOM     68  O   UNL A   1      44.211  37.537  32.596  1.00  0.00    -0.744 OA
ENDBRANCH  64  65
ENDBRANCH  45  59
BRANCH  46  69
ATOM     69  C   UNL A   1      43.220  23.455  27.478  1.00  0.00    -0.014 A 
ATOM     70  C   UNL A   1      42.800  22.452  28.368  1.00  0.00     0.010 A 
ATOM     71  C   UNL A   1      43.364  23.140  26.113  1.00  0.00     0.010 A 
ATOM     72  C   UNL A   1      42.531  21.161  27.902  1.00  0.00     0.020 A 
ATOM     73  C   UNL A   1      43.064  21.861  25.638  1.00  0.00     0.020 A 
ATOM     74  C   UNL A   1      42.657  20.876  26.539  1.00  0.00     0.054 A 
BRANCH  74  75
ATOM     75  S   UNL A   1      42.237  19.213  25.950  1.00  0.00     0.124 S 
ATOM     76  O   UNL A   1      40.796  19.318  25.747  1.00  0.00    -0.237 OA
ATOM     77  O   UNL A   1      43.040  19.098  24.734  1.00  0.00    -0.237 OA
ATOM     78  O   UNL A   1      42.656  18.344  27.047  1.00  0.00    -0.744 OA
ENDBRANCH  74  75
ENDBRANCH  46  69
BRANCH  58  79
ATOM     79  C   UNL A   1      48.980  27.254  28.511  1.00  0.00    -0.014 A 
ATOM     80  C   UNL A   1      49.644  27.499  27.297  1.00  0.00     0.010 A 
ATOM     81  C   UNL A   1      49.714  26.765  29.608  1.00  0.00     0.010 A 
ATOM     82  C   UNL A   1      51.012  27.240  27.174  1.00  0.00     0.020 A 
ATOM     83  C   UNL A   1      51.087  26.536  29.500  1.00  0.00     0.020 A 
ATOM     84  C   UNL A   1      51.725  26.765  28.279  1.00  0.00     0.054 A 
BRANCH  84  85
ATOM     85  S   UNL A   1      53.510  26.495  28.111  1.00  0.00     0.124 S 
ATOM     86  O   UNL A   1      53.960  27.768  27.557  1.00  0.00    -0.237 OA
ATOM     87  O   UNL A   1      53.923  26.227  29.487  1.00  0.00    -0.237 OA
ATOM     88  O   UNL A   1      53.605  25.353  27.204  1.00  0.00    -0.744 OA
ENDBRANCH  84  85
ENDBRANCH  58  79
ENDBRANCH  32  33
ENDBRANCH  25  27
ENDBRANCH  24  25
ENDBRANCH  23  24
ENDBRANCH   1  23
TORSDOF 17
ENDMDL
MODEL 2
REMARK VINA RESULT:      -9.4      3.674      6.364
REMARK SMILES COc1ccc(C(=O)Nc2cccc(C(=O)OCCOC(=O)c3ccc(-c4c5nc(c(-c6ccc(S(=O)(=O)[O-])cc6)c6ccc([nH]6)c(-c6ccc(S(=O)(=O)[O-])cc6)c6nc(c(-c7ccc(S(=O)(=O)[O-])cc7)c7ccc4[nH]7)C=C6)C=C5)cc3)c2)cc1
REMARK SMILES IDX 18 1 17 2 15 3 16 4 14 5 10 6 11 7 83 8 12 9 13 10 9 11 7 12
REMARK SMILES IDX 8 13 6 15 3 16 4 17 85 18 5 19 84 20 2 21 1 22 19 23 20 24
REMARK SMILES IDX 21 25 22 26 23 27 24 28 82 29 25 30 81 31 26 32 27 33 28 34
REMARK SMILES IDX 75 35 29 36 80 37 74 38 76 39 30 40 79 41 73 42 72 43 31 45
REMARK SMILES IDX 61 46 42 47 60 48 43 49 46 50 59 51 77 52 44 53 45 54 58 56
REMARK SMILES IDX 78 57 47 58 32 59 33 60 41 61 34 62 40 63 35 64 36 65 37 66
REMARK SMILES IDX 38 67 39 68 62 69 63 70 71 71 64 72 70 73 65 74 66 75 67 76
REMARK SMILES IDX 68 77 69 78 48 79 49 80 57 81 50 82 56 83 51 84 52 85 53 86
REMARK SMILES IDX 54 87 55 88
REMARK H PARENT 9 14 76 44 46 55
REMARK Flexibility Score: inf
ROOT
ATOM      1  C   UNL A   1      33.169  30.833  27.264  1.00  0.00     0.275 C 
ENDROOT
BRANCH   1   2
ATOM      2  O   UNL A   1      33.331  30.101  26.035  1.00  0.00    -0.458 OA
BRANCH   2   3
ATOM      3  C   UNL A   1      32.952  28.800  26.062  1.00  0.00     0.338 C 
ATOM      4  O   UNL A   1      32.947  28.058  27.027  1.00  0.00    -0.246 OA
BRANCH   3   5
ATOM      5  C   UNL A   1      32.498  28.372  24.718  1.00  0.00     0.062 A 
ATOM      6  C   UNL A   1      32.831  26.915  22.845  1.00  0.00     0.042 A 
ATOM      7  C   UNL A   1      31.554  27.204  22.359  1.00  0.00     0.026 A 
ATOM      8  C   UNL A   1      33.358  27.616  23.929  1.00  0.00     0.041 A 
ATOM      9  C   UNL A   1      30.708  28.005  23.118  1.00  0.00     0.003 A 
ATOM     10  C   UNL A   1      31.158  28.516  24.334  1.00  0.00     0.016 A 
BRANCH   6  11
ATOM     11  N   UNL A   1      33.466  25.768  22.356  1.00  0.00    -0.322 N 
ATOM     12  C   UNL A   1      33.618  24.540  22.982  1.00  0.00     0.255 C 
ATOM     13  O   UNL A   1      34.344  23.691  22.460  1.00  0.00    -0.269 OA
ATOM     14  H   UNL A   1      33.853  25.841  21.453  1.00  0.00     0.170 HD
BRANCH  12  15
ATOM     15  C   UNL A   1      32.877  24.174  24.237  1.00  0.00     0.040 A 
ATOM     16  C   UNL A   1      31.461  23.296  26.521  1.00  0.00     0.118 A 
ATOM     17  C   UNL A   1      30.916  23.153  25.242  1.00  0.00     0.047 A 
ATOM     18  C   UNL A   1      32.687  23.939  26.662  1.00  0.00     0.047 A 
ATOM     19  C   UNL A   1      31.620  23.577  24.107  1.00  0.00     0.017 A 
ATOM     20  C   UNL A   1      33.359  24.425  25.530  1.00  0.00     0.017 A 
BRANCH  16  21
ATOM     21  O   UNL A   1      30.700  22.782  27.535  1.00  0.00    -0.497 OA
ATOM     22  C   UNL A   1      29.290  22.757  27.334  1.00  0.00     0.278 C 
ENDBRANCH  16  21
ENDBRANCH  12  15
ENDBRANCH   6  11
ENDBRANCH   3   5
ENDBRANCH   2   3
ENDBRANCH   1   2
BRANCH   1  23
ATOM     23  C   UNL A   1      34.513  31.401  27.722  1.00  0.00     0.275 C 
BRANCH  23  24
ATOM     24  O   UNL A   1      35.438  30.333  28.002  1.00  0.00    -0.458 OA
BRANCH  24  25
ATOM     25  C   UNL A   1      36.188  30.495  29.114  1.00  0.00     0.338 C 
ATOM     26  O   UNL A   1      35.844  30.980  30.180  1.00  0.00    -0.246 OA
BRANCH  25  27
ATOM     27  C   UNL A   1      37.513  29.898  28.906  1.00  0.00     0.060 A 
ATOM     28  C   UNL A   1      38.279  29.600  30.025  1.00  0.00     0.016 A 
ATOM     29  C   UNL A   1      38.064  29.771  27.636  1.00  0.00     0.016 A 
ATOM     30  C   UNL A   1      39.628  29.302  29.904  1.00  0.00     0.010 A 
ATOM     31  C   UNL A   1      39.386  29.322  27.507  1.00  0.00     0.010 A 
ATOM     32  C   UNL A   1      40.194  29.111  28.641  1.00  0.00    -0.014 A 
BRANCH  32  33
ATOM     33  C   UNL A   1      41.613  28.672  28.517  1.00  0.00     0.031 A 
ATOM     34  C   UNL A   1      42.735  29.663  28.685  1.00  0.00     0.074 A 
ATOM     35  C   UNL A   1      41.898  27.380  28.247  1.00  0.00     0.049 A 
ATOM     36  N   UNL A   1      44.009  29.518  28.424  1.00  0.00    -0.248 NA
ATOM     37  C   UNL A   1      42.378  30.994  29.199  1.00  0.00     0.031 C 
ATOM     38  C   UNL A   1      40.916  26.298  28.119  1.00  0.00     0.029 A 
ATOM     39  N   UNL A   1      43.101  26.751  28.032  1.00  0.00    -0.354 N 
ATOM     40  C   UNL A   1      44.595  30.752  28.684  1.00  0.00     0.074 A 
ATOM     41  C   UNL A   1      43.535  31.637  29.119  1.00  0.00     0.031 C 
ATOM     42  C   UNL A   1      41.554  25.142  27.890  1.00  0.00     0.029 A 
ATOM     43  C   UNL A   1      42.976  25.413  27.737  1.00  0.00     0.049 A 
ATOM     44  H   UNL A   1      43.969  27.214  28.084  1.00  0.00     0.167 HD
ATOM     45  C   UNL A   1      45.895  31.114  28.564  1.00  0.00     0.031 A 
ATOM     46  C   UNL A   1      43.886  24.509  27.324  1.00  0.00     0.031 A 
ATOM     47  C   UNL A   1      46.944  30.216  28.151  1.00  0.00     0.049 A 
ATOM     48  C   UNL A   1      45.304  24.952  27.118  1.00  0.00     0.074 A 
ATOM     49  C   UNL A   1      48.296  30.479  28.011  1.00  0.00     0.029 A 
ATOM     50  N   UNL A   1      46.760  28.884  27.811  1.00  0.00    -0.354 N 
ATOM     51  N   UNL A   1      45.835  26.132  27.336  1.00  0.00    -0.248 NA
ATOM     52  C   UNL A   1      46.241  23.951  26.596  1.00  0.00     0.031 C 
ATOM     53  C   UNL A   1      48.918  29.324  27.528  1.00  0.00     0.029 A 
ATOM     54  C   UNL A   1      47.967  28.320  27.431  1.00  0.00     0.049 A 
ATOM     55  H   UNL A   1      45.898  28.408  27.837  1.00  0.00     0.167 HD
ATOM     56  C   UNL A   1      47.174  26.010  26.989  1.00  0.00     0.074 A 
ATOM     57  C   UNL A   1      47.376  24.637  26.570  1.00  0.00     0.031 C 
ATOM     58  C   UNL A   1      48.149  26.953  27.011  1.00  0.00     0.031 A 
BRANCH  45  59
ATOM     59  C   UNL A   1      46.251  32.556  28.831  1.00  0.00    -0.014 A 
ATOM     60  C   UNL A   1      46.645  32.999  30.106  1.00  0.00     0.010 A 
ATOM     61  C   UNL A   1      46.220  33.480  27.769  1.00  0.00     0.010 A 
ATOM     62  C   UNL A   1      46.954  34.346  30.323  1.00  0.00     0.020 A 
ATOM     63  C   UNL A   1      46.559  34.820  27.975  1.00  0.00     0.020 A 
ATOM     64  C   UNL A   1      46.906  35.249  29.256  1.00  0.00     0.054 A 
BRANCH  64  65
ATOM     65  S   UNL A   1      47.320  36.987  29.567  1.00  0.00     0.124 S 
ATOM     66  O   UNL A   1      46.098  37.481  30.196  1.00  0.00    -0.237 OA
ATOM     67  O   UNL A   1      48.481  36.887  30.447  1.00  0.00    -0.237 OA
ATOM     68  O   UNL A   1      47.594  37.523  28.236  1.00  0.00    -0.744 OA
ENDBRANCH  64  65
ENDBRANCH  45  59
BRANCH  46  69
ATOM     69  C   UNL A   1      43.458  23.115  27.017  1.00  0.00    -0.014 A 
ATOM     70  C   UNL A   1      43.653  22.573  25.736  1.00  0.00     0.010 A 
ATOM     71  C   UNL A   1      42.885  22.308  28.019  1.00  0.00     0.010 A 
ATOM     72  C   UNL A   1      43.280  21.253  25.462  1.00  0.00     0.020 A 
ATOM     73  C   UNL A   1      42.544  20.979  27.760  1.00  0.00     0.020 A 
ATOM     74  C   UNL A   1      42.736  20.462  26.478  1.00  0.00     0.054 A 
BRANCH  74  75
ATOM     75  S   UNL A   1      42.325  18.733  26.117  1.00  0.00     0.124 S 
ATOM     76  O   UNL A   1      42.575  18.086  27.401  1.00  0.00    -0.237 OA
ATOM     77  O   UNL A   1      40.923  18.820  25.715  1.00  0.00    -0.237 OA
ATOM     78  O   UNL A   1      43.251  18.377  25.044  1.00  0.00    -0.744 OA
ENDBRANCH  74  75
ENDBRANCH  46  69
BRANCH  58  79
ATOM     79  C   UNL A   1      49.530  26.525  26.596  1.00  0.00    -0.014 A 
ATOM     80  C   UNL A   1      50.428  25.966  27.521  1.00  0.00     0.010 A 
ATOM     81  C   UNL A   1      49.913  26.633  25.245  1.00  0.00     0.010 A 
ATOM     82  C   UNL A   1      51.695  25.543  27.109  1.00  0.00     0.020 A 
ATOM     83  C   UNL A   1      51.165  26.182  24.824  1.00  0.00     0.020 A 
ATOM     84  C   UNL A   1      52.053  25.650  25.761  1.00  0.00     0.054 A 
BRANCH  84  85
ATOM     85  S   UNL A   1      53.679  25.039  25.242  1.00  0.00     0.124 S 
ATOM     86  O   UNL A   1      53.915  25.801  24.020  1.00  0.00    -0.237 OA
ATOM     87  O   UNL A   1      54.529  25.391  26.377  1.00  0.00    -0.237 OA
ATOM     88  O   UNL A   1      53.466  23.605  25.051  1.00  0.00    -0.744 OA
ENDBRANCH  84  85
ENDBRANCH  58  79
ENDBRANCH  32  33
ENDBRANCH  25  27
ENDBRANCH  24  25
ENDBRANCH  23  24
ENDBRANCH   1  23
TORSDOF 17
ENDMDL
MODEL 3
REMARK VINA RESULT:      -9.3      4.022      6.526
REMARK SMILES COc1ccc(C(=O)Nc2cccc(C(=O)OCCOC(=O)c3ccc(-c4c5nc(c(-c6ccc(S(=O)(=O)[O-])cc6)c6ccc([nH]6)c(-c6ccc(S(=O)(=O)[O-])cc6)c6nc(c(-c7ccc(S(=O)(=O)[O-])cc7)c7ccc4[nH]7)C=C6)C=C5)cc3)c2)cc1
REMARK SMILES IDX 18 1 17 2 15 3 16 4 14 5 10 6 11 7 83 8 12 9 13 10 9 11 7 12
REMARK SMILES IDX 8 13 6 15 3 16 4 17 85 18 5 19 84 20 2 21 1 22 19 23 20 24
REMARK SMILES IDX 21 25 22 26 23 27 24 28 82 29 25 30 81 31 26 32 27 33 28 34
REMARK SMILES IDX 75 35 29 36 80 37 74 38 76 39 30 40 79 41 73 42 72 43 31 45
REMARK SMILES IDX 61 46 42 47 60 48 43 49 46 50 59 51 77 52 44 53 45 54 58 56
REMARK SMILES IDX 78 57 47 58 32 59 33 60 41 61 34 62 40 63 35 64 36 65 37 66
REMARK SMILES IDX 38 67 39 68 62 69 63 70 71 71 64 72 70 73 65 74 66 75 67 76
REMARK SMILES IDX 68 77 69 78 48 79 49 80 57 81 50 82 56 83 51 84 52 85 53 86
REMARK SMILES IDX 54 87 55 88
REMARK H PARENT 9 14 76 44 46 55
REMARK Flexibility Score: inf
ROOT
ATOM      1  C   UNL A   1      34.064  29.014  27.208  1.00  0.00     0.275 C 
ENDROOT
BRANCH   1   2
ATOM      2  O   UNL A   1      33.530  29.190  25.882  1.00  0.00    -0.458 OA
BRANCH   2   3
ATOM      3  C   UNL A   1      32.206  29.465  25.804  1.00  0.00     0.338 C 
ATOM      4  O   UNL A   1      31.650  30.494  26.143  1.00  0.00    -0.246 OA
BRANCH   3   5
ATOM      5  C   UNL A   1      31.480  28.322  25.205  1.00  0.00     0.062 A 
ATOM      6  C   UNL A   1      30.403  26.210  25.553  1.00  0.00     0.042 A 
ATOM      7  C   UNL A   1      29.791  26.285  24.300  1.00  0.00     0.026 A 
ATOM      8  C   UNL A   1      31.365  27.144  25.934  1.00  0.00     0.041 A 
ATOM      9  C   UNL A   1      29.947  27.439  23.540  1.00  0.00     0.003 A 
ATOM     10  C   UNL A   1      30.724  28.485  24.036  1.00  0.00     0.016 A 
BRANCH   6  11
ATOM     11  N   UNL A   1      29.868  25.310  26.481  1.00  0.00    -0.322 N 
ATOM     12  C   UNL A   1      30.239  23.994  26.712  1.00  0.00     0.255 C 
ATOM     13  O   UNL A   1      29.548  23.303  27.464  1.00  0.00    -0.269 OA
ATOM     14  H   UNL A   1      29.135  25.655  27.042  1.00  0.00     0.170 HD
BRANCH  12  15
ATOM     15  C   UNL A   1      31.491  23.394  26.136  1.00  0.00     0.040 A 
ATOM     16  C   UNL A   1      33.880  22.178  25.237  1.00  0.00     0.118 A 
ATOM     17  C   UNL A   1      33.875  22.999  26.369  1.00  0.00     0.047 A 
ATOM     18  C   UNL A   1      32.700  22.020  24.516  1.00  0.00     0.047 A 
ATOM     19  C   UNL A   1      32.691  23.593  26.823  1.00  0.00     0.017 A 
ATOM     20  C   UNL A   1      31.529  22.672  24.934  1.00  0.00     0.017 A 
BRANCH  16  21
ATOM     21  O   UNL A   1      35.087  21.608  24.941  1.00  0.00    -0.497 OA
ATOM     22  C   UNL A   1      35.130  20.186  24.871  1.00  0.00     0.278 C 
ENDBRANCH  16  21
ENDBRANCH  12  15
ENDBRANCH   6  11
ENDBRANCH   3   5
ENDBRANCH   2   3
ENDBRANCH   1   2
BRANCH   1  23
ATOM     23  C   UNL A   1      35.250  29.953  27.430  1.00  0.00     0.275 C 
BRANCH  23  24
ATOM     24  O   UNL A   1      36.461  29.194  27.605  1.00  0.00    -0.458 OA
BRANCH  24  25
ATOM     25  C   UNL A   1      37.030  29.288  28.827  1.00  0.00     0.338 C 
ATOM     26  O   UNL A   1      36.468  29.323  29.910  1.00  0.00    -0.246 OA
BRANCH  25  27
ATOM     27  C   UNL A   1      38.492  29.245  28.695  1.00  0.00     0.060 A 
ATOM     28  C   UNL A   1      39.038  29.359  27.424  1.00  0.00     0.016 A 
ATOM     29  C   UNL A   1      39.313  28.945  29.777  1.00  0.00     0.016 A 
ATOM     30  C   UNL A   1      40.370  29.051  27.192  1.00  0.00     0.010 A 
ATOM     31  C   UNL A   1      40.688  28.782  29.565  1.00  0.00     0.010 A 
ATOM     32  C   UNL A   1      41.231  28.803  28.265  1.00  0.00    -0.014 A 
BRANCH  32  33
ATOM     33  C   UNL A   1      42.685  28.591  28.022  1.00  0.00     0.031 A 
ATOM     34  C   UNL A   1      43.672  29.698  28.287  1.00  0.00     0.074 A 
ATOM     35  C   UNL A   1      43.125  27.403  27.556  1.00  0.00     0.049 A 
ATOM     36  N   UNL A   1      44.936  29.773  27.957  1.00  0.00    -0.248 NA
ATOM     37  C   UNL A   1      43.170  30.882  29.004  1.00  0.00     0.031 C 
ATOM     38  C   UNL A   1      42.292  26.221  27.310  1.00  0.00     0.029 A 
ATOM     39  N   UNL A   1      44.387  26.987  27.204  1.00  0.00    -0.354 N 
ATOM     40  C   UNL A   1      45.365  31.030  28.371  1.00  0.00     0.074 A 
ATOM     41  C   UNL A   1      44.223  31.686  28.972  1.00  0.00     0.031 C 
ATOM     42  C   UNL A   1      43.065  25.210  26.891  1.00  0.00     0.029 A 
ATOM     43  C   UNL A   1      44.426  25.699  26.721  1.00  0.00     0.049 A 
ATOM     44  H   UNL A   1      45.186  27.557  27.288  1.00  0.00     0.167 HD
ATOM     45  C   UNL A   1      46.595  31.586  28.254  1.00  0.00     0.031 A 
ATOM     46  C   UNL A   1      45.422  24.999  26.146  1.00  0.00     0.031 A 
ATOM     47  C   UNL A   1      47.728  30.912  27.672  1.00  0.00     0.049 A 
ATOM     48  C   UNL A   1      46.753  25.663  25.950  1.00  0.00     0.074 A 
ATOM     49  C   UNL A   1      49.021  31.381  27.519  1.00  0.00     0.029 A 
ATOM     50  N   UNL A   1      47.705  29.627  27.150  1.00  0.00    -0.354 N 
ATOM     51  N   UNL A   1      47.133  26.864  26.316  1.00  0.00    -0.248 NA
ATOM     52  C   UNL A   1      47.784  24.887  25.250  1.00  0.00     0.031 C 
ATOM     53  C   UNL A   1      49.763  30.404  26.847  1.00  0.00     0.029 A 
ATOM     54  C   UNL A   1      48.952  29.298  26.644  1.00  0.00     0.049 A 
ATOM     55  H   UNL A   1      46.918  29.035  27.141  1.00  0.00     0.167 HD
ATOM     56  C   UNL A   1      48.453  26.983  25.901  1.00  0.00     0.074 A 
ATOM     57  C   UNL A   1      48.812  25.724  25.280  1.00  0.00     0.031 C 
ATOM     58  C   UNL A   1      49.291  28.042  26.022  1.00  0.00     0.031 A 
BRANCH  45  59
ATOM     59  C   UNL A   1      46.768  33.013  28.713  1.00  0.00    -0.014 A 
ATOM     60  C   UNL A   1      47.225  33.325  30.006  1.00  0.00     0.010 A 
ATOM     61  C   UNL A   1      46.498  34.063  27.815  1.00  0.00     0.010 A 
ATOM     62  C   UNL A   1      47.361  34.658  30.405  1.00  0.00     0.020 A 
ATOM     63  C   UNL A   1      46.662  35.395  28.199  1.00  0.00     0.020 A 
ATOM     64  C   UNL A   1      47.076  35.686  29.500  1.00  0.00     0.054 A 
BRANCH  64  65
ATOM     65  S   UNL A   1      47.270  37.405  30.045  1.00  0.00     0.124 S 
ATOM     66  O   UNL A   1      45.982  37.667  30.684  1.00  0.00    -0.237 OA
ATOM     67  O   UNL A   1      48.414  37.328  30.949  1.00  0.00    -0.237 OA
ATOM     68  O   UNL A   1      47.507  38.138  28.804  1.00  0.00    -0.744 OA
ENDBRANCH  64  65
ENDBRANCH  45  59
BRANCH  46  69
ATOM     69  C   UNL A   1      45.169  23.614  25.656  1.00  0.00    -0.014 A 
ATOM     70  C   UNL A   1      44.714  23.391  24.346  1.00  0.00     0.010 A 
ATOM     71  C   UNL A   1      45.416  22.507  26.490  1.00  0.00     0.010 A 
ATOM     72  C   UNL A   1      44.510  22.089  23.880  1.00  0.00     0.020 A 
ATOM     73  C   UNL A   1      45.246  21.204  26.019  1.00  0.00     0.020 A 
ATOM     74  C   UNL A   1      44.785  21.002  24.717  1.00  0.00     0.054 A 
BRANCH  74  75
ATOM     75  S   UNL A   1      44.578  19.322  24.068  1.00  0.00     0.124 S 
ATOM     76  O   UNL A   1      44.549  19.555  22.627  1.00  0.00    -0.237 OA
ATOM     77  O   UNL A   1      45.767  18.641  24.575  1.00  0.00    -0.237 OA
ATOM     78  O   UNL A   1      43.317  18.879  24.657  1.00  0.00    -0.744 OA
ENDBRANCH  74  75
ENDBRANCH  46  69
BRANCH  58  79
ATOM     79  C   UNL A   1      50.690  27.876  25.494  1.00  0.00    -0.014 A 
ATOM     80  C   UNL A   1      51.714  27.348  26.298  1.00  0.00     0.010 A 
ATOM     81  C   UNL A   1      50.968  28.203  24.153  1.00  0.00     0.010 A 
ATOM     82  C   UNL A   1      52.999  27.170  25.779  1.00  0.00     0.020 A 
ATOM     83  C   UNL A   1      52.243  27.997  23.622  1.00  0.00     0.020 A 
ATOM     84  C   UNL A   1      53.254  27.491  24.442  1.00  0.00     0.054 A 
BRANCH  84  85
ATOM     85  S   UNL A   1      54.914  27.194  23.777  1.00  0.00     0.124 S 
ATOM     86  O   UNL A   1      54.629  26.856  22.385  1.00  0.00    -0.237 OA
ATOM     87  O   UNL A   1      55.577  28.478  23.989  1.00  0.00    -0.237 OA
ATOM     88  O   UNL A   1      55.423  26.093  24.593  1.00  0.00    -0.744 OA
ENDBRANCH  84  85
ENDBRANCH  58  79
ENDBRANCH  32  33
ENDBRANCH  25  27
ENDBRANCH  24  25
ENDBRANCH  23  24
ENDBRANCH   1  23
TORSDOF 17
ENDMDL
