MODEL 1
REMARK VINA RESULT:     -11.7      0.000      0.000
REMARK SMILES CC1=C(C(=O)OCC(C)C)[C@@H](c2ccc(C(=O)OCCOC(=O)c3ccc(-c4c5nc(c(-c6ccc(S(=O)(=O)[O-])cc6)c6ccc([nH]6)c(-c6ccc(S(=O)(=O)[O-])cc6)c6nc(c(-c7ccc(S(=O)(=O)[O-])cc7)c7ccc4[nH]7)C=C6)C=C5)cc3)cc2)c2c(n(C)c(=O)n(C)c2=O)N1
REMARK SMILES IDX 19 1 18 2 16 3 17 4 15 5 12 6 13 7 85 8 14 9 84 10 11 11
REMARK SMILES IDX 1 12 2 13 3 14 96 15 87 16 86 18 88 19 94 20 89 21 90 22
REMARK SMILES IDX 92 23 95 24 91 25 93 26 4 27 5 28 6 29 7 30 8 31 9 32 10 33
REMARK SMILES IDX 20 34 21 35 22 36 23 37 24 38 25 39 83 40 26 41 82 42 27 43
REMARK SMILES IDX 28 44 29 45 76 46 30 47 81 48 75 49 77 50 31 51 80 52 74 53
REMARK SMILES IDX 73 54 32 56 62 57 43 58 61 59 44 60 47 61 60 62 78 63 45 64
REMARK SMILES IDX 46 65 59 67 79 68 48 69 33 70 34 71 42 72 35 73 41 74 36 75
REMARK SMILES IDX 37 76 38 77 39 78 40 79 63 80 64 81 72 82 65 83 71 84 66 85
REMARK SMILES IDX 67 86 68 87 69 88 70 89 49 90 50 91 58 92 51 93 57 94 52 95
REMARK SMILES IDX 53 96 54 97 55 98 56 99
REMARK H PARENT 96 17 77 55 47 66
REMARK Flexibility Score: inf
ROOT
ATOM      1  C   UNL A   1      40.775  22.230  26.808  1.00  0.00     0.275 C 
ENDROOT
BRANCH   1   2
ATOM      2  O   UNL A   1      39.346  22.408  26.715  1.00  0.00    -0.458 OA
BRANCH   2   3
ATOM      3  C   UNL A   1      38.710  21.528  25.903  1.00  0.00     0.338 C 
ATOM      4  O   UNL A   1      39.119  20.427  25.566  1.00  0.00    -0.246 OA
BRANCH   3   5
ATOM      5  C   UNL A   1      37.367  22.022  25.526  1.00  0.00     0.060 A 
ATOM      6  C   UNL A   1      34.721  22.719  24.883  1.00  0.00    -0.035 A 
ATOM      7  C   UNL A   1      35.063  22.364  26.194  1.00  0.00     0.005 A 
ATOM      8  C   UNL A   1      35.736  22.778  23.909  1.00  0.00     0.005 A 
ATOM      9  C   UNL A   1      36.362  21.977  26.497  1.00  0.00     0.016 A 
ATOM     10  C   UNL A   1      37.059  22.445  24.233  1.00  0.00     0.016 A 
BRANCH   6  11
ATOM     11  C   UNL A   1      33.245  22.916  24.508  1.00  0.00     0.098 C 
ATOM     12  C   UNL A   1      31.772  20.838  21.493  1.00  0.00     0.065 C 
ATOM     13  C   UNL A   1      32.326  21.910  22.402  1.00  0.00     0.025 C 
ATOM     14  C   UNL A   1      32.731  21.736  23.682  1.00  0.00     0.068 C 
ATOM     15  N   UNL A   1      32.372  23.179  21.841  1.00  0.00    -0.344 N 
ATOM     16  C   UNL A   1      32.709  24.348  22.500  1.00  0.00     0.123 A 
ATOM     17  H   UNL A   1      32.145  23.254  20.886  1.00  0.00     0.168 HD
ATOM     18  C   UNL A   1      33.085  24.256  23.789  1.00  0.00     0.071 A 
ATOM     19  N   UNL A   1      32.682  25.587  21.878  1.00  0.00    -0.282 N 
ATOM     20  C   UNL A   1      33.416  25.480  24.544  1.00  0.00     0.262 A 
ATOM     21  C   UNL A   1      32.212  25.695  20.501  1.00  0.00     0.157 C 
ATOM     22  C   UNL A   1      33.138  26.752  22.490  1.00  0.00     0.332 A 
ATOM     23  N   UNL A   1      33.593  26.619  23.792  1.00  0.00    -0.263 N 
ATOM     24  O   UNL A   1      33.509  25.449  25.771  1.00  0.00    -0.269 OA
ATOM     25  O   UNL A   1      33.121  27.848  21.927  1.00  0.00    -0.247 OA
ATOM     26  C   UNL A   1      34.128  27.804  24.433  1.00  0.00     0.158 C 
BRANCH  14  27
ATOM     27  C   UNL A   1      32.634  20.465  24.440  1.00  0.00     0.336 C 
ATOM     28  O   UNL A   1      31.819  20.289  25.335  1.00  0.00    -0.246 OA
BRANCH  27  29
ATOM     29  O   UNL A   1      33.589  19.595  24.048  1.00  0.00    -0.462 OA
BRANCH  29  30
ATOM     30  C   UNL A   1      33.836  18.457  24.889  1.00  0.00     0.236 C 
BRANCH  30  31
ATOM     31  C   UNL A   1      33.339  17.183  24.197  1.00  0.00     0.021 C 
ATOM     32  C   UNL A   1      33.966  17.017  22.813  1.00  0.00     0.011 C 
ATOM     33  C   UNL A   1      33.629  15.961  25.066  1.00  0.00     0.011 C 
ENDBRANCH  30  31
ENDBRANCH  29  30
ENDBRANCH  27  29
ENDBRANCH  14  27
ENDBRANCH   6  11
ENDBRANCH   3   5
ENDBRANCH   2   3
ENDBRANCH   1   2
BRANCH   1  34
ATOM     34  C   UNL A   1      41.512  23.440  26.235  1.00  0.00     0.275 C 
BRANCH  34  35
ATOM     35  O   UNL A   1      40.618  24.564  26.142  1.00  0.00    -0.458 OA
BRANCH  35  36
ATOM     36  C   UNL A   1      41.205  25.777  26.025  1.00  0.00     0.338 C 
ATOM     37  O   UNL A   1      41.650  26.288  25.011  1.00  0.00    -0.246 OA
BRANCH  36  38
ATOM     38  C   UNL A   1      41.235  26.452  27.336  1.00  0.00     0.060 A 
ATOM     39  C   UNL A   1      40.381  26.029  28.347  1.00  0.00     0.016 A 
ATOM     40  C   UNL A   1      42.005  27.599  27.514  1.00  0.00     0.016 A 
ATOM     41  C   UNL A   1      40.183  26.823  29.476  1.00  0.00     0.010 A 
ATOM     42  C   UNL A   1      41.906  28.322  28.712  1.00  0.00     0.010 A 
ATOM     43  C   UNL A   1      40.954  27.975  29.689  1.00  0.00    -0.014 A 
BRANCH  43  44
ATOM     44  C   UNL A   1      40.746  28.827  30.902  1.00  0.00     0.031 A 
ATOM     45  C   UNL A   1      39.640  29.859  30.932  1.00  0.00     0.074 A 
ATOM     46  C   UNL A   1      41.524  28.673  31.996  1.00  0.00     0.049 A 
ATOM     47  N   UNL A   1      39.409  30.799  31.816  1.00  0.00    -0.248 NA
ATOM     48  C   UNL A   1      38.674  29.841  29.821  1.00  0.00     0.031 C 
ATOM     49  C   UNL A   1      42.597  27.688  32.147  1.00  0.00     0.029 A 
ATOM     50  N   UNL A   1      41.519  29.336  33.202  1.00  0.00    -0.354 N 
ATOM     51  C   UNL A   1      38.318  31.517  31.337  1.00  0.00     0.074 A 
ATOM     52  C   UNL A   1      37.934  30.911  30.082  1.00  0.00     0.031 C 
ATOM     53  C   UNL A   1      43.096  27.763  33.389  1.00  0.00     0.029 A 
ATOM     54  C   UNL A   1      42.461  28.871  34.091  1.00  0.00     0.049 A 
ATOM     55  H   UNL A   1      40.901  30.073  33.408  1.00  0.00     0.167 HD
ATOM     56  C   UNL A   1      37.689  32.583  31.891  1.00  0.00     0.031 A 
ATOM     57  C   UNL A   1      42.814  29.305  35.318  1.00  0.00     0.031 A 
ATOM     58  C   UNL A   1      38.039  33.160  33.164  1.00  0.00     0.049 A 
ATOM     59  C   UNL A   1      42.141  30.519  35.889  1.00  0.00     0.074 A 
ATOM     60  C   UNL A   1      37.459  34.241  33.807  1.00  0.00     0.029 A 
ATOM     61  N   UNL A   1      39.044  32.693  33.997  1.00  0.00    -0.354 N 
ATOM     62  N   UNL A   1      41.163  31.231  35.384  1.00  0.00    -0.248 NA
ATOM     63  C   UNL A   1      42.638  31.006  37.184  1.00  0.00     0.031 C 
ATOM     64  C   UNL A   1      38.139  34.452  35.010  1.00  0.00     0.029 A 
ATOM     65  C   UNL A   1      39.109  33.471  35.141  1.00  0.00     0.049 A 
ATOM     66  H   UNL A   1      39.626  31.924  33.804  1.00  0.00     0.167 HD
ATOM     67  C   UNL A   1      40.926  32.249  36.299  1.00  0.00     0.074 A 
ATOM     68  C   UNL A   1      41.843  32.046  37.401  1.00  0.00     0.031 C 
ATOM     69  C   UNL A   1      40.031  33.263  36.227  1.00  0.00     0.031 A 
BRANCH  56  70
ATOM     70  C   UNL A   1      36.568  33.222  31.112  1.00  0.00    -0.014 A 
ATOM     71  C   UNL A   1      35.277  33.347  31.654  1.00  0.00     0.010 A 
ATOM     72  C   UNL A   1      36.828  33.759  29.836  1.00  0.00     0.010 A 
ATOM     73  C   UNL A   1      34.259  33.966  30.922  1.00  0.00     0.020 A 
ATOM     74  C   UNL A   1      35.820  34.402  29.111  1.00  0.00     0.020 A 
ATOM     75  C   UNL A   1      34.537  34.488  29.654  1.00  0.00     0.054 A 
BRANCH  75  76
ATOM     76  S   UNL A   1      33.201  35.309  28.741  1.00  0.00     0.124 S 
ATOM     77  O   UNL A   1      32.404  35.880  29.824  1.00  0.00    -0.237 OA
ATOM     78  O   UNL A   1      33.924  36.275  27.917  1.00  0.00    -0.237 OA
ATOM     79  O   UNL A   1      32.563  34.221  28.004  1.00  0.00    -0.744 OA
ENDBRANCH  75  76
ENDBRANCH  56  70
BRANCH  57  80
ATOM     80  C   UNL A   1      43.893  28.604  36.067  1.00  0.00    -0.014 A 
ATOM     81  C   UNL A   1      45.226  29.038  35.969  1.00  0.00     0.010 A 
ATOM     82  C   UNL A   1      43.588  27.520  36.912  1.00  0.00     0.010 A 
ATOM     83  C   UNL A   1      46.233  28.405  36.706  1.00  0.00     0.020 A 
ATOM     84  C   UNL A   1      44.585  26.905  37.673  1.00  0.00     0.020 A 
ATOM     85  C   UNL A   1      45.904  27.348  37.560  1.00  0.00     0.054 A 
BRANCH  85  86
ATOM     86  S   UNL A   1      47.213  26.595  38.565  1.00  0.00     0.124 S 
ATOM     87  O   UNL A   1      46.706  26.788  39.919  1.00  0.00    -0.237 OA
ATOM     88  O   UNL A   1      47.226  25.216  38.084  1.00  0.00    -0.237 OA
ATOM     89  O   UNL A   1      48.399  27.376  38.222  1.00  0.00    -0.744 OA
ENDBRANCH  85  86
ENDBRANCH  57  80
BRANCH  69  90
ATOM     90  C   UNL A   1      39.985  34.230  37.379  1.00  0.00    -0.014 A 
ATOM     91  C   UNL A   1      40.831  35.352  37.415  1.00  0.00     0.010 A 
ATOM     92  C   UNL A   1      39.041  34.046  38.406  1.00  0.00     0.010 A 
ATOM     93  C   UNL A   1      40.746  36.266  38.469  1.00  0.00     0.020 A 
ATOM     94  C   UNL A   1      38.937  34.970  39.449  1.00  0.00     0.020 A 
ATOM     95  C   UNL A   1      39.797  36.070  39.478  1.00  0.00     0.054 A 
BRANCH  95  96
ATOM     96  S   UNL A   1      39.671  37.299  40.806  1.00  0.00     0.124 S 
ATOM     97  O   UNL A   1      39.427  36.460  41.975  1.00  0.00    -0.237 OA
ATOM     98  O   UNL A   1      40.978  37.952  40.762  1.00  0.00    -0.237 OA
ATOM     99  O   UNL A   1      38.548  38.138  40.396  1.00  0.00    -0.744 OA
ENDBRANCH  95  96
ENDBRANCH  69  90
ENDBRANCH  43  44
ENDBRANCH  36  38
ENDBRANCH  35  36
ENDBRANCH  34  35
ENDBRANCH   1  34
TORSDOF 19
ENDMDL
MODEL 2
REMARK VINA RESULT:     -11.2      5.817      8.087
REMARK SMILES CC1=C(C(=O)OCC(C)C)[C@@H](c2ccc(C(=O)OCCOC(=O)c3ccc(-c4c5nc(c(-c6ccc(S(=O)(=O)[O-])cc6)c6ccc([nH]6)c(-c6ccc(S(=O)(=O)[O-])cc6)c6nc(c(-c7ccc(S(=O)(=O)[O-])cc7)c7ccc4[nH]7)C=C6)C=C5)cc3)cc2)c2c(n(C)c(=O)n(C)c2=O)N1
REMARK SMILES IDX 19 1 18 2 16 3 17 4 15 5 12 6 13 7 85 8 14 9 84 10 11 11
REMARK SMILES IDX 1 12 2 13 3 14 96 15 87 16 86 18 88 19 94 20 89 21 90 22
REMARK SMILES IDX 92 23 95 24 91 25 93 26 4 27 5 28 6 29 7 30 8 31 9 32 10 33
REMARK SMILES IDX 20 34 21 35 22 36 23 37 24 38 25 39 83 40 26 41 82 42 27 43
REMARK SMILES IDX 28 44 29 45 76 46 30 47 81 48 75 49 77 50 31 51 80 52 74 53
REMARK SMILES IDX 73 54 32 56 62 57 43 58 61 59 44 60 47 61 60 62 78 63 45 64
REMARK SMILES IDX 46 65 59 67 79 68 48 69 33 70 34 71 42 72 35 73 41 74 36 75
REMARK SMILES IDX 37 76 38 77 39 78 40 79 63 80 64 81 72 82 65 83 71 84 66 85
REMARK SMILES IDX 67 86 68 87 69 88 70 89 49 90 50 91 58 92 51 93 57 94 52 95
REMARK SMILES IDX 53 96 54 97 55 98 56 99
REMARK H PARENT 96 17 77 55 47 66
REMARK Flexibility Score: inf
ROOT
ATOM      1  C   UNL A   1      38.995  20.434  25.318  1.00  0.00     0.275 C 
ENDROOT
BRANCH   1   2
ATOM      2  O   UNL A   1      38.782  21.203  26.520  1.00  0.00    -0.458 OA
BRANCH   2   3
ATOM      3  C   UNL A   1      38.694  22.543  26.336  1.00  0.00     0.338 C 
ATOM      4  O   UNL A   1      39.593  23.356  26.491  1.00  0.00    -0.246 OA
BRANCH   3   5
ATOM      5  C   UNL A   1      37.364  22.927  25.815  1.00  0.00     0.060 A 
ATOM      6  C   UNL A   1      34.742  23.427  24.932  1.00  0.00    -0.035 A 
ATOM      7  C   UNL A   1      35.019  23.305  26.300  1.00  0.00     0.005 A 
ATOM      8  C   UNL A   1      35.807  23.355  24.015  1.00  0.00     0.005 A 
ATOM      9  C   UNL A   1      36.309  23.014  26.728  1.00  0.00     0.016 A 
ATOM     10  C   UNL A   1      37.117  23.120  24.456  1.00  0.00     0.016 A 
BRANCH   6  11
ATOM     11  C   UNL A   1      33.285  23.514  24.457  1.00  0.00     0.098 C 
ATOM     12  C   UNL A   1      32.032  20.942  21.738  1.00  0.00     0.065 C 
ATOM     13  C   UNL A   1      32.509  22.161  22.492  1.00  0.00     0.025 C 
ATOM     14  C   UNL A   1      32.846  22.203  23.803  1.00  0.00     0.068 C 
ATOM     15  N   UNL A   1      32.555  23.326  21.741  1.00  0.00    -0.344 N 
ATOM     16  C   UNL A   1      32.826  24.596  22.223  1.00  0.00     0.123 A 
ATOM     17  H   UNL A   1      32.379  23.243  20.776  1.00  0.00     0.168 HD
ATOM     18  C   UNL A   1      33.132  24.719  23.527  1.00  0.00     0.071 A 
ATOM     19  N   UNL A   1      32.803  25.720  21.412  1.00  0.00    -0.282 N 
ATOM     20  C   UNL A   1      33.391  26.057  24.095  1.00  0.00     0.262 A 
ATOM     21  C   UNL A   1      32.408  25.595  20.013  1.00  0.00     0.157 C 
ATOM     22  C   UNL A   1      33.196  26.981  21.854  1.00  0.00     0.332 A 
ATOM     23  N   UNL A   1      33.581  27.068  23.182  1.00  0.00    -0.263 N 
ATOM     24  O   UNL A   1      33.417  26.221  25.314  1.00  0.00    -0.269 OA
ATOM     25  O   UNL A   1      33.184  27.974  21.124  1.00  0.00    -0.247 OA
ATOM     26  C   UNL A   1      34.052  28.356  23.653  1.00  0.00     0.158 C 
BRANCH  14  27
ATOM     27  C   UNL A   1      32.738  21.065  24.747  1.00  0.00     0.336 C 
ATOM     28  O   UNL A   1      31.839  20.970  25.569  1.00  0.00    -0.246 OA
BRANCH  27  29
ATOM     29  O   UNL A   1      33.782  20.220  24.605  1.00  0.00    -0.462 OA
BRANCH  29  30
ATOM     30  C   UNL A   1      33.604  18.866  25.051  1.00  0.00     0.236 C 
BRANCH  30  31
ATOM     31  C   UNL A   1      34.098  17.895  23.973  1.00  0.00     0.021 C 
ATOM     32  C   UNL A   1      34.607  16.590  24.585  1.00  0.00     0.011 C 
ATOM     33  C   UNL A   1      32.986  17.614  22.964  1.00  0.00     0.011 C 
ENDBRANCH  30  31
ENDBRANCH  29  30
ENDBRANCH  27  29
ENDBRANCH  14  27
ENDBRANCH   6  11
ENDBRANCH   3   5
ENDBRANCH   2   3
ENDBRANCH   1   2
BRANCH   1  34
ATOM     34  C   UNL A   1      39.753  19.143  25.625  1.00  0.00     0.275 C 
BRANCH  34  35
ATOM     35  O   UNL A   1      40.845  19.414  26.523  1.00  0.00    -0.458 OA
BRANCH  35  36
ATOM     36  C   UNL A   1      42.006  19.795  25.942  1.00  0.00     0.338 C 
ATOM     37  O   UNL A   1      42.714  19.134  25.201  1.00  0.00    -0.246 OA
BRANCH  36  38
ATOM     38  C   UNL A   1      42.326  21.185  26.318  1.00  0.00     0.060 A 
ATOM     39  C   UNL A   1      42.512  22.141  25.326  1.00  0.00     0.016 A 
ATOM     40  C   UNL A   1      42.590  21.507  27.647  1.00  0.00     0.016 A 
ATOM     41  C   UNL A   1      43.094  23.370  25.636  1.00  0.00     0.010 A 
ATOM     42  C   UNL A   1      43.046  22.792  27.973  1.00  0.00     0.010 A 
ATOM     43  C   UNL A   1      43.356  23.726  26.967  1.00  0.00    -0.014 A 
BRANCH  43  44
ATOM     44  C   UNL A   1      43.979  25.045  27.302  1.00  0.00     0.031 A 
ATOM     45  C   UNL A   1      43.153  26.144  27.934  1.00  0.00     0.074 A 
ATOM     46  C   UNL A   1      45.291  25.269  27.067  1.00  0.00     0.049 A 
ATOM     47  N   UNL A   1      43.466  27.400  28.140  1.00  0.00    -0.248 NA
ATOM     48  C   UNL A   1      41.796  25.790  28.383  1.00  0.00     0.031 C 
ATOM     49  C   UNL A   1      46.235  24.296  26.513  1.00  0.00     0.029 A 
ATOM     50  N   UNL A   1      46.064  26.385  27.285  1.00  0.00    -0.354 N 
ATOM     51  C   UNL A   1      42.331  27.995  28.682  1.00  0.00     0.074 A 
ATOM     52  C   UNL A   1      41.317  26.966  28.766  1.00  0.00     0.031 C 
ATOM     53  C   UNL A   1      47.465  24.830  26.499  1.00  0.00     0.029 A 
ATOM     54  C   UNL A   1      47.386  26.218  26.937  1.00  0.00     0.049 A 
ATOM     55  H   UNL A   1      45.707  27.224  27.653  1.00  0.00     0.167 HD
ATOM     56  C   UNL A   1      42.146  29.279  29.075  1.00  0.00     0.031 A 
ATOM     57  C   UNL A   1      48.417  27.085  26.927  1.00  0.00     0.031 A 
ATOM     58  C   UNL A   1      43.168  30.294  29.036  1.00  0.00     0.049 A 
ATOM     59  C   UNL A   1      48.178  28.516  27.316  1.00  0.00     0.074 A 
ATOM     60  C   UNL A   1      43.074  31.623  29.414  1.00  0.00     0.029 A 
ATOM     61  N   UNL A   1      44.473  30.090  28.614  1.00  0.00    -0.354 N 
ATOM     62  N   UNL A   1      47.076  29.075  27.751  1.00  0.00    -0.248 NA
ATOM     63  C   UNL A   1      49.316  29.438  27.186  1.00  0.00     0.031 C 
ATOM     64  C   UNL A   1      44.312  32.232  29.183  1.00  0.00     0.029 A 
ATOM     65  C   UNL A   1      45.190  31.271  28.711  1.00  0.00     0.049 A 
ATOM     66  H   UNL A   1      44.835  29.234  28.293  1.00  0.00     0.167 HD
ATOM     67  C   UNL A   1      47.387  30.415  27.948  1.00  0.00     0.074 A 
ATOM     68  C   UNL A   1      48.786  30.576  27.612  1.00  0.00     0.031 C 
ATOM     69  C   UNL A   1      46.580  31.421  28.366  1.00  0.00     0.031 A 
BRANCH  56  70
ATOM     70  C   UNL A   1      40.776  29.677  29.561  1.00  0.00    -0.014 A 
ATOM     71  C   UNL A   1      39.718  29.906  28.664  1.00  0.00     0.010 A 
ATOM     72  C   UNL A   1      40.530  29.765  30.945  1.00  0.00     0.010 A 
ATOM     73  C   UNL A   1      38.449  30.248  29.140  1.00  0.00     0.020 A 
ATOM     74  C   UNL A   1      39.256  30.082  31.426  1.00  0.00     0.020 A 
ATOM     75  C   UNL A   1      38.226  30.336  30.519  1.00  0.00     0.054 A 
BRANCH  75  76
ATOM     76  S   UNL A   1      36.562  30.758  31.106  1.00  0.00     0.124 S 
ATOM     77  O   UNL A   1      35.905  29.453  31.107  1.00  0.00    -0.237 OA
ATOM     78  O   UNL A   1      36.823  31.329  32.425  1.00  0.00    -0.237 OA
ATOM     79  O   UNL A   1      36.070  31.702  30.107  1.00  0.00    -0.744 OA
ENDBRANCH  75  76
ENDBRANCH  56  70
BRANCH  57  80
ATOM     80  C   UNL A   1      49.764  26.626  26.488  1.00  0.00    -0.014 A 
ATOM     81  C   UNL A   1      50.622  25.971  27.388  1.00  0.00     0.010 A 
ATOM     82  C   UNL A   1      50.182  26.810  25.155  1.00  0.00     0.010 A 
ATOM     83  C   UNL A   1      51.871  25.503  26.962  1.00  0.00     0.020 A 
ATOM     84  C   UNL A   1      51.414  26.317  24.720  1.00  0.00     0.020 A 
ATOM     85  C   UNL A   1      52.254  25.672  25.629  1.00  0.00     0.054 A 
BRANCH  85  86
ATOM     86  S   UNL A   1      53.843  24.988  25.082  1.00  0.00     0.124 S 
ATOM     87  O   UNL A   1      54.760  25.506  26.090  1.00  0.00    -0.237 OA
ATOM     88  O   UNL A   1      53.598  23.548  25.128  1.00  0.00    -0.237 OA
ATOM     89  O   UNL A   1      54.009  25.540  23.739  1.00  0.00    -0.744 OA
ENDBRANCH  85  86
ENDBRANCH  57  80
BRANCH  69  90
ATOM     90  C   UNL A   1      47.191  32.789  28.499  1.00  0.00    -0.014 A 
ATOM     91  C   UNL A   1      47.133  33.713  27.441  1.00  0.00     0.010 A 
ATOM     92  C   UNL A   1      47.775  33.176  29.719  1.00  0.00     0.010 A 
ATOM     93  C   UNL A   1      47.665  34.996  27.595  1.00  0.00     0.020 A 
ATOM     94  C   UNL A   1      48.288  34.465  29.884  1.00  0.00     0.020 A 
ATOM     95  C   UNL A   1      48.237  35.364  28.817  1.00  0.00     0.054 A 
BRANCH  95  96
ATOM     96  S   UNL A   1      48.871  37.053  29.007  1.00  0.00     0.124 S 
ATOM     97  O   UNL A   1      48.875  37.214  30.459  1.00  0.00    -0.237 OA
ATOM     98  O   UNL A   1      50.188  36.972  28.380  1.00  0.00    -0.237 OA
ATOM     99  O   UNL A   1      47.896  37.872  28.293  1.00  0.00    -0.744 OA
ENDBRANCH  95  96
ENDBRANCH  69  90
ENDBRANCH  43  44
ENDBRANCH  36  38
ENDBRANCH  35  36
ENDBRANCH  34  35
ENDBRANCH   1  34
TORSDOF 19
ENDMDL
MODEL 3
REMARK VINA RESULT:     -11.0      5.902     10.123
REMARK SMILES CC1=C(C(=O)OCC(C)C)[C@@H](c2ccc(C(=O)OCCOC(=O)c3ccc(-c4c5nc(c(-c6ccc(S(=O)(=O)[O-])cc6)c6ccc([nH]6)c(-c6ccc(S(=O)(=O)[O-])cc6)c6nc(c(-c7ccc(S(=O)(=O)[O-])cc7)c7ccc4[nH]7)C=C6)C=C5)cc3)cc2)c2c(n(C)c(=O)n(C)c2=O)N1
REMARK SMILES IDX 19 1 18 2 16 3 17 4 15 5 12 6 13 7 85 8 14 9 84 10 11 11
REMARK SMILES IDX 1 12 2 13 3 14 96 15 87 16 86 18 88 19 94 20 89 21 90 22
REMARK SMILES IDX 92 23 95 24 91 25 93 26 4 27 5 28 6 29 7 30 8 31 9 32 10 33
REMARK SMILES IDX 20 34 21 35 22 36 23 37 24 38 25 39 83 40 26 41 82 42 27 43
REMARK SMILES IDX 28 44 29 45 76 46 30 47 81 48 75 49 77 50 31 51 80 52 74 53
REMARK SMILES IDX 73 54 32 56 62 57 43 58 61 59 44 60 47 61 60 62 78 63 45 64
REMARK SMILES IDX 46 65 59 67 79 68 48 69 33 70 34 71 42 72 35 73 41 74 36 75
REMARK SMILES IDX 37 76 38 77 39 78 40 79 63 80 64 81 72 82 65 83 71 84 66 85
REMARK SMILES IDX 67 86 68 87 69 88 70 89 49 90 50 91 58 92 51 93 57 94 52 95
REMARK SMILES IDX 53 96 54 97 55 98 56 99
REMARK H PARENT 96 17 77 55 47 66
REMARK Flexibility Score: inf
ROOT
ATOM      1  C   UNL A   1      40.320  20.794  26.716  1.00  0.00     0.275 C 
ENDROOT
BRANCH   1   2
ATOM      2  O   UNL A   1      39.237  21.318  25.920  1.00  0.00    -0.458 OA
BRANCH   2   3
ATOM      3  C   UNL A   1      38.941  22.622  26.140  1.00  0.00     0.338 C 
ATOM      4  O   UNL A   1      39.712  23.483  26.538  1.00  0.00    -0.246 OA
BRANCH   3   5
ATOM      5  C   UNL A   1      37.550  22.931  25.742  1.00  0.00     0.060 A 
ATOM      6  C   UNL A   1      34.833  23.298  25.124  1.00  0.00    -0.035 A 
ATOM      7  C   UNL A   1      35.265  23.310  26.456  1.00  0.00     0.005 A 
ATOM      8  C   UNL A   1      35.789  23.159  24.101  1.00  0.00     0.005 A 
ATOM      9  C   UNL A   1      36.602  23.084  26.758  1.00  0.00     0.016 A 
ATOM     10  C   UNL A   1      37.147  22.990  24.408  1.00  0.00     0.016 A 
BRANCH   6  11
ATOM     11  C   UNL A   1      33.329  23.313  24.813  1.00  0.00     0.098 C 
ATOM     12  C   UNL A   1      31.987  21.043  21.877  1.00  0.00     0.065 C 
ATOM     13  C   UNL A   1      32.448  22.182  22.754  1.00  0.00     0.025 C 
ATOM     14  C   UNL A   1      32.924  22.072  24.017  1.00  0.00     0.068 C 
ATOM     15  N   UNL A   1      32.318  23.441  22.184  1.00  0.00    -0.344 N 
ATOM     16  C   UNL A   1      32.540  24.650  22.822  1.00  0.00     0.123 A 
ATOM     17  H   UNL A   1      32.043  23.478  21.240  1.00  0.00     0.168 HD
ATOM     18  C   UNL A   1      32.979  24.617  24.093  1.00  0.00     0.071 A 
ATOM     19  N   UNL A   1      32.339  25.869  22.194  1.00  0.00    -0.282 N 
ATOM     20  C   UNL A   1      33.194  25.880  24.826  1.00  0.00     0.262 A 
ATOM     21  C   UNL A   1      31.802  25.906  20.838  1.00  0.00     0.157 C 
ATOM     22  C   UNL A   1      32.679  27.087  22.779  1.00  0.00     0.332 A 
ATOM     23  N   UNL A   1      33.201  27.023  24.061  1.00  0.00    -0.263 N 
ATOM     24  O   UNL A   1      33.342  25.873  26.048  1.00  0.00    -0.269 OA
ATOM     25  O   UNL A   1      32.507  28.167  22.211  1.00  0.00    -0.247 OA
ATOM     26  C   UNL A   1      33.618  28.271  24.671  1.00  0.00     0.158 C 
BRANCH  14  27
ATOM     27  C   UNL A   1      33.012  20.807  24.786  1.00  0.00     0.336 C 
ATOM     28  O   UNL A   1      32.266  20.546  25.718  1.00  0.00    -0.246 OA
BRANCH  27  29
ATOM     29  O   UNL A   1      34.045  20.051  24.354  1.00  0.00    -0.462 OA
BRANCH  29  30
ATOM     30  C   UNL A   1      34.160  18.721  24.885  1.00  0.00     0.236 C 
BRANCH  30  31
ATOM     31  C   UNL A   1      33.140  17.801  24.206  1.00  0.00     0.021 C 
ATOM     32  C   UNL A   1      33.683  17.232  22.896  1.00  0.00     0.011 C 
ATOM     33  C   UNL A   1      32.734  16.671  25.151  1.00  0.00     0.011 C 
ENDBRANCH  30  31
ENDBRANCH  29  30
ENDBRANCH  27  29
ENDBRANCH  14  27
ENDBRANCH   6  11
ENDBRANCH   3   5
ENDBRANCH   2   3
ENDBRANCH   1   2
BRANCH   1  34
ATOM     34  C   UNL A   1      40.891  19.522  26.089  1.00  0.00     0.275 C 
BRANCH  34  35
ATOM     35  O   UNL A   1      42.295  19.413  26.390  1.00  0.00    -0.458 OA
BRANCH  35  36
ATOM     36  C   UNL A   1      43.140  19.702  25.373  1.00  0.00     0.338 C 
ATOM     37  O   UNL A   1      43.422  18.991  24.423  1.00  0.00    -0.246 OA
BRANCH  36  38
ATOM     38  C   UNL A   1      43.700  21.054  25.550  1.00  0.00     0.060 A 
ATOM     39  C   UNL A   1      44.321  21.390  26.747  1.00  0.00     0.016 A 
ATOM     40  C   UNL A   1      43.480  22.035  24.586  1.00  0.00     0.016 A 
ATOM     41  C   UNL A   1      44.592  22.725  27.046  1.00  0.00     0.010 A 
ATOM     42  C   UNL A   1      43.881  23.355  24.834  1.00  0.00     0.010 A 
ATOM     43  C   UNL A   1      44.395  23.731  26.090  1.00  0.00    -0.014 A 
BRANCH  43  44
ATOM     44  C   UNL A   1      44.688  25.164  26.408  1.00  0.00     0.031 A 
ATOM     45  C   UNL A   1      46.053  25.749  26.118  1.00  0.00     0.074 A 
ATOM     46  C   UNL A   1      43.735  25.963  26.936  1.00  0.00     0.049 A 
ATOM     47  N   UNL A   1      46.548  26.910  26.474  1.00  0.00    -0.248 NA
ATOM     48  C   UNL A   1      46.986  24.921  25.338  1.00  0.00     0.031 C 
ATOM     49  C   UNL A   1      42.355  25.566  27.225  1.00  0.00     0.029 A 
ATOM     50  N   UNL A   1      43.777  27.286  27.308  1.00  0.00    -0.354 N 
ATOM     51  C   UNL A   1      47.862  26.923  26.017  1.00  0.00     0.074 A 
ATOM     52  C   UNL A   1      48.092  25.653  25.364  1.00  0.00     0.031 C 
ATOM     53  C   UNL A   1      41.668  26.633  27.660  1.00  0.00     0.029 A 
ATOM     54  C   UNL A   1      42.579  27.764  27.788  1.00  0.00     0.049 A 
ATOM     55  H   UNL A   1      44.588  27.839  27.238  1.00  0.00     0.167 HD
ATOM     56  C   UNL A   1      48.793  27.902  26.128  1.00  0.00     0.031 A 
ATOM     57  C   UNL A   1      42.247  28.960  28.315  1.00  0.00     0.031 A 
ATOM     58  C   UNL A   1      48.552  29.185  26.736  1.00  0.00     0.049 A 
ATOM     59  C   UNL A   1      43.307  30.011  28.477  1.00  0.00     0.074 A 
ATOM     60  C   UNL A   1      49.435  30.241  26.894  1.00  0.00     0.029 A 
ATOM     61  N   UNL A   1      47.339  29.596  27.267  1.00  0.00    -0.354 N 
ATOM     62  N   UNL A   1      44.564  29.973  28.109  1.00  0.00    -0.248 NA
ATOM     63  C   UNL A   1      42.910  31.255  29.152  1.00  0.00     0.031 C 
ATOM     64  C   UNL A   1      48.766  31.275  27.556  1.00  0.00     0.029 A 
ATOM     65  C   UNL A   1      47.453  30.885  27.763  1.00  0.00     0.049 A 
ATOM     66  H   UNL A   1      46.519  29.054  27.288  1.00  0.00     0.167 HD
ATOM     67  C   UNL A   1      45.109  31.189  28.504  1.00  0.00     0.074 A 
ATOM     68  C   UNL A   1      44.040  31.949  29.116  1.00  0.00     0.031 C 
ATOM     69  C   UNL A   1      46.384  31.629  28.376  1.00  0.00     0.031 A 
BRANCH  56  70
ATOM     70  C   UNL A   1      50.178  27.619  25.603  1.00  0.00    -0.014 A 
ATOM     71  C   UNL A   1      51.180  27.084  26.431  1.00  0.00     0.010 A 
ATOM     72  C   UNL A   1      50.461  27.839  24.241  1.00  0.00     0.010 A 
ATOM     73  C   UNL A   1      52.449  26.806  25.914  1.00  0.00     0.020 A 
ATOM     74  C   UNL A   1      51.721  27.538  23.715  1.00  0.00     0.020 A 
ATOM     75  C   UNL A   1      52.712  27.037  24.559  1.00  0.00     0.054 A 
BRANCH  75  76
ATOM     76  S   UNL A   1      54.361  26.641  23.915  1.00  0.00     0.124 S 
ATOM     77  O   UNL A   1      55.114  27.846  24.256  1.00  0.00    -0.237 OA
ATOM     78  O   UNL A   1      54.720  25.443  24.669  1.00  0.00    -0.237 OA
ATOM     79  O   UNL A   1      54.136  26.432  22.487  1.00  0.00    -0.744 OA
ENDBRANCH  75  76
ENDBRANCH  56  70
BRANCH  57  80
ATOM     80  C   UNL A   1      40.850  29.205  28.770  1.00  0.00    -0.014 A 
ATOM     81  C   UNL A   1      40.519  29.118  30.133  1.00  0.00     0.010 A 
ATOM     82  C   UNL A   1      39.851  29.563  27.844  1.00  0.00     0.010 A 
ATOM     83  C   UNL A   1      39.215  29.389  30.562  1.00  0.00     0.020 A 
ATOM     84  C   UNL A   1      38.556  29.864  28.274  1.00  0.00     0.020 A 
ATOM     85  C   UNL A   1      38.245  29.769  29.631  1.00  0.00     0.054 A 
BRANCH  85  86
ATOM     86  S   UNL A   1      36.582  30.193  30.222  1.00  0.00     0.124 S 
ATOM     87  O   UNL A   1      35.739  29.683  29.146  1.00  0.00    -0.237 OA
ATOM     88  O   UNL A   1      36.503  29.467  31.487  1.00  0.00    -0.237 OA
ATOM     89  O   UNL A   1      36.625  31.648  30.349  1.00  0.00    -0.744 OA
ENDBRANCH  85  86
ENDBRANCH  57  80
BRANCH  69  90
ATOM     90  C   UNL A   1      46.696  33.006  28.894  1.00  0.00    -0.014 A 
ATOM     91  C   UNL A   1      46.529  34.140  28.080  1.00  0.00     0.010 A 
ATOM     92  C   UNL A   1      47.102  33.172  30.231  1.00  0.00     0.010 A 
ATOM     93  C   UNL A   1      46.780  35.417  28.589  1.00  0.00     0.020 A 
ATOM     94  C   UNL A   1      47.332  34.449  30.750  1.00  0.00     0.020 A 
ATOM     95  C   UNL A   1      47.177  35.563  29.922  1.00  0.00     0.054 A 
BRANCH  95  96
ATOM     96  S   UNL A   1      47.444  37.235  30.573  1.00  0.00     0.124 S 
ATOM     97  O   UNL A   1      46.751  37.176  31.857  1.00  0.00    -0.237 OA
ATOM     98  O   UNL A   1      48.901  37.320  30.649  1.00  0.00    -0.237 OA
ATOM     99  O   UNL A   1      46.826  38.100  29.571  1.00  0.00    -0.744 OA
ENDBRANCH  95  96
ENDBRANCH  69  90
ENDBRANCH  43  44
ENDBRANCH  36  38
ENDBRANCH  35  36
ENDBRANCH  34  35
ENDBRANCH   1  34
TORSDOF 19
ENDMDL
