MODEL 1
REMARK VINA RESULT:      -8.0      0.000      0.000
REMARK SMILES CC(C)Cc1s/c(=N/C(=O)CCC(=O)Nc2nccs2)[nH]c1C(=O)OCCOC(=O)c1ccc(-c2c3nc(c(-c4ccc(S(=O)(=O)[O-])cc4)c4ccc([nH]4)c(-c4ccc(S(=O)(=O)[O-])cc4)c4nc(c(-c5ccc(S(=O)(=O)[O-])cc5)c5ccc2[nH]5)C=C4)C=C3)cc1
REMARK SMILES IDX 26 1 25 2 23 3 24 4 22 5 5 6 6 7 7 8 21 9 8 10 4 12 2 13
REMARK SMILES IDX 1 14 3 15 9 16 10 17 11 18 12 19 13 20 14 21 15 22 16 24
REMARK SMILES IDX 17 25 20 26 18 27 19 28 27 29 28 30 29 31 30 32 31 33 32 34
REMARK SMILES IDX 90 35 33 36 89 37 34 38 35 39 36 40 83 41 37 42 88 43 82 44
REMARK SMILES IDX 84 45 38 46 87 47 81 48 80 49 39 51 69 52 50 53 68 54 51 55
REMARK SMILES IDX 54 56 67 57 85 58 52 59 53 60 66 62 86 63 55 64 40 65 41 66
REMARK SMILES IDX 49 67 42 68 48 69 43 70 44 71 45 72 46 73 47 74 70 75 71 76
REMARK SMILES IDX 79 77 72 78 78 79 73 80 74 81 75 82 76 83 77 84 56 85 57 86
REMARK SMILES IDX 65 87 58 88 64 89 59 90 60 91 61 92 62 93 63 94
REMARK H PARENT 21 11 15 23 84 50 54 61
REMARK Flexibility Score: inf
ROOT
ATOM      1  C   UNL A   1      44.198  22.213  26.137  1.00  0.00     0.275 C 
ENDROOT
BRANCH   1   2
ATOM      2  O   UNL A   1      42.992  22.577  25.434  1.00  0.00    -0.457 OA
BRANCH   2   3
ATOM      3  C   UNL A   1      42.672  23.893  25.426  1.00  0.00     0.356 C 
ATOM      4  O   UNL A   1      43.142  24.744  24.684  1.00  0.00    -0.244 OA
BRANCH   3   5
ATOM      5  C   UNL A   1      41.551  24.192  26.356  1.00  0.00     0.140 A 
ATOM      6  C   UNL A   1      41.605  24.899  27.505  1.00  0.00     0.039 A 
ATOM      7  S   UNL A   1      39.991  25.018  28.236  1.00  0.00    -0.101 S 
ATOM      8  C   UNL A   1      39.263  24.119  26.877  1.00  0.00     0.190 A 
ATOM      9  N   UNL A   1      40.269  23.793  26.017  1.00  0.00    -0.325 N 
ATOM     10  N   UNL A   1      37.999  23.904  26.882  1.00  0.00    -0.185 NA
ATOM     11  H   UNL A   1      40.092  23.295  25.188  1.00  0.00     0.169 HD
BRANCH   6  12
ATOM     12  C   UNL A   1      42.766  25.603  28.139  1.00  0.00     0.052 C 
BRANCH  12  13
ATOM     13  C   UNL A   1      43.760  24.623  28.798  1.00  0.00    -0.012 C 
ATOM     14  C   UNL A   1      44.615  25.302  29.873  1.00  0.00     0.008 C 
ATOM     15  C   UNL A   1      43.007  23.441  29.408  1.00  0.00     0.008 C 
ENDBRANCH  12  13
ENDBRANCH   6  12
BRANCH  10  16
ATOM     16  C   UNL A   1      37.484  23.136  25.868  1.00  0.00     0.248 C 
ATOM     17  O   UNL A   1      38.089  22.224  25.307  1.00  0.00    -0.273 OA
BRANCH  16  18
ATOM     18  C   UNL A   1      36.094  23.554  25.429  1.00  0.00     0.112 C 
BRANCH  18  19
ATOM     19  C   UNL A   1      35.136  22.389  25.222  1.00  0.00     0.110 C 
BRANCH  19  20
ATOM     20  C   UNL A   1      34.142  22.252  26.358  1.00  0.00     0.226 C 
ATOM     21  O   UNL A   1      34.415  21.532  27.327  1.00  0.00    -0.275 OA
ATOM     22  N   UNL A   1      32.936  22.879  26.358  1.00  0.00    -0.302 N 
ATOM     23  H   UNL A   1      32.390  22.770  27.169  1.00  0.00     0.172 HD
BRANCH  22  24
ATOM     24  C   UNL A   1      32.394  23.640  25.365  1.00  0.00     0.189 A 
ATOM     25  N   UNL A   1      31.698  23.273  24.322  1.00  0.00    -0.229 NA
ATOM     26  S   UNL A   1      32.620  25.322  25.571  1.00  0.00    -0.105 S 
ATOM     27  C   UNL A   1      31.318  24.391  23.612  1.00  0.00     0.125 A 
ATOM     28  C   UNL A   1      31.688  25.601  24.158  1.00  0.00     0.088 A 
ENDBRANCH  22  24
ENDBRANCH  19  20
ENDBRANCH  18  19
ENDBRANCH  16  18
ENDBRANCH  10  16
ENDBRANCH   3   5
ENDBRANCH   2   3
ENDBRANCH   1   2
BRANCH   1  29
ATOM     29  C   UNL A   1      45.424  22.517  25.279  1.00  0.00     0.275 C 
BRANCH  29  30
ATOM     30  O   UNL A   1      46.205  23.538  25.922  1.00  0.00    -0.458 OA
BRANCH  30  31
ATOM     31  C   UNL A   1      46.669  24.533  25.133  1.00  0.00     0.338 C 
ATOM     32  O   UNL A   1      47.185  24.436  24.029  1.00  0.00    -0.246 OA
BRANCH  31  33
ATOM     33  C   UNL A   1      46.424  25.820  25.801  1.00  0.00     0.060 A 
ATOM     34  C   UNL A   1      45.740  26.820  25.111  1.00  0.00     0.016 A 
ATOM     35  C   UNL A   1      46.953  26.075  27.064  1.00  0.00     0.016 A 
ATOM     36  C   UNL A   1      45.629  28.094  25.657  1.00  0.00     0.010 A 
ATOM     37  C   UNL A   1      46.763  27.334  27.648  1.00  0.00     0.010 A 
ATOM     38  C   UNL A   1      46.113  28.365  26.944  1.00  0.00    -0.014 A 
BRANCH  38  39
ATOM     39  C   UNL A   1      45.946  29.719  27.541  1.00  0.00     0.031 A 
ATOM     40  C   UNL A   1      44.741  30.035  28.388  1.00  0.00     0.074 A 
ATOM     41  C   UNL A   1      46.878  30.672  27.337  1.00  0.00     0.049 A 
ATOM     42  N   UNL A   1      44.319  31.197  28.820  1.00  0.00    -0.248 NA
ATOM     43  C   UNL A   1      43.895  28.902  28.790  1.00  0.00     0.031 C 
ATOM     44  C   UNL A   1      48.130  30.495  26.596  1.00  0.00     0.029 A 
ATOM     45  N   UNL A   1      46.923  31.984  27.745  1.00  0.00    -0.354 N 
ATOM     46  C   UNL A   1      43.130  30.942  29.492  1.00  0.00     0.074 A 
ATOM     47  C   UNL A   1      42.900  29.515  29.418  1.00  0.00     0.031 C 
ATOM     48  C   UNL A   1      48.837  31.633  26.645  1.00  0.00     0.029 A 
ATOM     49  C   UNL A   1      48.051  32.651  27.330  1.00  0.00     0.049 A 
ATOM     50  H   UNL A   1      46.214  32.404  28.283  1.00  0.00     0.167 HD
ATOM     51  C   UNL A   1      42.300  31.821  30.107  1.00  0.00     0.031 A 
ATOM     52  C   UNL A   1      48.400  33.948  27.439  1.00  0.00     0.031 A 
ATOM     53  C   UNL A   1      42.555  33.233  30.216  1.00  0.00     0.049 A 
ATOM     54  C   UNL A   1      47.445  34.912  28.077  1.00  0.00     0.074 A 
ATOM     55  C   UNL A   1      41.774  34.204  30.821  1.00  0.00     0.029 A 
ATOM     56  N   UNL A   1      43.681  33.875  29.726  1.00  0.00    -0.354 N 
ATOM     57  N   UNL A   1      46.280  34.670  28.630  1.00  0.00    -0.248 NA
ATOM     58  C   UNL A   1      47.832  36.329  28.075  1.00  0.00     0.031 C 
ATOM     59  C   UNL A   1      42.412  35.440  30.663  1.00  0.00     0.029 A 
ATOM     60  C   UNL A   1      43.609  35.230  29.998  1.00  0.00     0.049 A 
ATOM     61  H   UNL A   1      44.424  33.432  29.254  1.00  0.00     0.167 HD
ATOM     62  C   UNL A   1      45.791  35.905  29.034  1.00  0.00     0.074 A 
ATOM     63  C   UNL A   1      46.797  36.890  28.687  1.00  0.00     0.031 C 
ATOM     64  C   UNL A   1      44.610  36.199  29.629  1.00  0.00     0.031 A 
BRANCH  51  65
ATOM     65  C   UNL A   1      41.008  31.286  30.663  1.00  0.00    -0.014 A 
ATOM     66  C   UNL A   1      40.930  30.750  31.960  1.00  0.00     0.010 A 
ATOM     67  C   UNL A   1      39.842  31.358  29.879  1.00  0.00     0.010 A 
ATOM     68  C   UNL A   1      39.714  30.261  32.450  1.00  0.00     0.020 A 
ATOM     69  C   UNL A   1      38.621  30.892  30.372  1.00  0.00     0.020 A 
ATOM     70  C   UNL A   1      38.569  30.329  31.649  1.00  0.00     0.054 A 
BRANCH  70  71
ATOM     71  S   UNL A   1      36.999  29.701  32.308  1.00  0.00     0.124 S 
ATOM     72  O   UNL A   1      36.483  30.869  33.017  1.00  0.00    -0.237 OA
ATOM     73  O   UNL A   1      36.267  29.325  31.101  1.00  0.00    -0.237 OA
ATOM     74  O   UNL A   1      37.402  28.584  33.159  1.00  0.00    -0.744 OA
ENDBRANCH  70  71
ENDBRANCH  51  65
BRANCH  52  75
ATOM     75  C   UNL A   1      49.690  34.412  26.861  1.00  0.00    -0.014 A 
ATOM     76  C   UNL A   1      50.856  34.435  27.643  1.00  0.00     0.010 A 
ATOM     77  C   UNL A   1      49.765  34.785  25.506  1.00  0.00     0.010 A 
ATOM     78  C   UNL A   1      52.078  34.817  27.078  1.00  0.00     0.020 A 
ATOM     79  C   UNL A   1      50.986  35.141  24.931  1.00  0.00     0.020 A 
ATOM     80  C   UNL A   1      52.136  35.160  25.724  1.00  0.00     0.054 A 
BRANCH  80  81
ATOM     81  S   UNL A   1      53.742  35.562  24.981  1.00  0.00     0.124 S 
ATOM     82  O   UNL A   1      53.704  34.793  23.742  1.00  0.00    -0.237 OA
ATOM     83  O   UNL A   1      53.672  37.013  24.828  1.00  0.00    -0.237 OA
ATOM     84  O   UNL A   1      54.702  35.097  25.981  1.00  0.00    -0.744 OA
ENDBRANCH  80  81
ENDBRANCH  52  75
BRANCH  64  85
ATOM     85  C   UNL A   1      44.338  37.643  29.941  1.00  0.00    -0.014 A 
ATOM     86  C   UNL A   1      43.626  38.450  29.037  1.00  0.00     0.010 A 
ATOM     87  C   UNL A   1      44.753  38.184  31.170  1.00  0.00     0.010 A 
ATOM     88  C   UNL A   1      43.349  39.783  29.350  1.00  0.00     0.020 A 
ATOM     89  C   UNL A   1      44.461  39.511  31.495  1.00  0.00     0.020 A 
ATOM     90  C   UNL A   1      43.769  40.305  30.577  1.00  0.00     0.054 A 
BRANCH  90  91
ATOM     91  S   UNL A   1      43.354  42.023  30.984  1.00  0.00     0.124 S 
ATOM     92  O   UNL A   1      44.128  42.766  29.993  1.00  0.00    -0.237 OA
ATOM     93  O   UNL A   1      41.904  42.058  30.803  1.00  0.00    -0.237 OA
ATOM     94  O   UNL A   1      43.805  42.170  32.366  1.00  0.00    -0.744 OA
ENDBRANCH  90  91
ENDBRANCH  64  85
ENDBRANCH  38  39
ENDBRANCH  31  33
ENDBRANCH  30  31
ENDBRANCH  29  30
ENDBRANCH   1  29
TORSDOF 21
ENDMDL
MODEL 2
REMARK VINA RESULT:      -8.0      8.762     13.046
REMARK SMILES CC(C)Cc1s/c(=N/C(=O)CCC(=O)Nc2nccs2)[nH]c1C(=O)OCCOC(=O)c1ccc(-c2c3nc(c(-c4ccc(S(=O)(=O)[O-])cc4)c4ccc([nH]4)c(-c4ccc(S(=O)(=O)[O-])cc4)c4nc(c(-c5ccc(S(=O)(=O)[O-])cc5)c5ccc2[nH]5)C=C4)C=C3)cc1
REMARK SMILES IDX 26 1 25 2 23 3 24 4 22 5 5 6 6 7 7 8 21 9 8 10 4 12 2 13
REMARK SMILES IDX 1 14 3 15 9 16 10 17 11 18 12 19 13 20 14 21 15 22 16 24
REMARK SMILES IDX 17 25 20 26 18 27 19 28 27 29 28 30 29 31 30 32 31 33 32 34
REMARK SMILES IDX 90 35 33 36 89 37 34 38 35 39 36 40 83 41 37 42 88 43 82 44
REMARK SMILES IDX 84 45 38 46 87 47 81 48 80 49 39 51 69 52 50 53 68 54 51 55
REMARK SMILES IDX 54 56 67 57 85 58 52 59 53 60 66 62 86 63 55 64 40 65 41 66
REMARK SMILES IDX 49 67 42 68 48 69 43 70 44 71 45 72 46 73 47 74 70 75 71 76
REMARK SMILES IDX 79 77 72 78 78 79 73 80 74 81 75 82 76 83 77 84 56 85 57 86
REMARK SMILES IDX 65 87 58 88 64 89 59 90 60 91 61 92 62 93 63 94
REMARK H PARENT 21 11 15 23 84 50 54 61
REMARK Flexibility Score: inf
ROOT
ATOM      1  C   UNL A   1      48.409  20.727  36.243  1.00  0.00     0.275 C 
ENDROOT
BRANCH   1   2
ATOM      2  O   UNL A   1      48.149  19.660  37.179  1.00  0.00    -0.457 OA
BRANCH   2   3
ATOM      3  C   UNL A   1      47.635  20.023  38.379  1.00  0.00     0.356 C 
ATOM      4  O   UNL A   1      47.285  21.149  38.702  1.00  0.00    -0.244 OA
BRANCH   3   5
ATOM      5  C   UNL A   1      47.405  18.845  39.257  1.00  0.00     0.140 A 
ATOM      6  C   UNL A   1      48.190  18.406  40.264  1.00  0.00     0.039 A 
ATOM      7  S   UNL A   1      47.462  16.986  41.043  1.00  0.00    -0.101 S 
ATOM      8  C   UNL A   1      46.038  17.074  39.971  1.00  0.00     0.190 A 
ATOM      9  N   UNL A   1      46.230  18.124  39.123  1.00  0.00    -0.325 N 
ATOM     10  N   UNL A   1      45.100  16.212  40.114  1.00  0.00    -0.185 NA
ATOM     11  H   UNL A   1      45.560  18.362  38.443  1.00  0.00     0.169 HD
BRANCH   6  12
ATOM     12  C   UNL A   1      49.462  18.985  40.803  1.00  0.00     0.052 C 
BRANCH  12  13
ATOM     13  C   UNL A   1      50.714  18.262  40.261  1.00  0.00    -0.012 C 
ATOM     14  C   UNL A   1      51.068  18.708  38.838  1.00  0.00     0.008 C 
ATOM     15  C   UNL A   1      51.904  18.504  41.189  1.00  0.00     0.008 C 
ENDBRANCH  12  13
ENDBRANCH   6  12
BRANCH  10  16
ATOM     16  C   UNL A   1      44.061  16.254  39.218  1.00  0.00     0.248 C 
ATOM     17  O   UNL A   1      44.173  16.564  38.033  1.00  0.00    -0.273 OA
BRANCH  16  18
ATOM     18  C   UNL A   1      42.710  15.947  39.833  1.00  0.00     0.112 C 
BRANCH  18  19
ATOM     19  C   UNL A   1      42.787  15.127  41.114  1.00  0.00     0.110 C 
BRANCH  19  20
ATOM     20  C   UNL A   1      42.018  13.824  41.010  1.00  0.00     0.226 C 
ATOM     21  O   UNL A   1      41.413  13.552  39.965  1.00  0.00    -0.275 OA
ATOM     22  N   UNL A   1      41.945  12.932  42.033  1.00  0.00    -0.302 N 
ATOM     23  H   UNL A   1      41.469  12.092  41.842  1.00  0.00     0.172 HD
BRANCH  22  24
ATOM     24  C   UNL A   1      42.452  13.064  43.291  1.00  0.00     0.189 A 
ATOM     25  N   UNL A   1      43.437  12.424  43.863  1.00  0.00    -0.229 NA
ATOM     26  S   UNL A   1      41.712  14.297  44.217  1.00  0.00    -0.105 S 
ATOM     27  C   UNL A   1      43.627  12.922  45.134  1.00  0.00     0.125 A 
ATOM     28  C   UNL A   1      42.813  13.975  45.491  1.00  0.00     0.088 A 
ENDBRANCH  22  24
ENDBRANCH  19  20
ENDBRANCH  18  19
ENDBRANCH  16  18
ENDBRANCH  10  16
ENDBRANCH   3   5
ENDBRANCH   2   3
ENDBRANCH   1   2
BRANCH   1  29
ATOM     29  C   UNL A   1      47.346  20.742  35.147  1.00  0.00     0.275 C 
BRANCH  29  30
ATOM     30  O   UNL A   1      46.528  21.914  35.302  1.00  0.00    -0.458 OA
BRANCH  30  31
ATOM     31  C   UNL A   1      45.275  21.848  34.803  1.00  0.00     0.338 C 
ATOM     32  O   UNL A   1      44.454  20.954  34.951  1.00  0.00    -0.246 OA
BRANCH  31  33
ATOM     33  C   UNL A   1      45.001  23.080  34.048  1.00  0.00     0.060 A 
ATOM     34  C   UNL A   1      45.811  24.195  34.256  1.00  0.00     0.016 A 
ATOM     35  C   UNL A   1      43.889  23.166  33.212  1.00  0.00     0.016 A 
ATOM     36  C   UNL A   1      45.483  25.415  33.673  1.00  0.00     0.010 A 
ATOM     37  C   UNL A   1      43.612  24.373  32.558  1.00  0.00     0.010 A 
ATOM     38  C   UNL A   1      44.396  25.518  32.794  1.00  0.00    -0.014 A 
BRANCH  38  39
ATOM     39  C   UNL A   1      44.082  26.817  32.136  1.00  0.00     0.031 A 
ATOM     40  C   UNL A   1      44.687  27.160  30.800  1.00  0.00     0.074 A 
ATOM     41  C   UNL A   1      43.244  27.693  32.727  1.00  0.00     0.049 A 
ATOM     42  N   UNL A   1      44.697  28.308  30.170  1.00  0.00    -0.248 NA
ATOM     43  C   UNL A   1      45.379  26.077  30.085  1.00  0.00     0.031 C 
ATOM     44  C   UNL A   1      42.530  27.472  33.987  1.00  0.00     0.029 A 
ATOM     45  N   UNL A   1      42.840  28.948  32.338  1.00  0.00    -0.354 N 
ATOM     46  C   UNL A   1      45.446  28.101  29.018  1.00  0.00     0.074 A 
ATOM     47  C   UNL A   1      45.867  26.717  29.031  1.00  0.00     0.031 C 
ATOM     48  C   UNL A   1      41.743  28.528  34.240  1.00  0.00     0.029 A 
ATOM     49  C   UNL A   1      41.969  29.544  33.219  1.00  0.00     0.049 A 
ATOM     50  H   UNL A   1      43.147  29.378  31.507  1.00  0.00     0.167 HD
ATOM     51  C   UNL A   1      45.761  28.990  28.043  1.00  0.00     0.031 A 
ATOM     52  C   UNL A   1      41.445  30.784  33.239  1.00  0.00     0.031 A 
ATOM     53  C   UNL A   1      45.304  30.353  28.013  1.00  0.00     0.049 A 
ATOM     54  C   UNL A   1      41.847  31.766  32.180  1.00  0.00     0.074 A 
ATOM     55  C   UNL A   1      45.570  31.330  27.068  1.00  0.00     0.029 A 
ATOM     56  N   UNL A   1      44.473  30.932  28.961  1.00  0.00    -0.354 N 
ATOM     57  N   UNL A   1      42.629  31.582  31.143  1.00  0.00    -0.248 NA
ATOM     58  C   UNL A   1      41.327  33.134  32.311  1.00  0.00     0.031 C 
ATOM     59  C   UNL A   1      44.929  32.509  27.464  1.00  0.00     0.029 A 
ATOM     60  C   UNL A   1      44.230  32.255  28.632  1.00  0.00     0.049 A 
ATOM     61  H   UNL A   1      44.109  30.469  29.750  1.00  0.00     0.167 HD
ATOM     62  C   UNL A   1      42.702  32.813  30.503  1.00  0.00     0.074 A 
ATOM     63  C   UNL A   1      41.864  33.727  31.253  1.00  0.00     0.031 C 
ATOM     64  C   UNL A   1      43.409  33.156  29.399  1.00  0.00     0.031 A 
BRANCH  51  65
ATOM     65  C   UNL A   1      46.691  28.527  26.954  1.00  0.00    -0.014 A 
ATOM     66  C   UNL A   1      48.072  28.785  27.005  1.00  0.00     0.010 A 
ATOM     67  C   UNL A   1      46.170  27.785  25.877  1.00  0.00     0.010 A 
ATOM     68  C   UNL A   1      48.910  28.340  25.977  1.00  0.00     0.020 A 
ATOM     69  C   UNL A   1      47.008  27.320  24.860  1.00  0.00     0.020 A 
ATOM     70  C   UNL A   1      48.371  27.617  24.908  1.00  0.00     0.054 A 
BRANCH  70  71
ATOM     71  S   UNL A   1      49.478  27.039  23.592  1.00  0.00     0.124 S 
ATOM     72  O   UNL A   1      48.601  26.155  22.828  1.00  0.00    -0.237 OA
ATOM     73  O   UNL A   1      49.860  28.278  22.920  1.00  0.00    -0.237 OA
ATOM     74  O   UNL A   1      50.558  26.371  24.316  1.00  0.00    -0.744 OA
ENDBRANCH  70  71
ENDBRANCH  51  65
BRANCH  52  75
ATOM     75  C   UNL A   1      40.537  31.179  34.349  1.00  0.00    -0.014 A 
ATOM     76  C   UNL A   1      39.158  30.929  34.268  1.00  0.00     0.010 A 
ATOM     77  C   UNL A   1      41.060  31.764  35.518  1.00  0.00     0.010 A 
ATOM     78  C   UNL A   1      38.317  31.249  35.340  1.00  0.00     0.020 A 
ATOM     79  C   UNL A   1      40.229  32.061  36.600  1.00  0.00     0.020 A 
ATOM     80  C   UNL A   1      38.860  31.807  36.502  1.00  0.00     0.054 A 
BRANCH  80  81
ATOM     81  S   UNL A   1      37.774  32.130  37.919  1.00  0.00     0.124 S 
ATOM     82  O   UNL A   1      37.287  30.793  38.239  1.00  0.00    -0.237 OA
ATOM     83  O   UNL A   1      38.685  32.722  38.895  1.00  0.00    -0.237 OA
ATOM     84  O   UNL A   1      36.775  33.050  37.376  1.00  0.00    -0.744 OA
ENDBRANCH  80  81
ENDBRANCH  52  75
BRANCH  64  85
ATOM     85  C   UNL A   1      43.309  34.581  28.936  1.00  0.00    -0.014 A 
ATOM     86  C   UNL A   1      42.189  35.023  28.209  1.00  0.00     0.010 A 
ATOM     87  C   UNL A   1      44.318  35.500  29.274  1.00  0.00     0.010 A 
ATOM     88  C   UNL A   1      42.089  36.358  27.812  1.00  0.00     0.020 A 
ATOM     89  C   UNL A   1      44.212  36.841  28.894  1.00  0.00     0.020 A 
ATOM     90  C   UNL A   1      43.102  37.258  28.156  1.00  0.00     0.054 A 
BRANCH  90  91
ATOM     91  S   UNL A   1      42.927  38.998  27.673  1.00  0.00     0.124 S 
ATOM     92  O   UNL A   1      42.623  39.638  28.950  1.00  0.00    -0.237 OA
ATOM     93  O   UNL A   1      44.239  39.312  27.111  1.00  0.00    -0.237 OA
ATOM     94  O   UNL A   1      41.832  38.980  26.707  1.00  0.00    -0.744 OA
ENDBRANCH  90  91
ENDBRANCH  64  85
ENDBRANCH  38  39
ENDBRANCH  31  33
ENDBRANCH  30  31
ENDBRANCH  29  30
ENDBRANCH   1  29
TORSDOF 21
ENDMDL
MODEL 3
REMARK VINA RESULT:      -7.9      6.544      9.392
REMARK SMILES CC(C)Cc1s/c(=N/C(=O)CCC(=O)Nc2nccs2)[nH]c1C(=O)OCCOC(=O)c1ccc(-c2c3nc(c(-c4ccc(S(=O)(=O)[O-])cc4)c4ccc([nH]4)c(-c4ccc(S(=O)(=O)[O-])cc4)c4nc(c(-c5ccc(S(=O)(=O)[O-])cc5)c5ccc2[nH]5)C=C4)C=C3)cc1
REMARK SMILES IDX 26 1 25 2 23 3 24 4 22 5 5 6 6 7 7 8 21 9 8 10 4 12 2 13
REMARK SMILES IDX 1 14 3 15 9 16 10 17 11 18 12 19 13 20 14 21 15 22 16 24
REMARK SMILES IDX 17 25 20 26 18 27 19 28 27 29 28 30 29 31 30 32 31 33 32 34
REMARK SMILES IDX 90 35 33 36 89 37 34 38 35 39 36 40 83 41 37 42 88 43 82 44
REMARK SMILES IDX 84 45 38 46 87 47 81 48 80 49 39 51 69 52 50 53 68 54 51 55
REMARK SMILES IDX 54 56 67 57 85 58 52 59 53 60 66 62 86 63 55 64 40 65 41 66
REMARK SMILES IDX 49 67 42 68 48 69 43 70 44 71 45 72 46 73 47 74 70 75 71 76
REMARK SMILES IDX 79 77 72 78 78 79 73 80 74 81 75 82 76 83 77 84 56 85 57 86
REMARK SMILES IDX 65 87 58 88 64 89 59 90 60 91 61 92 62 93 63 94
REMARK H PARENT 21 11 15 23 84 50 54 61
REMARK Flexibility Score: inf
ROOT
ATOM      1  C   UNL A   1      43.570  27.232  26.163  1.00  0.00     0.275 C 
ENDROOT
BRANCH   1   2
ATOM      2  O   UNL A   1      44.384  28.377  26.487  1.00  0.00    -0.457 OA
BRANCH   2   3
ATOM      3  C   UNL A   1      45.682  28.324  26.100  1.00  0.00     0.356 C 
ATOM      4  O   UNL A   1      46.291  29.199  25.502  1.00  0.00    -0.244 OA
BRANCH   3   5
ATOM      5  C   UNL A   1      46.357  27.101  26.610  1.00  0.00     0.140 A 
ATOM      6  C   UNL A   1      47.091  26.979  27.737  1.00  0.00     0.039 A 
ATOM      7  S   UNL A   1      47.649  25.305  27.934  1.00  0.00    -0.101 S 
ATOM      8  C   UNL A   1      46.787  24.798  26.456  1.00  0.00     0.190 A 
ATOM      9  N   UNL A   1      46.184  25.904  25.936  1.00  0.00    -0.325 N 
ATOM     10  N   UNL A   1      46.845  23.569  26.095  1.00  0.00    -0.185 NA
ATOM     11  H   UNL A   1      45.644  25.854  25.115  1.00  0.00     0.169 HD
BRANCH   6  12
ATOM     12  C   UNL A   1      47.396  27.998  28.792  1.00  0.00     0.052 C 
BRANCH  12  13
ATOM     13  C   UNL A   1      46.231  28.181  29.788  1.00  0.00    -0.012 C 
ATOM     14  C   UNL A   1      45.683  26.841  30.291  1.00  0.00     0.008 C 
ATOM     15  C   UNL A   1      46.682  29.033  30.974  1.00  0.00     0.008 C 
ENDBRANCH  12  13
ENDBRANCH   6  12
BRANCH  10  16
ATOM     16  C   UNL A   1      46.245  23.230  24.908  1.00  0.00     0.248 C 
ATOM     17  O   UNL A   1      46.728  23.441  23.796  1.00  0.00    -0.273 OA
BRANCH  16  18
ATOM     18  C   UNL A   1      44.867  22.621  25.071  1.00  0.00     0.112 C 
BRANCH  18  19
ATOM     19  C   UNL A   1      44.668  21.327  24.294  1.00  0.00     0.110 C 
BRANCH  19  20
ATOM     20  C   UNL A   1      45.005  20.101  25.120  1.00  0.00     0.226 C 
ATOM     21  O   UNL A   1      46.152  19.636  25.087  1.00  0.00    -0.275 OA
ATOM     22  N   UNL A   1      44.089  19.466  25.898  1.00  0.00    -0.302 N 
ATOM     23  H   UNL A   1      44.425  18.715  26.439  1.00  0.00     0.172 HD
BRANCH  22  24
ATOM     24  C   UNL A   1      42.760  19.746  26.016  1.00  0.00     0.189 A 
ATOM     25  N   UNL A   1      41.726  18.992  25.755  1.00  0.00    -0.229 NA
ATOM     26  S   UNL A   1      42.426  21.295  26.657  1.00  0.00    -0.105 S 
ATOM     27  C   UNL A   1      40.572  19.678  26.067  1.00  0.00     0.125 A 
ATOM     28  C   UNL A   1      40.751  20.931  26.612  1.00  0.00     0.088 A 
ENDBRANCH  22  24
ENDBRANCH  19  20
ENDBRANCH  18  19
ENDBRANCH  16  18
ENDBRANCH  10  16
ENDBRANCH   3   5
ENDBRANCH   2   3
ENDBRANCH   1   2
BRANCH   1  29
ATOM     29  C   UNL A   1      42.630  27.558  25.005  1.00  0.00     0.275 C 
BRANCH  29  30
ATOM     30  O   UNL A   1      41.349  27.940  25.533  1.00  0.00    -0.458 OA
BRANCH  30  31
ATOM     31  C   UNL A   1      40.750  27.059  26.364  1.00  0.00     0.338 C 
ATOM     32  O   UNL A   1      40.394  25.916  26.116  1.00  0.00    -0.246 OA
BRANCH  31  33
ATOM     33  C   UNL A   1      40.608  27.680  27.690  1.00  0.00     0.060 A 
ATOM     34  C   UNL A   1      41.085  28.976  27.884  1.00  0.00     0.016 A 
ATOM     35  C   UNL A   1      40.099  26.951  28.763  1.00  0.00     0.016 A 
ATOM     36  C   UNL A   1      41.104  29.529  29.160  1.00  0.00     0.010 A 
ATOM     37  C   UNL A   1      40.040  27.544  30.031  1.00  0.00     0.010 A 
ATOM     38  C   UNL A   1      40.558  28.834  30.249  1.00  0.00    -0.014 A 
BRANCH  38  39
ATOM     39  C   UNL A   1      40.539  29.455  31.602  1.00  0.00     0.031 A 
ATOM     40  C   UNL A   1      39.424  30.387  31.998  1.00  0.00     0.074 A 
ATOM     41  C   UNL A   1      41.515  29.177  32.491  1.00  0.00     0.049 A 
ATOM     42  N   UNL A   1      39.338  31.174  33.040  1.00  0.00    -0.248 NA
ATOM     43  C   UNL A   1      38.262  30.453  31.098  1.00  0.00     0.031 C 
ATOM     44  C   UNL A   1      42.623  28.242  32.276  1.00  0.00     0.029 A 
ATOM     45  N   UNL A   1      41.727  29.650  33.764  1.00  0.00    -0.354 N 
ATOM     46  C   UNL A   1      38.145  31.870  32.893  1.00  0.00     0.074 A 
ATOM     47  C   UNL A   1      37.536  31.409  31.664  1.00  0.00     0.031 C 
ATOM     48  C   UNL A   1      43.365  28.174  33.391  1.00  0.00     0.029 A 
ATOM     49  C   UNL A   1      42.851  29.131  34.364  1.00  0.00     0.049 A 
ATOM     50  H   UNL A   1      41.132  30.299  34.204  1.00  0.00     0.167 HD
ATOM     51  C   UNL A   1      37.611  32.817  33.704  1.00  0.00     0.031 A 
ATOM     52  C   UNL A   1      43.438  29.421  35.541  1.00  0.00     0.031 A 
ATOM     53  C   UNL A   1      38.199  33.241  34.947  1.00  0.00     0.049 A 
ATOM     54  C   UNL A   1      42.859  30.507  36.398  1.00  0.00     0.074 A 
ATOM     55  C   UNL A   1      37.733  34.193  35.839  1.00  0.00     0.029 A 
ATOM     56  N   UNL A   1      39.371  32.731  35.484  1.00  0.00    -0.354 N 
ATOM     57  N   UNL A   1      41.777  31.221  36.202  1.00  0.00    -0.248 NA
ATOM     58  C   UNL A   1      43.600  30.852  37.620  1.00  0.00     0.031 C 
ATOM     59  C   UNL A   1      38.644  34.284  36.898  1.00  0.00     0.029 A 
ATOM     60  C   UNL A   1      39.653  33.359  36.685  1.00  0.00     0.049 A 
ATOM     61  H   UNL A   1      39.921  32.026  35.073  1.00  0.00     0.167 HD
ATOM     62  C   UNL A   1      41.711  32.107  37.269  1.00  0.00     0.074 A 
ATOM     63  C   UNL A   1      42.847  31.821  38.123  1.00  0.00     0.031 C 
ATOM     64  C   UNL A   1      40.797  33.077  37.514  1.00  0.00     0.031 A 
BRANCH  51  65
ATOM     65  C   UNL A   1      36.351  33.499  33.243  1.00  0.00    -0.014 A 
ATOM     66  C   UNL A   1      35.080  33.031  33.621  1.00  0.00     0.010 A 
ATOM     67  C   UNL A   1      36.449  34.654  32.446  1.00  0.00     0.010 A 
ATOM     68  C   UNL A   1      33.927  33.687  33.177  1.00  0.00     0.020 A 
ATOM     69  C   UNL A   1      35.300  35.325  32.019  1.00  0.00     0.020 A 
ATOM     70  C   UNL A   1      34.045  34.826  32.373  1.00  0.00     0.054 A 
BRANCH  70  71
ATOM     71  S   UNL A   1      32.537  35.669  31.819  1.00  0.00     0.124 S 
ATOM     72  O   UNL A   1      32.499  35.316  30.402  1.00  0.00    -0.237 OA
ATOM     73  O   UNL A   1      31.501  35.057  32.646  1.00  0.00    -0.237 OA
ATOM     74  O   UNL A   1      32.803  37.078  32.103  1.00  0.00    -0.744 OA
ENDBRANCH  70  71
ENDBRANCH  51  65
BRANCH  52  75
ATOM     75  C   UNL A   1      44.686  28.714  35.932  1.00  0.00    -0.014 A 
ATOM     76  C   UNL A   1      44.632  27.542  36.705  1.00  0.00     0.010 A 
ATOM     77  C   UNL A   1      45.936  29.185  35.488  1.00  0.00     0.010 A 
ATOM     78  C   UNL A   1      45.805  26.849  37.021  1.00  0.00     0.020 A 
ATOM     79  C   UNL A   1      47.107  28.482  35.779  1.00  0.00     0.020 A 
ATOM     80  C   UNL A   1      47.034  27.320  36.550  1.00  0.00     0.054 A 
BRANCH  80  81
ATOM     81  S   UNL A   1      48.537  26.360  36.887  1.00  0.00     0.124 S 
ATOM     82  O   UNL A   1      49.445  26.846  35.854  1.00  0.00    -0.237 OA
ATOM     83  O   UNL A   1      48.869  26.752  38.255  1.00  0.00    -0.237 OA
ATOM     84  O   UNL A   1      48.095  24.975  36.736  1.00  0.00    -0.744 OA
ENDBRANCH  80  81
ENDBRANCH  52  75
BRANCH  64  85
ATOM     85  C   UNL A   1      40.988  33.903  38.753  1.00  0.00    -0.014 A 
ATOM     86  C   UNL A   1      40.476  33.471  39.989  1.00  0.00     0.010 A 
ATOM     87  C   UNL A   1      41.730  35.096  38.693  1.00  0.00     0.010 A 
ATOM     88  C   UNL A   1      40.687  34.229  41.143  1.00  0.00     0.020 A 
ATOM     89  C   UNL A   1      41.959  35.847  39.848  1.00  0.00     0.020 A 
ATOM     90  C   UNL A   1      41.427  35.413  41.065  1.00  0.00     0.054 A 
BRANCH  90  91
ATOM     91  S   UNL A   1      41.732  36.356  42.585  1.00  0.00     0.124 S 
ATOM     92  O   UNL A   1      40.766  37.444  42.466  1.00  0.00    -0.237 OA
ATOM     93  O   UNL A   1      41.451  35.378  43.634  1.00  0.00    -0.237 OA
ATOM     94  O   UNL A   1      43.134  36.750  42.471  1.00  0.00    -0.744 OA
ENDBRANCH  90  91
ENDBRANCH  64  85
ENDBRANCH  38  39
ENDBRANCH  31  33
ENDBRANCH  30  31
ENDBRANCH  29  30
ENDBRANCH   1  29
TORSDOF 21
ENDMDL
