MODEL 1
REMARK VINA RESULT:     -10.9      0.000      0.000
REMARK SMILES Cc1c(Cl)cccc1NC(=O)C[C@](C)(C(=O)OCCOC(=O)c1ccc(-c2c3nc(c(-c4ccc(S(=O)(=O)[O-])cc4)c4ccc([nH]4)c(-c4ccc(S(=O)(=O)[O-])cc4)c4nc(c(-c5ccc(S(=O)(=O)[O-])cc5)c5ccc2[nH]5)C=C4)C=C3)cc1)c1ccccc1
REMARK SMILES IDX 18 1 17 2 15 3 16 4 13 5 14 6 12 7 10 8 9 9 11 11 8 12 1 13
REMARK SMILES IDX 2 14 3 15 4 16 5 17 7 18 6 19 83 20 84 21 88 22 85 23 87 24
REMARK SMILES IDX 86 25 19 26 20 27 21 28 22 29 23 30 24 31 82 32 25 33 81 34
REMARK SMILES IDX 26 35 27 36 28 37 75 38 29 39 80 40 74 41 76 42 30 43 79 44
REMARK SMILES IDX 73 45 72 46 31 48 61 49 42 50 60 51 43 52 46 53 59 54 77 55
REMARK SMILES IDX 44 56 45 57 58 59 78 60 47 61 32 62 33 63 41 64 34 65 40 66
REMARK SMILES IDX 35 67 36 68 37 69 38 70 39 71 62 72 63 73 71 74 64 75 70 76
REMARK SMILES IDX 65 77 66 78 67 79 68 80 69 81 48 82 49 83 57 84 50 85 56 86
REMARK SMILES IDX 51 87 52 88 53 89 54 90 55 91
REMARK H PARENT 9 10 76 47 46 58
REMARK Flexibility Score: inf
ROOT
ATOM      1  C   UNL A   1      31.743  28.702  26.788  1.00  0.00     0.274 C 
ENDROOT
BRANCH   1   2
ATOM      2  O   UNL A   1      31.972  27.394  26.219  1.00  0.00    -0.461 OA
BRANCH   2   3
ATOM      3  C   UNL A   1      31.457  27.152  24.978  1.00  0.00     0.316 C 
ATOM      4  O   UNL A   1      30.639  27.900  24.457  1.00  0.00    -0.251 OA
BRANCH   3   5
ATOM      5  C   UNL A   1      31.933  25.787  24.372  1.00  0.00     0.099 C 
ATOM      6  C   UNL A   1      30.916  25.308  23.291  1.00  0.00     0.029 C 
BRANCH   5   7
ATOM      7  C   UNL A   1      33.331  25.946  23.696  1.00  0.00     0.123 C 
BRANCH   7   8
ATOM      8  C   UNL A   1      33.570  25.256  22.367  1.00  0.00     0.225 C 
ATOM      9  N   UNL A   1      33.932  23.953  22.215  1.00  0.00    -0.326 N 
ATOM     10  H   UNL A   1      33.959  23.683  21.268  1.00  0.00     0.169 HD
ATOM     11  O   UNL A   1      33.416  25.898  21.321  1.00  0.00    -0.275 OA
BRANCH   9  12
ATOM     12  C   UNL A   1      34.277  22.896  23.079  1.00  0.00     0.045 A 
ATOM     13  C   UNL A   1      31.945  21.841  22.754  1.00  0.00     0.048 C 
ATOM     14  C   UNL A   1      33.316  21.900  23.386  1.00  0.00    -0.009 A 
ATOM     15  C   UNL A   1      33.630  20.945  24.384  1.00  0.00     0.046 A 
ATOM     16  Cl  UNL A   1      32.487  19.748  24.898  1.00  0.00    -0.084 Cl
ATOM     17  C   UNL A   1      34.866  20.946  25.030  1.00  0.00     0.021 A 
ATOM     18  C   UNL A   1      35.544  22.804  23.659  1.00  0.00     0.026 A 
ATOM     19  C   UNL A   1      35.833  21.859  24.646  1.00  0.00     0.004 A 
ENDBRANCH   9  12
ENDBRANCH   7   8
ENDBRANCH   5   7
BRANCH   5  20
ATOM     20  C   UNL A   1      32.069  24.664  25.461  1.00  0.00    -0.030 A 
ATOM     21  C   UNL A   1      33.282  24.433  26.150  1.00  0.00     0.005 A 
ATOM     22  C   UNL A   1      30.976  23.858  25.833  1.00  0.00     0.005 A 
ATOM     23  C   UNL A   1      33.414  23.407  27.093  1.00  0.00     0.000 A 
ATOM     24  C   UNL A   1      31.109  22.826  26.771  1.00  0.00     0.000 A 
ATOM     25  C   UNL A   1      32.330  22.592  27.393  1.00  0.00     0.000 A 
ENDBRANCH   5  20
ENDBRANCH   3   5
ENDBRANCH   2   3
ENDBRANCH   1   2
BRANCH   1  26
ATOM     26  C   UNL A   1      32.962  29.600  26.568  1.00  0.00     0.275 C 
BRANCH  26  27
ATOM     27  O   UNL A   1      33.868  29.437  27.670  1.00  0.00    -0.458 OA
BRANCH  27  28
ATOM     28  C   UNL A   1      34.565  30.555  27.990  1.00  0.00     0.338 C 
ATOM     29  O   UNL A   1      34.119  31.645  28.282  1.00  0.00    -0.246 OA
BRANCH  28  30
ATOM     30  C   UNL A   1      35.960  30.140  28.220  1.00  0.00     0.060 A 
ATOM     31  C   UNL A   1      36.270  29.674  29.497  1.00  0.00     0.016 A 
ATOM     32  C   UNL A   1      36.928  30.144  27.214  1.00  0.00     0.016 A 
ATOM     33  C   UNL A   1      37.533  29.174  29.774  1.00  0.00     0.010 A 
ATOM     34  C   UNL A   1      38.210  29.666  27.501  1.00  0.00     0.010 A 
ATOM     35  C   UNL A   1      38.511  29.171  28.780  1.00  0.00    -0.014 A 
BRANCH  35  36
ATOM     36  C   UNL A   1      39.880  28.756  29.137  1.00  0.00     0.031 A 
ATOM     37  C   UNL A   1      40.739  29.711  29.904  1.00  0.00     0.074 A 
ATOM     38  C   UNL A   1      40.317  27.515  28.855  1.00  0.00     0.049 A 
ATOM     39  N   UNL A   1      42.001  29.616  30.221  1.00  0.00    -0.248 NA
ATOM     40  C   UNL A   1      40.076  30.931  30.398  1.00  0.00     0.031 C 
ATOM     41  C   UNL A   1      39.511  26.443  28.273  1.00  0.00     0.029 A 
ATOM     42  N   UNL A   1      41.553  26.949  29.036  1.00  0.00    -0.354 N 
ATOM     43  C   UNL A   1      42.293  30.772  30.935  1.00  0.00     0.074 A 
ATOM     44  C   UNL A   1      41.075  31.549  31.007  1.00  0.00     0.031 C 
ATOM     45  C   UNL A   1      40.278  25.348  28.138  1.00  0.00     0.029 A 
ATOM     46  C   UNL A   1      41.642  25.663  28.558  1.00  0.00     0.049 A 
ATOM     47  H   UNL A   1      42.304  27.418  29.466  1.00  0.00     0.167 HD
ATOM     48  C   UNL A   1      43.478  31.154  31.464  1.00  0.00     0.031 A 
ATOM     49  C   UNL A   1      42.717  24.859  28.433  1.00  0.00     0.031 A 
ATOM     50  C   UNL A   1      44.688  30.389  31.340  1.00  0.00     0.049 A 
ATOM     51  C   UNL A   1      44.066  25.387  28.853  1.00  0.00     0.074 A 
ATOM     52  C   UNL A   1      45.963  30.715  31.764  1.00  0.00     0.029 A 
ATOM     53  N   UNL A   1      44.773  29.145  30.730  1.00  0.00    -0.354 N 
ATOM     54  N   UNL A   1      44.361  26.515  29.455  1.00  0.00    -0.248 NA
ATOM     55  C   UNL A   1      45.232  24.545  28.548  1.00  0.00     0.031 C 
ATOM     56  C   UNL A   1      46.829  29.697  31.355  1.00  0.00     0.029 A 
ATOM     57  C   UNL A   1      46.084  28.704  30.735  1.00  0.00     0.049 A 
ATOM     58  H   UNL A   1      44.012  28.649  30.350  1.00  0.00     0.167 HD
ATOM     59  C   UNL A   1      45.742  26.510  29.618  1.00  0.00     0.074 A 
ATOM     60  C   UNL A   1      46.223  25.261  29.064  1.00  0.00     0.031 C 
ATOM     61  C   UNL A   1      46.541  27.455  30.175  1.00  0.00     0.031 A 
BRANCH  48  62
ATOM     62  C   UNL A   1      43.522  32.502  32.126  1.00  0.00    -0.014 A 
ATOM     63  C   UNL A   1      43.291  32.653  33.505  1.00  0.00     0.010 A 
ATOM     64  C   UNL A   1      43.766  33.644  31.342  1.00  0.00     0.010 A 
ATOM     65  C   UNL A   1      43.245  33.929  34.076  1.00  0.00     0.020 A 
ATOM     66  C   UNL A   1      43.749  34.918  31.914  1.00  0.00     0.020 A 
ATOM     67  C   UNL A   1      43.464  35.054  33.274  1.00  0.00     0.054 A 
BRANCH  67  68
ATOM     68  S   UNL A   1      43.371  36.698  34.032  1.00  0.00     0.124 S 
ATOM     69  O   UNL A   1      43.522  37.573  32.871  1.00  0.00    -0.237 OA
ATOM     70  O   UNL A   1      42.046  36.692  34.646  1.00  0.00    -0.237 OA
ATOM     71  O   UNL A   1      44.490  36.712  34.972  1.00  0.00    -0.744 OA
ENDBRANCH  67  68
ENDBRANCH  48  62
BRANCH  49  72
ATOM     72  C   UNL A   1      42.580  23.506  27.825  1.00  0.00    -0.014 A 
ATOM     73  C   UNL A   1      42.268  22.390  28.621  1.00  0.00     0.010 A 
ATOM     74  C   UNL A   1      42.781  23.320  26.444  1.00  0.00     0.010 A 
ATOM     75  C   UNL A   1      42.168  21.116  28.051  1.00  0.00     0.020 A 
ATOM     76  C   UNL A   1      42.654  22.054  25.865  1.00  0.00     0.020 A 
ATOM     77  C   UNL A   1      42.359  20.957  26.675  1.00  0.00     0.054 A 
BRANCH  77  78
ATOM     78  S   UNL A   1      42.184  19.302  25.952  1.00  0.00     0.124 S 
ATOM     79  O   UNL A   1      42.684  18.447  27.024  1.00  0.00    -0.237 OA
ATOM     80  O   UNL A   1      40.748  19.221  25.696  1.00  0.00    -0.237 OA
ATOM     81  O   UNL A   1      43.021  19.360  24.755  1.00  0.00    -0.744 OA
ENDBRANCH  77  78
ENDBRANCH  49  72
BRANCH  61  82
ATOM     82  C   UNL A   1      48.019  27.173  30.238  1.00  0.00    -0.014 A 
ATOM     83  C   UNL A   1      48.905  27.727  29.298  1.00  0.00     0.010 A 
ATOM     84  C   UNL A   1      48.536  26.423  31.311  1.00  0.00     0.010 A 
ATOM     85  C   UNL A   1      50.283  27.530  29.426  1.00  0.00     0.020 A 
ATOM     86  C   UNL A   1      49.914  26.248  31.458  1.00  0.00     0.020 A 
ATOM     87  C   UNL A   1      50.779  26.799  30.511  1.00  0.00     0.054 A 
BRANCH  87  88
ATOM     88  S   UNL A   1      52.576  26.634  30.701  1.00  0.00     0.124 S 
ATOM     89  O   UNL A   1      53.022  26.548  29.313  1.00  0.00    -0.237 OA
ATOM     90  O   UNL A   1      52.938  27.862  31.403  1.00  0.00    -0.237 OA
ATOM     91  O   UNL A   1      52.731  25.409  31.482  1.00  0.00    -0.744 OA
ENDBRANCH  87  88
ENDBRANCH  61  82
ENDBRANCH  35  36
ENDBRANCH  28  30
ENDBRANCH  27  28
ENDBRANCH  26  27
ENDBRANCH   1  26
TORSDOF 18
ENDMDL
MODEL 2
REMARK VINA RESULT:     -10.7      2.885      9.199
REMARK SMILES Cc1c(Cl)cccc1NC(=O)C[C@](C)(C(=O)OCCOC(=O)c1ccc(-c2c3nc(c(-c4ccc(S(=O)(=O)[O-])cc4)c4ccc([nH]4)c(-c4ccc(S(=O)(=O)[O-])cc4)c4nc(c(-c5ccc(S(=O)(=O)[O-])cc5)c5ccc2[nH]5)C=C4)C=C3)cc1)c1ccccc1
REMARK SMILES IDX 18 1 17 2 15 3 16 4 13 5 14 6 12 7 10 8 9 9 11 11 8 12 1 13
REMARK SMILES IDX 2 14 3 15 4 16 5 17 7 18 6 19 83 20 84 21 88 22 85 23 87 24
REMARK SMILES IDX 86 25 19 26 20 27 21 28 22 29 23 30 24 31 82 32 25 33 81 34
REMARK SMILES IDX 26 35 27 36 28 37 75 38 29 39 80 40 74 41 76 42 30 43 79 44
REMARK SMILES IDX 73 45 72 46 31 48 61 49 42 50 60 51 43 52 46 53 59 54 77 55
REMARK SMILES IDX 44 56 45 57 58 59 78 60 47 61 32 62 33 63 41 64 34 65 40 66
REMARK SMILES IDX 35 67 36 68 37 69 38 70 39 71 62 72 63 73 71 74 64 75 70 76
REMARK SMILES IDX 65 77 66 78 67 79 68 80 69 81 48 82 49 83 57 84 50 85 56 86
REMARK SMILES IDX 51 87 52 88 53 89 54 90 55 91
REMARK H PARENT 9 10 76 47 46 58
REMARK Flexibility Score: inf
ROOT
ATOM      1  C   UNL A   1      36.076  21.393  25.071  1.00  0.00     0.274 C 
ENDROOT
BRANCH   1   2
ATOM      2  O   UNL A   1      34.841  22.078  24.767  1.00  0.00    -0.461 OA
BRANCH   2   3
ATOM      3  C   UNL A   1      34.130  22.584  25.816  1.00  0.00     0.316 C 
ATOM      4  O   UNL A   1      34.473  22.407  26.979  1.00  0.00    -0.251 OA
BRANCH   3   5
ATOM      5  C   UNL A   1      32.805  23.294  25.373  1.00  0.00     0.099 C 
ATOM      6  C   UNL A   1      31.778  22.231  24.877  1.00  0.00     0.029 C 
BRANCH   5   7
ATOM      7  C   UNL A   1      32.172  24.067  26.572  1.00  0.00     0.123 C 
BRANCH   7   8
ATOM      8  C   UNL A   1      30.662  24.203  26.623  1.00  0.00     0.225 C 
ATOM      9  N   UNL A   1      29.934  25.121  25.931  1.00  0.00    -0.326 N 
ATOM     10  H   UNL A   1      28.964  24.989  26.044  1.00  0.00     0.169 HD
ATOM     11  O   UNL A   1      30.012  23.422  27.329  1.00  0.00    -0.275 OA
BRANCH   9  12
ATOM     12  C   UNL A   1      30.228  26.214  25.092  1.00  0.00     0.045 A 
ATOM     13  C   UNL A   1      31.481  27.383  27.022  1.00  0.00     0.048 C 
ATOM     14  C   UNL A   1      30.929  27.330  25.617  1.00  0.00    -0.009 A 
ATOM     15  C   UNL A   1      31.065  28.483  24.805  1.00  0.00     0.046 A 
ATOM     16  Cl  UNL A   1      31.819  29.930  25.389  1.00  0.00    -0.084 Cl
ATOM     17  C   UNL A   1      30.564  28.521  23.505  1.00  0.00     0.021 A 
ATOM     18  C   UNL A   1      29.837  26.241  23.752  1.00  0.00     0.026 A 
ATOM     19  C   UNL A   1      29.975  27.389  22.970  1.00  0.00     0.004 A 
ENDBRANCH   9  12
ENDBRANCH   7   8
ENDBRANCH   5   7
BRANCH   5  20
ATOM     20  C   UNL A   1      33.040  24.336  24.222  1.00  0.00    -0.030 A 
ATOM     21  C   UNL A   1      33.750  25.539  24.435  1.00  0.00     0.005 A 
ATOM     22  C   UNL A   1      32.589  24.100  22.909  1.00  0.00     0.005 A 
ATOM     23  C   UNL A   1      33.925  26.485  23.418  1.00  0.00     0.000 A 
ATOM     24  C   UNL A   1      32.759  25.049  21.892  1.00  0.00     0.000 A 
ATOM     25  C   UNL A   1      33.416  26.247  22.149  1.00  0.00     0.000 A 
ENDBRANCH   5  20
ENDBRANCH   3   5
ENDBRANCH   2   3
ENDBRANCH   1   2
BRANCH   1  26
ATOM     26  C   UNL A   1      37.275  22.226  24.613  1.00  0.00     0.275 C 
BRANCH  26  27
ATOM     27  O   UNL A   1      37.641  23.134  25.663  1.00  0.00    -0.458 OA
BRANCH  27  28
ATOM     28  C   UNL A   1      38.848  22.881  26.226  1.00  0.00     0.338 C 
ATOM     29  O   UNL A   1      39.573  21.930  26.019  1.00  0.00    -0.246 OA
BRANCH  28  30
ATOM     30  C   UNL A   1      39.272  24.115  26.909  1.00  0.00     0.060 A 
ATOM     31  C   UNL A   1      40.037  25.011  26.163  1.00  0.00     0.016 A 
ATOM     32  C   UNL A   1      38.890  24.427  28.215  1.00  0.00     0.016 A 
ATOM     33  C   UNL A   1      40.397  26.239  26.695  1.00  0.00     0.010 A 
ATOM     34  C   UNL A   1      39.278  25.654  28.762  1.00  0.00     0.010 A 
ATOM     35  C   UNL A   1      40.024  26.566  27.998  1.00  0.00    -0.014 A 
BRANCH  35  36
ATOM     36  C   UNL A   1      40.531  27.821  28.584  1.00  0.00     0.031 A 
ATOM     37  C   UNL A   1      41.981  27.908  28.941  1.00  0.00     0.074 A 
ATOM     38  C   UNL A   1      39.726  28.891  28.715  1.00  0.00     0.049 A 
ATOM     39  N   UNL A   1      42.621  28.854  29.572  1.00  0.00    -0.248 NA
ATOM     40  C   UNL A   1      42.827  26.783  28.507  1.00  0.00     0.031 C 
ATOM     41  C   UNL A   1      38.347  28.980  28.238  1.00  0.00     0.029 A 
ATOM     42  N   UNL A   1      39.967  30.116  29.283  1.00  0.00    -0.354 N 
ATOM     43  C   UNL A   1      43.943  28.432  29.631  1.00  0.00     0.074 A 
ATOM     44  C   UNL A   1      44.012  27.148  28.968  1.00  0.00     0.031 C 
ATOM     45  C   UNL A   1      37.860  30.196  28.541  1.00  0.00     0.029 A 
ATOM     46  C   UNL A   1      38.868  30.942  29.292  1.00  0.00     0.049 A 
ATOM     47  H   UNL A   1      40.842  30.378  29.650  1.00  0.00     0.167 HD
ATOM     48  C   UNL A   1      44.998  29.055  30.206  1.00  0.00     0.031 A 
ATOM     49  C   UNL A   1      38.691  32.140  29.883  1.00  0.00     0.031 A 
ATOM     50  C   UNL A   1      44.898  30.309  30.901  1.00  0.00     0.049 A 
ATOM     51  C   UNL A   1      39.827  32.724  30.686  1.00  0.00     0.074 A 
ATOM     52  C   UNL A   1      45.881  30.994  31.591  1.00  0.00     0.029 A 
ATOM     53  N   UNL A   1      43.735  31.060  31.007  1.00  0.00    -0.354 N 
ATOM     54  N   UNL A   1      41.058  32.288  30.813  1.00  0.00    -0.248 NA
ATOM     55  C   UNL A   1      39.541  33.947  31.449  1.00  0.00     0.031 C 
ATOM     56  C   UNL A   1      45.297  32.126  32.167  1.00  0.00     0.029 A 
ATOM     57  C   UNL A   1      43.966  32.184  31.780  1.00  0.00     0.049 A 
ATOM     58  H   UNL A   1      42.873  30.826  30.593  1.00  0.00     0.167 HD
ATOM     59  C   UNL A   1      41.698  33.191  31.655  1.00  0.00     0.074 A 
ATOM     60  C   UNL A   1      40.722  34.207  31.995  1.00  0.00     0.031 C 
ATOM     61  C   UNL A   1      42.977  33.182  32.108  1.00  0.00     0.031 A 
BRANCH  48  62
ATOM     62  C   UNL A   1      46.311  28.326  30.184  1.00  0.00    -0.014 A 
ATOM     63  C   UNL A   1      46.661  27.408  31.191  1.00  0.00     0.010 A 
ATOM     64  C   UNL A   1      47.227  28.593  29.151  1.00  0.00     0.010 A 
ATOM     65  C   UNL A   1      47.928  26.816  31.195  1.00  0.00     0.020 A 
ATOM     66  C   UNL A   1      48.483  27.981  29.136  1.00  0.00     0.020 A 
ATOM     67  C   UNL A   1      48.834  27.115  30.173  1.00  0.00     0.054 A 
BRANCH  67  68
ATOM     68  S   UNL A   1      50.480  26.357  30.216  1.00  0.00     0.124 S 
ATOM     69  O   UNL A   1      50.858  26.379  28.805  1.00  0.00    -0.237 OA
ATOM     70  O   UNL A   1      51.228  27.264  31.082  1.00  0.00    -0.237 OA
ATOM     71  O   UNL A   1      50.236  25.028  30.774  1.00  0.00    -0.744 OA
ENDBRANCH  67  68
ENDBRANCH  48  62
BRANCH  49  72
ATOM     72  C   UNL A   1      37.375  32.835  29.804  1.00  0.00    -0.014 A 
ATOM     73  C   UNL A   1      36.429  32.698  30.834  1.00  0.00     0.010 A 
ATOM     74  C   UNL A   1      37.052  33.626  28.685  1.00  0.00     0.010 A 
ATOM     75  C   UNL A   1      35.183  33.328  30.743  1.00  0.00     0.020 A 
ATOM     76  C   UNL A   1      35.820  34.282  28.602  1.00  0.00     0.020 A 
ATOM     77  C   UNL A   1      34.888  34.119  29.628  1.00  0.00     0.054 A 
BRANCH  77  78
ATOM     78  S   UNL A   1      33.282  34.961  29.552  1.00  0.00     0.124 S 
ATOM     79  O   UNL A   1      32.534  34.105  28.636  1.00  0.00    -0.237 OA
ATOM     80  O   UNL A   1      32.846  34.932  30.945  1.00  0.00    -0.237 OA
ATOM     81  O   UNL A   1      33.615  36.288  29.037  1.00  0.00    -0.744 OA
ENDBRANCH  77  78
ENDBRANCH  49  72
BRANCH  61  82
ATOM     82  C   UNL A   1      43.412  34.313  33.002  1.00  0.00    -0.014 A 
ATOM     83  C   UNL A   1      43.979  35.483  32.470  1.00  0.00     0.010 A 
ATOM     84  C   UNL A   1      43.156  34.241  34.384  1.00  0.00     0.010 A 
ATOM     85  C   UNL A   1      44.291  36.559  33.305  1.00  0.00     0.020 A 
ATOM     86  C   UNL A   1      43.440  35.325  35.218  1.00  0.00     0.020 A 
ATOM     87  C   UNL A   1      44.011  36.476  34.673  1.00  0.00     0.054 A 
BRANCH  87  88
ATOM     88  S   UNL A   1      44.344  37.921  35.719  1.00  0.00     0.124 S 
ATOM     89  O   UNL A   1      45.803  37.931  35.768  1.00  0.00    -0.237 OA
ATOM     90  O   UNL A   1      43.733  39.011  34.963  1.00  0.00    -0.237 OA
ATOM     91  O   UNL A   1      43.680  37.597  36.980  1.00  0.00    -0.744 OA
ENDBRANCH  87  88
ENDBRANCH  61  82
ENDBRANCH  35  36
ENDBRANCH  28  30
ENDBRANCH  27  28
ENDBRANCH  26  27
ENDBRANCH   1  26
TORSDOF 18
ENDMDL
MODEL 3
REMARK VINA RESULT:     -10.4      2.326      2.977
REMARK SMILES Cc1c(Cl)cccc1NC(=O)C[C@](C)(C(=O)OCCOC(=O)c1ccc(-c2c3nc(c(-c4ccc(S(=O)(=O)[O-])cc4)c4ccc([nH]4)c(-c4ccc(S(=O)(=O)[O-])cc4)c4nc(c(-c5ccc(S(=O)(=O)[O-])cc5)c5ccc2[nH]5)C=C4)C=C3)cc1)c1ccccc1
REMARK SMILES IDX 18 1 17 2 15 3 16 4 13 5 14 6 12 7 10 8 9 9 11 11 8 12 1 13
REMARK SMILES IDX 2 14 3 15 4 16 5 17 7 18 6 19 83 20 84 21 88 22 85 23 87 24
REMARK SMILES IDX 86 25 19 26 20 27 21 28 22 29 23 30 24 31 82 32 25 33 81 34
REMARK SMILES IDX 26 35 27 36 28 37 75 38 29 39 80 40 74 41 76 42 30 43 79 44
REMARK SMILES IDX 73 45 72 46 31 48 61 49 42 50 60 51 43 52 46 53 59 54 77 55
REMARK SMILES IDX 44 56 45 57 58 59 78 60 47 61 32 62 33 63 41 64 34 65 40 66
REMARK SMILES IDX 35 67 36 68 37 69 38 70 39 71 62 72 63 73 71 74 64 75 70 76
REMARK SMILES IDX 65 77 66 78 67 79 68 80 69 81 48 82 49 83 57 84 50 85 56 86
REMARK SMILES IDX 51 87 52 88 53 89 54 90 55 91
REMARK H PARENT 9 10 76 47 46 58
REMARK Flexibility Score: inf
ROOT
ATOM      1  C   UNL A   1      32.988  29.595  27.249  1.00  0.00     0.274 C 
ENDROOT
BRANCH   1   2
ATOM      2  O   UNL A   1      32.618  28.718  26.162  1.00  0.00    -0.461 OA
BRANCH   2   3
ATOM      3  C   UNL A   1      31.898  27.602  26.473  1.00  0.00     0.316 C 
ATOM      4  O   UNL A   1      31.366  27.456  27.567  1.00  0.00    -0.251 OA
BRANCH   3   5
ATOM      5  C   UNL A   1      31.931  26.515  25.344  1.00  0.00     0.099 C 
ATOM      6  C   UNL A   1      30.707  26.704  24.396  1.00  0.00     0.029 C 
BRANCH   5   7
ATOM      7  C   UNL A   1      33.234  26.646  24.497  1.00  0.00     0.123 C 
BRANCH   7   8
ATOM      8  C   UNL A   1      33.198  26.200  23.047  1.00  0.00     0.225 C 
ATOM      9  N   UNL A   1      33.511  24.952  22.603  1.00  0.00    -0.326 N 
ATOM     10  H   UNL A   1      33.347  24.849  21.638  1.00  0.00     0.169 HD
ATOM     11  O   UNL A   1      32.843  27.007  22.179  1.00  0.00    -0.275 OA
BRANCH   9  12
ATOM     12  C   UNL A   1      34.014  23.773  23.187  1.00  0.00     0.045 A 
ATOM     13  C   UNL A   1      31.778  22.569  22.727  1.00  0.00     0.048 C 
ATOM     14  C   UNL A   1      33.176  22.634  23.297  1.00  0.00    -0.009 A 
ATOM     15  C   UNL A   1      33.646  21.520  24.034  1.00  0.00     0.046 A 
ATOM     16  Cl  UNL A   1      32.660  20.120  24.307  1.00  0.00    -0.084 Cl
ATOM     17  C   UNL A   1      34.916  21.511  24.609  1.00  0.00     0.021 A 
ATOM     18  C   UNL A   1      35.319  23.691  23.675  1.00  0.00     0.026 A 
ATOM     19  C   UNL A   1      35.762  22.586  24.405  1.00  0.00     0.004 A 
ENDBRANCH   9  12
ENDBRANCH   7   8
ENDBRANCH   5   7
BRANCH   5  20
ATOM     20  C   UNL A   1      31.895  25.054  25.918  1.00  0.00    -0.030 A 
ATOM     21  C   UNL A   1      30.759  24.223  25.778  1.00  0.00     0.005 A 
ATOM     22  C   UNL A   1      33.009  24.486  26.565  1.00  0.00     0.005 A 
ATOM     23  C   UNL A   1      30.714  22.935  26.324  1.00  0.00     0.000 A 
ATOM     24  C   UNL A   1      32.961  23.199  27.117  1.00  0.00     0.000 A 
ATOM     25  C   UNL A   1      31.810  22.428  27.007  1.00  0.00     0.000 A 
ENDBRANCH   5  20
ENDBRANCH   3   5
ENDBRANCH   2   3
ENDBRANCH   1   2
BRANCH   1  26
ATOM     26  C   UNL A   1      34.447  30.033  27.109  1.00  0.00     0.275 C 
BRANCH  26  27
ATOM     27  O   UNL A   1      35.210  29.466  28.184  1.00  0.00    -0.458 OA
BRANCH  27  28
ATOM     28  C   UNL A   1      36.009  30.352  28.829  1.00  0.00     0.338 C 
ATOM     29  O   UNL A   1      35.675  31.199  29.631  1.00  0.00    -0.246 OA
BRANCH  28  30
ATOM     30  C   UNL A   1      37.399  29.911  28.618  1.00  0.00     0.060 A 
ATOM     31  C   UNL A   1      38.116  29.540  29.756  1.00  0.00     0.016 A 
ATOM     32  C   UNL A   1      37.975  29.800  27.352  1.00  0.00     0.016 A 
ATOM     33  C   UNL A   1      39.396  29.022  29.640  1.00  0.00     0.010 A 
ATOM     34  C   UNL A   1      39.277  29.304  27.237  1.00  0.00     0.010 A 
ATOM     35  C   UNL A   1      39.986  28.905  28.382  1.00  0.00    -0.014 A 
BRANCH  35  36
ATOM     36  C   UNL A   1      41.394  28.474  28.299  1.00  0.00     0.031 A 
ATOM     37  C   UNL A   1      42.466  29.488  28.541  1.00  0.00     0.074 A 
ATOM     38  C   UNL A   1      41.706  27.182  28.094  1.00  0.00     0.049 A 
ATOM     39  N   UNL A   1      43.759  29.373  28.405  1.00  0.00    -0.248 NA
ATOM     40  C   UNL A   1      42.019  30.806  29.024  1.00  0.00     0.031 C 
ATOM     41  C   UNL A   1      40.748  26.079  28.023  1.00  0.00     0.029 A 
ATOM     42  N   UNL A   1      42.926  26.581  27.921  1.00  0.00    -0.354 N 
ATOM     43  C   UNL A   1      44.282  30.609  28.765  1.00  0.00     0.074 A 
ATOM     44  C   UNL A   1      43.167  31.456  29.129  1.00  0.00     0.031 C 
ATOM     45  C   UNL A   1      41.421  24.933  27.813  1.00  0.00     0.029 A 
ATOM     46  C   UNL A   1      42.843  25.233  27.667  1.00  0.00     0.049 A 
ATOM     47  H   UNL A   1      43.780  27.069  27.974  1.00  0.00     0.167 HD
ATOM     48  C   UNL A   1      45.577  31.002  28.770  1.00  0.00     0.031 A 
ATOM     49  C   UNL A   1      43.806  24.359  27.309  1.00  0.00     0.031 A 
ATOM     50  C   UNL A   1      46.666  30.159  28.359  1.00  0.00     0.049 A 
ATOM     51  C   UNL A   1      45.214  24.869  27.132  1.00  0.00     0.074 A 
ATOM     52  C   UNL A   1      48.007  30.475  28.246  1.00  0.00     0.029 A 
ATOM     53  N   UNL A   1      46.532  28.831  27.977  1.00  0.00    -0.354 N 
ATOM     54  N   UNL A   1      45.701  26.060  27.392  1.00  0.00    -0.248 NA
ATOM     55  C   UNL A   1      46.198  23.925  26.583  1.00  0.00     0.031 C 
ATOM     56  C   UNL A   1      48.674  29.356  27.736  1.00  0.00     0.029 A 
ATOM     57  C   UNL A   1      47.760  28.322  27.595  1.00  0.00     0.049 A 
ATOM     58  H   UNL A   1      45.687  28.326  27.979  1.00  0.00     0.167 HD
ATOM     59  C   UNL A   1      47.049  26.002  27.057  1.00  0.00     0.074 A 
ATOM     60  C   UNL A   1      47.305  24.655  26.588  1.00  0.00     0.031 C 
ATOM     61  C   UNL A   1      47.991  26.976  27.129  1.00  0.00     0.031 A 
BRANCH  48  62
ATOM     62  C   UNL A   1      45.849  32.433  29.137  1.00  0.00    -0.014 A 
ATOM     63  C   UNL A   1      46.069  32.823  30.470  1.00  0.00     0.010 A 
ATOM     64  C   UNL A   1      45.851  33.412  28.127  1.00  0.00     0.010 A 
ATOM     65  C   UNL A   1      46.227  34.175  30.792  1.00  0.00     0.020 A 
ATOM     66  C   UNL A   1      46.036  34.760  28.441  1.00  0.00     0.020 A 
ATOM     67  C   UNL A   1      46.199  35.135  29.776  1.00  0.00     0.054 A 
BRANCH  67  68
ATOM     68  S   UNL A   1      46.376  36.883  30.222  1.00  0.00     0.124 S 
ATOM     69  O   UNL A   1      47.748  37.162  29.804  1.00  0.00    -0.237 OA
ATOM     70  O   UNL A   1      45.334  37.524  29.426  1.00  0.00    -0.237 OA
ATOM     71  O   UNL A   1      46.150  36.898  31.666  1.00  0.00    -0.744 OA
ENDBRANCH  67  68
ENDBRANCH  48  62
BRANCH  49  72
ATOM     72  C   UNL A   1      43.466  22.937  27.026  1.00  0.00    -0.014 A 
ATOM     73  C   UNL A   1      43.756  22.365  25.775  1.00  0.00     0.010 A 
ATOM     74  C   UNL A   1      42.832  22.146  28.003  1.00  0.00     0.010 A 
ATOM     75  C   UNL A   1      43.410  21.037  25.502  1.00  0.00     0.020 A 
ATOM     76  C   UNL A   1      42.510  20.810  27.746  1.00  0.00     0.020 A 
ATOM     77  C   UNL A   1      42.792  20.267  26.492  1.00  0.00     0.054 A 
BRANCH  77  78
ATOM     78  S   UNL A   1      42.390  18.535  26.130  1.00  0.00     0.124 S 
ATOM     79  O   UNL A   1      42.658  17.887  27.410  1.00  0.00    -0.237 OA
ATOM     80  O   UNL A   1      40.984  18.612  25.742  1.00  0.00    -0.237 OA
ATOM     81  O   UNL A   1      43.311  18.188  25.048  1.00  0.00    -0.744 OA
ENDBRANCH  77  78
ENDBRANCH  49  72
BRANCH  61  82
ATOM     82  C   UNL A   1      49.396  26.624  26.714  1.00  0.00    -0.014 A 
ATOM     83  C   UNL A   1      50.297  26.045  27.624  1.00  0.00     0.010 A 
ATOM     84  C   UNL A   1      49.783  26.783  25.371  1.00  0.00     0.010 A 
ATOM     85  C   UNL A   1      51.566  25.639  27.198  1.00  0.00     0.020 A 
ATOM     86  C   UNL A   1      51.038  26.353  24.936  1.00  0.00     0.020 A 
ATOM     87  C   UNL A   1      51.924  25.788  25.855  1.00  0.00     0.054 A 
BRANCH  87  88
ATOM     88  S   UNL A   1      53.542  25.171  25.312  1.00  0.00     0.124 S 
ATOM     89  O   UNL A   1      53.268  23.754  25.087  1.00  0.00    -0.237 OA
ATOM     90  O   UNL A   1      53.799  25.961  24.110  1.00  0.00    -0.237 OA
ATOM     91  O   UNL A   1      54.421  25.464  26.442  1.00  0.00    -0.744 OA
ENDBRANCH  87  88
ENDBRANCH  61  82
ENDBRANCH  35  36
ENDBRANCH  28  30
ENDBRANCH  27  28
ENDBRANCH  26  27
ENDBRANCH   1  26
TORSDOF 18
ENDMDL
