MODEL 1
REMARK VINA RESULT:     -12.7      0.000      0.000
REMARK SMILES O=C(OCCOC(=O)[C@@H]1CCCC[C@H]1C(=O)Nc1sc2c(c1C(=O)NC1CCCC1)CCC2)c1ccc(-c2c3nc(c(-c4ccc(S(=O)(=O)[O-])cc4)c4ccc([nH]4)c(-c4ccc(S(=O)(=O)[O-])cc4)c4nc(c(-c5ccc(S(=O)(=O)[O-])cc5)c5ccc2[nH]5)C=C4)C=C3)cc1
REMARK SMILES IDX 5 1 4 2 3 3 2 4 1 5 34 6 35 7 93 8 36 9 92 10 37 11 38 12
REMARK SMILES IDX 39 13 86 14 40 15 91 16 85 17 87 18 41 19 90 20 84 21 83 22
REMARK SMILES IDX 42 24 72 25 53 26 71 27 54 28 57 29 70 30 88 31 55 32 56 33
REMARK SMILES IDX 69 35 89 36 58 37 43 38 44 39 52 40 45 41 51 42 46 43 47 44
REMARK SMILES IDX 48 45 49 46 50 47 73 48 74 49 82 50 75 51 81 52 76 53 77 54
REMARK SMILES IDX 78 55 79 56 80 57 59 58 60 59 68 60 61 61 67 62 62 63 63 64
REMARK SMILES IDX 64 65 65 66 66 67 6 68 7 69 8 70 9 71 10 72 14 73 11 74
REMARK SMILES IDX 13 75 12 76 15 77 16 78 17 79 18 81 19 82 22 83 20 84 21 85
REMARK SMILES IDX 33 86 31 87 32 88 23 89 24 90 25 91 26 93 27 94 30 95 28 96
REMARK SMILES IDX 29 97
REMARK H PARENT 87 23 57 34 17 80 25 92
REMARK Flexibility Score: inf
ROOT
ATOM      1  C   UNL A   1      37.131  23.040  25.300  1.00  0.00     0.274 C 
ENDROOT
BRANCH   1   2
ATOM      2  C   UNL A   1      38.052  21.892  25.742  1.00  0.00     0.275 C 
BRANCH   2   3
ATOM      3  O   UNL A   1      39.452  22.177  25.783  1.00  0.00    -0.458 OA
BRANCH   3   4
ATOM      4  C   UNL A   1      39.995  22.386  26.998  1.00  0.00     0.338 C 
ATOM      5  O   UNL A   1      40.419  21.497  27.706  1.00  0.00    -0.246 OA
BRANCH   4   6
ATOM      6  C   UNL A   1      40.233  23.815  27.298  1.00  0.00     0.060 A 
ATOM      7  C   UNL A   1      39.390  24.885  26.943  1.00  0.00     0.016 A 
ATOM      8  C   UNL A   1      41.314  24.030  28.133  1.00  0.00     0.016 A 
ATOM      9  C   UNL A   1      39.638  26.177  27.417  1.00  0.00     0.010 A 
ATOM     10  C   UNL A   1      41.506  25.292  28.652  1.00  0.00     0.010 A 
ATOM     11  C   UNL A   1      40.705  26.391  28.284  1.00  0.00    -0.014 A 
BRANCH  11  12
ATOM     12  C   UNL A   1      40.941  27.699  28.929  1.00  0.00     0.031 A 
ATOM     13  C   UNL A   1      42.139  28.542  28.502  1.00  0.00     0.074 A 
ATOM     14  C   UNL A   1      39.944  28.230  29.682  1.00  0.00     0.049 A 
ATOM     15  N   UNL A   1      43.037  29.138  29.228  1.00  0.00    -0.248 NA
ATOM     16  C   UNL A   1      42.418  28.742  27.079  1.00  0.00     0.031 C 
ATOM     17  C   UNL A   1      38.624  27.663  30.027  1.00  0.00     0.029 A 
ATOM     18  N   UNL A   1      39.836  29.486  30.178  1.00  0.00    -0.354 N 
ATOM     19  C   UNL A   1      43.833  29.913  28.363  1.00  0.00     0.074 A 
ATOM     20  C   UNL A   1      43.455  29.569  27.035  1.00  0.00     0.031 C 
ATOM     21  C   UNL A   1      37.772  28.651  30.375  1.00  0.00     0.029 A 
ATOM     22  C   UNL A   1      38.542  29.866  30.521  1.00  0.00     0.049 A 
ATOM     23  H   UNL A   1      40.611  30.082  30.287  1.00  0.00     0.167 HD
ATOM     24  C   UNL A   1      44.657  30.914  28.784  1.00  0.00     0.031 A 
ATOM     25  C   UNL A   1      38.127  31.093  30.922  1.00  0.00     0.031 A 
ATOM     26  C   UNL A   1      44.959  30.776  30.177  1.00  0.00     0.049 A 
ATOM     27  C   UNL A   1      39.342  31.792  31.408  1.00  0.00     0.074 A 
ATOM     28  C   UNL A   1      45.547  29.772  30.918  1.00  0.00     0.029 A 
ATOM     29  N   UNL A   1      44.205  31.511  31.060  1.00  0.00    -0.354 N 
ATOM     30  N   UNL A   1      40.042  31.361  32.423  1.00  0.00    -0.248 NA
ATOM     31  C   UNL A   1      40.057  32.637  30.465  1.00  0.00     0.031 C 
ATOM     32  C   UNL A   1      44.663  29.608  32.025  1.00  0.00     0.029 A 
ATOM     33  C   UNL A   1      43.684  30.604  31.949  1.00  0.00     0.049 A 
ATOM     34  H   UNL A   1      44.067  32.486  31.056  1.00  0.00     0.167 HD
ATOM     35  C   UNL A   1      41.365  31.512  32.033  1.00  0.00     0.074 A 
ATOM     36  C   UNL A   1      41.312  32.376  30.849  1.00  0.00     0.031 C 
ATOM     37  C   UNL A   1      42.358  30.708  32.521  1.00  0.00     0.031 A 
BRANCH  24  38
ATOM     38  C   UNL A   1      44.894  32.207  28.034  1.00  0.00    -0.014 A 
ATOM     39  C   UNL A   1      46.227  32.626  27.837  1.00  0.00     0.010 A 
ATOM     40  C   UNL A   1      43.883  33.165  27.808  1.00  0.00     0.010 A 
ATOM     41  C   UNL A   1      46.540  33.963  27.558  1.00  0.00     0.020 A 
ATOM     42  C   UNL A   1      44.185  34.496  27.489  1.00  0.00     0.020 A 
ATOM     43  C   UNL A   1      45.514  34.896  27.415  1.00  0.00     0.054 A 
BRANCH  43  44
ATOM     44  S   UNL A   1      45.945  36.646  27.227  1.00  0.00     0.124 S 
ATOM     45  O   UNL A   1      46.455  36.685  25.859  1.00  0.00    -0.237 OA
ATOM     46  O   UNL A   1      44.661  37.307  27.443  1.00  0.00    -0.237 OA
ATOM     47  O   UNL A   1      46.939  36.868  28.275  1.00  0.00    -0.744 OA
ENDBRANCH  43  44
ENDBRANCH  24  38
BRANCH  25  48
ATOM     48  C   UNL A   1      36.840  31.771  30.631  1.00  0.00    -0.014 A 
ATOM     49  C   UNL A   1      36.254  32.661  31.549  1.00  0.00     0.010 A 
ATOM     50  C   UNL A   1      36.319  31.751  29.318  1.00  0.00     0.010 A 
ATOM     51  C   UNL A   1      35.227  33.539  31.155  1.00  0.00     0.020 A 
ATOM     52  C   UNL A   1      35.296  32.623  28.918  1.00  0.00     0.020 A 
ATOM     53  C   UNL A   1      34.770  33.531  29.834  1.00  0.00     0.054 A 
BRANCH  53  54
ATOM     54  S   UNL A   1      33.574  34.793  29.293  1.00  0.00     0.124 S 
ATOM     55  O   UNL A   1      34.437  35.801  28.681  1.00  0.00    -0.237 OA
ATOM     56  O   UNL A   1      32.722  34.051  28.370  1.00  0.00    -0.237 OA
ATOM     57  O   UNL A   1      32.922  35.208  30.534  1.00  0.00    -0.744 OA
ENDBRANCH  53  54
ENDBRANCH  25  48
BRANCH  37  58
ATOM     58  C   UNL A   1      42.032  29.682  33.589  1.00  0.00    -0.014 A 
ATOM     59  C   UNL A   1      41.549  28.385  33.314  1.00  0.00     0.010 A 
ATOM     60  C   UNL A   1      42.446  29.966  34.900  1.00  0.00     0.010 A 
ATOM     61  C   UNL A   1      41.468  27.412  34.325  1.00  0.00     0.020 A 
ATOM     62  C   UNL A   1      42.387  28.999  35.906  1.00  0.00     0.020 A 
ATOM     63  C   UNL A   1      41.889  27.728  35.618  1.00  0.00     0.054 A 
BRANCH  63  64
ATOM     64  S   UNL A   1      41.824  26.464  36.919  1.00  0.00     0.124 S 
ATOM     65  O   UNL A   1      41.938  25.222  36.161  1.00  0.00    -0.237 OA
ATOM     66  O   UNL A   1      42.972  26.798  37.760  1.00  0.00    -0.237 OA
ATOM     67  O   UNL A   1      40.523  26.684  37.552  1.00  0.00    -0.744 OA
ENDBRANCH  63  64
ENDBRANCH  37  58
ENDBRANCH  11  12
ENDBRANCH   4   6
ENDBRANCH   3   4
ENDBRANCH   2   3
ENDBRANCH   1   2
BRANCH   1  68
ATOM     68  O   UNL A   1      35.760  22.636  25.030  1.00  0.00    -0.462 OA
BRANCH  68  69
ATOM     69  C   UNL A   1      35.269  23.017  23.811  1.00  0.00     0.309 C 
ATOM     70  O   UNL A   1      35.976  23.291  22.842  1.00  0.00    -0.252 OA
BRANCH  69  71
ATOM     71  C   UNL A   1      33.794  23.399  23.816  1.00  0.00     0.111 C 
ATOM     72  C   UNL A   1      33.050  22.048  23.873  1.00  0.00     0.016 C 
ATOM     73  C   UNL A   1      33.200  24.380  22.796  1.00  0.00     0.093 C 
ATOM     74  C   UNL A   1      31.554  22.219  24.067  1.00  0.00     0.001 C 
ATOM     75  C   UNL A   1      31.651  24.429  22.940  1.00  0.00     0.014 C 
ATOM     76  C   UNL A   1      30.992  23.057  22.936  1.00  0.00     0.001 C 
BRANCH  73  77
ATOM     77  C   UNL A   1      33.674  25.847  22.799  1.00  0.00     0.228 C 
ATOM     78  O   UNL A   1      34.112  26.362  21.770  1.00  0.00    -0.274 OA
ATOM     79  N   UNL A   1      33.507  26.739  23.804  1.00  0.00    -0.317 N 
ATOM     80  H   UNL A   1      34.222  26.971  24.439  1.00  0.00     0.170 HD
BRANCH  79  81
ATOM     81  C   UNL A   1      32.244  27.294  23.859  1.00  0.00     0.108 A 
ATOM     82  S   UNL A   1      31.942  28.571  22.773  1.00  0.00    -0.122 S 
ATOM     83  C   UNL A   1      31.210  26.999  24.734  1.00  0.00     0.078 A 
ATOM     84  C   UNL A   1      30.318  28.385  23.080  1.00  0.00     0.011 A 
ATOM     85  C   UNL A   1      30.017  27.435  24.036  1.00  0.00    -0.019 A 
ATOM     86  C   UNL A   1      29.167  29.088  22.468  1.00  0.00     0.047 C 
ATOM     87  C   UNL A   1      28.527  27.312  24.068  1.00  0.00     0.038 C 
ATOM     88  C   UNL A   1      28.015  28.149  22.862  1.00  0.00     0.010 C 
BRANCH  83  89
ATOM     89  C   UNL A   1      31.678  26.388  25.997  1.00  0.00     0.254 C 
ATOM     90  O   UNL A   1      31.739  25.155  26.081  1.00  0.00    -0.269 OA
ATOM     91  N   UNL A   1      31.919  27.004  27.190  1.00  0.00    -0.349 N 
ATOM     92  H   UNL A   1      31.640  26.456  27.959  1.00  0.00     0.164 HD
BRANCH  91  93
ATOM     93  C   UNL A   1      32.485  28.265  27.589  1.00  0.00     0.082 C 
ATOM     94  C   UNL A   1      33.887  28.417  26.994  1.00  0.00     0.025 C 
ATOM     95  C   UNL A   1      31.735  29.443  27.036  1.00  0.00     0.025 C 
ATOM     96  C   UNL A   1      34.071  29.907  26.752  1.00  0.00     0.002 C 
ATOM     97  C   UNL A   1      32.695  30.444  26.448  1.00  0.00     0.002 C 
ENDBRANCH  91  93
ENDBRANCH  83  89
ENDBRANCH  79  81
ENDBRANCH  73  77
ENDBRANCH  69  71
ENDBRANCH  68  69
ENDBRANCH   1  68
TORSDOF 18
ENDMDL
MODEL 2
REMARK VINA RESULT:     -12.4      1.620      2.363
REMARK SMILES O=C(OCCOC(=O)[C@@H]1CCCC[C@H]1C(=O)Nc1sc2c(c1C(=O)NC1CCCC1)CCC2)c1ccc(-c2c3nc(c(-c4ccc(S(=O)(=O)[O-])cc4)c4ccc([nH]4)c(-c4ccc(S(=O)(=O)[O-])cc4)c4nc(c(-c5ccc(S(=O)(=O)[O-])cc5)c5ccc2[nH]5)C=C4)C=C3)cc1
REMARK SMILES IDX 5 1 4 2 3 3 2 4 1 5 34 6 35 7 93 8 36 9 92 10 37 11 38 12
REMARK SMILES IDX 39 13 86 14 40 15 91 16 85 17 87 18 41 19 90 20 84 21 83 22
REMARK SMILES IDX 42 24 72 25 53 26 71 27 54 28 57 29 70 30 88 31 55 32 56 33
REMARK SMILES IDX 69 35 89 36 58 37 43 38 44 39 52 40 45 41 51 42 46 43 47 44
REMARK SMILES IDX 48 45 49 46 50 47 73 48 74 49 82 50 75 51 81 52 76 53 77 54
REMARK SMILES IDX 78 55 79 56 80 57 59 58 60 59 68 60 61 61 67 62 62 63 63 64
REMARK SMILES IDX 64 65 65 66 66 67 6 68 7 69 8 70 9 71 10 72 14 73 11 74
REMARK SMILES IDX 13 75 12 76 15 77 16 78 17 79 18 81 19 82 22 83 20 84 21 85
REMARK SMILES IDX 33 86 31 87 32 88 23 89 24 90 25 91 26 93 27 94 30 95 28 96
REMARK SMILES IDX 29 97
REMARK H PARENT 87 23 57 34 17 80 25 92
REMARK Flexibility Score: inf
ROOT
ATOM      1  C   UNL A   1      38.276  21.713  25.761  1.00  0.00     0.274 C 
ENDROOT
BRANCH   1   2
ATOM      2  C   UNL A   1      39.028  22.787  26.563  1.00  0.00     0.275 C 
BRANCH   2   3
ATOM      3  O   UNL A   1      40.333  22.437  27.030  1.00  0.00    -0.458 OA
BRANCH   3   4
ATOM      4  C   UNL A   1      41.377  23.044  26.433  1.00  0.00     0.338 C 
ATOM      5  O   UNL A   1      42.023  22.541  25.538  1.00  0.00    -0.246 OA
BRANCH   4   6
ATOM      6  C   UNL A   1      41.525  24.466  26.813  1.00  0.00     0.060 A 
ATOM      7  C   UNL A   1      40.918  25.561  26.169  1.00  0.00     0.016 A 
ATOM      8  C   UNL A   1      42.207  24.650  28.002  1.00  0.00     0.016 A 
ATOM      9  C   UNL A   1      41.006  26.846  26.712  1.00  0.00     0.010 A 
ATOM     10  C   UNL A   1      42.224  25.908  28.565  1.00  0.00     0.010 A 
ATOM     11  C   UNL A   1      41.662  27.030  27.926  1.00  0.00    -0.014 A 
BRANCH  11  12
ATOM     12  C   UNL A   1      41.672  28.333  28.622  1.00  0.00     0.031 A 
ATOM     13  C   UNL A   1      42.803  29.321  28.350  1.00  0.00     0.074 A 
ATOM     14  C   UNL A   1      40.545  28.720  29.271  1.00  0.00     0.049 A 
ATOM     15  N   UNL A   1      43.541  29.989  29.183  1.00  0.00    -0.248 NA
ATOM     16  C   UNL A   1      43.207  29.602  26.971  1.00  0.00     0.031 C 
ATOM     17  C   UNL A   1      39.271  27.994  29.456  1.00  0.00     0.029 A 
ATOM     18  N   UNL A   1      40.238  29.936  29.781  1.00  0.00    -0.354 N 
ATOM     19  C   UNL A   1      44.329  30.881  28.430  1.00  0.00     0.074 A 
ATOM     20  C   UNL A   1      44.139  30.543  27.060  1.00  0.00     0.031 C 
ATOM     21  C   UNL A   1      38.277  28.866  29.729  1.00  0.00     0.029 A 
ATOM     22  C   UNL A   1      38.879  30.155  29.988  1.00  0.00     0.049 A 
ATOM     23  H   UNL A   1      40.922  30.613  29.989  1.00  0.00     0.167 HD
ATOM     24  C   UNL A   1      44.980  31.953  28.962  1.00  0.00     0.031 A 
ATOM     25  C   UNL A   1      38.282  31.311  30.368  1.00  0.00     0.031 A 
ATOM     26  C   UNL A   1      45.145  31.801  30.377  1.00  0.00     0.049 A 
ATOM     27  C   UNL A   1      39.348  32.126  31.001  1.00  0.00     0.074 A 
ATOM     28  C   UNL A   1      45.764  30.846  31.156  1.00  0.00     0.029 A 
ATOM     29  N   UNL A   1      44.220  32.414  31.187  1.00  0.00    -0.354 N 
ATOM     30  N   UNL A   1      39.981  31.742  32.077  1.00  0.00    -0.248 NA
ATOM     31  C   UNL A   1      40.057  33.080  30.162  1.00  0.00     0.031 C 
ATOM     32  C   UNL A   1      44.791  30.543  32.154  1.00  0.00     0.029 A 
ATOM     33  C   UNL A   1      43.716  31.423  31.992  1.00  0.00     0.049 A 
ATOM     34  H   UNL A   1      43.970  33.366  31.190  1.00  0.00     0.167 HD
ATOM     35  C   UNL A   1      41.311  32.057  31.840  1.00  0.00     0.074 A 
ATOM     36  C   UNL A   1      41.285  32.951  30.677  1.00  0.00     0.031 C 
ATOM     37  C   UNL A   1      42.334  31.354  32.416  1.00  0.00     0.031 A 
BRANCH  24  38
ATOM     38  C   UNL A   1      45.143  33.290  28.273  1.00  0.00    -0.014 A 
ATOM     39  C   UNL A   1      46.408  33.914  28.322  1.00  0.00     0.010 A 
ATOM     40  C   UNL A   1      44.052  34.091  27.871  1.00  0.00     0.010 A 
ATOM     41  C   UNL A   1      46.554  35.291  28.109  1.00  0.00     0.020 A 
ATOM     42  C   UNL A   1      44.195  35.462  27.617  1.00  0.00     0.020 A 
ATOM     43  C   UNL A   1      45.438  36.061  27.787  1.00  0.00     0.054 A 
BRANCH  43  44
ATOM     44  S   UNL A   1      45.619  37.861  27.687  1.00  0.00     0.124 S 
ATOM     45  O   UNL A   1      44.250  38.314  27.921  1.00  0.00    -0.237 OA
ATOM     46  O   UNL A   1      46.569  38.138  28.761  1.00  0.00    -0.237 OA
ATOM     47  O   UNL A   1      46.130  38.080  26.337  1.00  0.00    -0.744 OA
ENDBRANCH  43  44
ENDBRANCH  24  38
BRANCH  25  48
ATOM     48  C   UNL A   1      36.963  31.847  29.952  1.00  0.00    -0.014 A 
ATOM     49  C   UNL A   1      35.935  32.074  30.884  1.00  0.00     0.010 A 
ATOM     50  C   UNL A   1      36.808  32.401  28.661  1.00  0.00     0.010 A 
ATOM     51  C   UNL A   1      34.821  32.870  30.558  1.00  0.00     0.020 A 
ATOM     52  C   UNL A   1      35.702  33.196  28.329  1.00  0.00     0.020 A 
ATOM     53  C   UNL A   1      34.723  33.448  29.288  1.00  0.00     0.054 A 
BRANCH  53  54
ATOM     54  S   UNL A   1      33.375  34.622  28.941  1.00  0.00     0.124 S 
ATOM     55  O   UNL A   1      32.800  34.840  30.266  1.00  0.00    -0.237 OA
ATOM     56  O   UNL A   1      34.085  35.762  28.369  1.00  0.00    -0.237 OA
ATOM     57  O   UNL A   1      32.518  33.898  28.005  1.00  0.00    -0.744 OA
ENDBRANCH  53  54
ENDBRANCH  25  48
BRANCH  37  58
ATOM     58  C   UNL A   1      42.017  30.261  33.418  1.00  0.00    -0.014 A 
ATOM     59  C   UNL A   1      41.608  28.960  33.060  1.00  0.00     0.010 A 
ATOM     60  C   UNL A   1      42.368  30.496  34.757  1.00  0.00     0.010 A 
ATOM     61  C   UNL A   1      41.536  27.933  34.017  1.00  0.00     0.020 A 
ATOM     62  C   UNL A   1      42.317  29.477  35.711  1.00  0.00     0.020 A 
ATOM     63  C   UNL A   1      41.892  28.201  35.340  1.00  0.00     0.054 A 
BRANCH  63  64
ATOM     64  S   UNL A   1      41.839  26.870  36.573  1.00  0.00     0.124 S 
ATOM     65  O   UNL A   1      43.064  27.094  37.335  1.00  0.00    -0.237 OA
ATOM     66  O   UNL A   1      40.593  27.134  37.290  1.00  0.00    -0.237 OA
ATOM     67  O   UNL A   1      41.829  25.649  35.767  1.00  0.00    -0.744 OA
ENDBRANCH  63  64
ENDBRANCH  37  58
ENDBRANCH  11  12
ENDBRANCH   4   6
ENDBRANCH   3   4
ENDBRANCH   2   3
ENDBRANCH   1   2
BRANCH   1  68
ATOM     68  O   UNL A   1      36.841  21.686  25.998  1.00  0.00    -0.462 OA
BRANCH  68  69
ATOM     69  C   UNL A   1      36.074  21.400  24.902  1.00  0.00     0.309 C 
ATOM     70  O   UNL A   1      36.060  22.080  23.878  1.00  0.00    -0.252 OA
BRANCH  69  71
ATOM     71  C   UNL A   1      34.985  20.363  25.147  1.00  0.00     0.111 C 
ATOM     72  C   UNL A   1      35.451  19.124  24.353  1.00  0.00     0.016 C 
ATOM     73  C   UNL A   1      33.495  20.682  24.961  1.00  0.00     0.093 C 
ATOM     74  C   UNL A   1      34.581  17.908  24.614  1.00  0.00     0.001 C 
ATOM     75  C   UNL A   1      32.648  19.384  25.108  1.00  0.00     0.014 C 
ATOM     76  C   UNL A   1      33.145  18.228  24.253  1.00  0.00     0.001 C 
BRANCH  73  77
ATOM     77  C   UNL A   1      32.831  21.730  25.876  1.00  0.00     0.228 C 
ATOM     78  O   UNL A   1      33.397  22.111  26.901  1.00  0.00    -0.274 OA
ATOM     79  N   UNL A   1      31.717  22.447  25.593  1.00  0.00    -0.317 N 
ATOM     80  H   UNL A   1      30.829  22.221  25.953  1.00  0.00     0.170 HD
BRANCH  79  81
ATOM     81  C   UNL A   1      31.937  23.522  24.756  1.00  0.00     0.108 A 
ATOM     82  S   UNL A   1      32.909  23.218  23.391  1.00  0.00    -0.122 S 
ATOM     83  C   UNL A   1      31.532  24.838  24.918  1.00  0.00     0.078 A 
ATOM     84  C   UNL A   1      32.369  24.653  22.746  1.00  0.00     0.011 A 
ATOM     85  C   UNL A   1      31.536  25.381  23.574  1.00  0.00    -0.019 A 
ATOM     86  C   UNL A   1      32.653  25.244  21.418  1.00  0.00     0.047 C 
ATOM     87  C   UNL A   1      31.048  26.548  22.778  1.00  0.00     0.038 C 
ATOM     88  C   UNL A   1      31.528  26.288  21.322  1.00  0.00     0.010 C 
BRANCH  83  89
ATOM     89  C   UNL A   1      31.265  25.191  26.329  1.00  0.00     0.254 C 
ATOM     90  O   UNL A   1      30.820  24.323  27.092  1.00  0.00    -0.269 OA
ATOM     91  N   UNL A   1      31.293  26.427  26.906  1.00  0.00    -0.349 N 
ATOM     92  H   UNL A   1      30.579  26.546  27.574  1.00  0.00     0.164 HD
BRANCH  91  93
ATOM     93  C   UNL A   1      32.117  27.597  26.768  1.00  0.00     0.082 C 
ATOM     94  C   UNL A   1      33.519  27.192  26.304  1.00  0.00     0.025 C 
ATOM     95  C   UNL A   1      31.641  28.523  25.687  1.00  0.00     0.025 C 
ATOM     96  C   UNL A   1      34.021  28.350  25.456  1.00  0.00     0.002 C 
ATOM     97  C   UNL A   1      32.794  28.949  24.817  1.00  0.00     0.002 C 
ENDBRANCH  91  93
ENDBRANCH  83  89
ENDBRANCH  79  81
ENDBRANCH  73  77
ENDBRANCH  69  71
ENDBRANCH  68  69
ENDBRANCH   1  68
TORSDOF 18
ENDMDL
MODEL 3
REMARK VINA RESULT:     -12.3      4.338      8.429
REMARK SMILES O=C(OCCOC(=O)[C@@H]1CCCC[C@H]1C(=O)Nc1sc2c(c1C(=O)NC1CCCC1)CCC2)c1ccc(-c2c3nc(c(-c4ccc(S(=O)(=O)[O-])cc4)c4ccc([nH]4)c(-c4ccc(S(=O)(=O)[O-])cc4)c4nc(c(-c5ccc(S(=O)(=O)[O-])cc5)c5ccc2[nH]5)C=C4)C=C3)cc1
REMARK SMILES IDX 5 1 4 2 3 3 2 4 1 5 34 6 35 7 93 8 36 9 92 10 37 11 38 12
REMARK SMILES IDX 39 13 86 14 40 15 91 16 85 17 87 18 41 19 90 20 84 21 83 22
REMARK SMILES IDX 42 24 72 25 53 26 71 27 54 28 57 29 70 30 88 31 55 32 56 33
REMARK SMILES IDX 69 35 89 36 58 37 43 38 44 39 52 40 45 41 51 42 46 43 47 44
REMARK SMILES IDX 48 45 49 46 50 47 73 48 74 49 82 50 75 51 81 52 76 53 77 54
REMARK SMILES IDX 78 55 79 56 80 57 59 58 60 59 68 60 61 61 67 62 62 63 63 64
REMARK SMILES IDX 64 65 65 66 66 67 6 68 7 69 8 70 9 71 10 72 14 73 11 74
REMARK SMILES IDX 13 75 12 76 15 77 16 78 17 79 18 81 19 82 22 83 20 84 21 85
REMARK SMILES IDX 33 86 31 87 32 88 23 89 24 90 25 91 26 93 27 94 30 95 28 96
REMARK SMILES IDX 29 97
REMARK H PARENT 87 23 57 34 17 80 25 92
REMARK Flexibility Score: inf
ROOT
ATOM      1  C   UNL A   1      43.553  21.047  25.850  1.00  0.00     0.274 C 
ENDROOT
BRANCH   1   2
ATOM      2  C   UNL A   1      42.019  21.132  25.890  1.00  0.00     0.275 C 
BRANCH   2   3
ATOM      3  O   UNL A   1      41.445  21.768  27.034  1.00  0.00    -0.458 OA
BRANCH   3   4
ATOM      4  C   UNL A   1      40.363  22.543  26.821  1.00  0.00     0.338 C 
ATOM      5  O   UNL A   1      39.261  22.103  26.573  1.00  0.00    -0.246 OA
BRANCH   4   6
ATOM      6  C   UNL A   1      40.592  23.970  27.137  1.00  0.00     0.060 A 
ATOM      7  C   UNL A   1      39.860  25.057  26.625  1.00  0.00     0.016 A 
ATOM      8  C   UNL A   1      41.518  24.169  28.145  1.00  0.00     0.016 A 
ATOM      9  C   UNL A   1      40.064  26.350  27.117  1.00  0.00     0.010 A 
ATOM     10  C   UNL A   1      41.659  25.435  28.671  1.00  0.00     0.010 A 
ATOM     11  C   UNL A   1      40.971  26.550  28.154  1.00  0.00    -0.014 A 
BRANCH  11  12
ATOM     12  C   UNL A   1      41.134  27.863  28.811  1.00  0.00     0.031 A 
ATOM     13  C   UNL A   1      42.312  28.753  28.427  1.00  0.00     0.074 A 
ATOM     14  C   UNL A   1      40.093  28.350  29.533  1.00  0.00     0.049 A 
ATOM     15  N   UNL A   1      43.161  29.380  29.184  1.00  0.00    -0.248 NA
ATOM     16  C   UNL A   1      42.628  28.971  27.014  1.00  0.00     0.031 C 
ATOM     17  C   UNL A   1      38.786  27.730  29.833  1.00  0.00     0.029 A 
ATOM     18  N   UNL A   1      39.920  29.598  30.031  1.00  0.00    -0.354 N 
ATOM     19  C   UNL A   1      43.955  30.191  28.349  1.00  0.00     0.074 A 
ATOM     20  C   UNL A   1      43.633  29.839  27.007  1.00  0.00     0.031 C 
ATOM     21  C   UNL A   1      37.885  28.682  30.157  1.00  0.00     0.029 A 
ATOM     22  C   UNL A   1      38.601  29.926  30.333  1.00  0.00     0.049 A 
ATOM     23  H   UNL A   1      40.667  30.224  30.167  1.00  0.00     0.167 HD
ATOM     24  C   UNL A   1      44.724  31.221  28.800  1.00  0.00     0.031 A 
ATOM     25  C   UNL A   1      38.126  31.134  30.725  1.00  0.00     0.031 A 
ATOM     26  C   UNL A   1      44.986  31.087  30.202  1.00  0.00     0.049 A 
ATOM     27  C   UNL A   1      39.296  31.876  31.253  1.00  0.00     0.074 A 
ATOM     28  C   UNL A   1      45.589  30.103  30.958  1.00  0.00     0.029 A 
ATOM     29  N   UNL A   1      44.176  31.788  31.063  1.00  0.00    -0.354 N 
ATOM     30  N   UNL A   1      39.980  31.468  32.289  1.00  0.00    -0.248 NA
ATOM     31  C   UNL A   1      40.008  32.754  30.337  1.00  0.00     0.031 C 
ATOM     32  C   UNL A   1      44.676  29.899  32.034  1.00  0.00     0.029 A 
ATOM     33  C   UNL A   1      43.662  30.857  31.930  1.00  0.00     0.049 A 
ATOM     34  H   UNL A   1      44.000  32.756  31.058  1.00  0.00     0.167 HD
ATOM     35  C   UNL A   1      41.308  31.672  31.943  1.00  0.00     0.074 A 
ATOM     36  C   UNL A   1      41.259  32.540  30.761  1.00  0.00     0.031 C 
ATOM     37  C   UNL A   1      42.316  30.905  32.459  1.00  0.00     0.031 A 
BRANCH  24  38
ATOM     38  C   UNL A   1      44.934  32.525  28.064  1.00  0.00    -0.014 A 
ATOM     39  C   UNL A   1      46.253  33.013  27.938  1.00  0.00     0.010 A 
ATOM     40  C   UNL A   1      43.889  33.432  27.783  1.00  0.00     0.010 A 
ATOM     41  C   UNL A   1      46.511  34.365  27.676  1.00  0.00     0.020 A 
ATOM     42  C   UNL A   1      44.139  34.777  27.480  1.00  0.00     0.020 A 
ATOM     43  C   UNL A   1      45.448  35.244  27.477  1.00  0.00     0.054 A 
BRANCH  43  44
ATOM     44  S   UNL A   1      45.799  37.015  27.312  1.00  0.00     0.124 S 
ATOM     45  O   UNL A   1      44.455  37.587  27.291  1.00  0.00    -0.237 OA
ATOM     46  O   UNL A   1      46.583  37.289  28.513  1.00  0.00    -0.237 OA
ATOM     47  O   UNL A   1      46.539  37.102  26.056  1.00  0.00    -0.744 OA
ENDBRANCH  43  44
ENDBRANCH  24  38
BRANCH  25  48
ATOM     48  C   UNL A   1      36.824  31.762  30.395  1.00  0.00    -0.014 A 
ATOM     49  C   UNL A   1      36.009  32.331  31.391  1.00  0.00     0.010 A 
ATOM     50  C   UNL A   1      36.505  32.048  29.049  1.00  0.00     0.010 A 
ATOM     51  C   UNL A   1      34.952  33.198  31.057  1.00  0.00     0.020 A 
ATOM     52  C   UNL A   1      35.455  32.913  28.708  1.00  0.00     0.020 A 
ATOM     53  C   UNL A   1      34.697  33.504  29.716  1.00  0.00     0.054 A 
BRANCH  53  54
ATOM     54  S   UNL A   1      33.450  34.767  29.308  1.00  0.00     0.124 S 
ATOM     55  O   UNL A   1      34.262  35.831  28.723  1.00  0.00    -0.237 OA
ATOM     56  O   UNL A   1      32.573  34.062  28.379  1.00  0.00    -0.237 OA
ATOM     57  O   UNL A   1      32.847  35.089  30.600  1.00  0.00    -0.744 OA
ENDBRANCH  53  54
ENDBRANCH  25  48
BRANCH  37  58
ATOM     58  C   UNL A   1      41.995  29.862  33.512  1.00  0.00    -0.014 A 
ATOM     59  C   UNL A   1      41.538  28.561  33.218  1.00  0.00     0.010 A 
ATOM     60  C   UNL A   1      42.390  30.138  34.831  1.00  0.00     0.010 A 
ATOM     61  C   UNL A   1      41.463  27.574  34.216  1.00  0.00     0.020 A 
ATOM     62  C   UNL A   1      42.336  29.159  35.826  1.00  0.00     0.020 A 
ATOM     63  C   UNL A   1      41.863  27.883  35.517  1.00  0.00     0.054 A 
BRANCH  63  64
ATOM     64  S   UNL A   1      41.806  26.604  36.804  1.00  0.00     0.124 S 
ATOM     65  O   UNL A   1      42.979  26.916  37.615  1.00  0.00    -0.237 OA
ATOM     66  O   UNL A   1      40.515  26.840  37.446  1.00  0.00    -0.237 OA
ATOM     67  O   UNL A   1      41.892  25.351  36.052  1.00  0.00    -0.744 OA
ENDBRANCH  63  64
ENDBRANCH  37  58
ENDBRANCH  11  12
ENDBRANCH   4   6
ENDBRANCH   3   4
ENDBRANCH   2   3
ENDBRANCH   1   2
BRANCH   1  68
ATOM     68  O   UNL A   1      44.185  22.041  24.996  1.00  0.00    -0.462 OA
BRANCH  68  69
ATOM     69  C   UNL A   1      45.248  22.698  25.552  1.00  0.00     0.309 C 
ATOM     70  O   UNL A   1      46.225  22.132  26.040  1.00  0.00    -0.252 OA
BRANCH  69  71
ATOM     71  C   UNL A   1      45.001  24.176  25.829  1.00  0.00     0.111 C 
ATOM     72  C   UNL A   1      43.747  24.516  24.996  1.00  0.00     0.016 C 
ATOM     73  C   UNL A   1      46.114  25.226  25.712  1.00  0.00     0.093 C 
ATOM     74  C   UNL A   1      43.228  25.915  25.276  1.00  0.00     0.001 C 
ATOM     75  C   UNL A   1      45.520  26.656  25.875  1.00  0.00     0.014 C 
ATOM     76  C   UNL A   1      44.318  26.925  24.982  1.00  0.00     0.001 C 
BRANCH  73  77
ATOM     77  C   UNL A   1      47.320  25.154  26.670  1.00  0.00     0.228 C 
ATOM     78  O   UNL A   1      48.332  25.820  26.449  1.00  0.00    -0.274 OA
ATOM     79  N   UNL A   1      47.344  24.545  27.879  1.00  0.00    -0.317 N 
ATOM     80  H   UNL A   1      47.742  23.656  28.023  1.00  0.00     0.170 HD
BRANCH  79  81
ATOM     81  C   UNL A   1      46.762  25.280  28.892  1.00  0.00     0.108 A 
ATOM     82  S   UNL A   1      45.062  25.378  28.861  1.00  0.00    -0.122 S 
ATOM     83  C   UNL A   1      47.382  26.013  29.892  1.00  0.00     0.078 A 
ATOM     84  C   UNL A   1      45.112  25.928  30.430  1.00  0.00     0.011 A 
ATOM     85  C   UNL A   1      46.384  26.107  30.938  1.00  0.00    -0.019 A 
ATOM     86  C   UNL A   1      43.990  26.241  31.344  1.00  0.00     0.047 C 
ATOM     87  C   UNL A   1      46.226  26.460  32.382  1.00  0.00     0.038 C 
ATOM     88  C   UNL A   1      44.718  26.252  32.699  1.00  0.00     0.010 C 
BRANCH  83  89
ATOM     89  C   UNL A   1      48.762  26.417  29.541  1.00  0.00     0.254 C 
ATOM     90  O   UNL A   1      49.629  25.545  29.411  1.00  0.00    -0.269 OA
ATOM     91  N   UNL A   1      49.279  27.679  29.485  1.00  0.00    -0.349 N 
ATOM     92  H   UNL A   1      50.204  27.720  29.819  1.00  0.00     0.164 HD
BRANCH  91  93
ATOM     93  C   UNL A   1      48.791  28.961  29.055  1.00  0.00     0.082 C 
ATOM     94  C   UNL A   1      49.828  29.634  28.152  1.00  0.00     0.025 C 
ATOM     95  C   UNL A   1      47.573  28.861  28.182  1.00  0.00     0.025 C 
ATOM     96  C   UNL A   1      49.031  30.470  27.163  1.00  0.00     0.002 C 
ATOM     97  C   UNL A   1      47.728  29.735  26.966  1.00  0.00     0.002 C 
ENDBRANCH  91  93
ENDBRANCH  83  89
ENDBRANCH  79  81
ENDBRANCH  73  77
ENDBRANCH  69  71
ENDBRANCH  68  69
ENDBRANCH   1  68
TORSDOF 18
ENDMDL
