MODEL 1
REMARK VINA RESULT:      -9.2      0.000      0.000
REMARK SMILES Cc1ccc(C)c(OCc2ccc(C(=O)OCCOC(=O)c3ccc(-c4c5nc(c(-c6ccc(S(=O)(=O)[O-])cc6)c6ccc([nH]6)c(-c6ccc(S(=O)(=O)[O-])cc6)c6nc(c(-c7ccc(S(=O)(=O)[O-])cc7)c7ccc4[nH]7)C=C6)C=C5)cc3)cc2)c1C
REMARK SMILES IDX 17 1 16 2 14 3 15 4 13 5 10 6 11 7 83 8 12 9 82 10 9 11 8 12
REMARK SMILES IDX 7 13 1 14 2 15 3 16 84 17 4 18 85 19 5 20 6 21 18 22 19 23
REMARK SMILES IDX 20 24 21 25 22 26 23 27 81 28 24 29 80 30 25 31 26 32 27 33
REMARK SMILES IDX 74 34 28 35 79 36 73 37 75 38 29 39 78 40 72 41 71 42 30 44
REMARK SMILES IDX 60 45 41 46 59 47 42 48 45 49 58 50 76 51 43 52 44 53 57 55
REMARK SMILES IDX 77 56 46 57 31 58 32 59 40 60 33 61 39 62 34 63 35 64 36 65
REMARK SMILES IDX 37 66 38 67 61 68 62 69 70 70 63 71 69 72 64 73 65 74 66 75
REMARK SMILES IDX 67 76 68 77 47 78 48 79 56 80 49 81 55 82 50 83 51 84 52 85
REMARK SMILES IDX 53 86 54 87
REMARK H PARENT 75 43 45 54
REMARK Flexibility Score: inf
ROOT
ATOM      1  C   UNL A   1      33.639  34.607  29.437  1.00  0.00     0.275 C 
ENDROOT
BRANCH   1   2
ATOM      2  O   UNL A   1      33.622  34.120  30.791  1.00  0.00    -0.458 OA
BRANCH   2   3
ATOM      3  C   UNL A   1      34.306  34.888  31.668  1.00  0.00     0.338 C 
ATOM      4  O   UNL A   1      34.101  36.056  31.953  1.00  0.00    -0.246 OA
BRANCH   3   5
ATOM      5  C   UNL A   1      35.399  34.125  32.282  1.00  0.00     0.060 A 
ATOM      6  C   UNL A   1      37.802  33.265  33.434  1.00  0.00    -0.011 A 
ATOM      7  C   UNL A   1      36.733  33.677  34.242  1.00  0.00     0.008 A 
ATOM      8  C   UNL A   1      37.599  33.182  32.042  1.00  0.00     0.008 A 
ATOM      9  C   UNL A   1      35.537  34.113  33.670  1.00  0.00     0.016 A 
ATOM     10  C   UNL A   1      36.408  33.621  31.464  1.00  0.00     0.016 A 
BRANCH   6  11
ATOM     11  C   UNL A   1      39.196  32.979  33.965  1.00  0.00     0.265 C 
BRANCH  11  12
ATOM     12  O   UNL A   1      39.484  31.696  34.510  1.00  0.00    -0.488 OA
BRANCH  12  13
ATOM     13  C   UNL A   1      40.120  30.695  33.825  1.00  0.00     0.125 A 
ATOM     14  C   UNL A   1      38.778  27.432  32.261  1.00  0.00     0.045 C 
ATOM     15  C   UNL A   1      39.693  28.529  32.737  1.00  0.00    -0.044 A 
ATOM     16  C   UNL A   1      41.069  28.380  32.551  1.00  0.00     0.004 A 
ATOM     17  C   UNL A   1      39.211  29.702  33.355  1.00  0.00    -0.006 A 
ATOM     18  C   UNL A   1      41.950  29.383  32.952  1.00  0.00     0.007 A 
ATOM     19  C   UNL A   1      37.729  29.912  33.578  1.00  0.00     0.049 C 
ATOM     20  C   UNL A   1      41.496  30.562  33.572  1.00  0.00    -0.009 A 
ATOM     21  C   UNL A   1      42.540  31.593  33.889  1.00  0.00     0.048 C 
ENDBRANCH  12  13
ENDBRANCH  11  12
ENDBRANCH   6  11
ENDBRANCH   3   5
ENDBRANCH   2   3
ENDBRANCH   1   2
BRANCH   1  22
ATOM     22  C   UNL A   1      34.054  33.502  28.471  1.00  0.00     0.275 C 
BRANCH  22  23
ATOM     23  O   UNL A   1      34.198  32.242  29.155  1.00  0.00    -0.458 OA
BRANCH  23  24
ATOM     24  C   UNL A   1      34.372  31.171  28.348  1.00  0.00     0.338 C 
ATOM     25  O   UNL A   1      33.572  30.701  27.557  1.00  0.00    -0.246 OA
BRANCH  24  26
ATOM     26  C   UNL A   1      35.696  30.571  28.574  1.00  0.00     0.060 A 
ATOM     27  C   UNL A   1      36.126  30.252  29.864  1.00  0.00     0.016 A 
ATOM     28  C   UNL A   1      36.567  30.469  27.489  1.00  0.00     0.016 A 
ATOM     29  C   UNL A   1      37.460  29.887  30.077  1.00  0.00     0.010 A 
ATOM     30  C   UNL A   1      37.878  30.037  27.698  1.00  0.00     0.010 A 
ATOM     31  C   UNL A   1      38.350  29.772  28.996  1.00  0.00    -0.014 A 
BRANCH  31  32
ATOM     32  C   UNL A   1      39.780  29.401  29.183  1.00  0.00     0.031 A 
ATOM     33  C   UNL A   1      40.777  30.446  29.614  1.00  0.00     0.074 A 
ATOM     34  C   UNL A   1      40.212  28.155  28.905  1.00  0.00     0.049 A 
ATOM     35  N   UNL A   1      42.084  30.416  29.559  1.00  0.00    -0.248 NA
ATOM     36  C   UNL A   1      40.228  31.696  30.162  1.00  0.00     0.031 C 
ATOM     37  C   UNL A   1      39.364  27.026  28.522  1.00  0.00     0.029 A 
ATOM     38  N   UNL A   1      41.485  27.638  28.885  1.00  0.00    -0.354 N 
ATOM     39  C   UNL A   1      42.513  31.663  29.996  1.00  0.00     0.074 A 
ATOM     40  C   UNL A   1      41.325  32.421  30.334  1.00  0.00     0.031 C 
ATOM     41  C   UNL A   1      40.136  25.948  28.314  1.00  0.00     0.029 A 
ATOM     42  C   UNL A   1      41.537  26.328  28.473  1.00  0.00     0.049 A 
ATOM     43  H   UNL A   1      42.281  28.156  29.140  1.00  0.00     0.167 HD
ATOM     44  C   UNL A   1      43.778  32.139  30.092  1.00  0.00     0.031 A 
ATOM     45  C   UNL A   1      42.589  25.530  28.204  1.00  0.00     0.031 A 
ATOM     46  C   UNL A   1      44.959  31.373  29.795  1.00  0.00     0.049 A 
ATOM     47  C   UNL A   1      43.984  26.074  28.317  1.00  0.00     0.074 A 
ATOM     48  C   UNL A   1      46.284  31.772  29.857  1.00  0.00     0.029 A 
ATOM     49  N   UNL A   1      44.961  30.044  29.403  1.00  0.00    -0.354 N 
ATOM     50  N   UNL A   1      44.371  27.280  28.655  1.00  0.00    -0.248 NA
ATOM     51  C   UNL A   1      45.085  25.154  27.996  1.00  0.00     0.031 C 
ATOM     52  C   UNL A   1      47.086  30.686  29.486  1.00  0.00     0.029 A 
ATOM     53  C   UNL A   1      46.262  29.605  29.226  1.00  0.00     0.049 A 
ATOM     54  H   UNL A   1      44.155  29.493  29.270  1.00  0.00     0.167 HD
ATOM     55  C   UNL A   1      45.759  27.262  28.596  1.00  0.00     0.074 A 
ATOM     56  C   UNL A   1      46.146  25.923  28.202  1.00  0.00     0.031 C 
ATOM     57  C   UNL A   1      46.632  28.267  28.843  1.00  0.00     0.031 A 
BRANCH  44  58
ATOM     58  C   UNL A   1      43.949  33.579  30.495  1.00  0.00    -0.014 A 
ATOM     59  C   UNL A   1      44.227  33.940  31.823  1.00  0.00     0.010 A 
ATOM     60  C   UNL A   1      43.865  34.583  29.512  1.00  0.00     0.010 A 
ATOM     61  C   UNL A   1      44.382  35.286  32.170  1.00  0.00     0.020 A 
ATOM     62  C   UNL A   1      44.039  35.928  29.851  1.00  0.00     0.020 A 
ATOM     63  C   UNL A   1      44.278  36.272  31.183  1.00  0.00     0.054 A 
BRANCH  63  64
ATOM     64  S   UNL A   1      44.495  38.012  31.650  1.00  0.00     0.124 S 
ATOM     65  O   UNL A   1      43.669  38.103  32.851  1.00  0.00    -0.237 OA
ATOM     66  O   UNL A   1      45.935  38.114  31.869  1.00  0.00    -0.237 OA
ATOM     67  O   UNL A   1      43.992  38.745  30.490  1.00  0.00    -0.744 OA
ENDBRANCH  63  64
ENDBRANCH  44  58
BRANCH  45  68
ATOM     68  C   UNL A   1      42.350  24.133  27.756  1.00  0.00    -0.014 A 
ATOM     69  C   UNL A   1      42.242  23.835  26.387  1.00  0.00     0.010 A 
ATOM     70  C   UNL A   1      42.273  23.089  28.695  1.00  0.00     0.010 A 
ATOM     71  C   UNL A   1      42.065  22.516  25.963  1.00  0.00     0.020 A 
ATOM     72  C   UNL A   1      42.118  21.766  28.274  1.00  0.00     0.020 A 
ATOM     73  C   UNL A   1      42.009  21.488  26.909  1.00  0.00     0.054 A 
BRANCH  73  74
ATOM     74  S   UNL A   1      41.869  19.770  26.342  1.00  0.00     0.124 S 
ATOM     75  O   UNL A   1      40.449  19.672  26.023  1.00  0.00    -0.237 OA
ATOM     76  O   UNL A   1      42.778  19.734  25.199  1.00  0.00    -0.237 OA
ATOM     77  O   UNL A   1      42.310  18.996  27.500  1.00  0.00    -0.744 OA
ENDBRANCH  73  74
ENDBRANCH  45  68
BRANCH  57  78
ATOM     78  C   UNL A   1      48.098  27.953  28.733  1.00  0.00    -0.014 A 
ATOM     79  C   UNL A   1      48.831  27.523  29.854  1.00  0.00     0.010 A 
ATOM     80  C   UNL A   1      48.732  28.030  27.482  1.00  0.00     0.010 A 
ATOM     81  C   UNL A   1      50.182  27.190  29.725  1.00  0.00     0.020 A 
ATOM     82  C   UNL A   1      50.079  27.684  27.348  1.00  0.00     0.020 A 
ATOM     83  C   UNL A   1      50.798  27.275  28.471  1.00  0.00     0.054 A 
BRANCH  83  84
ATOM     84  S   UNL A   1      52.538  26.785  28.312  1.00  0.00     0.124 S 
ATOM     85  O   UNL A   1      53.167  28.032  27.885  1.00  0.00    -0.237 OA
ATOM     86  O   UNL A   1      52.877  26.340  29.662  1.00  0.00    -0.237 OA
ATOM     87  O   UNL A   1      52.505  25.726  27.306  1.00  0.00    -0.744 OA
ENDBRANCH  83  84
ENDBRANCH  57  78
ENDBRANCH  31  32
ENDBRANCH  24  26
ENDBRANCH  23  24
ENDBRANCH  22  23
ENDBRANCH   1  22
TORSDOF 17
ENDMDL
MODEL 2
REMARK VINA RESULT:      -9.1      3.346     11.362
REMARK SMILES Cc1ccc(C)c(OCc2ccc(C(=O)OCCOC(=O)c3ccc(-c4c5nc(c(-c6ccc(S(=O)(=O)[O-])cc6)c6ccc([nH]6)c(-c6ccc(S(=O)(=O)[O-])cc6)c6nc(c(-c7ccc(S(=O)(=O)[O-])cc7)c7ccc4[nH]7)C=C6)C=C5)cc3)cc2)c1C
REMARK SMILES IDX 17 1 16 2 14 3 15 4 13 5 10 6 11 7 83 8 12 9 82 10 9 11 8 12
REMARK SMILES IDX 7 13 1 14 2 15 3 16 84 17 4 18 85 19 5 20 6 21 18 22 19 23
REMARK SMILES IDX 20 24 21 25 22 26 23 27 81 28 24 29 80 30 25 31 26 32 27 33
REMARK SMILES IDX 74 34 28 35 79 36 73 37 75 38 29 39 78 40 72 41 71 42 30 44
REMARK SMILES IDX 60 45 41 46 59 47 42 48 45 49 58 50 76 51 43 52 44 53 57 55
REMARK SMILES IDX 77 56 46 57 31 58 32 59 40 60 33 61 39 62 34 63 35 64 36 65
REMARK SMILES IDX 37 66 38 67 61 68 62 69 70 70 63 71 69 72 64 73 65 74 66 75
REMARK SMILES IDX 67 76 68 77 47 78 48 79 56 80 49 81 55 82 50 83 51 84 52 85
REMARK SMILES IDX 53 86 54 87
REMARK H PARENT 75 43 45 54
REMARK Flexibility Score: inf
ROOT
ATOM      1  C   UNL A   1      41.313  19.937  26.069  1.00  0.00     0.275 C 
ENDROOT
BRANCH   1   2
ATOM      2  O   UNL A   1      42.636  20.246  26.542  1.00  0.00    -0.458 OA
BRANCH   2   3
ATOM      3  C   UNL A   1      43.464  20.743  25.597  1.00  0.00     0.338 C 
ATOM      4  O   UNL A   1      43.872  20.182  24.594  1.00  0.00    -0.246 OA
BRANCH   3   5
ATOM      5  C   UNL A   1      43.857  22.120  25.923  1.00  0.00     0.060 A 
ATOM      6  C   UNL A   1      45.110  24.436  26.873  1.00  0.00    -0.011 A 
ATOM      7  C   UNL A   1      45.414  23.934  25.601  1.00  0.00     0.008 A 
ATOM      8  C   UNL A   1      44.080  23.819  27.610  1.00  0.00     0.008 A 
ATOM      9  C   UNL A   1      44.796  22.776  25.127  1.00  0.00     0.016 A 
ATOM     10  C   UNL A   1      43.462  22.658  27.145  1.00  0.00     0.016 A 
BRANCH   6  11
ATOM     11  C   UNL A   1      45.883  25.560  27.542  1.00  0.00     0.265 C 
BRANCH  11  12
ATOM     12  O   UNL A   1      45.968  26.826  26.897  1.00  0.00    -0.488 OA
BRANCH  12  13
ATOM     13  C   UNL A   1      45.018  27.807  26.999  1.00  0.00     0.125 A 
ATOM     14  C   UNL A   1      44.647  30.745  29.472  1.00  0.00     0.045 C 
ATOM     15  C   UNL A   1      44.395  29.756  28.366  1.00  0.00    -0.044 A 
ATOM     16  C   UNL A   1      43.202  29.848  27.645  1.00  0.00     0.004 A 
ATOM     17  C   UNL A   1      45.319  28.746  28.028  1.00  0.00    -0.006 A 
ATOM     18  C   UNL A   1      42.939  28.970  26.595  1.00  0.00     0.007 A 
ATOM     19  C   UNL A   1      46.626  28.604  28.778  1.00  0.00     0.049 C 
ATOM     20  C   UNL A   1      43.845  27.953  26.238  1.00  0.00    -0.009 A 
ATOM     21  C   UNL A   1      43.475  27.122  25.044  1.00  0.00     0.048 C 
ENDBRANCH  12  13
ENDBRANCH  11  12
ENDBRANCH   6  11
ENDBRANCH   3   5
ENDBRANCH   2   3
ENDBRANCH   1   2
BRANCH   1  22
ATOM     22  C   UNL A   1      40.293  20.919  26.636  1.00  0.00     0.275 C 
BRANCH  22  23
ATOM     23  O   UNL A   1      40.294  22.154  25.894  1.00  0.00    -0.458 OA
BRANCH  23  24
ATOM     24  C   UNL A   1      39.142  22.858  25.956  1.00  0.00     0.338 C 
ATOM     25  O   UNL A   1      38.057  22.548  25.492  1.00  0.00    -0.246 OA
BRANCH  24  26
ATOM     26  C   UNL A   1      39.362  24.138  26.647  1.00  0.00     0.060 A 
ATOM     27  C   UNL A   1      40.176  25.124  26.084  1.00  0.00     0.016 A 
ATOM     28  C   UNL A   1      38.862  24.284  27.941  1.00  0.00     0.016 A 
ATOM     29  C   UNL A   1      40.544  26.236  26.850  1.00  0.00     0.010 A 
ATOM     30  C   UNL A   1      39.175  25.429  28.675  1.00  0.00     0.010 A 
ATOM     31  C   UNL A   1      40.044  26.403  28.152  1.00  0.00    -0.014 A 
BRANCH  31  32
ATOM     32  C   UNL A   1      40.424  27.564  29.004  1.00  0.00     0.031 A 
ATOM     33  C   UNL A   1      41.685  27.511  29.828  1.00  0.00     0.074 A 
ATOM     34  C   UNL A   1      39.618  28.640  29.101  1.00  0.00     0.049 A 
ATOM     35  N   UNL A   1      42.048  28.266  30.833  1.00  0.00    -0.248 NA
ATOM     36  C   UNL A   1      42.654  26.458  29.485  1.00  0.00     0.031 C 
ATOM     37  C   UNL A   1      38.391  28.857  28.335  1.00  0.00     0.029 A 
ATOM     38  N   UNL A   1      39.707  29.748  29.910  1.00  0.00    -0.354 N 
ATOM     39  C   UNL A   1      43.250  27.738  31.290  1.00  0.00     0.074 A 
ATOM     40  C   UNL A   1      43.565  26.611  30.437  1.00  0.00     0.031 C 
ATOM     41  C   UNL A   1      37.847  30.029  28.701  1.00  0.00     0.029 A 
ATOM     42  C   UNL A   1      38.642  30.607  29.780  1.00  0.00     0.049 A 
ATOM     43  H   UNL A   1      40.460  29.910  30.522  1.00  0.00     0.167 HD
ATOM     44  C   UNL A   1      44.012  28.145  32.334  1.00  0.00     0.031 A 
ATOM     45  C   UNL A   1      38.309  31.710  30.480  1.00  0.00     0.031 A 
ATOM     46  C   UNL A   1      43.720  29.289  33.156  1.00  0.00     0.049 A 
ATOM     47  C   UNL A   1      39.167  32.147  31.632  1.00  0.00     0.074 A 
ATOM     48  C   UNL A   1      44.430  29.777  34.241  1.00  0.00     0.029 A 
ATOM     49  N   UNL A   1      42.641  30.140  32.972  1.00  0.00    -0.354 N 
ATOM     50  N   UNL A   1      40.258  31.592  32.102  1.00  0.00    -0.248 NA
ATOM     51  C   UNL A   1      38.739  33.351  32.360  1.00  0.00     0.031 C 
ATOM     52  C   UNL A   1      43.771  30.914  34.722  1.00  0.00     0.029 A 
ATOM     53  C   UNL A   1      42.670  31.152  33.916  1.00  0.00     0.049 A 
ATOM     54  H   UNL A   1      41.956  30.040  32.271  1.00  0.00     0.167 HD
ATOM     55  C   UNL A   1      40.652  32.383  33.175  1.00  0.00     0.074 A 
ATOM     56  C   UNL A   1      39.691  33.462  33.278  1.00  0.00     0.031 C 
ATOM     57  C   UNL A   1      41.713  32.224  34.001  1.00  0.00     0.031 A 
BRANCH  44  58
ATOM     58  C   UNL A   1      45.219  27.315  32.677  1.00  0.00    -0.014 A 
ATOM     59  C   UNL A   1      45.100  26.099  33.369  1.00  0.00     0.010 A 
ATOM     60  C   UNL A   1      46.493  27.749  32.263  1.00  0.00     0.010 A 
ATOM     61  C   UNL A   1      46.238  25.347  33.674  1.00  0.00     0.020 A 
ATOM     62  C   UNL A   1      47.631  26.990  32.548  1.00  0.00     0.020 A 
ATOM     63  C   UNL A   1      47.498  25.802  33.269  1.00  0.00     0.054 A 
BRANCH  63  64
ATOM     64  S   UNL A   1      48.963  24.806  33.663  1.00  0.00     0.124 S 
ATOM     65  O   UNL A   1      49.553  24.609  32.341  1.00  0.00    -0.237 OA
ATOM     66  O   UNL A   1      49.717  25.676  34.563  1.00  0.00    -0.237 OA
ATOM     67  O   UNL A   1      48.407  23.606  34.284  1.00  0.00    -0.744 OA
ENDBRANCH  63  64
ENDBRANCH  44  58
BRANCH  45  68
ATOM     68  C   UNL A   1      37.072  32.453  30.125  1.00  0.00    -0.014 A 
ATOM     69  C   UNL A   1      35.867  32.186  30.796  1.00  0.00     0.010 A 
ATOM     70  C   UNL A   1      37.105  33.462  29.146  1.00  0.00     0.010 A 
ATOM     71  C   UNL A   1      34.715  32.917  30.496  1.00  0.00     0.020 A 
ATOM     72  C   UNL A   1      35.961  34.211  28.859  1.00  0.00     0.020 A 
ATOM     73  C   UNL A   1      34.770  33.929  29.533  1.00  0.00     0.054 A 
BRANCH  73  74
ATOM     74  S   UNL A   1      33.291  34.932  29.217  1.00  0.00     0.124 S 
ATOM     75  O   UNL A   1      32.678  34.990  30.540  1.00  0.00    -0.237 OA
ATOM     76  O   UNL A   1      33.853  36.187  28.725  1.00  0.00    -0.237 OA
ATOM     77  O   UNL A   1      32.563  34.154  28.218  1.00  0.00    -0.744 OA
ENDBRANCH  73  74
ENDBRANCH  45  68
BRANCH  57  78
ATOM     78  C   UNL A   1      41.919  33.261  35.069  1.00  0.00    -0.014 A 
ATOM     79  C   UNL A   1      42.531  34.493  34.773  1.00  0.00     0.010 A 
ATOM     80  C   UNL A   1      41.439  33.024  36.368  1.00  0.00     0.010 A 
ATOM     81  C   UNL A   1      42.673  35.464  35.767  1.00  0.00     0.020 A 
ATOM     82  C   UNL A   1      41.566  34.000  37.360  1.00  0.00     0.020 A 
ATOM     83  C   UNL A   1      42.191  35.210  37.056  1.00  0.00     0.054 A 
BRANCH  83  84
ATOM     84  S   UNL A   1      42.333  36.505  38.319  1.00  0.00     0.124 S 
ATOM     85  O   UNL A   1      42.399  35.723  39.550  1.00  0.00    -0.237 OA
ATOM     86  O   UNL A   1      43.567  37.192  37.945  1.00  0.00    -0.237 OA
ATOM     87  O   UNL A   1      41.114  37.291  38.143  1.00  0.00    -0.744 OA
ENDBRANCH  83  84
ENDBRANCH  57  78
ENDBRANCH  31  32
ENDBRANCH  24  26
ENDBRANCH  23  24
ENDBRANCH  22  23
ENDBRANCH   1  22
TORSDOF 17
ENDMDL
MODEL 3
REMARK VINA RESULT:      -9.0      5.046     12.272
REMARK SMILES Cc1ccc(C)c(OCc2ccc(C(=O)OCCOC(=O)c3ccc(-c4c5nc(c(-c6ccc(S(=O)(=O)[O-])cc6)c6ccc([nH]6)c(-c6ccc(S(=O)(=O)[O-])cc6)c6nc(c(-c7ccc(S(=O)(=O)[O-])cc7)c7ccc4[nH]7)C=C6)C=C5)cc3)cc2)c1C
REMARK SMILES IDX 17 1 16 2 14 3 15 4 13 5 10 6 11 7 83 8 12 9 82 10 9 11 8 12
REMARK SMILES IDX 7 13 1 14 2 15 3 16 84 17 4 18 85 19 5 20 6 21 18 22 19 23
REMARK SMILES IDX 20 24 21 25 22 26 23 27 81 28 24 29 80 30 25 31 26 32 27 33
REMARK SMILES IDX 74 34 28 35 79 36 73 37 75 38 29 39 78 40 72 41 71 42 30 44
REMARK SMILES IDX 60 45 41 46 59 47 42 48 45 49 58 50 76 51 43 52 44 53 57 55
REMARK SMILES IDX 77 56 46 57 31 58 32 59 40 60 33 61 39 62 34 63 35 64 36 65
REMARK SMILES IDX 37 66 38 67 61 68 62 69 70 70 63 71 69 72 64 73 65 74 66 75
REMARK SMILES IDX 67 76 68 77 47 78 48 79 56 80 49 81 55 82 50 83 51 84 52 85
REMARK SMILES IDX 53 86 54 87
REMARK H PARENT 75 43 45 54
REMARK Flexibility Score: inf
ROOT
ATOM      1  C   UNL A   1      38.153  21.981  24.992  1.00  0.00     0.275 C 
ENDROOT
BRANCH   1   2
ATOM      2  O   UNL A   1      36.720  21.926  24.880  1.00  0.00    -0.458 OA
BRANCH   2   3
ATOM      3  C   UNL A   1      36.202  22.739  23.933  1.00  0.00     0.338 C 
ATOM      4  O   UNL A   1      36.656  22.977  22.827  1.00  0.00    -0.246 OA
BRANCH   3   5
ATOM      5  C   UNL A   1      34.956  23.356  24.404  1.00  0.00     0.060 A 
ATOM      6  C   UNL A   1      32.714  24.181  25.863  1.00  0.00    -0.011 A 
ATOM      7  C   UNL A   1      33.887  24.948  25.868  1.00  0.00     0.008 A 
ATOM      8  C   UNL A   1      32.650  23.056  25.018  1.00  0.00     0.008 A 
ATOM      9  C   UNL A   1      35.009  24.535  25.147  1.00  0.00     0.016 A 
ATOM     10  C   UNL A   1      33.769  22.635  24.299  1.00  0.00     0.016 A 
BRANCH   6  11
ATOM     11  C   UNL A   1      31.531  24.447  26.778  1.00  0.00     0.265 C 
BRANCH  11  12
ATOM     12  O   UNL A   1      30.660  25.536  26.492  1.00  0.00    -0.488 OA
BRANCH  12  13
ATOM     13  C   UNL A   1      30.880  26.458  25.504  1.00  0.00     0.125 A 
ATOM     14  C   UNL A   1      32.036  30.136  25.667  1.00  0.00     0.045 C 
ATOM     15  C   UNL A   1      31.550  28.802  25.166  1.00  0.00    -0.044 A 
ATOM     16  C   UNL A   1      31.264  28.661  23.807  1.00  0.00     0.004 A 
ATOM     17  C   UNL A   1      31.382  27.689  26.017  1.00  0.00    -0.006 A 
ATOM     18  C   UNL A   1      30.837  27.436  23.296  1.00  0.00     0.007 A 
ATOM     19  C   UNL A   1      31.679  27.790  27.498  1.00  0.00     0.049 C 
ATOM     20  C   UNL A   1      30.660  26.311  24.124  1.00  0.00    -0.009 A 
ATOM     21  C   UNL A   1      30.266  25.035  23.438  1.00  0.00     0.048 C 
ENDBRANCH  12  13
ENDBRANCH  11  12
ENDBRANCH   6  11
ENDBRANCH   3   5
ENDBRANCH   2   3
ENDBRANCH   1   2
BRANCH   1  22
ATOM     22  C   UNL A   1      38.569  22.517  26.358  1.00  0.00     0.275 C 
BRANCH  22  23
ATOM     23  O   UNL A   1      38.852  23.928  26.297  1.00  0.00    -0.458 OA
BRANCH  23  24
ATOM     24  C   UNL A   1      40.097  24.278  26.693  1.00  0.00     0.338 C 
ATOM     25  O   UNL A   1      41.138  23.681  26.481  1.00  0.00    -0.246 OA
BRANCH  24  26
ATOM     26  C   UNL A   1      40.050  25.511  27.495  1.00  0.00     0.060 A 
ATOM     27  C   UNL A   1      40.870  26.598  27.184  1.00  0.00     0.016 A 
ATOM     28  C   UNL A   1      39.278  25.513  28.658  1.00  0.00     0.016 A 
ATOM     29  C   UNL A   1      40.966  27.668  28.080  1.00  0.00     0.010 A 
ATOM     30  C   UNL A   1      39.326  26.615  29.513  1.00  0.00     0.010 A 
ATOM     31  C   UNL A   1      40.192  27.691  29.252  1.00  0.00    -0.014 A 
BRANCH  31  32
ATOM     32  C   UNL A   1      40.278  28.805  30.237  1.00  0.00     0.031 A 
ATOM     33  C   UNL A   1      41.296  28.750  31.347  1.00  0.00     0.074 A 
ATOM     34  C   UNL A   1      39.408  29.834  30.191  1.00  0.00     0.049 A 
ATOM     35  N   UNL A   1      41.353  29.447  32.453  1.00  0.00    -0.248 NA
ATOM     36  C   UNL A   1      42.382  27.769  31.198  1.00  0.00     0.031 C 
ATOM     37  C   UNL A   1      38.398  30.049  29.155  1.00  0.00     0.029 A 
ATOM     38  N   UNL A   1      39.226  30.885  31.058  1.00  0.00    -0.354 N 
ATOM     39  C   UNL A   1      42.434  28.943  33.165  1.00  0.00     0.074 A 
ATOM     40  C   UNL A   1      43.019  27.894  32.355  1.00  0.00     0.031 C 
ATOM     41  C   UNL A   1      37.709  31.166  29.440  1.00  0.00     0.029 A 
ATOM     42  C   UNL A   1      38.177  31.702  30.715  1.00  0.00     0.049 A 
ATOM     43  H   UNL A   1      39.794  31.036  31.848  1.00  0.00     0.167 HD
ATOM     44  C   UNL A   1      42.888  29.309  34.389  1.00  0.00     0.031 A 
ATOM     45  C   UNL A   1      37.614  32.736  31.371  1.00  0.00     0.031 A 
ATOM     46  C   UNL A   1      42.332  30.377  35.175  1.00  0.00     0.049 A 
ATOM     47  C   UNL A   1      38.132  33.129  32.726  1.00  0.00     0.074 A 
ATOM     48  C   UNL A   1      42.721  30.818  36.430  1.00  0.00     0.029 A 
ATOM     49  N   UNL A   1      41.283  31.190  34.775  1.00  0.00    -0.354 N 
ATOM     50  N   UNL A   1      39.104  32.591  33.421  1.00  0.00    -0.248 NA
ATOM     51  C   UNL A   1      37.464  34.257  33.391  1.00  0.00     0.031 C 
ATOM     52  C   UNL A   1      41.895  31.887  36.795  1.00  0.00     0.029 A 
ATOM     53  C   UNL A   1      41.015  32.132  35.754  1.00  0.00     0.049 A 
ATOM     54  H   UNL A   1      40.799  31.109  33.921  1.00  0.00     0.167 HD
ATOM     55  C   UNL A   1      39.171  33.321  34.602  1.00  0.00     0.074 A 
ATOM     56  C   UNL A   1      38.151  34.345  34.522  1.00  0.00     0.031 C 
ATOM     57  C   UNL A   1      40.003  33.152  35.657  1.00  0.00     0.031 A 
BRANCH  44  58
ATOM     58  C   UNL A   1      44.021  28.512  34.975  1.00  0.00    -0.014 A 
ATOM     59  C   UNL A   1      45.359  28.900  34.797  1.00  0.00     0.010 A 
ATOM     60  C   UNL A   1      43.733  27.373  35.750  1.00  0.00     0.010 A 
ATOM     61  C   UNL A   1      46.394  28.142  35.353  1.00  0.00     0.020 A 
ATOM     62  C   UNL A   1      44.763  26.623  36.325  1.00  0.00     0.020 A 
ATOM     63  C   UNL A   1      46.089  27.002  36.106  1.00  0.00     0.054 A 
BRANCH  63  64
ATOM     64  S   UNL A   1      47.444  26.037  36.831  1.00  0.00     0.124 S 
ATOM     65  O   UNL A   1      48.598  26.890  36.555  1.00  0.00    -0.237 OA
ATOM     66  O   UNL A   1      47.059  25.939  38.237  1.00  0.00    -0.237 OA
ATOM     67  O   UNL A   1      47.406  24.779  36.089  1.00  0.00    -0.744 OA
ENDBRANCH  63  64
ENDBRANCH  44  58
BRANCH  45  68
ATOM     68  C   UNL A   1      36.459  33.447  30.761  1.00  0.00    -0.014 A 
ATOM     69  C   UNL A   1      35.274  33.631  31.491  1.00  0.00     0.010 A 
ATOM     70  C   UNL A   1      36.559  33.980  29.464  1.00  0.00     0.010 A 
ATOM     71  C   UNL A   1      34.205  34.340  30.936  1.00  0.00     0.020 A 
ATOM     72  C   UNL A   1      35.501  34.709  28.913  1.00  0.00     0.020 A 
ATOM     73  C   UNL A   1      34.328  34.879  29.652  1.00  0.00     0.054 A 
BRANCH  73  74
ATOM     74  S   UNL A   1      32.969  35.874  28.977  1.00  0.00     0.124 S 
ATOM     75  O   UNL A   1      32.327  34.932  28.066  1.00  0.00    -0.237 OA
ATOM     76  O   UNL A   1      32.201  36.222  30.170  1.00  0.00    -0.237 OA
ATOM     77  O   UNL A   1      33.656  36.996  28.341  1.00  0.00    -0.744 OA
ENDBRANCH  73  74
ENDBRANCH  45  68
BRANCH  57  78
ATOM     78  C   UNL A   1      39.875  34.118  36.801  1.00  0.00    -0.014 A 
ATOM     79  C   UNL A   1      40.456  35.398  36.735  1.00  0.00     0.010 A 
ATOM     80  C   UNL A   1      39.112  33.765  37.926  1.00  0.00     0.010 A 
ATOM     81  C   UNL A   1      40.288  36.301  37.788  1.00  0.00     0.020 A 
ATOM     82  C   UNL A   1      38.930  34.671  38.973  1.00  0.00     0.020 A 
ATOM     83  C   UNL A   1      39.526  35.931  38.902  1.00  0.00     0.054 A 
BRANCH  83  84
ATOM     84  S   UNL A   1      39.272  37.138  40.233  1.00  0.00     0.124 S 
ATOM     85  O   UNL A   1      40.641  37.415  40.657  1.00  0.00    -0.237 OA
ATOM     86  O   UNL A   1      38.591  38.236  39.551  1.00  0.00    -0.237 OA
ATOM     87  O   UNL A   1      38.452  36.413  41.201  1.00  0.00    -0.744 OA
ENDBRANCH  83  84
ENDBRANCH  57  78
ENDBRANCH  31  32
ENDBRANCH  24  26
ENDBRANCH  23  24
ENDBRANCH  22  23
ENDBRANCH   1  22
TORSDOF 17
ENDMDL
