MODEL 1
REMARK VINA RESULT:     -12.3      0.000      0.000
REMARK SMILES CC(C)C[C@H](C(=O)OCCOC(=O)c1ccc(-c2c3nc(c(-c4ccc(S(=O)(=O)[O-])cc4)c4ccc([nH]4)c(-c4ccc(S(=O)(=O)[O-])cc4)c4nc(c(-c5ccc(S(=O)(=O)[O-])cc5)c5ccc2[nH]5)C=C4)C=C3)cc1)N1C(=O)/C(=C2\C(=O)Nc3ccc(Br)cc32)SC1=S
REMARK SMILES IDX 10 1 9 2 8 3 6 4 7 5 5 6 4 7 2 8 1 9 3 10 74 11 75 12 90 13
REMARK SMILES IDX 76 14 77 15 89 16 91 17 78 18 79 19 88 20 80 21 81 22 82 23
REMARK SMILES IDX 87 24 83 26 85 27 84 28 86 29 11 30 12 31 13 32 14 33 15 34
REMARK SMILES IDX 73 35 16 36 72 37 17 38 18 39 19 40 66 41 20 42 71 43 65 44
REMARK SMILES IDX 67 45 21 46 70 47 64 48 63 49 22 51 52 52 33 53 51 54 34 55
REMARK SMILES IDX 37 56 50 57 68 58 35 59 36 60 49 62 69 63 38 64 23 65 24 66
REMARK SMILES IDX 32 67 25 68 31 69 26 70 27 71 28 72 29 73 30 74 53 75 54 76
REMARK SMILES IDX 62 77 55 78 61 79 56 80 57 81 58 82 59 83 60 84 39 85 40 86
REMARK SMILES IDX 48 87 41 88 47 89 42 90 43 91 44 92 45 93 46 94
REMARK H PARENT 81 25 67 50 37 61
REMARK Flexibility Score: inf
ROOT
ATOM      1  C   UNL A   1      39.377  22.407  26.408  1.00  0.00     0.275 C 
ENDROOT
BRANCH   1   2
ATOM      2  C   UNL A   1      37.960  22.873  26.080  1.00  0.00     0.274 C 
BRANCH   2   3
ATOM      3  O   UNL A   1      37.273  21.847  25.346  1.00  0.00    -0.461 OA
BRANCH   3   4
ATOM      4  C   UNL A   1      36.596  22.230  24.227  1.00  0.00     0.329 C 
ATOM      5  O   UNL A   1      37.038  22.964  23.350  1.00  0.00    -0.250 OA
BRANCH   4   6
ATOM      6  C   UNL A   1      35.156  21.671  24.213  1.00  0.00     0.202 C 
BRANCH   6   7
ATOM      7  C   UNL A   1      34.989  20.354  25.018  1.00  0.00     0.040 C 
BRANCH   7   8
ATOM      8  C   UNL A   1      33.917  19.381  24.477  1.00  0.00    -0.015 C 
ATOM      9  C   UNL A   1      34.438  17.946  24.345  1.00  0.00     0.007 C 
ATOM     10  C   UNL A   1      32.695  19.385  25.400  1.00  0.00     0.007 C 
ENDBRANCH   7   8
ENDBRANCH   6   7
BRANCH   6  11
ATOM     11  N   UNL A   1      34.164  22.687  24.624  1.00  0.00    -0.278 N 
ATOM     12  C   UNL A   1      33.475  23.369  23.641  1.00  0.00     0.267 C 
ATOM     13  C   UNL A   1      33.923  23.109  25.908  1.00  0.00     0.149 C 
ATOM     14  O   UNL A   1      33.171  22.898  22.558  1.00  0.00    -0.268 OA
ATOM     15  C   UNL A   1      33.005  24.684  24.136  1.00  0.00     0.093 C 
ATOM     16  S   UNL A   1      33.097  24.667  25.859  1.00  0.00    -0.053 SA
ATOM     17  S   UNL A   1      34.320  22.368  27.346  1.00  0.00    -0.052 S 
ATOM     18  C   UNL A   1      32.564  25.677  23.350  1.00  0.00     0.069 C 
ATOM     19  C   UNL A   1      32.415  25.588  21.848  1.00  0.00     0.257 C 
ATOM     20  C   UNL A   1      32.025  26.999  23.718  1.00  0.00     0.013 A 
ATOM     21  O   UNL A   1      32.990  24.873  21.038  1.00  0.00    -0.269 OA
ATOM     22  N   UNL A   1      31.573  26.621  21.503  1.00  0.00    -0.321 N 
ATOM     23  C   UNL A   1      31.379  27.481  22.573  1.00  0.00     0.049 A 
ATOM     24  C   UNL A   1      32.139  27.815  24.830  1.00  0.00     0.026 A 
ATOM     25  H   UNL A   1      31.164  26.734  20.615  1.00  0.00     0.170 HD
ATOM     26  C   UNL A   1      30.759  28.711  22.510  1.00  0.00     0.028 A 
ATOM     27  C   UNL A   1      31.554  29.086  24.774  1.00  0.00     0.018 A 
ATOM     28  C   UNL A   1      30.852  29.524  23.637  1.00  0.00     0.018 A 
ATOM     29  Br  UNL A   1      31.761  30.268  26.238  1.00  0.00    -0.051 Br
ENDBRANCH   6  11
ENDBRANCH   4   6
ENDBRANCH   3   4
ENDBRANCH   2   3
ENDBRANCH   1   2
BRANCH   1  30
ATOM     30  O   UNL A   1      39.945  23.222  27.451  1.00  0.00    -0.458 OA
BRANCH  30  31
ATOM     31  C   UNL A   1      40.782  24.198  27.031  1.00  0.00     0.338 C 
ATOM     32  O   UNL A   1      41.499  24.192  26.045  1.00  0.00    -0.246 OA
BRANCH  31  33
ATOM     33  C   UNL A   1      40.645  25.369  27.904  1.00  0.00     0.060 A 
ATOM     34  C   UNL A   1      41.729  26.234  28.047  1.00  0.00     0.016 A 
ATOM     35  C   UNL A   1      39.497  25.541  28.673  1.00  0.00     0.016 A 
ATOM     36  C   UNL A   1      41.698  27.250  28.993  1.00  0.00     0.010 A 
ATOM     37  C   UNL A   1      39.442  26.601  29.583  1.00  0.00     0.010 A 
ATOM     38  C   UNL A   1      40.550  27.450  29.762  1.00  0.00    -0.014 A 
BRANCH  38  39
ATOM     39  C   UNL A   1      40.523  28.534  30.772  1.00  0.00     0.031 A 
ATOM     40  C   UNL A   1      41.488  28.507  31.922  1.00  0.00     0.074 A 
ATOM     41  C   UNL A   1      39.643  29.544  30.641  1.00  0.00     0.049 A 
ATOM     42  N   UNL A   1      41.533  29.279  32.976  1.00  0.00    -0.248 NA
ATOM     43  C   UNL A   1      42.535  27.474  31.885  1.00  0.00     0.031 C 
ATOM     44  C   UNL A   1      38.697  29.709  29.534  1.00  0.00     0.029 A 
ATOM     45  N   UNL A   1      39.399  30.625  31.449  1.00  0.00    -0.354 N 
ATOM     46  C   UNL A   1      42.583  28.800  33.750  1.00  0.00     0.074 A 
ATOM     47  C   UNL A   1      43.147  27.669  33.045  1.00  0.00     0.031 C 
ATOM     48  C   UNL A   1      37.987  30.831  29.726  1.00  0.00     0.029 A 
ATOM     49  C   UNL A   1      38.376  31.426  30.998  1.00  0.00     0.049 A 
ATOM     50  H   UNL A   1      39.908  30.810  32.271  1.00  0.00     0.167 HD
ATOM     51  C   UNL A   1      43.030  29.262  34.942  1.00  0.00     0.031 A 
ATOM     52  C   UNL A   1      37.790  32.496  31.567  1.00  0.00     0.031 A 
ATOM     53  C   UNL A   1      42.471  30.399  35.624  1.00  0.00     0.049 A 
ATOM     54  C   UNL A   1      38.272  32.961  32.910  1.00  0.00     0.074 A 
ATOM     55  C   UNL A   1      42.849  30.949  36.836  1.00  0.00     0.029 A 
ATOM     56  N   UNL A   1      41.417  31.167  35.147  1.00  0.00    -0.354 N 
ATOM     57  N   UNL A   1      39.239  32.472  33.652  1.00  0.00    -0.248 NA
ATOM     58  C   UNL A   1      37.578  34.113  33.501  1.00  0.00     0.031 C 
ATOM     59  C   UNL A   1      41.999  32.027  37.111  1.00  0.00     0.029 A 
ATOM     60  C   UNL A   1      41.122  32.177  36.047  1.00  0.00     0.049 A 
ATOM     61  H   UNL A   1      40.949  31.016  34.295  1.00  0.00     0.167 HD
ATOM     62  C   UNL A   1      39.279  33.266  34.790  1.00  0.00     0.074 A 
ATOM     63  C   UNL A   1      38.251  34.276  34.632  1.00  0.00     0.031 C 
ATOM     64  C   UNL A   1      40.092  33.167  35.871  1.00  0.00     0.031 A 
BRANCH  51  65
ATOM     65  C   UNL A   1      44.149  28.505  35.604  1.00  0.00    -0.014 A 
ATOM     66  C   UNL A   1      45.495  28.841  35.381  1.00  0.00     0.010 A 
ATOM     67  C   UNL A   1      43.842  27.451  36.485  1.00  0.00     0.010 A 
ATOM     68  C   UNL A   1      46.517  28.113  35.997  1.00  0.00     0.020 A 
ATOM     69  C   UNL A   1      44.860  26.735  37.122  1.00  0.00     0.020 A 
ATOM     70  C   UNL A   1      46.193  27.060  36.858  1.00  0.00     0.054 A 
BRANCH  70  71
ATOM     71  S   UNL A   1      47.537  26.137  37.657  1.00  0.00     0.124 S 
ATOM     72  O   UNL A   1      47.466  24.850  36.970  1.00  0.00    -0.237 OA
ATOM     73  O   UNL A   1      48.711  26.948  37.352  1.00  0.00    -0.237 OA
ATOM     74  O   UNL A   1      47.150  26.112  39.065  1.00  0.00    -0.744 OA
ENDBRANCH  70  71
ENDBRANCH  51  65
BRANCH  52  75
ATOM     75  C   UNL A   1      36.654  33.166  30.878  1.00  0.00    -0.014 A 
ATOM     76  C   UNL A   1      35.354  33.097  31.408  1.00  0.00     0.010 A 
ATOM     77  C   UNL A   1      36.876  33.906  29.702  1.00  0.00     0.010 A 
ATOM     78  C   UNL A   1      34.296  33.751  30.769  1.00  0.00     0.020 A 
ATOM     79  C   UNL A   1      35.826  34.581  29.076  1.00  0.00     0.020 A 
ATOM     80  C   UNL A   1      34.539  34.491  29.608  1.00  0.00     0.054 A 
BRANCH  80  81
ATOM     81  S   UNL A   1      33.166  35.385  28.830  1.00  0.00     0.124 S 
ATOM     82  O   UNL A   1      32.491  34.322  28.092  1.00  0.00    -0.237 OA
ATOM     83  O   UNL A   1      32.438  35.917  29.980  1.00  0.00    -0.237 OA
ATOM     84  O   UNL A   1      33.835  36.391  28.009  1.00  0.00    -0.744 OA
ENDBRANCH  80  81
ENDBRANCH  52  75
BRANCH  64  85
ATOM     85  C   UNL A   1      39.916  34.196  36.953  1.00  0.00    -0.014 A 
ATOM     86  C   UNL A   1      40.504  35.468  36.846  1.00  0.00     0.010 A 
ATOM     87  C   UNL A   1      39.115  33.898  38.069  1.00  0.00     0.010 A 
ATOM     88  C   UNL A   1      40.318  36.417  37.854  1.00  0.00     0.020 A 
ATOM     89  C   UNL A   1      38.909  34.851  39.069  1.00  0.00     0.020 A 
ATOM     90  C   UNL A   1      39.524  36.101  38.961  1.00  0.00     0.054 A 
BRANCH  90  91
ATOM     91  S   UNL A   1      39.263  37.361  40.239  1.00  0.00     0.124 S 
ATOM     92  O   UNL A   1      38.479  38.362  39.522  1.00  0.00    -0.237 OA
ATOM     93  O   UNL A   1      38.545  36.625  41.277  1.00  0.00    -0.237 OA
ATOM     94  O   UNL A   1      40.618  37.770  40.602  1.00  0.00    -0.744 OA
ENDBRANCH  90  91
ENDBRANCH  64  85
ENDBRANCH  38  39
ENDBRANCH  31  33
ENDBRANCH  30  31
ENDBRANCH   1  30
TORSDOF 17
ENDMDL
MODEL 2
REMARK VINA RESULT:     -11.9      6.763     12.189
REMARK SMILES CC(C)C[C@H](C(=O)OCCOC(=O)c1ccc(-c2c3nc(c(-c4ccc(S(=O)(=O)[O-])cc4)c4ccc([nH]4)c(-c4ccc(S(=O)(=O)[O-])cc4)c4nc(c(-c5ccc(S(=O)(=O)[O-])cc5)c5ccc2[nH]5)C=C4)C=C3)cc1)N1C(=O)/C(=C2\C(=O)Nc3ccc(Br)cc32)SC1=S
REMARK SMILES IDX 10 1 9 2 8 3 6 4 7 5 5 6 4 7 2 8 1 9 3 10 74 11 75 12 90 13
REMARK SMILES IDX 76 14 77 15 89 16 91 17 78 18 79 19 88 20 80 21 81 22 82 23
REMARK SMILES IDX 87 24 83 26 85 27 84 28 86 29 11 30 12 31 13 32 14 33 15 34
REMARK SMILES IDX 73 35 16 36 72 37 17 38 18 39 19 40 66 41 20 42 71 43 65 44
REMARK SMILES IDX 67 45 21 46 70 47 64 48 63 49 22 51 52 52 33 53 51 54 34 55
REMARK SMILES IDX 37 56 50 57 68 58 35 59 36 60 49 62 69 63 38 64 23 65 24 66
REMARK SMILES IDX 32 67 25 68 31 69 26 70 27 71 28 72 29 73 30 74 53 75 54 76
REMARK SMILES IDX 62 77 55 78 61 79 56 80 57 81 58 82 59 83 60 84 39 85 40 86
REMARK SMILES IDX 48 87 41 88 47 89 42 90 43 91 44 92 45 93 46 94
REMARK H PARENT 81 25 67 50 37 61
REMARK Flexibility Score: inf
ROOT
ATOM      1  C   UNL A   1      34.687  29.879  27.509  1.00  0.00     0.275 C 
ENDROOT
BRANCH   1   2
ATOM      2  C   UNL A   1      33.702  28.712  27.482  1.00  0.00     0.274 C 
BRANCH   2   3
ATOM      3  O   UNL A   1      32.675  28.970  26.510  1.00  0.00    -0.461 OA
BRANCH   3   4
ATOM      4  C   UNL A   1      31.576  28.166  26.540  1.00  0.00     0.329 C 
ATOM      5  O   UNL A   1      31.031  27.749  27.556  1.00  0.00    -0.250 OA
BRANCH   4   6
ATOM      6  C   UNL A   1      31.113  27.782  25.117  1.00  0.00     0.202 C 
BRANCH   6   7
ATOM      7  C   UNL A   1      30.985  28.992  24.153  1.00  0.00     0.040 C 
BRANCH   7   8
ATOM      8  C   UNL A   1      30.019  28.790  22.963  1.00  0.00    -0.015 C 
ATOM      9  C   UNL A   1      28.823  27.902  23.321  1.00  0.00     0.007 C 
ATOM     10  C   UNL A   1      29.504  30.146  22.473  1.00  0.00     0.007 C 
ENDBRANCH   7   8
ENDBRANCH   6   7
BRANCH   6  11
ATOM     11  N   UNL A   1      31.947  26.711  24.534  1.00  0.00    -0.278 N 
ATOM     12  C   UNL A   1      31.537  25.401  24.683  1.00  0.00     0.267 C 
ATOM     13  C   UNL A   1      33.171  26.875  23.934  1.00  0.00     0.149 C 
ATOM     14  O   UNL A   1      30.372  25.045  24.736  1.00  0.00    -0.268 OA
ATOM     15  C   UNL A   1      32.687  24.471  24.601  1.00  0.00     0.093 C 
ATOM     16  S   UNL A   1      34.013  25.325  23.902  1.00  0.00    -0.053 SA
ATOM     17  S   UNL A   1      33.860  28.264  23.323  1.00  0.00    -0.052 S 
ATOM     18  C   UNL A   1      32.652  23.186  24.985  1.00  0.00     0.069 C 
ATOM     19  C   UNL A   1      31.422  22.472  25.498  1.00  0.00     0.257 C 
ATOM     20  C   UNL A   1      33.700  22.152  24.906  1.00  0.00     0.013 A 
ATOM     21  O   UNL A   1      30.420  22.915  26.041  1.00  0.00    -0.269 OA
ATOM     22  N   UNL A   1      31.705  21.129  25.379  1.00  0.00    -0.321 N 
ATOM     23  C   UNL A   1      33.044  20.928  25.084  1.00  0.00     0.049 A 
ATOM     24  C   UNL A   1      35.081  22.179  24.822  1.00  0.00     0.026 A 
ATOM     25  H   UNL A   1      31.043  20.408  25.489  1.00  0.00     0.170 HD
ATOM     26  C   UNL A   1      33.693  19.712  25.095  1.00  0.00     0.028 A 
ATOM     27  C   UNL A   1      35.765  20.958  24.874  1.00  0.00     0.018 A 
ATOM     28  C   UNL A   1      35.082  19.735  24.987  1.00  0.00     0.018 A 
ATOM     29  Br  UNL A   1      37.658  20.955  24.853  1.00  0.00    -0.051 Br
ENDBRANCH   6  11
ENDBRANCH   4   6
ENDBRANCH   3   4
ENDBRANCH   2   3
ENDBRANCH   1   2
BRANCH   1  30
ATOM     30  O   UNL A   1      36.041  29.396  27.408  1.00  0.00    -0.458 OA
BRANCH  30  31
ATOM     31  C   UNL A   1      36.734  29.376  28.569  1.00  0.00     0.338 C 
ATOM     32  O   UNL A   1      36.301  29.519  29.700  1.00  0.00    -0.246 OA
BRANCH  31  33
ATOM     33  C   UNL A   1      38.138  29.050  28.294  1.00  0.00     0.060 A 
ATOM     34  C   UNL A   1      38.922  28.524  29.321  1.00  0.00     0.016 A 
ATOM     35  C   UNL A   1      38.708  29.379  27.066  1.00  0.00     0.016 A 
ATOM     36  C   UNL A   1      40.291  28.366  29.150  1.00  0.00     0.010 A 
ATOM     37  C   UNL A   1      40.076  29.164  26.874  1.00  0.00     0.010 A 
ATOM     38  C   UNL A   1      40.879  28.675  27.921  1.00  0.00    -0.014 A 
BRANCH  38  39
ATOM     39  C   UNL A   1      42.341  28.507  27.745  1.00  0.00     0.031 A 
ATOM     40  C   UNL A   1      43.267  29.643  28.071  1.00  0.00     0.074 A 
ATOM     41  C   UNL A   1      42.828  27.330  27.309  1.00  0.00     0.049 A 
ATOM     42  N   UNL A   1      44.553  29.744  27.855  1.00  0.00    -0.248 NA
ATOM     43  C   UNL A   1      42.669  30.822  28.717  1.00  0.00     0.031 C 
ATOM     44  C   UNL A   1      42.031  26.136  27.018  1.00  0.00     0.029 A 
ATOM     45  N   UNL A   1      44.115  26.945  27.033  1.00  0.00    -0.354 N 
ATOM     46  C   UNL A   1      44.911  31.011  28.298  1.00  0.00     0.074 A 
ATOM     47  C   UNL A   1      43.707  31.644  28.792  1.00  0.00     0.031 C 
ATOM     48  C   UNL A   1      42.847  25.149  26.618  1.00  0.00     0.029 A 
ATOM     49  C   UNL A   1      44.212  25.659  26.558  1.00  0.00     0.049 A 
ATOM     50  H   UNL A   1      44.894  27.533  27.163  1.00  0.00     0.167 HD
ATOM     51  C   UNL A   1      46.134  31.592  28.288  1.00  0.00     0.031 A 
ATOM     52  C   UNL A   1      45.274  24.979  26.087  1.00  0.00     0.031 A 
ATOM     53  C   UNL A   1      47.327  30.945  27.809  1.00  0.00     0.049 A 
ATOM     54  C   UNL A   1      46.611  25.661  26.042  1.00  0.00     0.074 A 
ATOM     55  C   UNL A   1      48.616  31.445  27.754  1.00  0.00     0.029 A 
ATOM     56  N   UNL A   1      47.379  29.651  27.310  1.00  0.00    -0.354 N 
ATOM     57  N   UNL A   1      46.928  26.876  26.425  1.00  0.00    -0.248 NA
ATOM     58  C   UNL A   1      47.731  24.887  25.491  1.00  0.00     0.031 C 
ATOM     59  C   UNL A   1      49.440  30.466  27.186  1.00  0.00     0.029 A 
ATOM     60  C   UNL A   1      48.673  29.340  26.931  1.00  0.00     0.049 A 
ATOM     61  H   UNL A   1      46.607  29.043  27.236  1.00  0.00     0.167 HD
ATOM     62  C   UNL A   1      48.287  27.007  26.174  1.00  0.00     0.074 A 
ATOM     63  C   UNL A   1      48.735  25.743  25.623  1.00  0.00     0.031 C 
ATOM     64  C   UNL A   1      49.094  28.078  26.380  1.00  0.00     0.031 A 
BRANCH  51  65
ATOM     65  C   UNL A   1      46.231  33.015  28.765  1.00  0.00    -0.014 A 
ATOM     66  C   UNL A   1      46.394  33.323  30.127  1.00  0.00     0.010 A 
ATOM     67  C   UNL A   1      46.179  34.064  27.827  1.00  0.00     0.010 A 
ATOM     68  C   UNL A   1      46.466  34.655  30.547  1.00  0.00     0.020 A 
ATOM     69  C   UNL A   1      46.275  35.395  28.240  1.00  0.00     0.020 A 
ATOM     70  C   UNL A   1      46.399  35.683  29.601  1.00  0.00     0.054 A 
BRANCH  70  71
ATOM     71  S   UNL A   1      46.509  37.403  30.169  1.00  0.00     0.124 S 
ATOM     72  O   UNL A   1      45.771  38.110  29.125  1.00  0.00    -0.237 OA
ATOM     73  O   UNL A   1      45.857  37.354  31.475  1.00  0.00    -0.237 OA
ATOM     74  O   UNL A   1      47.945  37.666  30.203  1.00  0.00    -0.744 OA
ENDBRANCH  70  71
ENDBRANCH  51  65
BRANCH  52  75
ATOM     75  C   UNL A   1      45.097  23.591  25.584  1.00  0.00    -0.014 A 
ATOM     76  C   UNL A   1      44.706  23.356  24.254  1.00  0.00     0.010 A 
ATOM     77  C   UNL A   1      45.350  22.494  26.428  1.00  0.00     0.010 A 
ATOM     78  C   UNL A   1      44.565  22.047  23.781  1.00  0.00     0.020 A 
ATOM     79  C   UNL A   1      45.235  21.186  25.950  1.00  0.00     0.020 A 
ATOM     80  C   UNL A   1      44.834  20.970  24.632  1.00  0.00     0.054 A 
BRANCH  80  81
ATOM     81  S   UNL A   1      44.709  19.282  23.980  1.00  0.00     0.124 S 
ATOM     82  O   UNL A   1      43.507  18.789  24.644  1.00  0.00    -0.237 OA
ATOM     83  O   UNL A   1      44.592  19.503  22.541  1.00  0.00    -0.237 OA
ATOM     84  O   UNL A   1      45.960  18.659  24.406  1.00  0.00    -0.744 OA
ENDBRANCH  80  81
ENDBRANCH  52  75
BRANCH  64  85
ATOM     85  C   UNL A   1      50.546  27.915  26.030  1.00  0.00    -0.014 A 
ATOM     86  C   UNL A   1      51.032  28.274  24.761  1.00  0.00     0.010 A 
ATOM     87  C   UNL A   1      51.444  27.439  27.002  1.00  0.00     0.010 A 
ATOM     88  C   UNL A   1      52.388  28.130  24.458  1.00  0.00     0.020 A 
ATOM     89  C   UNL A   1      52.804  27.314  26.711  1.00  0.00     0.020 A 
ATOM     90  C   UNL A   1      53.265  27.648  25.435  1.00  0.00     0.054 A 
BRANCH  90  91
ATOM     91  S   UNL A   1      55.028  27.507  25.035  1.00  0.00     0.124 S 
ATOM     92  O   UNL A   1      55.597  27.091  26.313  1.00  0.00    -0.237 OA
ATOM     93  O   UNL A   1      55.041  26.494  23.982  1.00  0.00    -0.237 OA
ATOM     94  O   UNL A   1      55.392  28.853  24.597  1.00  0.00    -0.744 OA
ENDBRANCH  90  91
ENDBRANCH  64  85
ENDBRANCH  38  39
ENDBRANCH  31  33
ENDBRANCH  30  31
ENDBRANCH   1  30
TORSDOF 17
ENDMDL
MODEL 3
REMARK VINA RESULT:     -11.9      6.041     10.265
REMARK SMILES CC(C)C[C@H](C(=O)OCCOC(=O)c1ccc(-c2c3nc(c(-c4ccc(S(=O)(=O)[O-])cc4)c4ccc([nH]4)c(-c4ccc(S(=O)(=O)[O-])cc4)c4nc(c(-c5ccc(S(=O)(=O)[O-])cc5)c5ccc2[nH]5)C=C4)C=C3)cc1)N1C(=O)/C(=C2\C(=O)Nc3ccc(Br)cc32)SC1=S
REMARK SMILES IDX 10 1 9 2 8 3 6 4 7 5 5 6 4 7 2 8 1 9 3 10 74 11 75 12 90 13
REMARK SMILES IDX 76 14 77 15 89 16 91 17 78 18 79 19 88 20 80 21 81 22 82 23
REMARK SMILES IDX 87 24 83 26 85 27 84 28 86 29 11 30 12 31 13 32 14 33 15 34
REMARK SMILES IDX 73 35 16 36 72 37 17 38 18 39 19 40 66 41 20 42 71 43 65 44
REMARK SMILES IDX 67 45 21 46 70 47 64 48 63 49 22 51 52 52 33 53 51 54 34 55
REMARK SMILES IDX 37 56 50 57 68 58 35 59 36 60 49 62 69 63 38 64 23 65 24 66
REMARK SMILES IDX 32 67 25 68 31 69 26 70 27 71 28 72 29 73 30 74 53 75 54 76
REMARK SMILES IDX 62 77 55 78 61 79 56 80 57 81 58 82 59 83 60 84 39 85 40 86
REMARK SMILES IDX 48 87 41 88 47 89 42 90 43 91 44 92 45 93 46 94
REMARK H PARENT 81 25 67 50 37 61
REMARK Flexibility Score: inf
ROOT
ATOM      1  C   UNL A   1      39.193  20.249  25.671  1.00  0.00     0.275 C 
ENDROOT
BRANCH   1   2
ATOM      2  C   UNL A   1      38.556  21.637  25.638  1.00  0.00     0.274 C 
BRANCH   2   3
ATOM      3  O   UNL A   1      37.129  21.511  25.542  1.00  0.00    -0.461 OA
BRANCH   3   4
ATOM      4  C   UNL A   1      36.517  22.142  24.502  1.00  0.00     0.329 C 
ATOM      5  O   UNL A   1      37.019  23.026  23.816  1.00  0.00    -0.250 OA
BRANCH   4   6
ATOM      6  C   UNL A   1      35.065  21.651  24.312  1.00  0.00     0.202 C 
BRANCH   6   7
ATOM      7  C   UNL A   1      34.769  20.291  25.002  1.00  0.00     0.040 C 
BRANCH   7   8
ATOM      8  C   UNL A   1      33.858  19.330  24.205  1.00  0.00    -0.015 C 
ATOM      9  C   UNL A   1      34.133  17.857  24.526  1.00  0.00     0.007 C 
ATOM     10  C   UNL A   1      32.388  19.639  24.502  1.00  0.00     0.007 C 
ENDBRANCH   7   8
ENDBRANCH   6   7
BRANCH   6  11
ATOM     11  N   UNL A   1      34.077  22.680  24.698  1.00  0.00    -0.278 N 
ATOM     12  C   UNL A   1      33.411  23.361  23.699  1.00  0.00     0.267 C 
ATOM     13  C   UNL A   1      33.820  23.116  25.974  1.00  0.00     0.149 C 
ATOM     14  O   UNL A   1      33.120  22.884  22.615  1.00  0.00    -0.268 OA
ATOM     15  C   UNL A   1      32.948  24.685  24.175  1.00  0.00     0.093 C 
ATOM     16  S   UNL A   1      33.011  24.682  25.899  1.00  0.00    -0.053 SA
ATOM     17  S   UNL A   1      34.186  22.383  27.425  1.00  0.00    -0.052 S 
ATOM     18  C   UNL A   1      32.530  25.676  23.373  1.00  0.00     0.069 C 
ATOM     19  C   UNL A   1      32.404  25.575  21.870  1.00  0.00     0.257 C 
ATOM     20  C   UNL A   1      31.999  27.007  23.721  1.00  0.00     0.013 A 
ATOM     21  O   UNL A   1      32.984  24.847  21.075  1.00  0.00    -0.269 OA
ATOM     22  N   UNL A   1      31.579  26.614  21.502  1.00  0.00    -0.321 N 
ATOM     23  C   UNL A   1      31.377  27.485  22.561  1.00  0.00     0.049 A 
ATOM     24  C   UNL A   1      32.103  27.830  24.828  1.00  0.00     0.026 A 
ATOM     25  H   UNL A   1      31.185  26.724  20.606  1.00  0.00     0.170 HD
ATOM     26  C   UNL A   1      30.771  28.721  22.478  1.00  0.00     0.028 A 
ATOM     27  C   UNL A   1      31.533  29.107  24.751  1.00  0.00     0.018 A 
ATOM     28  C   UNL A   1      30.854  29.543  23.599  1.00  0.00     0.018 A 
ATOM     29  Br  UNL A   1      31.729  30.299  26.208  1.00  0.00    -0.051 Br
ENDBRANCH   6  11
ENDBRANCH   4   6
ENDBRANCH   3   4
ENDBRANCH   2   3
ENDBRANCH   1   2
BRANCH   1  30
ATOM     30  O   UNL A   1      40.200  20.183  26.700  1.00  0.00    -0.458 OA
BRANCH  30  31
ATOM     31  C   UNL A   1      41.469  20.032  26.257  1.00  0.00     0.338 C 
ATOM     32  O   UNL A   1      41.944  19.078  25.664  1.00  0.00    -0.246 OA
BRANCH  31  33
ATOM     33  C   UNL A   1      42.223  21.265  26.508  1.00  0.00     0.060 A 
ATOM     34  C   UNL A   1      42.611  21.564  27.814  1.00  0.00     0.016 A 
ATOM     35  C   UNL A   1      42.435  22.181  25.481  1.00  0.00     0.016 A 
ATOM     36  C   UNL A   1      43.171  22.798  28.117  1.00  0.00     0.010 A 
ATOM     37  C   UNL A   1      43.053  23.400  25.775  1.00  0.00     0.010 A 
ATOM     38  C   UNL A   1      43.407  23.724  27.098  1.00  0.00    -0.014 A 
BRANCH  38  39
ATOM     39  C   UNL A   1      44.002  25.040  27.427  1.00  0.00     0.031 A 
ATOM     40  C   UNL A   1      43.132  26.139  27.965  1.00  0.00     0.074 A 
ATOM     41  C   UNL A   1      45.323  25.236  27.255  1.00  0.00     0.049 A 
ATOM     42  N   UNL A   1      43.430  27.394  28.180  1.00  0.00    -0.248 NA
ATOM     43  C   UNL A   1      41.743  25.783  28.298  1.00  0.00     0.031 C 
ATOM     44  C   UNL A   1      46.278  24.224  26.796  1.00  0.00     0.029 A 
ATOM     45  N   UNL A   1      46.091  26.355  27.446  1.00  0.00    -0.354 N 
ATOM     46  C   UNL A   1      42.258  27.988  28.633  1.00  0.00     0.074 A 
ATOM     47  C   UNL A   1      41.242  26.957  28.659  1.00  0.00     0.031 C 
ATOM     48  C   UNL A   1      47.505  24.766  26.754  1.00  0.00     0.029 A 
ATOM     49  C   UNL A   1      47.413  26.175  27.115  1.00  0.00     0.049 A 
ATOM     50  H   UNL A   1      45.731  27.206  27.788  1.00  0.00     0.167 HD
ATOM     51  C   UNL A   1      42.051  29.278  28.990  1.00  0.00     0.031 A 
ATOM     52  C   UNL A   1      48.429  27.057  27.069  1.00  0.00     0.031 A 
ATOM     53  C   UNL A   1      43.074  30.289  28.976  1.00  0.00     0.049 A 
ATOM     54  C   UNL A   1      48.164  28.491  27.423  1.00  0.00     0.074 A 
ATOM     55  C   UNL A   1      42.969  31.626  29.318  1.00  0.00     0.029 A 
ATOM     56  N   UNL A   1      44.395  30.073  28.609  1.00  0.00    -0.354 N 
ATOM     57  N   UNL A   1      47.041  29.049  27.809  1.00  0.00    -0.248 NA
ATOM     58  C   UNL A   1      49.299  29.418  27.326  1.00  0.00     0.031 C 
ATOM     59  C   UNL A   1      44.218  32.227  29.120  1.00  0.00     0.029 A 
ATOM     60  C   UNL A   1      45.112  31.254  28.701  1.00  0.00     0.049 A 
ATOM     61  H   UNL A   1      44.767  29.207  28.324  1.00  0.00     0.167 HD
ATOM     62  C   UNL A   1      47.336  30.390  28.014  1.00  0.00     0.074 A 
ATOM     63  C   UNL A   1      48.748  30.556  27.727  1.00  0.00     0.031 C 
ATOM     64  C   UNL A   1      46.514  31.395  28.404  1.00  0.00     0.031 A 
BRANCH  51  65
ATOM     65  C   UNL A   1      40.652  29.674  29.378  1.00  0.00    -0.014 A 
ATOM     66  C   UNL A   1      39.636  29.814  28.417  1.00  0.00     0.010 A 
ATOM     67  C   UNL A   1      40.347  29.889  30.735  1.00  0.00     0.010 A 
ATOM     68  C   UNL A   1      38.347  30.197  28.801  1.00  0.00     0.020 A 
ATOM     69  C   UNL A   1      39.054  30.249  31.126  1.00  0.00     0.020 A 
ATOM     70  C   UNL A   1      38.067  30.419  30.153  1.00  0.00     0.054 A 
BRANCH  70  71
ATOM     71  S   UNL A   1      36.384  30.903  30.630  1.00  0.00     0.124 S 
ATOM     72  O   UNL A   1      36.603  32.232  31.195  1.00  0.00    -0.237 OA
ATOM     73  O   UNL A   1      35.667  30.873  29.358  1.00  0.00    -0.237 OA
ATOM     74  O   UNL A   1      35.987  29.877  31.590  1.00  0.00    -0.744 OA
ENDBRANCH  70  71
ENDBRANCH  51  65
BRANCH  52  75
ATOM     75  C   UNL A   1      49.776  26.606  26.627  1.00  0.00    -0.014 A 
ATOM     76  C   UNL A   1      50.646  25.963  27.525  1.00  0.00     0.010 A 
ATOM     77  C   UNL A   1      50.183  26.790  25.293  1.00  0.00     0.010 A 
ATOM     78  C   UNL A   1      51.902  25.520  27.096  1.00  0.00     0.020 A 
ATOM     79  C   UNL A   1      51.425  26.325  24.855  1.00  0.00     0.020 A 
ATOM     80  C   UNL A   1      52.282  25.701  25.763  1.00  0.00     0.054 A 
BRANCH  80  81
ATOM     81  S   UNL A   1      53.886  25.061  25.211  1.00  0.00     0.124 S 
ATOM     82  O   UNL A   1      53.948  25.542  23.835  1.00  0.00    -0.237 OA
ATOM     83  O   UNL A   1      54.820  25.689  26.143  1.00  0.00    -0.237 OA
ATOM     84  O   UNL A   1      53.747  23.615  25.363  1.00  0.00    -0.744 OA
ENDBRANCH  80  81
ENDBRANCH  52  75
BRANCH  64  85
ATOM     85  C   UNL A   1      47.130  32.757  28.566  1.00  0.00    -0.014 A 
ATOM     86  C   UNL A   1      47.115  33.690  27.515  1.00  0.00     0.010 A 
ATOM     87  C   UNL A   1      47.691  33.121  29.803  1.00  0.00     0.010 A 
ATOM     88  C   UNL A   1      47.679  34.956  27.688  1.00  0.00     0.020 A 
ATOM     89  C   UNL A   1      48.236  34.393  29.988  1.00  0.00     0.020 A 
ATOM     90  C   UNL A   1      48.239  35.298  28.924  1.00  0.00     0.054 A 
BRANCH  90  91
ATOM     91  S   UNL A   1      48.930  36.961  29.140  1.00  0.00     0.124 S 
ATOM     92  O   UNL A   1      50.246  36.825  28.524  1.00  0.00    -0.237 OA
ATOM     93  O   UNL A   1      47.980  37.803  28.416  1.00  0.00    -0.237 OA
ATOM     94  O   UNL A   1      48.935  37.147  30.590  1.00  0.00    -0.744 OA
ENDBRANCH  90  91
ENDBRANCH  64  85
ENDBRANCH  38  39
ENDBRANCH  31  33
ENDBRANCH  30  31
ENDBRANCH   1  30
TORSDOF 17
ENDMDL
