MODEL 1
REMARK VINA RESULT:     -11.1      0.000      0.000
REMARK SMILES CC[C@H](C)N1C(=O)c2ccccc2[C@@H](C(=O)OCCOC(=O)c2ccc(-c3c4nc(c(-c5ccc(S(=O)(=O)[O-])cc5)c5ccc([nH]5)c(-c5ccc(S(=O)(=O)[O-])cc5)c5nc(c(-c6ccc(S(=O)(=O)[O-])cc6)c6ccc3[nH]6)C=C5)C=C4)cc2)C12CCCCC2
REMARK SMILES IDX 19 1 18 2 17 3 15 4 16 5 14 6 5 7 6 8 83 9 7 10 8 11 84 12
REMARK SMILES IDX 88 13 9 14 13 15 85 16 87 17 10 18 12 19 86 20 11 21 3 22
REMARK SMILES IDX 4 23 2 24 1 25 20 26 21 27 22 28 23 29 24 30 82 31 25 32
REMARK SMILES IDX 81 33 26 34 27 35 28 36 75 37 29 38 80 39 74 40 76 41 30 42
REMARK SMILES IDX 79 43 73 44 72 45 31 47 61 48 42 49 60 50 43 51 46 52 59 53
REMARK SMILES IDX 77 54 44 55 45 56 58 58 78 59 47 60 32 61 33 62 41 63 34 64
REMARK SMILES IDX 40 65 35 66 36 67 37 68 38 69 39 70 62 71 63 72 71 73 64 74
REMARK SMILES IDX 70 75 65 76 66 77 67 78 68 79 69 80 48 81 49 82 57 83 50 84
REMARK SMILES IDX 56 85 51 86 52 87 53 88 54 89 55 90
REMARK H PARENT 76 46 46 57
REMARK Flexibility Score: inf
ROOT
ATOM      1  C   UNL A   1      32.961  29.214  26.072  1.00  0.00     0.275 C 
ENDROOT
BRANCH   1   2
ATOM      2  C   UNL A   1      33.922  28.461  25.140  1.00  0.00     0.274 C 
BRANCH   2   3
ATOM      3  O   UNL A   1      33.846  27.022  25.263  1.00  0.00    -0.462 OA
BRANCH   3   4
ATOM      4  C   UNL A   1      33.790  26.337  24.098  1.00  0.00     0.315 C 
ATOM      5  O   UNL A   1      34.042  26.849  23.010  1.00  0.00    -0.251 OA
BRANCH   4   6
ATOM      6  C   UNL A   1      33.212  24.916  24.197  1.00  0.00     0.156 C 
ATOM      7  N   UNL A   1      33.289  22.481  24.719  1.00  0.00    -0.329 N 
ATOM      8  C   UNL A   1      32.301  22.569  25.716  1.00  0.00     0.254 C 
ATOM      9  C   UNL A   1      34.187  23.702  24.525  1.00  0.00     0.061 C 
ATOM     10  O   UNL A   1      31.969  21.639  26.443  1.00  0.00    -0.269 OA
ATOM     11  C   UNL A   1      31.538  23.844  25.768  1.00  0.00     0.044 A 
ATOM     12  C   UNL A   1      34.975  23.865  25.861  1.00  0.00     0.030 C 
ATOM     13  C   UNL A   1      35.169  23.583  23.318  1.00  0.00     0.030 C 
ATOM     14  C   UNL A   1      30.324  23.870  26.475  1.00  0.00     0.014 A 
ATOM     15  C   UNL A   1      31.916  24.940  24.991  1.00  0.00    -0.019 A 
ATOM     16  C   UNL A   1      36.404  24.380  25.743  1.00  0.00     0.002 C 
ATOM     17  C   UNL A   1      36.600  23.090  23.542  1.00  0.00     0.002 C 
ATOM     18  C   UNL A   1      29.463  24.964  26.370  1.00  0.00     0.001 A 
ATOM     19  C   UNL A   1      31.013  26.018  24.865  1.00  0.00     0.005 A 
ATOM     20  C   UNL A   1      37.265  23.512  24.846  1.00  0.00     0.000 C 
ATOM     21  C   UNL A   1      29.801  26.031  25.550  1.00  0.00     0.000 A 
BRANCH   7  22
ATOM     22  C   UNL A   1      33.570  21.141  24.130  1.00  0.00     0.082 C 
ATOM     23  C   UNL A   1      34.148  20.168  25.155  1.00  0.00     0.031 C 
BRANCH  22  24
ATOM     24  C   UNL A   1      32.315  20.528  23.440  1.00  0.00     0.021 C 
ATOM     25  C   UNL A   1      31.890  21.251  22.168  1.00  0.00     0.006 C 
ENDBRANCH  22  24
ENDBRANCH   7  22
ENDBRANCH   4   6
ENDBRANCH   3   4
ENDBRANCH   2   3
ENDBRANCH   1   2
BRANCH   1  26
ATOM     26  O   UNL A   1      33.476  29.309  27.413  1.00  0.00    -0.458 OA
BRANCH  26  27
ATOM     27  C   UNL A   1      34.245  30.391  27.661  1.00  0.00     0.338 C 
ATOM     28  O   UNL A   1      33.888  31.562  27.654  1.00  0.00    -0.246 OA
BRANCH  27  29
ATOM     29  C   UNL A   1      35.608  29.983  28.031  1.00  0.00     0.060 A 
ATOM     30  C   UNL A   1      35.862  29.506  29.315  1.00  0.00     0.016 A 
ATOM     31  C   UNL A   1      36.618  29.973  27.063  1.00  0.00     0.016 A 
ATOM     32  C   UNL A   1      37.149  29.069  29.634  1.00  0.00     0.010 A 
ATOM     33  C   UNL A   1      37.889  29.508  27.368  1.00  0.00     0.010 A 
ATOM     34  C   UNL A   1      38.170  29.087  28.667  1.00  0.00    -0.014 A 
BRANCH  34  35
ATOM     35  C   UNL A   1      39.553  28.723  29.022  1.00  0.00     0.031 A 
ATOM     36  C   UNL A   1      40.382  29.685  29.822  1.00  0.00     0.074 A 
ATOM     37  C   UNL A   1      40.059  27.548  28.609  1.00  0.00     0.049 A 
ATOM     38  N   UNL A   1      41.548  29.490  30.378  1.00  0.00    -0.248 NA
ATOM     39  C   UNL A   1      39.840  31.042  30.015  1.00  0.00     0.031 C 
ATOM     40  C   UNL A   1      39.363  26.590  27.748  1.00  0.00     0.029 A 
ATOM     41  N   UNL A   1      41.266  26.957  28.867  1.00  0.00    -0.354 N 
ATOM     42  C   UNL A   1      41.863  30.686  31.012  1.00  0.00     0.074 A 
ATOM     43  C   UNL A   1      40.807  31.624  30.711  1.00  0.00     0.031 C 
ATOM     44  C   UNL A   1      40.144  25.509  27.581  1.00  0.00     0.029 A 
ATOM     45  C   UNL A   1      41.387  25.699  28.326  1.00  0.00     0.049 A 
ATOM     46  H   UNL A   1      41.980  27.390  29.390  1.00  0.00     0.167 HD
ATOM     47  C   UNL A   1      42.921  30.956  31.808  1.00  0.00     0.031 A 
ATOM     48  C   UNL A   1      42.372  24.789  28.452  1.00  0.00     0.031 A 
ATOM     49  C   UNL A   1      43.961  30.006  32.089  1.00  0.00     0.049 A 
ATOM     50  C   UNL A   1      43.534  25.100  29.355  1.00  0.00     0.074 A 
ATOM     51  C   UNL A   1      45.045  30.147  32.935  1.00  0.00     0.029 A 
ATOM     52  N   UNL A   1      44.050  28.743  31.524  1.00  0.00    -0.354 N 
ATOM     53  N   UNL A   1      43.756  26.185  30.059  1.00  0.00    -0.248 NA
ATOM     54  C   UNL A   1      44.560  24.060  29.508  1.00  0.00     0.031 C 
ATOM     55  C   UNL A   1      45.819  28.987  32.841  1.00  0.00     0.029 A 
ATOM     56  C   UNL A   1      45.186  28.102  31.981  1.00  0.00     0.049 A 
ATOM     57  H   UNL A   1      43.401  28.359  30.891  1.00  0.00     0.167 HD
ATOM     58  C   UNL A   1      44.939  25.954  30.753  1.00  0.00     0.074 A 
ATOM     59  C   UNL A   1      45.377  24.619  30.394  1.00  0.00     0.031 C 
ATOM     60  C   UNL A   1      45.601  26.771  31.607  1.00  0.00     0.031 A 
BRANCH  47  61
ATOM     61  C   UNL A   1      42.989  32.309  32.462  1.00  0.00    -0.014 A 
ATOM     62  C   UNL A   1      43.689  33.360  31.846  1.00  0.00     0.010 A 
ATOM     63  C   UNL A   1      42.431  32.512  33.740  1.00  0.00     0.010 A 
ATOM     64  C   UNL A   1      43.848  34.585  32.502  1.00  0.00     0.020 A 
ATOM     65  C   UNL A   1      42.567  33.742  34.387  1.00  0.00     0.020 A 
ATOM     66  C   UNL A   1      43.293  34.764  33.773  1.00  0.00     0.054 A 
BRANCH  66  67
ATOM     67  S   UNL A   1      43.517  36.354  34.616  1.00  0.00     0.124 S 
ATOM     68  O   UNL A   1      43.899  37.234  33.516  1.00  0.00    -0.237 OA
ATOM     69  O   UNL A   1      42.197  36.600  35.194  1.00  0.00    -0.237 OA
ATOM     70  O   UNL A   1      44.569  36.077  35.592  1.00  0.00    -0.744 OA
ENDBRANCH  66  67
ENDBRANCH  47  61
BRANCH  48  71
ATOM     71  C   UNL A   1      42.230  23.473  27.772  1.00  0.00    -0.014 A 
ATOM     72  C   UNL A   1      41.489  22.438  28.373  1.00  0.00     0.010 A 
ATOM     73  C   UNL A   1      42.915  23.217  26.572  1.00  0.00     0.010 A 
ATOM     74  C   UNL A   1      41.475  21.158  27.811  1.00  0.00     0.020 A 
ATOM     75  C   UNL A   1      42.885  21.943  25.996  1.00  0.00     0.020 A 
ATOM     76  C   UNL A   1      42.188  20.915  26.635  1.00  0.00     0.054 A 
BRANCH  76  77
ATOM     77  S   UNL A   1      42.205  19.233  25.953  1.00  0.00     0.124 S 
ATOM     78  O   UNL A   1      42.721  18.460  27.080  1.00  0.00    -0.237 OA
ATOM     79  O   UNL A   1      40.801  19.005  25.624  1.00  0.00    -0.237 OA
ATOM     80  O   UNL A   1      43.101  19.339  24.804  1.00  0.00    -0.744 OA
ENDBRANCH  76  77
ENDBRANCH  48  71
BRANCH  60  81
ATOM     81  C   UNL A   1      46.882  26.273  32.218  1.00  0.00    -0.014 A 
ATOM     82  C   UNL A   1      48.083  26.374  31.493  1.00  0.00     0.010 A 
ATOM     83  C   UNL A   1      46.865  25.563  33.430  1.00  0.00     0.010 A 
ATOM     84  C   UNL A   1      49.240  25.738  31.948  1.00  0.00     0.020 A 
ATOM     85  C   UNL A   1      48.026  24.946  33.902  1.00  0.00     0.020 A 
ATOM     86  C   UNL A   1      49.199  25.014  33.143  1.00  0.00     0.054 A 
BRANCH  86  87
ATOM     87  S   UNL A   1      50.694  24.149  33.695  1.00  0.00     0.124 S 
ATOM     88  O   UNL A   1      50.144  22.923  34.268  1.00  0.00    -0.237 OA
ATOM     89  O   UNL A   1      51.447  23.982  32.455  1.00  0.00    -0.237 OA
ATOM     90  O   UNL A   1      51.289  25.075  34.655  1.00  0.00    -0.744 OA
ENDBRANCH  86  87
ENDBRANCH  60  81
ENDBRANCH  34  35
ENDBRANCH  27  29
ENDBRANCH  26  27
ENDBRANCH   1  26
TORSDOF 16
ENDMDL
MODEL 2
REMARK VINA RESULT:     -10.8      1.161      2.119
REMARK SMILES CC[C@H](C)N1C(=O)c2ccccc2[C@@H](C(=O)OCCOC(=O)c2ccc(-c3c4nc(c(-c5ccc(S(=O)(=O)[O-])cc5)c5ccc([nH]5)c(-c5ccc(S(=O)(=O)[O-])cc5)c5nc(c(-c6ccc(S(=O)(=O)[O-])cc6)c6ccc3[nH]6)C=C5)C=C4)cc2)C12CCCCC2
REMARK SMILES IDX 19 1 18 2 17 3 15 4 16 5 14 6 5 7 6 8 83 9 7 10 8 11 84 12
REMARK SMILES IDX 88 13 9 14 13 15 85 16 87 17 10 18 12 19 86 20 11 21 3 22
REMARK SMILES IDX 4 23 2 24 1 25 20 26 21 27 22 28 23 29 24 30 82 31 25 32
REMARK SMILES IDX 81 33 26 34 27 35 28 36 75 37 29 38 80 39 74 40 76 41 30 42
REMARK SMILES IDX 79 43 73 44 72 45 31 47 61 48 42 49 60 50 43 51 46 52 59 53
REMARK SMILES IDX 77 54 44 55 45 56 58 58 78 59 47 60 32 61 33 62 41 63 34 64
REMARK SMILES IDX 40 65 35 66 36 67 37 68 38 69 39 70 62 71 63 72 71 73 64 74
REMARK SMILES IDX 70 75 65 76 66 77 67 78 68 79 69 80 48 81 49 82 57 83 50 84
REMARK SMILES IDX 56 85 51 86 52 87 53 88 54 89 55 90
REMARK H PARENT 76 46 46 57
REMARK Flexibility Score: inf
ROOT
ATOM      1  C   UNL A   1      32.368  29.462  27.364  1.00  0.00     0.275 C 
ENDROOT
BRANCH   1   2
ATOM      2  C   UNL A   1      31.810  28.249  26.604  1.00  0.00     0.274 C 
BRANCH   2   3
ATOM      3  O   UNL A   1      32.471  27.004  26.926  1.00  0.00    -0.462 OA
BRANCH   3   4
ATOM      4  C   UNL A   1      32.070  25.927  26.215  1.00  0.00     0.315 C 
ATOM      5  O   UNL A   1      31.030  25.317  26.457  1.00  0.00    -0.251 OA
BRANCH   4   6
ATOM      6  C   UNL A   1      33.087  25.396  25.192  1.00  0.00     0.156 C 
ATOM      7  N   UNL A   1      34.495  23.650  24.108  1.00  0.00    -0.329 N 
ATOM      8  C   UNL A   1      33.840  23.758  22.869  1.00  0.00     0.254 C 
ATOM      9  C   UNL A   1      33.660  23.921  25.359  1.00  0.00     0.061 C 
ATOM     10  O   UNL A   1      34.050  23.023  21.910  1.00  0.00    -0.269 OA
ATOM     11  C   UNL A   1      32.944  24.933  22.705  1.00  0.00     0.044 A 
ATOM     12  C   UNL A   1      32.563  22.813  25.385  1.00  0.00     0.030 C 
ATOM     13  C   UNL A   1      34.482  23.913  26.686  1.00  0.00     0.030 C 
ATOM     14  C   UNL A   1      32.551  25.300  21.407  1.00  0.00     0.014 A 
ATOM     15  C   UNL A   1      32.643  25.764  23.785  1.00  0.00    -0.019 A 
ATOM     16  C   UNL A   1      32.143  22.311  26.761  1.00  0.00     0.002 C 
ATOM     17  C   UNL A   1      34.562  22.638  27.528  1.00  0.00     0.002 C 
ATOM     18  C   UNL A   1      31.902  26.514  21.176  1.00  0.00     0.001 A 
ATOM     19  C   UNL A   1      32.024  27.006  23.525  1.00  0.00     0.005 A 
ATOM     20  C   UNL A   1      33.309  21.772  27.566  1.00  0.00     0.000 C 
ATOM     21  C   UNL A   1      31.655  27.376  22.235  1.00  0.00     0.000 A 
BRANCH   7  22
ATOM     22  C   UNL A   1      35.846  23.020  24.132  1.00  0.00     0.082 C 
ATOM     23  C   UNL A   1      36.831  23.796  25.005  1.00  0.00     0.031 C 
BRANCH  22  24
ATOM     24  C   UNL A   1      35.789  21.526  24.567  1.00  0.00     0.021 C 
ATOM     25  C   UNL A   1      37.144  20.934  24.936  1.00  0.00     0.006 C 
ENDBRANCH  22  24
ENDBRANCH   7  22
ENDBRANCH   4   6
ENDBRANCH   3   4
ENDBRANCH   2   3
ENDBRANCH   1   2
BRANCH   1  26
ATOM     26  O   UNL A   1      33.754  29.700  27.056  1.00  0.00    -0.458 OA
BRANCH  26  27
ATOM     27  C   UNL A   1      34.369  30.617  27.834  1.00  0.00     0.338 C 
ATOM     28  O   UNL A   1      33.883  31.654  28.268  1.00  0.00    -0.246 OA
BRANCH  27  29
ATOM     29  C   UNL A   1      35.727  30.176  28.180  1.00  0.00     0.060 A 
ATOM     30  C   UNL A   1      35.981  29.646  29.443  1.00  0.00     0.016 A 
ATOM     31  C   UNL A   1      36.733  30.188  27.207  1.00  0.00     0.016 A 
ATOM     32  C   UNL A   1      37.263  29.178  29.738  1.00  0.00     0.010 A 
ATOM     33  C   UNL A   1      37.997  29.693  27.487  1.00  0.00     0.010 A 
ATOM     34  C   UNL A   1      38.279  29.219  28.767  1.00  0.00    -0.014 A 
BRANCH  34  35
ATOM     35  C   UNL A   1      39.659  28.821  29.100  1.00  0.00     0.031 A 
ATOM     36  C   UNL A   1      40.522  29.762  29.888  1.00  0.00     0.074 A 
ATOM     37  C   UNL A   1      40.129  27.635  28.679  1.00  0.00     0.049 A 
ATOM     38  N   UNL A   1      41.692  29.539  30.425  1.00  0.00    -0.248 NA
ATOM     39  C   UNL A   1      40.017  31.132  30.090  1.00  0.00     0.031 C 
ATOM     40  C   UNL A   1      39.397  26.694  27.829  1.00  0.00     0.029 A 
ATOM     41  N   UNL A   1      41.326  27.014  28.918  1.00  0.00    -0.354 N 
ATOM     42  C   UNL A   1      42.046  30.727  31.054  1.00  0.00     0.074 A 
ATOM     43  C   UNL A   1      41.008  31.690  30.770  1.00  0.00     0.031 C 
ATOM     44  C   UNL A   1      40.149  25.595  27.649  1.00  0.00     0.029 A 
ATOM     45  C   UNL A   1      41.407  25.755  28.375  1.00  0.00     0.049 A 
ATOM     46  H   UNL A   1      42.058  27.430  29.430  1.00  0.00     0.167 HD
ATOM     47  C   UNL A   1      43.122  30.971  31.834  1.00  0.00     0.031 A 
ATOM     48  C   UNL A   1      42.373  24.821  28.485  1.00  0.00     0.031 A 
ATOM     49  C   UNL A   1      44.144  29.996  32.099  1.00  0.00     0.049 A 
ATOM     50  C   UNL A   1      43.555  25.103  29.370  1.00  0.00     0.074 A 
ATOM     51  C   UNL A   1      45.244  30.110  32.928  1.00  0.00     0.029 A 
ATOM     52  N   UNL A   1      44.193  28.731  31.532  1.00  0.00    -0.354 N 
ATOM     53  N   UNL A   1      43.815  26.182  30.070  1.00  0.00    -0.248 NA
ATOM     54  C   UNL A   1      44.559  24.039  29.507  1.00  0.00     0.031 C 
ATOM     55  C   UNL A   1      45.988  28.932  32.820  1.00  0.00     0.029 A 
ATOM     56  C   UNL A   1      45.320  28.063  31.970  1.00  0.00     0.049 A 
ATOM     57  H   UNL A   1      43.525  28.364  30.909  1.00  0.00     0.167 HD
ATOM     58  C   UNL A   1      45.002  25.922  30.745  1.00  0.00     0.074 A 
ATOM     59  C   UNL A   1      45.402  24.577  30.380  1.00  0.00     0.031 C 
ATOM     60  C   UNL A   1      45.697  26.723  31.589  1.00  0.00     0.031 A 
BRANCH  47  61
ATOM     61  C   UNL A   1      43.233  32.321  32.487  1.00  0.00    -0.014 A 
ATOM     62  C   UNL A   1      42.700  32.534  33.770  1.00  0.00     0.010 A 
ATOM     63  C   UNL A   1      43.788  33.409  31.786  1.00  0.00     0.010 A 
ATOM     64  C   UNL A   1      42.701  33.814  34.334  1.00  0.00     0.020 A 
ATOM     65  C   UNL A   1      43.813  34.683  32.356  1.00  0.00     0.020 A 
ATOM     66  C   UNL A   1      43.251  34.882  33.618  1.00  0.00     0.054 A 
BRANCH  66  67
ATOM     67  S   UNL A   1      43.236  36.538  34.357  1.00  0.00     0.124 S 
ATOM     68  O   UNL A   1      43.562  37.387  33.216  1.00  0.00    -0.237 OA
ATOM     69  O   UNL A   1      41.870  36.653  34.863  1.00  0.00    -0.237 OA
ATOM     70  O   UNL A   1      44.266  36.457  35.393  1.00  0.00    -0.744 OA
ENDBRANCH  66  67
ENDBRANCH  47  61
BRANCH  48  71
ATOM     71  C   UNL A   1      42.188  23.510  27.807  1.00  0.00    -0.014 A 
ATOM     72  C   UNL A   1      41.509  22.462  28.457  1.00  0.00     0.010 A 
ATOM     73  C   UNL A   1      42.776  23.270  26.553  1.00  0.00     0.010 A 
ATOM     74  C   UNL A   1      41.461  21.187  27.887  1.00  0.00     0.020 A 
ATOM     75  C   UNL A   1      42.711  22.000  25.969  1.00  0.00     0.020 A 
ATOM     76  C   UNL A   1      42.079  20.960  26.654  1.00  0.00     0.054 A 
BRANCH  76  77
ATOM     77  S   UNL A   1      42.056  19.284  25.957  1.00  0.00     0.124 S 
ATOM     78  O   UNL A   1      42.605  18.497  27.059  1.00  0.00    -0.237 OA
ATOM     79  O   UNL A   1      40.639  19.071  25.677  1.00  0.00    -0.237 OA
ATOM     80  O   UNL A   1      42.912  19.393  24.779  1.00  0.00    -0.744 OA
ENDBRANCH  76  77
ENDBRANCH  48  71
BRANCH  60  81
ATOM     81  C   UNL A   1      46.975  26.193  32.180  1.00  0.00    -0.014 A 
ATOM     82  C   UNL A   1      48.188  26.374  31.489  1.00  0.00     0.010 A 
ATOM     83  C   UNL A   1      46.949  25.383  33.328  1.00  0.00     0.010 A 
ATOM     84  C   UNL A   1      49.346  25.718  31.911  1.00  0.00     0.020 A 
ATOM     85  C   UNL A   1      48.112  24.745  33.767  1.00  0.00     0.020 A 
ATOM     86  C   UNL A   1      49.296  24.895  33.039  1.00  0.00     0.054 A 
BRANCH  86  87
ATOM     87  S   UNL A   1      50.795  24.008  33.544  1.00  0.00     0.124 S 
ATOM     88  O   UNL A   1      50.770  24.165  34.995  1.00  0.00    -0.237 OA
ATOM     89  O   UNL A   1      50.550  22.654  33.053  1.00  0.00    -0.237 OA
ATOM     90  O   UNL A   1      51.864  24.726  32.855  1.00  0.00    -0.744 OA
ENDBRANCH  86  87
ENDBRANCH  60  81
ENDBRANCH  34  35
ENDBRANCH  27  29
ENDBRANCH  26  27
ENDBRANCH   1  26
TORSDOF 16
ENDMDL
MODEL 3
REMARK VINA RESULT:     -10.6      4.444      5.711
REMARK SMILES CC[C@H](C)N1C(=O)c2ccccc2[C@@H](C(=O)OCCOC(=O)c2ccc(-c3c4nc(c(-c5ccc(S(=O)(=O)[O-])cc5)c5ccc([nH]5)c(-c5ccc(S(=O)(=O)[O-])cc5)c5nc(c(-c6ccc(S(=O)(=O)[O-])cc6)c6ccc3[nH]6)C=C5)C=C4)cc2)C12CCCCC2
REMARK SMILES IDX 19 1 18 2 17 3 15 4 16 5 14 6 5 7 6 8 83 9 7 10 8 11 84 12
REMARK SMILES IDX 88 13 9 14 13 15 85 16 87 17 10 18 12 19 86 20 11 21 3 22
REMARK SMILES IDX 4 23 2 24 1 25 20 26 21 27 22 28 23 29 24 30 82 31 25 32
REMARK SMILES IDX 81 33 26 34 27 35 28 36 75 37 29 38 80 39 74 40 76 41 30 42
REMARK SMILES IDX 79 43 73 44 72 45 31 47 61 48 42 49 60 50 43 51 46 52 59 53
REMARK SMILES IDX 77 54 44 55 45 56 58 58 78 59 47 60 32 61 33 62 41 63 34 64
REMARK SMILES IDX 40 65 35 66 36 67 37 68 38 69 39 70 62 71 63 72 71 73 64 74
REMARK SMILES IDX 70 75 65 76 66 77 67 78 68 79 69 80 48 81 49 82 57 83 50 84
REMARK SMILES IDX 56 85 51 86 52 87 53 88 54 89 55 90
REMARK H PARENT 76 46 46 57
REMARK Flexibility Score: inf
ROOT
ATOM      1  C   UNL A   1      35.149  30.138  28.258  1.00  0.00     0.275 C 
ENDROOT
BRANCH   1   2
ATOM      2  C   UNL A   1      34.162  29.526  27.253  1.00  0.00     0.274 C 
BRANCH   2   3
ATOM      3  O   UNL A   1      32.776  29.646  27.649  1.00  0.00    -0.462 OA
BRANCH   3   4
ATOM      4  C   UNL A   1      31.934  28.731  27.117  1.00  0.00     0.315 C 
ATOM      5  O   UNL A   1      31.212  28.011  27.802  1.00  0.00    -0.251 OA
BRANCH   4   6
ATOM      6  C   UNL A   1      32.066  28.519  25.600  1.00  0.00     0.156 C 
ATOM      7  N   UNL A   1      32.152  27.164  23.511  1.00  0.00    -0.329 N 
ATOM      8  C   UNL A   1      30.997  27.755  22.970  1.00  0.00     0.254 C 
ATOM      9  C   UNL A   1      32.218  27.040  25.033  1.00  0.00     0.061 C 
ATOM     10  O   UNL A   1      30.459  27.393  21.929  1.00  0.00    -0.269 OA
ATOM     11  C   UNL A   1      30.506  28.979  23.657  1.00  0.00     0.044 A 
ATOM     12  C   UNL A   1      31.052  26.085  25.432  1.00  0.00     0.030 C 
ATOM     13  C   UNL A   1      33.581  26.498  25.568  1.00  0.00     0.030 C 
ATOM     14  C   UNL A   1      29.600  29.810  22.979  1.00  0.00     0.014 A 
ATOM     15  C   UNL A   1      31.062  29.394  24.868  1.00  0.00    -0.019 A 
ATOM     16  C   UNL A   1      31.310  25.163  26.617  1.00  0.00     0.002 C 
ATOM     17  C   UNL A   1      33.749  25.006  25.860  1.00  0.00     0.002 C 
ATOM     18  C   UNL A   1      29.283  31.075  23.478  1.00  0.00     0.001 A 
ATOM     19  C   UNL A   1      30.760  30.693  25.335  1.00  0.00     0.005 A 
ATOM     20  C   UNL A   1      32.529  24.284  26.418  1.00  0.00     0.000 C 
ATOM     21  C   UNL A   1      29.879  31.522  24.649  1.00  0.00     0.000 A 
BRANCH   7  22
ATOM     22  C   UNL A   1      33.081  26.463  22.580  1.00  0.00     0.082 C 
ATOM     23  C   UNL A   1      32.365  25.414  21.730  1.00  0.00     0.031 C 
BRANCH  22  24
ATOM     24  C   UNL A   1      33.866  27.458  21.674  1.00  0.00     0.021 C 
ATOM     25  C   UNL A   1      34.450  28.650  22.422  1.00  0.00     0.006 C 
ENDBRANCH  22  24
ENDBRANCH   7  22
ENDBRANCH   4   6
ENDBRANCH   3   4
ENDBRANCH   2   3
ENDBRANCH   1   2
BRANCH   1  26
ATOM     26  O   UNL A   1      36.514  29.805  27.944  1.00  0.00    -0.458 OA
BRANCH  26  27
ATOM     27  C   UNL A   1      37.305  29.546  29.008  1.00  0.00     0.338 C 
ATOM     28  O   UNL A   1      36.950  29.437  30.175  1.00  0.00    -0.246 OA
BRANCH  27  29
ATOM     29  C   UNL A   1      38.693  29.325  28.581  1.00  0.00     0.060 A 
ATOM     30  C   UNL A   1      39.656  28.962  29.519  1.00  0.00     0.016 A 
ATOM     31  C   UNL A   1      39.019  29.375  27.221  1.00  0.00     0.016 A 
ATOM     32  C   UNL A   1      40.958  28.699  29.090  1.00  0.00     0.010 A 
ATOM     33  C   UNL A   1      40.303  29.081  26.788  1.00  0.00     0.010 A 
ATOM     34  C   UNL A   1      41.289  28.777  27.725  1.00  0.00    -0.014 A 
BRANCH  34  35
ATOM     35  C   UNL A   1      42.681  28.601  27.275  1.00  0.00     0.031 A 
ATOM     36  C   UNL A   1      43.637  29.752  27.380  1.00  0.00     0.074 A 
ATOM     37  C   UNL A   1      43.069  27.422  26.759  1.00  0.00     0.049 A 
ATOM     38  N   UNL A   1      44.931  29.758  27.201  1.00  0.00    -0.248 NA
ATOM     39  C   UNL A   1      43.070  31.070  27.718  1.00  0.00     0.031 C 
ATOM     40  C   UNL A   1      42.189  26.274  26.529  1.00  0.00     0.029 A 
ATOM     41  N   UNL A   1      44.302  26.990  26.348  1.00  0.00    -0.354 N 
ATOM     42  C   UNL A   1      45.335  31.066  27.435  1.00  0.00     0.074 A 
ATOM     43  C   UNL A   1      44.146  31.844  27.694  1.00  0.00     0.031 C 
ATOM     44  C   UNL A   1      42.921  25.254  26.053  1.00  0.00     0.029 A 
ATOM     45  C   UNL A   1      44.317  25.675  25.952  1.00  0.00     0.049 A 
ATOM     46  H   UNL A   1      45.101  27.567  26.338  1.00  0.00     0.167 HD
ATOM     47  C   UNL A   1      46.593  31.558  27.472  1.00  0.00     0.031 A 
ATOM     48  C   UNL A   1      45.349  24.889  25.585  1.00  0.00     0.031 A 
ATOM     49  C   UNL A   1      47.761  30.765  27.207  1.00  0.00     0.049 A 
ATOM     50  C   UNL A   1      46.743  25.448  25.648  1.00  0.00     0.074 A 
ATOM     51  C   UNL A   1      49.088  31.140  27.282  1.00  0.00     0.029 A 
ATOM     52  N   UNL A   1      47.738  29.436  26.808  1.00  0.00    -0.354 N 
ATOM     53  N   UNL A   1      47.127  26.652  26.003  1.00  0.00    -0.248 NA
ATOM     54  C   UNL A   1      47.844  24.542  25.294  1.00  0.00     0.031 C 
ATOM     55  C   UNL A   1      49.868  30.054  26.877  1.00  0.00     0.029 A 
ATOM     56  C   UNL A   1      49.027  28.983  26.605  1.00  0.00     0.049 A 
ATOM     57  H   UNL A   1      46.923  28.896  26.687  1.00  0.00     0.167 HD
ATOM     58  C   UNL A   1      48.516  26.645  25.931  1.00  0.00     0.074 A 
ATOM     59  C   UNL A   1      48.904  25.312  25.513  1.00  0.00     0.031 C 
ATOM     60  C   UNL A   1      49.388  27.650  26.187  1.00  0.00     0.031 A 
BRANCH  47  61
ATOM     61  C   UNL A   1      46.778  33.003  27.848  1.00  0.00    -0.014 A 
ATOM     62  C   UNL A   1      46.857  33.380  29.200  1.00  0.00     0.010 A 
ATOM     63  C   UNL A   1      46.782  34.002  26.856  1.00  0.00     0.010 A 
ATOM     64  C   UNL A   1      46.917  34.731  29.556  1.00  0.00     0.020 A 
ATOM     65  C   UNL A   1      46.866  35.352  27.207  1.00  0.00     0.020 A 
ATOM     66  C   UNL A   1      46.912  35.708  28.556  1.00  0.00     0.054 A 
BRANCH  66  67
ATOM     67  S   UNL A   1      46.980  37.457  29.033  1.00  0.00     0.124 S 
ATOM     68  O   UNL A   1      46.428  37.429  30.383  1.00  0.00    -0.237 OA
ATOM     69  O   UNL A   1      48.406  37.762  28.938  1.00  0.00    -0.237 OA
ATOM     70  O   UNL A   1      46.146  38.116  28.028  1.00  0.00    -0.744 OA
ENDBRANCH  66  67
ENDBRANCH  47  61
BRANCH  48  71
ATOM     71  C   UNL A   1      45.082  23.469  25.227  1.00  0.00    -0.014 A 
ATOM     72  C   UNL A   1      45.033  22.480  26.227  1.00  0.00     0.010 A 
ATOM     73  C   UNL A   1      44.976  23.086  23.879  1.00  0.00     0.010 A 
ATOM     74  C   UNL A   1      44.930  21.129  25.883  1.00  0.00     0.020 A 
ATOM     75  C   UNL A   1      44.851  21.736  23.532  1.00  0.00     0.020 A 
ATOM     76  C   UNL A   1      44.857  20.765  24.536  1.00  0.00     0.054 A 
BRANCH  76  77
ATOM     77  S   UNL A   1      44.782  19.003  24.107  1.00  0.00     0.124 S 
ATOM     78  O   UNL A   1      44.586  19.057  22.660  1.00  0.00    -0.237 OA
ATOM     79  O   UNL A   1      46.084  18.509  24.548  1.00  0.00    -0.237 OA
ATOM     80  O   UNL A   1      43.640  18.514  24.876  1.00  0.00    -0.744 OA
ENDBRANCH  76  77
ENDBRANCH  48  71
BRANCH  60  81
ATOM     81  C   UNL A   1      50.857  27.376  26.017  1.00  0.00    -0.014 A 
ATOM     82  C   UNL A   1      51.434  27.451  24.736  1.00  0.00     0.010 A 
ATOM     83  C   UNL A   1      51.622  26.891  27.091  1.00  0.00     0.010 A 
ATOM     84  C   UNL A   1      52.739  27.003  24.522  1.00  0.00     0.020 A 
ATOM     85  C   UNL A   1      52.936  26.466  26.886  1.00  0.00     0.020 A 
ATOM     86  C   UNL A   1      53.477  26.499  25.596  1.00  0.00     0.054 A 
BRANCH  86  87
ATOM     87  S   UNL A   1      55.151  25.872  25.293  1.00  0.00     0.124 S 
ATOM     88  O   UNL A   1      55.881  26.372  26.456  1.00  0.00    -0.237 OA
ATOM     89  O   UNL A   1      54.952  24.426  25.249  1.00  0.00    -0.237 OA
ATOM     90  O   UNL A   1      55.517  26.481  24.016  1.00  0.00    -0.744 OA
ENDBRANCH  86  87
ENDBRANCH  60  81
ENDBRANCH  34  35
ENDBRANCH  27  29
ENDBRANCH  26  27
ENDBRANCH   1  26
TORSDOF 16
ENDMDL
