MODEL 1
REMARK VINA RESULT:     -10.6      0.000      0.000
REMARK SMILES O=C(NC1(C(=O)OCCOC(=O)c2ccc(-c3c4nc(c(-c5ccc(S(=O)(=O)[O-])cc5)c5ccc([nH]5)c(-c5ccc(S(=O)(=O)[O-])cc5)c5nc(c(-c6ccc(S(=O)(=O)[O-])cc6)c6ccc3[nH]6)C=C5)C=C4)cc2)CCCCC1)c1c[nH]c(=O)c(Cl)c1
REMARK SMILES IDX 9 1 8 2 7 3 5 4 6 5 4 6 73 7 77 8 74 9 76 10 75 11 3 12 1 13
REMARK SMILES IDX 2 14 78 16 79 17 85 18 80 19 83 20 81 21 84 23 82 24 10 25
REMARK SMILES IDX 11 26 12 27 13 28 14 29 72 30 15 31 71 32 16 33 17 34 18 35
REMARK SMILES IDX 65 36 19 37 70 38 64 39 66 40 20 41 69 42 63 43 62 44 21 46
REMARK SMILES IDX 51 47 32 48 50 49 33 50 36 51 49 52 67 53 34 54 35 55 48 57
REMARK SMILES IDX 68 58 37 59 22 60 23 61 31 62 24 63 30 64 25 65 26 66 27 67
REMARK SMILES IDX 28 68 29 69 52 70 53 71 61 72 54 73 60 74 55 75 56 76 57 77
REMARK SMILES IDX 58 78 59 79 38 80 39 81 47 82 40 83 46 84 41 85 42 86 43 87
REMARK SMILES IDX 44 88 45 89
REMARK H PARENT 3 15 80 22 66 45 36 56
REMARK Flexibility Score: inf
ROOT
ATOM      1  C   UNL A   1      36.813  23.218  24.117  1.00  0.00     0.275 C 
ENDROOT
BRANCH   1   2
ATOM      2  C   UNL A   1      35.620  22.222  24.067  1.00  0.00     0.274 C 
BRANCH   2   3
ATOM      3  O   UNL A   1      34.241  22.702  24.173  1.00  0.00    -0.460 OA
BRANCH   3   4
ATOM      4  C   UNL A   1      33.791  23.595  23.279  1.00  0.00     0.331 C 
ATOM      5  O   UNL A   1      33.767  23.385  22.078  1.00  0.00    -0.249 OA
BRANCH   4   6
ATOM      6  C   UNL A   1      33.232  24.918  23.779  1.00  0.00     0.138 C 
ATOM      7  C   UNL A   1      33.464  25.309  25.238  1.00  0.00     0.040 C 
ATOM      8  C   UNL A   1      31.700  24.771  23.521  1.00  0.00     0.040 C 
ATOM      9  C   UNL A   1      32.704  24.446  26.256  1.00  0.00     0.003 C 
ATOM     10  C   UNL A   1      31.052  23.761  24.462  1.00  0.00     0.003 C 
ATOM     11  C   UNL A   1      31.237  24.199  25.904  1.00  0.00     0.000 C 
BRANCH   6  12
ATOM     12  N   UNL A   1      33.727  25.978  22.842  1.00  0.00    -0.336 N 
ATOM     13  O   UNL A   1      34.102  27.865  21.752  1.00  0.00    -0.269 OA
ATOM     14  C   UNL A   1      33.689  27.335  22.785  1.00  0.00     0.253 C 
ATOM     15  H   UNL A   1      34.200  25.593  22.071  1.00  0.00     0.165 HD
BRANCH  14  16
ATOM     16  C   UNL A   1      33.172  28.197  23.884  1.00  0.00     0.057 A 
ATOM     17  C   UNL A   1      32.030  28.861  23.626  1.00  0.00     0.099 A 
ATOM     18  C   UNL A   1      33.947  28.595  25.044  1.00  0.00     0.041 A 
ATOM     19  N   UNL A   1      31.521  29.771  24.526  1.00  0.00    -0.327 N 
ATOM     20  C   UNL A   1      33.467  29.473  25.942  1.00  0.00     0.106 A 
ATOM     21  C   UNL A   1      32.120  30.089  25.727  1.00  0.00     0.266 A 
ATOM     22  H   UNL A   1      30.676  30.222  24.297  1.00  0.00     0.169 HD
ATOM     23  Cl  UNL A   1      34.383  29.978  27.307  1.00  0.00    -0.078 Cl
ATOM     24  O   UNL A   1      31.581  30.833  26.541  1.00  0.00    -0.268 OA
ENDBRANCH  14  16
ENDBRANCH   6  12
ENDBRANCH   4   6
ENDBRANCH   3   4
ENDBRANCH   2   3
ENDBRANCH   1   2
BRANCH   1  25
ATOM     25  O   UNL A   1      37.071  23.697  25.464  1.00  0.00    -0.458 OA
BRANCH  25  26
ATOM     26  C   UNL A   1      38.241  23.252  26.021  1.00  0.00     0.338 C 
ATOM     27  O   UNL A   1      38.756  22.160  25.839  1.00  0.00    -0.246 OA
BRANCH  26  28
ATOM     28  C   UNL A   1      38.943  24.378  26.703  1.00  0.00     0.060 A 
ATOM     29  C   UNL A   1      38.661  24.623  28.058  1.00  0.00     0.016 A 
ATOM     30  C   UNL A   1      39.855  25.193  26.035  1.00  0.00     0.016 A 
ATOM     31  C   UNL A   1      39.314  25.639  28.760  1.00  0.00     0.010 A 
ATOM     32  C   UNL A   1      40.456  26.262  26.721  1.00  0.00     0.010 A 
ATOM     33  C   UNL A   1      40.183  26.498  28.083  1.00  0.00    -0.014 A 
BRANCH  33  34
ATOM     34  C   UNL A   1      40.624  27.753  28.748  1.00  0.00     0.031 A 
ATOM     35  C   UNL A   1      42.032  27.821  29.281  1.00  0.00     0.074 A 
ATOM     36  C   UNL A   1      39.824  28.829  28.856  1.00  0.00     0.049 A 
ATOM     37  N   UNL A   1      42.633  28.790  29.923  1.00  0.00    -0.248 NA
ATOM     38  C   UNL A   1      42.881  26.641  29.042  1.00  0.00     0.031 C 
ATOM     39  C   UNL A   1      38.480  28.949  28.297  1.00  0.00     0.029 A 
ATOM     40  N   UNL A   1      40.038  30.035  29.482  1.00  0.00    -0.354 N 
ATOM     41  C   UNL A   1      43.927  28.342  30.157  1.00  0.00     0.074 A 
ATOM     42  C   UNL A   1      44.023  27.010  29.600  1.00  0.00     0.031 C 
ATOM     43  C   UNL A   1      37.978  30.155  28.629  1.00  0.00     0.029 A 
ATOM     44  C   UNL A   1      38.953  30.879  29.445  1.00  0.00     0.049 A 
ATOM     45  H   UNL A   1      40.890  30.272  29.915  1.00  0.00     0.167 HD
ATOM     46  C   UNL A   1      44.946  28.974  30.787  1.00  0.00     0.031 A 
ATOM     47  C   UNL A   1      38.760  32.083  30.022  1.00  0.00     0.031 A 
ATOM     48  C   UNL A   1      44.848  30.272  31.396  1.00  0.00     0.049 A 
ATOM     49  C   UNL A   1      39.864  32.707  30.842  1.00  0.00     0.074 A 
ATOM     50  C   UNL A   1      45.821  30.973  32.087  1.00  0.00     0.029 A 
ATOM     51  N   UNL A   1      43.707  31.057  31.404  1.00  0.00    -0.354 N 
ATOM     52  N   UNL A   1      41.084  32.273  31.055  1.00  0.00    -0.248 NA
ATOM     53  C   UNL A   1      39.563  33.988  31.502  1.00  0.00     0.031 C 
ATOM     54  C   UNL A   1      45.250  32.157  32.564  1.00  0.00     0.029 A 
ATOM     55  C   UNL A   1      43.940  32.220  32.118  1.00  0.00     0.049 A 
ATOM     56  H   UNL A   1      42.855  30.822  30.968  1.00  0.00     0.167 HD
ATOM     57  C   UNL A   1      41.701  33.240  31.843  1.00  0.00     0.074 A 
ATOM     58  C   UNL A   1      40.726  34.285  32.066  1.00  0.00     0.031 C 
ATOM     59  C   UNL A   1      42.966  33.260  32.334  1.00  0.00     0.031 A 
BRANCH  46  60
ATOM     60  C   UNL A   1      46.245  28.225  30.904  1.00  0.00    -0.014 A 
ATOM     61  C   UNL A   1      46.482  27.342  31.973  1.00  0.00     0.010 A 
ATOM     62  C   UNL A   1      47.237  28.401  29.923  1.00  0.00     0.010 A 
ATOM     63  C   UNL A   1      47.707  26.679  32.079  1.00  0.00     0.020 A 
ATOM     64  C   UNL A   1      48.454  27.721  30.014  1.00  0.00     0.020 A 
ATOM     65  C   UNL A   1      48.687  26.878  31.102  1.00  0.00     0.054 A 
BRANCH  65  66
ATOM     66  S   UNL A   1      50.268  26.002  31.262  1.00  0.00     0.124 S 
ATOM     67  O   UNL A   1      49.893  24.852  32.082  1.00  0.00    -0.237 OA
ATOM     68  O   UNL A   1      50.610  25.700  29.876  1.00  0.00    -0.237 OA
ATOM     69  O   UNL A   1      51.139  26.975  31.918  1.00  0.00    -0.744 OA
ENDBRANCH  65  66
ENDBRANCH  46  60
BRANCH  47  70
ATOM     70  C   UNL A   1      37.448  32.779  29.888  1.00  0.00    -0.014 A 
ATOM     71  C   UNL A   1      36.454  32.640  30.873  1.00  0.00     0.010 A 
ATOM     72  C   UNL A   1      37.175  33.558  28.748  1.00  0.00     0.010 A 
ATOM     73  C   UNL A   1      35.204  33.250  30.711  1.00  0.00     0.020 A 
ATOM     74  C   UNL A   1      35.938  34.190  28.594  1.00  0.00     0.020 A 
ATOM     75  C   UNL A   1      34.955  34.021  29.572  1.00  0.00     0.054 A 
BRANCH  75  76
ATOM     76  S   UNL A   1      33.342  34.836  29.401  1.00  0.00     0.124 S 
ATOM     77  O   UNL A   1      32.874  34.880  30.781  1.00  0.00    -0.237 OA
ATOM     78  O   UNL A   1      33.699  36.124  28.811  1.00  0.00    -0.237 OA
ATOM     79  O   UNL A   1      32.599  33.941  28.514  1.00  0.00    -0.744 OA
ENDBRANCH  75  76
ENDBRANCH  47  70
BRANCH  59  80
ATOM     80  C   UNL A   1      43.395  34.466  33.131  1.00  0.00    -0.014 A 
ATOM     81  C   UNL A   1      43.959  35.593  32.507  1.00  0.00     0.010 A 
ATOM     82  C   UNL A   1      43.159  34.499  34.518  1.00  0.00     0.010 A 
ATOM     83  C   UNL A   1      44.303  36.721  33.260  1.00  0.00     0.020 A 
ATOM     84  C   UNL A   1      43.477  35.634  35.270  1.00  0.00     0.020 A 
ATOM     85  C   UNL A   1      44.058  36.735  34.637  1.00  0.00     0.054 A 
BRANCH  85  86
ATOM     86  S   UNL A   1      44.460  38.230  35.585  1.00  0.00     0.124 S 
ATOM     87  O   UNL A   1      43.856  37.940  36.883  1.00  0.00    -0.237 OA
ATOM     88  O   UNL A   1      45.921  38.243  35.561  1.00  0.00    -0.237 OA
ATOM     89  O   UNL A   1      43.823  39.304  34.826  1.00  0.00    -0.744 OA
ENDBRANCH  85  86
ENDBRANCH  59  80
ENDBRANCH  33  34
ENDBRANCH  26  28
ENDBRANCH  25  26
ENDBRANCH   1  25
TORSDOF 16
ENDMDL
MODEL 2
REMARK VINA RESULT:     -10.5      2.674      8.835
REMARK SMILES O=C(NC1(C(=O)OCCOC(=O)c2ccc(-c3c4nc(c(-c5ccc(S(=O)(=O)[O-])cc5)c5ccc([nH]5)c(-c5ccc(S(=O)(=O)[O-])cc5)c5nc(c(-c6ccc(S(=O)(=O)[O-])cc6)c6ccc3[nH]6)C=C5)C=C4)cc2)CCCCC1)c1c[nH]c(=O)c(Cl)c1
REMARK SMILES IDX 9 1 8 2 7 3 5 4 6 5 4 6 73 7 77 8 74 9 76 10 75 11 3 12 1 13
REMARK SMILES IDX 2 14 78 16 79 17 85 18 80 19 83 20 81 21 84 23 82 24 10 25
REMARK SMILES IDX 11 26 12 27 13 28 14 29 72 30 15 31 71 32 16 33 17 34 18 35
REMARK SMILES IDX 65 36 19 37 70 38 64 39 66 40 20 41 69 42 63 43 62 44 21 46
REMARK SMILES IDX 51 47 32 48 50 49 33 50 36 51 49 52 67 53 34 54 35 55 48 57
REMARK SMILES IDX 68 58 37 59 22 60 23 61 31 62 24 63 30 64 25 65 26 66 27 67
REMARK SMILES IDX 28 68 29 69 52 70 53 71 61 72 54 73 60 74 55 75 56 76 57 77
REMARK SMILES IDX 58 78 59 79 38 80 39 81 47 82 40 83 46 84 41 85 42 86 43 87
REMARK SMILES IDX 44 88 45 89
REMARK H PARENT 3 15 80 22 66 45 36 56
REMARK Flexibility Score: inf
ROOT
ATOM      1  C   UNL A   1      32.533  28.640  26.829  1.00  0.00     0.275 C 
ENDROOT
BRANCH   1   2
ATOM      2  C   UNL A   1      32.187  27.127  26.925  1.00  0.00     0.274 C 
BRANCH   2   3
ATOM      3  O   UNL A   1      31.995  26.326  25.716  1.00  0.00    -0.460 OA
BRANCH   3   4
ATOM      4  C   UNL A   1      33.042  25.664  25.199  1.00  0.00     0.331 C 
ATOM      5  O   UNL A   1      34.196  25.877  25.529  1.00  0.00    -0.249 OA
BRANCH   4   6
ATOM      6  C   UNL A   1      32.785  24.554  24.191  1.00  0.00     0.138 C 
ATOM      7  C   UNL A   1      31.386  23.945  24.110  1.00  0.00     0.040 C 
ATOM      8  C   UNL A   1      33.805  23.452  24.615  1.00  0.00     0.040 C 
ATOM      9  C   UNL A   1      30.984  23.111  25.336  1.00  0.00     0.003 C 
ATOM     10  C   UNL A   1      33.425  22.793  25.936  1.00  0.00     0.003 C 
ATOM     11  C   UNL A   1      32.060  22.138  25.817  1.00  0.00     0.000 C 
BRANCH   6  12
ATOM     12  N   UNL A   1      33.237  25.069  22.858  1.00  0.00    -0.336 N 
ATOM     13  O   UNL A   1      33.429  26.129  20.926  1.00  0.00    -0.269 OA
ATOM     14  C   UNL A   1      32.917  26.112  22.047  1.00  0.00     0.253 C 
ATOM     15  H   UNL A   1      33.947  24.509  22.470  1.00  0.00     0.165 HD
BRANCH  14  16
ATOM     16  C   UNL A   1      31.987  27.208  22.435  1.00  0.00     0.057 A 
ATOM     17  C   UNL A   1      32.560  28.329  22.911  1.00  0.00     0.099 A 
ATOM     18  C   UNL A   1      30.558  27.041  22.620  1.00  0.00     0.041 A 
ATOM     19  N   UNL A   1      31.794  29.363  23.402  1.00  0.00    -0.327 N 
ATOM     20  C   UNL A   1      29.788  28.038  23.088  1.00  0.00     0.106 A 
ATOM     21  C   UNL A   1      30.417  29.343  23.466  1.00  0.00     0.266 A 
ATOM     22  H   UNL A   1      32.260  30.167  23.727  1.00  0.00     0.169 HD
ATOM     23  Cl  UNL A   1      28.097  27.847  23.341  1.00  0.00    -0.078 Cl
ATOM     24  O   UNL A   1      29.772  30.324  23.822  1.00  0.00    -0.268 OA
ENDBRANCH  14  16
ENDBRANCH   6  12
ENDBRANCH   4   6
ENDBRANCH   3   4
ENDBRANCH   2   3
ENDBRANCH   1   2
BRANCH   1  25
ATOM     25  O   UNL A   1      33.967  28.875  26.818  1.00  0.00    -0.458 OA
BRANCH  25  26
ATOM     26  C   UNL A   1      34.374  29.996  27.494  1.00  0.00     0.338 C 
ATOM     27  O   UNL A   1      33.672  30.946  27.802  1.00  0.00    -0.246 OA
BRANCH  26  28
ATOM     28  C   UNL A   1      35.754  29.799  28.025  1.00  0.00     0.060 A 
ATOM     29  C   UNL A   1      36.839  29.934  27.142  1.00  0.00     0.016 A 
ATOM     30  C   UNL A   1      35.993  29.477  29.359  1.00  0.00     0.016 A 
ATOM     31  C   UNL A   1      38.155  29.799  27.589  1.00  0.00     0.010 A 
ATOM     32  C   UNL A   1      37.314  29.267  29.793  1.00  0.00     0.010 A 
ATOM     33  C   UNL A   1      38.401  29.416  28.910  1.00  0.00    -0.014 A 
BRANCH  33  34
ATOM     34  C   UNL A   1      39.767  28.970  29.292  1.00  0.00     0.031 A 
ATOM     35  C   UNL A   1      40.634  29.920  30.078  1.00  0.00     0.074 A 
ATOM     36  C   UNL A   1      40.233  27.745  28.991  1.00  0.00     0.049 A 
ATOM     37  N   UNL A   1      41.864  29.769  30.497  1.00  0.00    -0.248 NA
ATOM     38  C   UNL A   1      40.023  31.206  30.454  1.00  0.00     0.031 C 
ATOM     39  C   UNL A   1      39.476  26.684  28.331  1.00  0.00     0.029 A 
ATOM     40  N   UNL A   1      41.473  27.188  29.207  1.00  0.00    -0.354 N 
ATOM     41  C   UNL A   1      42.172  30.933  31.191  1.00  0.00     0.074 A 
ATOM     42  C   UNL A   1      41.005  31.786  31.127  1.00  0.00     0.031 C 
ATOM     43  C   UNL A   1      40.276  25.612  28.173  1.00  0.00     0.029 A 
ATOM     44  C   UNL A   1      41.609  25.920  28.694  1.00  0.00     0.049 A 
ATOM     45  H   UNL A   1      42.195  27.655  29.686  1.00  0.00     0.167 HD
ATOM     46  C   UNL A   1      43.323  31.272  31.818  1.00  0.00     0.031 A 
ATOM     47  C   UNL A   1      42.687  25.111  28.630  1.00  0.00     0.031 A 
ATOM     48  C   UNL A   1      44.509  30.460  31.840  1.00  0.00     0.049 A 
ATOM     49  C   UNL A   1      44.003  25.570  29.212  1.00  0.00     0.074 A 
ATOM     50  C   UNL A   1      45.732  30.742  32.422  1.00  0.00     0.029 A 
ATOM     51  N   UNL A   1      44.627  29.218  31.239  1.00  0.00    -0.354 N 
ATOM     52  N   UNL A   1      44.279  26.673  29.867  1.00  0.00    -0.248 NA
ATOM     53  C   UNL A   1      45.156  24.670  29.047  1.00  0.00     0.031 C 
ATOM     54  C   UNL A   1      46.610  29.695  32.122  1.00  0.00     0.029 A 
ATOM     55  C   UNL A   1      45.914  28.734  31.406  1.00  0.00     0.049 A 
ATOM     56  H   UNL A   1      43.904  28.749  30.762  1.00  0.00     0.167 HD
ATOM     57  C   UNL A   1      45.624  26.584  30.216  1.00  0.00     0.074 A 
ATOM     58  C   UNL A   1      46.106  25.317  29.707  1.00  0.00     0.031 C 
ATOM     59  C   UNL A   1      46.388  27.471  30.901  1.00  0.00     0.031 A 
BRANCH  46  60
ATOM     60  C   UNL A   1      43.367  32.622  32.479  1.00  0.00    -0.014 A 
ATOM     61  C   UNL A   1      43.009  32.782  33.830  1.00  0.00     0.010 A 
ATOM     62  C   UNL A   1      43.782  33.744  31.739  1.00  0.00     0.010 A 
ATOM     63  C   UNL A   1      43.028  34.050  34.418  1.00  0.00     0.020 A 
ATOM     64  C   UNL A   1      43.824  35.008  32.331  1.00  0.00     0.020 A 
ATOM     65  C   UNL A   1      43.429  35.155  33.662  1.00  0.00     0.054 A 
BRANCH  65  66
ATOM     66  S   UNL A   1      43.448  36.789  34.450  1.00  0.00     0.124 S 
ATOM     67  O   UNL A   1      44.742  36.782  35.127  1.00  0.00    -0.237 OA
ATOM     68  O   UNL A   1      43.340  37.697  33.311  1.00  0.00    -0.237 OA
ATOM     69  O   UNL A   1      42.284  36.761  35.333  1.00  0.00    -0.744 OA
ENDBRANCH  65  66
ENDBRANCH  46  60
BRANCH  47  70
ATOM     70  C   UNL A   1      42.595  23.788  27.951  1.00  0.00    -0.014 A 
ATOM     71  C   UNL A   1      41.983  22.692  28.585  1.00  0.00     0.010 A 
ATOM     72  C   UNL A   1      43.159  23.609  26.673  1.00  0.00     0.010 A 
ATOM     73  C   UNL A   1      41.953  21.438  27.964  1.00  0.00     0.020 A 
ATOM     74  C   UNL A   1      43.108  22.365  26.038  1.00  0.00     0.020 A 
ATOM     75  C   UNL A   1      42.516  21.283  26.694  1.00  0.00     0.054 A 
BRANCH  75  76
ATOM     76  S   UNL A   1      42.431  19.658  25.889  1.00  0.00     0.124 S 
ATOM     77  O   UNL A   1      41.022  19.575  25.519  1.00  0.00    -0.237 OA
ATOM     78  O   UNL A   1      43.370  19.805  24.779  1.00  0.00    -0.237 OA
ATOM     79  O   UNL A   1      42.860  18.734  26.938  1.00  0.00    -0.744 OA
ENDBRANCH  75  76
ENDBRANCH  47  70
BRANCH  59  80
ATOM     80  C   UNL A   1      47.821  27.098  31.183  1.00  0.00    -0.014 A 
ATOM     81  C   UNL A   1      48.166  26.302  32.290  1.00  0.00     0.010 A 
ATOM     82  C   UNL A   1      48.829  27.489  30.282  1.00  0.00     0.010 A 
ATOM     83  C   UNL A   1      49.497  25.926  32.504  1.00  0.00     0.020 A 
ATOM     84  C   UNL A   1      50.156  27.093  30.478  1.00  0.00     0.020 A 
ATOM     85  C   UNL A   1      50.483  26.323  31.596  1.00  0.00     0.054 A 
BRANCH  85  86
ATOM     86  S   UNL A   1      52.194  25.776  31.863  1.00  0.00     0.124 S 
ATOM     87  O   UNL A   1      52.802  26.032  30.559  1.00  0.00    -0.237 OA
ATOM     88  O   UNL A   1      52.644  26.645  32.947  1.00  0.00    -0.237 OA
ATOM     89  O   UNL A   1      52.056  24.366  32.220  1.00  0.00    -0.744 OA
ENDBRANCH  85  86
ENDBRANCH  59  80
ENDBRANCH  33  34
ENDBRANCH  26  28
ENDBRANCH  25  26
ENDBRANCH   1  25
TORSDOF 16
ENDMDL
MODEL 3
REMARK VINA RESULT:     -10.5      3.005      9.272
REMARK SMILES O=C(NC1(C(=O)OCCOC(=O)c2ccc(-c3c4nc(c(-c5ccc(S(=O)(=O)[O-])cc5)c5ccc([nH]5)c(-c5ccc(S(=O)(=O)[O-])cc5)c5nc(c(-c6ccc(S(=O)(=O)[O-])cc6)c6ccc3[nH]6)C=C5)C=C4)cc2)CCCCC1)c1c[nH]c(=O)c(Cl)c1
REMARK SMILES IDX 9 1 8 2 7 3 5 4 6 5 4 6 73 7 77 8 74 9 76 10 75 11 3 12 1 13
REMARK SMILES IDX 2 14 78 16 79 17 85 18 80 19 83 20 81 21 84 23 82 24 10 25
REMARK SMILES IDX 11 26 12 27 13 28 14 29 72 30 15 31 71 32 16 33 17 34 18 35
REMARK SMILES IDX 65 36 19 37 70 38 64 39 66 40 20 41 69 42 63 43 62 44 21 46
REMARK SMILES IDX 51 47 32 48 50 49 33 50 36 51 49 52 67 53 34 54 35 55 48 57
REMARK SMILES IDX 68 58 37 59 22 60 23 61 31 62 24 63 30 64 25 65 26 66 27 67
REMARK SMILES IDX 28 68 29 69 52 70 53 71 61 72 54 73 60 74 55 75 56 76 57 77
REMARK SMILES IDX 58 78 59 79 38 80 39 81 47 82 40 83 46 84 41 85 42 86 43 87
REMARK SMILES IDX 44 88 45 89
REMARK H PARENT 3 15 80 22 66 45 36 56
REMARK Flexibility Score: inf
ROOT
ATOM      1  C   UNL A   1      32.566  28.600  27.301  1.00  0.00     0.275 C 
ENDROOT
BRANCH   1   2
ATOM      2  C   UNL A   1      31.752  28.995  26.036  1.00  0.00     0.274 C 
BRANCH   2   3
ATOM      3  O   UNL A   1      31.841  28.199  24.811  1.00  0.00    -0.460 OA
BRANCH   3   4
ATOM      4  C   UNL A   1      31.035  27.136  24.665  1.00  0.00     0.331 C 
ATOM      5  O   UNL A   1      29.854  27.227  24.375  1.00  0.00    -0.249 OA
BRANCH   4   6
ATOM      6  C   UNL A   1      31.625  25.742  24.812  1.00  0.00     0.138 C 
ATOM      7  C   UNL A   1      33.139  25.595  24.949  1.00  0.00     0.040 C 
ATOM      8  C   UNL A   1      31.152  25.022  23.510  1.00  0.00     0.040 C 
ATOM      9  C   UNL A   1      33.929  25.944  23.680  1.00  0.00     0.003 C 
ATOM     10  C   UNL A   1      31.861  25.552  22.269  1.00  0.00     0.003 C 
ATOM     11  C   UNL A   1      33.360  25.339  22.396  1.00  0.00     0.000 C 
BRANCH   6  12
ATOM     12  N   UNL A   1      30.904  25.087  25.952  1.00  0.00    -0.336 N 
ATOM     13  O   UNL A   1      30.010  23.651  27.376  1.00  0.00    -0.269 OA
ATOM     14  C   UNL A   1      30.854  23.844  26.499  1.00  0.00     0.253 C 
ATOM     15  H   UNL A   1      30.318  25.719  26.426  1.00  0.00     0.165 HD
BRANCH  14  16
ATOM     16  C   UNL A   1      31.742  22.722  26.089  1.00  0.00     0.057 A 
ATOM     17  C   UNL A   1      32.928  22.646  26.720  1.00  0.00     0.099 A 
ATOM     18  C   UNL A   1      31.555  21.927  24.889  1.00  0.00     0.041 A 
ATOM     19  N   UNL A   1      33.873  21.717  26.345  1.00  0.00    -0.327 N 
ATOM     20  C   UNL A   1      32.458  21.007  24.508  1.00  0.00     0.106 A 
ATOM     21  C   UNL A   1      33.706  20.818  25.312  1.00  0.00     0.266 A 
ATOM     22  H   UNL A   1      34.720  21.693  26.846  1.00  0.00     0.169 HD
ATOM     23  Cl  UNL A   1      32.267  20.077  23.074  1.00  0.00    -0.078 Cl
ATOM     24  O   UNL A   1      34.535  19.945  25.075  1.00  0.00    -0.268 OA
ENDBRANCH  14  16
ENDBRANCH   6  12
ENDBRANCH   4   6
ENDBRANCH   3   4
ENDBRANCH   2   3
ENDBRANCH   1   2
BRANCH   1  25
ATOM     25  O   UNL A   1      33.993  28.815  27.124  1.00  0.00    -0.458 OA
BRANCH  25  26
ATOM     26  C   UNL A   1      34.476  29.971  27.678  1.00  0.00     0.338 C 
ATOM     27  O   UNL A   1      33.825  30.970  27.942  1.00  0.00    -0.246 OA
BRANCH  26  28
ATOM     28  C   UNL A   1      35.877  29.767  28.147  1.00  0.00     0.060 A 
ATOM     29  C   UNL A   1      36.923  29.901  27.217  1.00  0.00     0.016 A 
ATOM     30  C   UNL A   1      36.173  29.439  29.468  1.00  0.00     0.016 A 
ATOM     31  C   UNL A   1      38.256  29.758  27.604  1.00  0.00     0.010 A 
ATOM     32  C   UNL A   1      37.511  29.221  29.841  1.00  0.00     0.010 A 
ATOM     33  C   UNL A   1      38.559  29.369  28.912  1.00  0.00    -0.014 A 
BRANCH  33  34
ATOM     34  C   UNL A   1      39.938  28.916  29.232  1.00  0.00     0.031 A 
ATOM     35  C   UNL A   1      40.854  29.871  29.953  1.00  0.00     0.074 A 
ATOM     36  C   UNL A   1      40.376  27.679  28.931  1.00  0.00     0.049 A 
ATOM     37  N   UNL A   1      42.103  29.715  30.310  1.00  0.00    -0.248 NA
ATOM     38  C   UNL A   1      40.277  31.170  30.334  1.00  0.00     0.031 C 
ATOM     39  C   UNL A   1      39.575  26.614  28.333  1.00  0.00     0.029 A 
ATOM     40  N   UNL A   1      41.619  27.114  29.094  1.00  0.00    -0.354 N 
ATOM     41  C   UNL A   1      42.457  30.889  30.964  1.00  0.00     0.074 A 
ATOM     42  C   UNL A   1      41.297  31.753  30.944  1.00  0.00     0.031 C 
ATOM     43  C   UNL A   1      40.355  25.531  28.154  1.00  0.00     0.029 A 
ATOM     44  C   UNL A   1      41.716  25.834  28.600  1.00  0.00     0.049 A 
ATOM     45  H   UNL A   1      42.371  27.582  29.525  1.00  0.00     0.167 HD
ATOM     46  C   UNL A   1      43.643  31.227  31.524  1.00  0.00     0.031 A 
ATOM     47  C   UNL A   1      42.781  25.013  28.496  1.00  0.00     0.031 A 
ATOM     48  C   UNL A   1      44.820  30.403  31.501  1.00  0.00     0.049 A 
ATOM     49  C   UNL A   1      44.130  25.469  29.000  1.00  0.00     0.074 A 
ATOM     50  C   UNL A   1      46.075  30.682  32.013  1.00  0.00     0.029 A 
ATOM     51  N   UNL A   1      44.895  29.148  30.919  1.00  0.00    -0.354 N 
ATOM     52  N   UNL A   1      44.451  26.581  29.618  1.00  0.00    -0.248 NA
ATOM     53  C   UNL A   1      45.264  24.553  28.793  1.00  0.00     0.031 C 
ATOM     54  C   UNL A   1      46.926  29.620  31.689  1.00  0.00     0.029 A 
ATOM     55  C   UNL A   1      46.184  28.654  31.029  1.00  0.00     0.049 A 
ATOM     56  H   UNL A   1      44.143  28.678  30.490  1.00  0.00     0.167 HD
ATOM     57  C   UNL A   1      45.812  26.484  29.898  1.00  0.00     0.074 A 
ATOM     58  C   UNL A   1      46.254  25.203  29.390  1.00  0.00     0.031 C 
ATOM     59  C   UNL A   1      46.619  27.376  30.525  1.00  0.00     0.031 A 
BRANCH  46  60
ATOM     60  C   UNL A   1      43.735  32.589  32.155  1.00  0.00    -0.014 A 
ATOM     61  C   UNL A   1      44.137  33.711  31.409  1.00  0.00     0.010 A 
ATOM     62  C   UNL A   1      43.404  32.747  33.513  1.00  0.00     0.010 A 
ATOM     63  C   UNL A   1      44.245  34.962  32.022  1.00  0.00     0.020 A 
ATOM     64  C   UNL A   1      43.489  34.001  34.123  1.00  0.00     0.020 A 
ATOM     65  C   UNL A   1      43.926  35.097  33.377  1.00  0.00     0.054 A 
BRANCH  65  66
ATOM     66  S   UNL A   1      44.072  36.733  34.147  1.00  0.00     0.124 S 
ATOM     67  O   UNL A   1      44.004  36.403  35.569  1.00  0.00    -0.237 OA
ATOM     68  O   UNL A   1      45.371  37.198  33.672  1.00  0.00    -0.237 OA
ATOM     69  O   UNL A   1      42.922  37.466  33.624  1.00  0.00    -0.744 OA
ENDBRANCH  65  66
ENDBRANCH  46  60
BRANCH  47  70
ATOM     70  C   UNL A   1      42.641  23.678  27.849  1.00  0.00    -0.014 A 
ATOM     71  C   UNL A   1      42.328  22.537  28.609  1.00  0.00     0.010 A 
ATOM     72  C   UNL A   1      42.861  23.537  26.466  1.00  0.00     0.010 A 
ATOM     73  C   UNL A   1      42.256  21.278  28.002  1.00  0.00     0.020 A 
ATOM     74  C   UNL A   1      42.765  22.285  25.851  1.00  0.00     0.020 A 
ATOM     75  C   UNL A   1      42.475  21.160  26.627  1.00  0.00     0.054 A 
BRANCH  75  76
ATOM     76  S   UNL A   1      42.337  19.524  25.852  1.00  0.00     0.124 S 
ATOM     77  O   UNL A   1      42.658  18.634  26.962  1.00  0.00    -0.237 OA
ATOM     78  O   UNL A   1      40.947  19.502  25.404  1.00  0.00    -0.237 OA
ATOM     79  O   UNL A   1      43.328  19.570  24.777  1.00  0.00    -0.744 OA
ENDBRANCH  75  76
ENDBRANCH  47  70
BRANCH  59  80
ATOM     80  C   UNL A   1      48.061  26.993  30.740  1.00  0.00    -0.014 A 
ATOM     81  C   UNL A   1      49.066  27.390  29.840  1.00  0.00     0.010 A 
ATOM     82  C   UNL A   1      48.425  26.289  31.904  1.00  0.00     0.010 A 
ATOM     83  C   UNL A   1      50.405  27.068  30.087  1.00  0.00     0.020 A 
ATOM     84  C   UNL A   1      49.764  25.988  32.167  1.00  0.00     0.020 A 
ATOM     85  C   UNL A   1      50.746  26.369  31.250  1.00  0.00     0.054 A 
BRANCH  85  86
ATOM     86  S   UNL A   1      52.495  26.010  31.577  1.00  0.00     0.124 S 
ATOM     87  O   UNL A   1      52.426  24.683  32.182  1.00  0.00    -0.237 OA
ATOM     88  O   UNL A   1      53.089  26.063  30.244  1.00  0.00    -0.237 OA
ATOM     89  O   UNL A   1      52.907  27.085  32.478  1.00  0.00    -0.744 OA
ENDBRANCH  85  86
ENDBRANCH  59  80
ENDBRANCH  33  34
ENDBRANCH  26  28
ENDBRANCH  25  26
ENDBRANCH   1  25
TORSDOF 16
ENDMDL
