MODEL 1
REMARK VINA RESULT:     -10.4      0.000      0.000
REMARK SMILES COc1ccc(Cl)cc1C(=O)Nc1ccc(OCC(=O)OCCOC(=O)c2ccc(-c3c4nc(c(-c5ccc(S(=O)(=O)[O-])cc5)c5ccc([nH]5)c(-c5ccc(S(=O)(=O)[O-])cc5)c5nc(c(-c6ccc(S(=O)(=O)[O-])cc6)c6ccc3[nH]6)C=C5)C=C4)cc2)cc1
REMARK SMILES IDX 22 1 21 2 19 3 20 4 18 5 17 6 16 7 13 8 14 9 88 10 15 11
REMARK SMILES IDX 87 12 12 13 10 14 11 15 9 17 3 18 4 19 5 20 8 21 6 22 7 23
REMARK SMILES IDX 2 24 1 25 23 26 24 27 25 28 26 29 27 30 28 31 86 32 29 33
REMARK SMILES IDX 85 34 30 35 31 36 32 37 79 38 33 39 84 40 78 41 80 42 34 43
REMARK SMILES IDX 83 44 77 45 76 46 35 48 65 49 46 50 64 51 47 52 50 53 63 54
REMARK SMILES IDX 81 55 48 56 49 57 62 59 82 60 51 61 36 62 37 63 45 64 38 65
REMARK SMILES IDX 44 66 39 67 40 68 41 69 42 70 43 71 66 72 67 73 75 74 68 75
REMARK SMILES IDX 74 76 69 77 70 78 71 79 72 80 73 81 52 82 53 83 61 84 54 85
REMARK SMILES IDX 60 86 55 87 56 88 57 89 58 90 59 91
REMARK H PARENT 12 16 80 47 50 58
REMARK Flexibility Score: inf
ROOT
ATOM      1  C   UNL A   1      32.940  29.444  24.746  1.00  0.00     0.274 C 
ENDROOT
BRANCH   1   2
ATOM      2  O   UNL A   1      31.702  29.300  24.015  1.00  0.00    -0.460 OA
BRANCH   2   3
ATOM      3  C   UNL A   1      31.758  28.566  22.870  1.00  0.00     0.344 C 
ATOM      4  O   UNL A   1      30.797  28.367  22.130  1.00  0.00    -0.248 OA
BRANCH   3   5
ATOM      5  C   UNL A   1      33.166  28.069  22.525  1.00  0.00     0.351 C 
BRANCH   5   6
ATOM      6  O   UNL A   1      33.375  26.663  22.442  1.00  0.00    -0.482 OA
BRANCH   6   7
ATOM      7  C   UNL A   1      32.984  25.948  23.545  1.00  0.00     0.120 A 
ATOM      8  C   UNL A   1      32.444  24.469  25.863  1.00  0.00     0.041 A 
ATOM      9  C   UNL A   1      33.471  25.411  25.860  1.00  0.00     0.030 A 
ATOM     10  C   UNL A   1      31.610  24.355  24.744  1.00  0.00     0.030 A 
ATOM     11  C   UNL A   1      33.722  26.166  24.710  1.00  0.00     0.048 A 
ATOM     12  C   UNL A   1      31.896  25.075  23.577  1.00  0.00     0.048 A 
BRANCH   8  13
ATOM     13  N   UNL A   1      32.221  23.603  26.943  1.00  0.00    -0.322 N 
ATOM     14  C   UNL A   1      32.948  22.514  27.386  1.00  0.00     0.259 C 
ATOM     15  O   UNL A   1      32.750  22.107  28.532  1.00  0.00    -0.269 OA
ATOM     16  H   UNL A   1      31.416  23.803  27.473  1.00  0.00     0.170 HD
BRANCH  14  17
ATOM     17  C   UNL A   1      33.867  21.712  26.515  1.00  0.00     0.083 A 
ATOM     18  C   UNL A   1      35.189  22.053  26.198  1.00  0.00     0.131 A 
ATOM     19  C   UNL A   1      35.985  21.222  25.399  1.00  0.00     0.049 A 
ATOM     20  C   UNL A   1      35.426  20.118  24.770  1.00  0.00     0.024 A 
ATOM     21  C   UNL A   1      33.308  20.612  25.842  1.00  0.00     0.038 A 
ATOM     22  C   UNL A   1      34.077  19.840  24.964  1.00  0.00     0.042 A 
ATOM     23  Cl  UNL A   1      33.351  18.547  24.091  1.00  0.00    -0.084 Cl
BRANCH  18  24
ATOM     24  O   UNL A   1      35.796  23.200  26.607  1.00  0.00    -0.496 OA
ATOM     25  C   UNL A   1      36.855  23.571  25.733  1.00  0.00     0.278 C 
ENDBRANCH  18  24
ENDBRANCH  14  17
ENDBRANCH   8  13
ENDBRANCH   6   7
ENDBRANCH   5   6
ENDBRANCH   3   5
ENDBRANCH   2   3
ENDBRANCH   1   2
BRANCH   1  26
ATOM     26  C   UNL A   1      32.749  29.204  26.254  1.00  0.00     0.275 C 
BRANCH  26  27
ATOM     27  O   UNL A   1      33.986  29.004  26.977  1.00  0.00    -0.458 OA
BRANCH  27  28
ATOM     28  C   UNL A   1      34.399  30.098  27.654  1.00  0.00     0.338 C 
ATOM     29  O   UNL A   1      33.732  31.089  27.890  1.00  0.00    -0.246 OA
BRANCH  28  30
ATOM     30  C   UNL A   1      35.777  30.008  28.144  1.00  0.00     0.060 A 
ATOM     31  C   UNL A   1      36.801  30.089  27.191  1.00  0.00     0.016 A 
ATOM     32  C   UNL A   1      36.047  29.587  29.447  1.00  0.00     0.016 A 
ATOM     33  C   UNL A   1      38.097  29.709  27.529  1.00  0.00     0.010 A 
ATOM     34  C   UNL A   1      37.350  29.201  29.783  1.00  0.00     0.010 A 
ATOM     35  C   UNL A   1      38.376  29.241  28.821  1.00  0.00    -0.014 A 
BRANCH  35  36
ATOM     36  C   UNL A   1      39.770  28.933  29.204  1.00  0.00     0.031 A 
ATOM     37  C   UNL A   1      40.675  29.946  29.843  1.00  0.00     0.074 A 
ATOM     38  C   UNL A   1      40.213  27.689  28.951  1.00  0.00     0.049 A 
ATOM     39  N   UNL A   1      41.935  29.828  30.176  1.00  0.00    -0.248 NA
ATOM     40  C   UNL A   1      40.096  31.257  30.160  1.00  0.00     0.031 C 
ATOM     41  C   UNL A   1      39.400  26.616  28.374  1.00  0.00     0.029 A 
ATOM     42  N   UNL A   1      41.447  27.127  29.125  1.00  0.00    -0.354 N 
ATOM     43  C   UNL A   1      42.300  31.042  30.745  1.00  0.00     0.074 A 
ATOM     44  C   UNL A   1      41.131  31.895  30.695  1.00  0.00     0.031 C 
ATOM     45  C   UNL A   1      40.170  25.531  28.208  1.00  0.00     0.029 A 
ATOM     46  C   UNL A   1      41.528  25.847  28.638  1.00  0.00     0.049 A 
ATOM     47  H   UNL A   1      42.200  27.592  29.556  1.00  0.00     0.167 HD
ATOM     48  C   UNL A   1      43.498  31.404  31.264  1.00  0.00     0.031 A 
ATOM     49  C   UNL A   1      42.588  25.028  28.512  1.00  0.00     0.031 A 
ATOM     50  C   UNL A   1      44.656  30.548  31.292  1.00  0.00     0.049 A 
ATOM     51  C   UNL A   1      43.926  25.485  29.001  1.00  0.00     0.074 A 
ATOM     52  C   UNL A   1      45.906  30.808  31.829  1.00  0.00     0.029 A 
ATOM     53  N   UNL A   1      44.714  29.275  30.748  1.00  0.00    -0.354 N 
ATOM     54  N   UNL A   1      44.246  26.628  29.560  1.00  0.00    -0.248 NA
ATOM     55  C   UNL A   1      45.043  24.545  28.852  1.00  0.00     0.031 C 
ATOM     56  C   UNL A   1      46.733  29.710  31.566  1.00  0.00     0.029 A 
ATOM     57  C   UNL A   1      45.985  28.748  30.906  1.00  0.00     0.049 A 
ATOM     58  H   UNL A   1      43.962  28.812  30.313  1.00  0.00     0.167 HD
ATOM     59  C   UNL A   1      45.601  26.536  29.851  1.00  0.00     0.074 A 
ATOM     60  C   UNL A   1      46.037  25.227  29.406  1.00  0.00     0.031 C 
ATOM     61  C   UNL A   1      46.405  27.450  30.444  1.00  0.00     0.031 A 
BRANCH  48  62
ATOM     62  C   UNL A   1      43.637  32.791  31.833  1.00  0.00    -0.014 A 
ATOM     63  C   UNL A   1      43.385  33.046  33.193  1.00  0.00     0.010 A 
ATOM     64  C   UNL A   1      44.124  33.833  31.022  1.00  0.00     0.010 A 
ATOM     65  C   UNL A   1      43.602  34.320  33.728  1.00  0.00     0.020 A 
ATOM     66  C   UNL A   1      44.356  35.105  31.556  1.00  0.00     0.020 A 
ATOM     67  C   UNL A   1      44.085  35.343  32.905  1.00  0.00     0.054 A 
BRANCH  67  68
ATOM     68  S   UNL A   1      44.407  36.974  33.634  1.00  0.00     0.124 S 
ATOM     69  O   UNL A   1      45.847  37.114  33.432  1.00  0.00    -0.237 OA
ATOM     70  O   UNL A   1      43.573  37.859  32.823  1.00  0.00    -0.237 OA
ATOM     71  O   UNL A   1      43.982  36.824  35.023  1.00  0.00    -0.744 OA
ENDBRANCH  67  68
ENDBRANCH  48  62
BRANCH  49  72
ATOM     72  C   UNL A   1      42.394  23.710  27.860  1.00  0.00    -0.014 A 
ATOM     73  C   UNL A   1      42.641  23.548  26.488  1.00  0.00     0.010 A 
ATOM     74  C   UNL A   1      42.060  22.590  28.643  1.00  0.00     0.010 A 
ATOM     75  C   UNL A   1      42.565  22.279  25.909  1.00  0.00     0.020 A 
ATOM     76  C   UNL A   1      42.003  21.319  28.071  1.00  0.00     0.020 A 
ATOM     77  C   UNL A   1      42.253  21.173  26.705  1.00  0.00     0.054 A 
BRANCH  77  78
ATOM     78  S   UNL A   1      42.260  19.520  25.957  1.00  0.00     0.124 S 
ATOM     79  O   UNL A   1      40.857  19.345  25.598  1.00  0.00    -0.237 OA
ATOM     80  O   UNL A   1      43.186  19.680  24.838  1.00  0.00    -0.237 OA
ATOM     81  O   UNL A   1      42.745  18.662  27.036  1.00  0.00    -0.744 OA
ENDBRANCH  77  78
ENDBRANCH  49  72
BRANCH  61  82
ATOM     82  C   UNL A   1      47.838  27.057  30.665  1.00  0.00    -0.014 A 
ATOM     83  C   UNL A   1      48.847  27.482  29.785  1.00  0.00     0.010 A 
ATOM     84  C   UNL A   1      48.182  26.291  31.793  1.00  0.00     0.010 A 
ATOM     85  C   UNL A   1      50.178  27.127  30.017  1.00  0.00     0.020 A 
ATOM     86  C   UNL A   1      49.513  25.950  32.039  1.00  0.00     0.020 A 
ATOM     87  C   UNL A   1      50.502  26.360  31.141  1.00  0.00     0.054 A 
BRANCH  87  88
ATOM     88  S   UNL A   1      52.241  25.947  31.449  1.00  0.00     0.124 S 
ATOM     89  O   UNL A   1      52.797  25.954  30.098  1.00  0.00    -0.237 OA
ATOM     90  O   UNL A   1      52.684  27.036  32.315  1.00  0.00    -0.237 OA
ATOM     91  O   UNL A   1      52.176  24.635  32.090  1.00  0.00    -0.744 OA
ENDBRANCH  87  88
ENDBRANCH  61  82
ENDBRANCH  35  36
ENDBRANCH  28  30
ENDBRANCH  27  28
ENDBRANCH  26  27
ENDBRANCH   1  26
TORSDOF 19
ENDMDL
MODEL 2
REMARK VINA RESULT:     -10.1      3.744      9.502
REMARK SMILES COc1ccc(Cl)cc1C(=O)Nc1ccc(OCC(=O)OCCOC(=O)c2ccc(-c3c4nc(c(-c5ccc(S(=O)(=O)[O-])cc5)c5ccc([nH]5)c(-c5ccc(S(=O)(=O)[O-])cc5)c5nc(c(-c6ccc(S(=O)(=O)[O-])cc6)c6ccc3[nH]6)C=C5)C=C4)cc2)cc1
REMARK SMILES IDX 22 1 21 2 19 3 20 4 18 5 17 6 16 7 13 8 14 9 88 10 15 11
REMARK SMILES IDX 87 12 12 13 10 14 11 15 9 17 3 18 4 19 5 20 8 21 6 22 7 23
REMARK SMILES IDX 2 24 1 25 23 26 24 27 25 28 26 29 27 30 28 31 86 32 29 33
REMARK SMILES IDX 85 34 30 35 31 36 32 37 79 38 33 39 84 40 78 41 80 42 34 43
REMARK SMILES IDX 83 44 77 45 76 46 35 48 65 49 46 50 64 51 47 52 50 53 63 54
REMARK SMILES IDX 81 55 48 56 49 57 62 59 82 60 51 61 36 62 37 63 45 64 38 65
REMARK SMILES IDX 44 66 39 67 40 68 41 69 42 70 43 71 66 72 67 73 75 74 68 75
REMARK SMILES IDX 74 76 69 77 70 78 71 79 72 80 73 81 52 82 53 83 61 84 54 85
REMARK SMILES IDX 60 86 55 87 56 88 57 89 58 90 59 91
REMARK H PARENT 12 16 80 47 50 58
REMARK Flexibility Score: inf
ROOT
ATOM      1  C   UNL A   1      34.869  33.608  31.155  1.00  0.00     0.274 C 
ENDROOT
BRANCH   1   2
ATOM      2  O   UNL A   1      34.852  34.277  29.875  1.00  0.00    -0.460 OA
BRANCH   2   3
ATOM      3  C   UNL A   1      33.697  34.188  29.161  1.00  0.00     0.344 C 
ATOM      4  O   UNL A   1      32.677  34.825  29.415  1.00  0.00    -0.248 OA
BRANCH   3   5
ATOM      5  C   UNL A   1      33.800  33.274  27.935  1.00  0.00     0.351 C 
BRANCH   5   6
ATOM      6  O   UNL A   1      34.729  32.195  27.984  1.00  0.00    -0.482 OA
BRANCH   6   7
ATOM      7  C   UNL A   1      34.236  30.982  27.581  1.00  0.00     0.120 A 
ATOM      8  C   UNL A   1      33.007  28.558  26.895  1.00  0.00     0.041 A 
ATOM      9  C   UNL A   1      32.250  29.725  26.976  1.00  0.00     0.030 A 
ATOM     10  C   UNL A   1      34.398  28.627  27.037  1.00  0.00     0.030 A 
ATOM     11  C   UNL A   1      32.870  30.938  27.294  1.00  0.00     0.048 A 
ATOM     12  C   UNL A   1      35.009  29.832  27.406  1.00  0.00     0.048 A 
BRANCH   8  13
ATOM     13  N   UNL A   1      32.426  27.297  26.696  1.00  0.00    -0.322 N 
ATOM     14  C   UNL A   1      31.900  26.720  25.556  1.00  0.00     0.259 C 
ATOM     15  O   UNL A   1      31.745  25.498  25.539  1.00  0.00    -0.269 OA
ATOM     16  H   UNL A   1      32.387  26.730  27.500  1.00  0.00     0.170 HD
BRANCH  14  17
ATOM     17  C   UNL A   1      31.381  27.501  24.387  1.00  0.00     0.083 A 
ATOM     18  C   UNL A   1      32.158  28.276  23.518  1.00  0.00     0.131 A 
ATOM     19  C   UNL A   1      31.587  28.949  22.429  1.00  0.00     0.049 A 
ATOM     20  C   UNL A   1      30.207  28.989  22.284  1.00  0.00     0.024 A 
ATOM     21  C   UNL A   1      29.984  27.582  24.246  1.00  0.00     0.038 A 
ATOM     22  C   UNL A   1      29.409  28.337  23.217  1.00  0.00     0.042 A 
ATOM     23  Cl  UNL A   1      27.698  28.486  23.112  1.00  0.00    -0.084 Cl
BRANCH  18  24
ATOM     24  O   UNL A   1      33.499  28.462  23.660  1.00  0.00    -0.496 OA
ATOM     25  C   UNL A   1      34.162  28.478  22.401  1.00  0.00     0.278 C 
ENDBRANCH  18  24
ENDBRANCH  14  17
ENDBRANCH   8  13
ENDBRANCH   6   7
ENDBRANCH   5   6
ENDBRANCH   3   5
ENDBRANCH   2   3
ENDBRANCH   1   2
BRANCH   1  26
ATOM     26  C   UNL A   1      36.252  33.015  31.477  1.00  0.00     0.275 C 
BRANCH  26  27
ATOM     27  O   UNL A   1      36.706  32.030  30.521  1.00  0.00    -0.458 OA
BRANCH  27  28
ATOM     28  C   UNL A   1      37.029  30.843  31.080  1.00  0.00     0.338 C 
ATOM     29  O   UNL A   1      36.436  30.294  31.990  1.00  0.00    -0.246 OA
BRANCH  28  30
ATOM     30  C   UNL A   1      38.195  30.198  30.470  1.00  0.00     0.060 A 
ATOM     31  C   UNL A   1      39.310  29.986  31.290  1.00  0.00     0.016 A 
ATOM     32  C   UNL A   1      38.291  30.057  29.084  1.00  0.00     0.016 A 
ATOM     33  C   UNL A   1      40.542  29.669  30.721  1.00  0.00     0.010 A 
ATOM     34  C   UNL A   1      39.530  29.743  28.515  1.00  0.00     0.010 A 
ATOM     35  C   UNL A   1      40.665  29.568  29.328  1.00  0.00    -0.014 A 
BRANCH  35  36
ATOM     36  C   UNL A   1      41.948  29.135  28.735  1.00  0.00     0.031 A 
ATOM     37  C   UNL A   1      42.205  27.718  28.312  1.00  0.00     0.074 A 
ATOM     38  C   UNL A   1      42.901  30.072  28.591  1.00  0.00     0.049 A 
ATOM     39  N   UNL A   1      43.303  27.190  27.833  1.00  0.00    -0.248 NA
ATOM     40  C   UNL A   1      41.091  26.770  28.428  1.00  0.00     0.031 C 
ATOM     41  C   UNL A   1      42.737  31.488  28.929  1.00  0.00     0.029 A 
ATOM     42  N   UNL A   1      44.189  29.975  28.144  1.00  0.00    -0.354 N 
ATOM     43  C   UNL A   1      43.012  25.853  27.586  1.00  0.00     0.074 A 
ATOM     44  C   UNL A   1      41.638  25.643  27.987  1.00  0.00     0.031 C 
ATOM     45  C   UNL A   1      43.898  32.122  28.711  1.00  0.00     0.029 A 
ATOM     46  C   UNL A   1      44.886  31.152  28.249  1.00  0.00     0.049 A 
ATOM     47  H   UNL A   1      44.578  29.145  27.783  1.00  0.00     0.167 HD
ATOM     48  C   UNL A   1      43.820  24.897  27.068  1.00  0.00     0.031 A 
ATOM     49  C   UNL A   1      46.187  31.417  28.037  1.00  0.00     0.031 A 
ATOM     50  C   UNL A   1      45.192  25.119  26.688  1.00  0.00     0.049 A 
ATOM     51  C   UNL A   1      47.087  30.322  27.558  1.00  0.00     0.074 A 
ATOM     52  C   UNL A   1      46.083  24.225  26.118  1.00  0.00     0.029 A 
ATOM     53  N   UNL A   1      45.876  26.313  26.851  1.00  0.00    -0.354 N 
ATOM     54  N   UNL A   1      46.789  29.070  27.306  1.00  0.00    -0.248 NA
ATOM     55  C   UNL A   1      48.493  30.672  27.329  1.00  0.00     0.031 C 
ATOM     56  C   UNL A   1      47.320  24.865  25.984  1.00  0.00     0.029 A 
ATOM     57  C   UNL A   1      47.187  26.171  26.427  1.00  0.00     0.049 A 
ATOM     58  H   UNL A   1      45.488  27.141  27.216  1.00  0.00     0.167 HD
ATOM     59  C   UNL A   1      47.968  28.485  26.865  1.00  0.00     0.074 A 
ATOM     60  C   UNL A   1      48.983  29.521  26.886  1.00  0.00     0.031 C 
ATOM     61  C   UNL A   1      48.186  27.208  26.468  1.00  0.00     0.031 A 
BRANCH  48  62
ATOM     62  C   UNL A   1      43.260  23.511  26.891  1.00  0.00    -0.014 A 
ATOM     63  C   UNL A   1      42.802  23.068  25.637  1.00  0.00     0.010 A 
ATOM     64  C   UNL A   1      43.283  22.605  27.968  1.00  0.00     0.010 A 
ATOM     65  C   UNL A   1      42.364  21.750  25.468  1.00  0.00     0.020 A 
ATOM     66  C   UNL A   1      42.861  21.283  27.799  1.00  0.00     0.020 A 
ATOM     67  C   UNL A   1      42.396  20.866  26.550  1.00  0.00     0.054 A 
BRANCH  67  68
ATOM     68  S   UNL A   1      41.870  19.147  26.292  1.00  0.00     0.124 S 
ATOM     69  O   UNL A   1      42.009  18.587  27.634  1.00  0.00    -0.237 OA
ATOM     70  O   UNL A   1      40.498  19.298  25.815  1.00  0.00    -0.237 OA
ATOM     71  O   UNL A   1      42.817  18.639  25.303  1.00  0.00    -0.744 OA
ENDBRANCH  67  68
ENDBRANCH  48  62
BRANCH  49  72
ATOM     72  C   UNL A   1      46.689  32.784  28.316  1.00  0.00    -0.014 A 
ATOM     73  C   UNL A   1      46.636  33.781  27.330  1.00  0.00     0.010 A 
ATOM     74  C   UNL A   1      47.128  33.113  29.612  1.00  0.00     0.010 A 
ATOM     75  C   UNL A   1      47.007  35.092  27.639  1.00  0.00     0.020 A 
ATOM     76  C   UNL A   1      47.479  34.425  29.929  1.00  0.00     0.020 A 
ATOM     77  C   UNL A   1      47.420  35.406  28.938  1.00  0.00     0.054 A 
BRANCH  77  78
ATOM     78  S   UNL A   1      47.797  37.132  29.348  1.00  0.00     0.124 S 
ATOM     79  O   UNL A   1      46.464  37.701  29.518  1.00  0.00    -0.237 OA
ATOM     80  O   UNL A   1      48.592  37.006  30.567  1.00  0.00    -0.237 OA
ATOM     81  O   UNL A   1      48.537  37.603  28.179  1.00  0.00    -0.744 OA
ENDBRANCH  77  78
ENDBRANCH  49  72
BRANCH  61  82
ATOM     82  C   UNL A   1      49.573  26.865  26.003  1.00  0.00    -0.014 A 
ATOM     83  C   UNL A   1      50.004  27.204  24.709  1.00  0.00     0.010 A 
ATOM     84  C   UNL A   1      50.466  26.237  26.888  1.00  0.00     0.010 A 
ATOM     85  C   UNL A   1      51.304  26.898  24.300  1.00  0.00     0.020 A 
ATOM     86  C   UNL A   1      51.772  25.946  26.488  1.00  0.00     0.020 A 
ATOM     87  C   UNL A   1      52.179  26.268  25.191  1.00  0.00     0.054 A 
BRANCH  87  88
ATOM     88  S   UNL A   1      53.876  25.919  24.654  1.00  0.00     0.124 S 
ATOM     89  O   UNL A   1      54.645  26.884  25.437  1.00  0.00    -0.237 OA
ATOM     90  O   UNL A   1      54.054  24.520  25.032  1.00  0.00    -0.237 OA
ATOM     91  O   UNL A   1      53.841  26.170  23.215  1.00  0.00    -0.744 OA
ENDBRANCH  87  88
ENDBRANCH  61  82
ENDBRANCH  35  36
ENDBRANCH  28  30
ENDBRANCH  27  28
ENDBRANCH  26  27
ENDBRANCH   1  26
TORSDOF 19
ENDMDL
MODEL 3
REMARK VINA RESULT:     -10.1      4.449      9.828
REMARK SMILES COc1ccc(Cl)cc1C(=O)Nc1ccc(OCC(=O)OCCOC(=O)c2ccc(-c3c4nc(c(-c5ccc(S(=O)(=O)[O-])cc5)c5ccc([nH]5)c(-c5ccc(S(=O)(=O)[O-])cc5)c5nc(c(-c6ccc(S(=O)(=O)[O-])cc6)c6ccc3[nH]6)C=C5)C=C4)cc2)cc1
REMARK SMILES IDX 22 1 21 2 19 3 20 4 18 5 17 6 16 7 13 8 14 9 88 10 15 11
REMARK SMILES IDX 87 12 12 13 10 14 11 15 9 17 3 18 4 19 5 20 8 21 6 22 7 23
REMARK SMILES IDX 2 24 1 25 23 26 24 27 25 28 26 29 27 30 28 31 86 32 29 33
REMARK SMILES IDX 85 34 30 35 31 36 32 37 79 38 33 39 84 40 78 41 80 42 34 43
REMARK SMILES IDX 83 44 77 45 76 46 35 48 65 49 46 50 64 51 47 52 50 53 63 54
REMARK SMILES IDX 81 55 48 56 49 57 62 59 82 60 51 61 36 62 37 63 45 64 38 65
REMARK SMILES IDX 44 66 39 67 40 68 41 69 42 70 43 71 66 72 67 73 75 74 68 75
REMARK SMILES IDX 74 76 69 77 70 78 71 79 72 80 73 81 52 82 53 83 61 84 54 85
REMARK SMILES IDX 60 86 55 87 56 88 57 89 58 90 59 91
REMARK H PARENT 12 16 80 47 50 58
REMARK Flexibility Score: inf
ROOT
ATOM      1  C   UNL A   1      42.034  22.772  25.911  1.00  0.00     0.274 C 
ENDROOT
BRANCH   1   2
ATOM      2  O   UNL A   1      40.927  22.605  26.823  1.00  0.00    -0.460 OA
BRANCH   2   3
ATOM      3  C   UNL A   1      40.144  21.508  26.628  1.00  0.00     0.344 C 
ATOM      4  O   UNL A   1      40.379  20.399  27.102  1.00  0.00    -0.248 OA
BRANCH   3   5
ATOM      5  C   UNL A   1      38.871  21.796  25.825  1.00  0.00     0.351 C 
BRANCH   5   6
ATOM      6  O   UNL A   1      38.354  23.123  25.846  1.00  0.00    -0.482 OA
BRANCH   6   7
ATOM      7  C   UNL A   1      37.180  23.303  25.162  1.00  0.00     0.120 A 
ATOM      8  C   UNL A   1      34.663  23.710  24.000  1.00  0.00     0.041 A 
ATOM      9  C   UNL A   1      35.045  24.454  25.114  1.00  0.00     0.030 A 
ATOM     10  C   UNL A   1      35.588  22.851  23.394  1.00  0.00     0.030 A 
ATOM     11  C   UNL A   1      36.312  24.267  25.677  1.00  0.00     0.048 A 
ATOM     12  C   UNL A   1      36.836  22.628  23.990  1.00  0.00     0.048 A 
BRANCH   8  13
ATOM     13  N   UNL A   1      33.368  23.768  23.464  1.00  0.00    -0.322 N 
ATOM     14  C   UNL A   1      32.281  22.935  23.650  1.00  0.00     0.259 C 
ATOM     15  O   UNL A   1      31.164  23.356  23.344  1.00  0.00    -0.269 OA
ATOM     16  H   UNL A   1      33.206  24.527  22.858  1.00  0.00     0.170 HD
BRANCH  14  17
ATOM     17  C   UNL A   1      32.390  21.502  24.075  1.00  0.00     0.083 A 
ATOM     18  C   UNL A   1      32.730  21.059  25.359  1.00  0.00     0.131 A 
ATOM     19  C   UNL A   1      32.776  19.694  25.672  1.00  0.00     0.049 A 
ATOM     20  C   UNL A   1      32.639  18.745  24.668  1.00  0.00     0.024 A 
ATOM     21  C   UNL A   1      32.290  20.529  23.064  1.00  0.00     0.038 A 
ATOM     22  C   UNL A   1      32.436  19.169  23.359  1.00  0.00     0.042 A 
ATOM     23  Cl  UNL A   1      32.389  18.003  22.095  1.00  0.00    -0.084 Cl
BRANCH  18  24
ATOM     24  O   UNL A   1      33.062  21.889  26.386  1.00  0.00    -0.496 OA
ATOM     25  C   UNL A   1      34.256  21.467  27.034  1.00  0.00     0.278 C 
ENDBRANCH  18  24
ENDBRANCH  14  17
ENDBRANCH   8  13
ENDBRANCH   6   7
ENDBRANCH   5   6
ENDBRANCH   3   5
ENDBRANCH   2   3
ENDBRANCH   1   2
BRANCH   1  26
ATOM     26  C   UNL A   1      43.321  23.198  26.640  1.00  0.00     0.275 C 
BRANCH  26  27
ATOM     27  O   UNL A   1      43.815  24.500  26.248  1.00  0.00    -0.458 OA
BRANCH  27  28
ATOM     28  C   UNL A   1      42.851  25.445  26.180  1.00  0.00     0.338 C 
ATOM     29  O   UNL A   1      42.187  25.721  25.199  1.00  0.00    -0.246 OA
BRANCH  28  30
ATOM     30  C   UNL A   1      42.620  26.147  27.446  1.00  0.00     0.060 A 
ATOM     31  C   UNL A   1      41.455  25.822  28.153  1.00  0.00     0.016 A 
ATOM     32  C   UNL A   1      43.373  27.272  27.787  1.00  0.00     0.016 A 
ATOM     33  C   UNL A   1      41.016  26.648  29.185  1.00  0.00     0.010 A 
ATOM     34  C   UNL A   1      42.926  28.102  28.822  1.00  0.00     0.010 A 
ATOM     35  C   UNL A   1      41.736  27.806  29.511  1.00  0.00    -0.014 A 
BRANCH  35  36
ATOM     36  C   UNL A   1      41.321  28.625  30.670  1.00  0.00     0.031 A 
ATOM     37  C   UNL A   1      40.194  29.613  30.599  1.00  0.00     0.074 A 
ATOM     38  C   UNL A   1      42.006  28.454  31.814  1.00  0.00     0.049 A 
ATOM     39  N   UNL A   1      39.765  30.437  31.522  1.00  0.00    -0.248 NA
ATOM     40  C   UNL A   1      39.443  29.686  29.340  1.00  0.00     0.031 C 
ATOM     41  C   UNL A   1      43.090  27.486  32.002  1.00  0.00     0.029 A 
ATOM     42  N   UNL A   1      41.909  29.095  33.018  1.00  0.00    -0.354 N 
ATOM     43  C   UNL A   1      38.694  31.122  30.959  1.00  0.00     0.074 A 
ATOM     44  C   UNL A   1      38.549  30.631  29.605  1.00  0.00     0.031 C 
ATOM     45  C   UNL A   1      43.582  27.622  33.241  1.00  0.00     0.029 A 
ATOM     46  C   UNL A   1      42.871  28.703  33.915  1.00  0.00     0.049 A 
ATOM     47  H   UNL A   1      41.219  29.768  33.221  1.00  0.00     0.167 HD
ATOM     48  C   UNL A   1      37.905  32.066  31.527  1.00  0.00     0.031 A 
ATOM     49  C   UNL A   1      43.175  29.186  35.133  1.00  0.00     0.031 A 
ATOM     50  C   UNL A   1      38.073  32.554  32.872  1.00  0.00     0.049 A 
ATOM     51  C   UNL A   1      42.353  30.299  35.703  1.00  0.00     0.074 A 
ATOM     52  C   UNL A   1      37.303  33.482  33.553  1.00  0.00     0.029 A 
ATOM     53  N   UNL A   1      39.086  32.167  33.735  1.00  0.00    -0.354 N 
ATOM     54  N   UNL A   1      41.327  30.916  35.168  1.00  0.00    -0.248 NA
ATOM     55  C   UNL A   1      42.721  30.776  37.041  1.00  0.00     0.031 C 
ATOM     56  C   UNL A   1      37.881  33.692  34.811  1.00  0.00     0.029 A 
ATOM     57  C   UNL A   1      38.983  32.861  34.930  1.00  0.00     0.049 A 
ATOM     58  H   UNL A   1      39.778  31.497  33.530  1.00  0.00     0.167 HD
ATOM     59  C   UNL A   1      40.911  31.842  36.114  1.00  0.00     0.074 A 
ATOM     60  C   UNL A   1      41.796  31.704  37.254  1.00  0.00     0.031 C 
ATOM     61  C   UNL A   1      39.881  32.720  36.047  1.00  0.00     0.031 A 
BRANCH  48  62
ATOM     62  C   UNL A   1      36.794  32.656  30.701  1.00  0.00    -0.014 A 
ATOM     63  C   UNL A   1      35.481  32.160  30.791  1.00  0.00     0.010 A 
ATOM     64  C   UNL A   1      37.044  33.786  29.900  1.00  0.00     0.010 A 
ATOM     65  C   UNL A   1      34.442  32.773  30.083  1.00  0.00     0.020 A 
ATOM     66  C   UNL A   1      36.005  34.411  29.202  1.00  0.00     0.020 A 
ATOM     67  C   UNL A   1      34.710  33.895  29.292  1.00  0.00     0.054 A 
BRANCH  67  68
ATOM     68  S   UNL A   1      33.336  34.703  28.424  1.00  0.00     0.124 S 
ATOM     69  O   UNL A   1      32.597  35.308  29.529  1.00  0.00    -0.237 OA
ATOM     70  O   UNL A   1      34.022  35.644  27.541  1.00  0.00    -0.237 OA
ATOM     71  O   UNL A   1      32.657  33.602  27.747  1.00  0.00    -0.744 OA
ENDBRANCH  67  68
ENDBRANCH  48  62
BRANCH  49  72
ATOM     72  C   UNL A   1      44.339  28.617  35.853  1.00  0.00    -0.014 A 
ATOM     73  C   UNL A   1      44.184  27.504  36.695  1.00  0.00     0.010 A 
ATOM     74  C   UNL A   1      45.626  29.131  35.613  1.00  0.00     0.010 A 
ATOM     75  C   UNL A   1      45.304  26.908  37.279  1.00  0.00     0.020 A 
ATOM     76  C   UNL A   1      46.748  28.525  36.178  1.00  0.00     0.020 A 
ATOM     77  C   UNL A   1      46.579  27.418  37.011  1.00  0.00     0.054 A 
BRANCH  77  78
ATOM     78  S   UNL A   1      48.028  26.567  37.695  1.00  0.00     0.124 S 
ATOM     79  O   UNL A   1      48.413  25.693  36.591  1.00  0.00    -0.237 OA
ATOM     80  O   UNL A   1      48.943  27.670  37.978  1.00  0.00    -0.237 OA
ATOM     81  O   UNL A   1      47.497  25.891  38.876  1.00  0.00    -0.744 OA
ENDBRANCH  77  78
ENDBRANCH  49  72
BRANCH  61  82
ATOM     82  C   UNL A   1      39.642  33.585  37.252  1.00  0.00    -0.014 A 
ATOM     83  C   UNL A   1      38.811  33.151  38.298  1.00  0.00     0.010 A 
ATOM     84  C   UNL A   1      40.294  34.827  37.355  1.00  0.00     0.010 A 
ATOM     85  C   UNL A   1      38.618  33.958  39.422  1.00  0.00     0.020 A 
ATOM     86  C   UNL A   1      40.117  35.628  38.485  1.00  0.00     0.020 A 
ATOM     87  C   UNL A   1      39.269  35.193  39.507  1.00  0.00     0.054 A 
BRANCH  87  88
ATOM     88  S   UNL A   1      39.039  36.206  40.994  1.00  0.00     0.124 S 
ATOM     89  O   UNL A   1      40.363  36.144  41.610  1.00  0.00    -0.237 OA
ATOM     90  O   UNL A   1      38.662  37.505  40.446  1.00  0.00    -0.237 OA
ATOM     91  O   UNL A   1      37.979  35.512  41.723  1.00  0.00    -0.744 OA
ENDBRANCH  87  88
ENDBRANCH  61  82
ENDBRANCH  35  36
ENDBRANCH  28  30
ENDBRANCH  27  28
ENDBRANCH  26  27
ENDBRANCH   1  26
TORSDOF 19
ENDMDL
