MODEL 1
REMARK VINA RESULT:     -14.7      0.000      0.000
REMARK SMILES Cc1ccc(NC(=O)[C@H]2CC(Cl)=CC[C@@H]2C(=O)OCCOC(=O)c2ccc(-c3c4nc(c(-c5ccc(S(=O)(=O)[O-])cc5)c5ccc([nH]5)c(-c5ccc(S(=O)(=O)[O-])cc5)c5nc(c(-c6ccc(S(=O)(=O)[O-])cc6)c6ccc3[nH]6)C=C5)C=C4)cc2)cc1[N+](=O)[O-]
REMARK SMILES IDX 19 1 18 2 16 3 17 4 15 5 9 6 10 7 11 8 14 9 12 10 13 11 7 12
REMARK SMILES IDX 6 13 8 15 5 16 1 17 2 18 3 19 85 20 4 21 84 22 86 23 87 24
REMARK SMILES IDX 88 25 20 26 21 27 22 28 23 29 24 30 25 31 83 32 26 33 82 34
REMARK SMILES IDX 27 35 28 36 29 37 76 38 30 39 81 40 75 41 77 42 31 43 80 44
REMARK SMILES IDX 74 45 73 46 32 48 62 49 43 50 61 51 44 52 47 53 60 54 78 55
REMARK SMILES IDX 45 56 46 57 59 59 79 60 48 61 33 62 34 63 42 64 35 65 41 66
REMARK SMILES IDX 36 67 37 68 38 69 39 70 40 71 63 72 64 73 72 74 65 75 71 76
REMARK SMILES IDX 66 77 67 78 68 79 69 80 70 81 49 82 50 83 58 84 51 85 57 86
REMARK SMILES IDX 52 87 53 88 54 89 55 90 56 91
REMARK H PARENT 6 14 77 47 47 58
REMARK Flexibility Score: inf
ROOT
ATOM      1  C   UNL A   1      35.727  23.381  23.363  1.00  0.00     0.274 C 
ENDROOT
BRANCH   1   2
ATOM      2  O   UNL A   1      34.735  24.734  22.720  1.00  0.00    -0.462 OA
BRANCH   2   3
ATOM      3  C   UNL A   1      33.914  25.827  22.756  1.00  0.00     0.310 C 
ATOM      4  O   UNL A   1      33.825  26.463  21.694  1.00  0.00    -0.252 OA
BRANCH   3   5
ATOM      5  C   UNL A   1      33.081  26.472  23.949  1.00  0.00     0.116 C 
ATOM      6  C   UNL A   1      31.893  27.454  23.822  1.00  0.00     0.098 C 
ATOM      7  C   UNL A   1      31.297  27.945  25.150  1.00  0.00     0.062 C 
ATOM      8  C   UNL A   1      32.362  28.512  26.023  1.00  0.00     0.015 C 
ATOM      9  C   UNL A   1      33.984  26.811  25.187  1.00  0.00     0.044 C 
ATOM     10  Cl  UNL A   1      31.944  29.874  26.990  1.00  0.00    -0.089 Cl
ATOM     11  C   UNL A   1      33.591  27.990  26.042  1.00  0.00    -0.010 C 
BRANCH   6  12
ATOM     12  C   UNL A   1      30.844  26.734  23.043  1.00  0.00     0.228 C 
ATOM     13  N   UNL A   1      30.567  25.465  23.418  1.00  0.00    -0.326 N 
ATOM     14  H   UNL A   1      29.850  25.023  22.910  1.00  0.00     0.169 HD
ATOM     15  O   UNL A   1      30.192  27.251  22.140  1.00  0.00    -0.274 OA
BRANCH  13  16
ATOM     16  C   UNL A   1      31.148  24.698  24.418  1.00  0.00     0.048 A 
ATOM     17  C   UNL A   1      33.510  21.488  27.590  1.00  0.00     0.052 C 
ATOM     18  C   UNL A   1      32.582  22.193  26.619  1.00  0.00     0.027 A 
ATOM     19  C   UNL A   1      31.796  23.604  27.298  1.00  0.00     0.012 A 
ATOM     20  C   UNL A   1      32.649  22.042  24.910  1.00  0.00     0.274 A 
ATOM     21  C   UNL A   1      31.036  24.924  26.229  1.00  0.00     0.027 A 
ATOM     22  C   UNL A   1      31.987  23.251  23.814  1.00  0.00     0.112 A 
BRANCH  20  23
ATOM     23  N   UNL A   1      33.077  20.770  24.346  1.00  0.00     0.063 N 
ATOM     24  O   UNL A   1      34.292  20.546  24.354  1.00  0.00    -0.258 OA
ATOM     25  O   UNL A   1      32.215  20.018  23.882  1.00  0.00    -0.258 OA
ENDBRANCH  20  23
ENDBRANCH  13  16
ENDBRANCH   6  12
ENDBRANCH   3   5
ENDBRANCH   2   3
ENDBRANCH   1   2
BRANCH   1  26
ATOM     26  C   UNL A   1      36.517  23.318  25.419  1.00  0.00     0.275 C 
BRANCH  26  27
ATOM     27  O   UNL A   1      38.061  24.171  25.911  1.00  0.00    -0.458 OA
BRANCH  27  28
ATOM     28  C   UNL A   1      39.270  23.975  26.710  1.00  0.00     0.338 C 
ATOM     29  O   UNL A   1      39.687  22.827  26.841  1.00  0.00    -0.246 OA
BRANCH  28  30
ATOM     30  C   UNL A   1      40.181  25.191  27.191  1.00  0.00     0.060 A 
ATOM     31  C   UNL A   1      40.354  26.409  26.495  1.00  0.00     0.016 A 
ATOM     32  C   UNL A   1      40.515  25.276  28.505  1.00  0.00     0.016 A 
ATOM     33  C   UNL A   1      40.322  27.695  27.167  1.00  0.00     0.010 A 
ATOM     34  C   UNL A   1      40.194  26.489  29.124  1.00  0.00     0.010 A 
ATOM     35  C   UNL A   1      40.040  27.747  28.522  1.00  0.00    -0.014 A 
BRANCH  35  36
ATOM     36  C   UNL A   1      39.743  28.908  29.455  1.00  0.00     0.031 A 
ATOM     37  C   UNL A   1      38.641  29.938  29.338  1.00  0.00     0.074 A 
ATOM     38  C   UNL A   1      40.637  29.049  30.477  1.00  0.00     0.049 A 
ATOM     39  N   UNL A   1      38.809  31.222  29.211  1.00  0.00    -0.248 NA
ATOM     40  C   UNL A   1      37.217  29.606  29.491  1.00  0.00     0.031 C 
ATOM     41  C   UNL A   1      40.839  30.075  31.485  1.00  0.00     0.029 A 
ATOM     42  N   UNL A   1      41.801  28.269  30.643  1.00  0.00    -0.354 N 
ATOM     43  C   UNL A   1      37.585  31.839  29.513  1.00  0.00     0.074 A 
ATOM     44  C   UNL A   1      36.598  30.798  29.461  1.00  0.00     0.031 C 
ATOM     45  C   UNL A   1      42.168  30.094  31.769  1.00  0.00     0.029 A 
ATOM     46  C   UNL A   1      42.841  29.132  30.884  1.00  0.00     0.049 A 
ATOM     47  H   UNL A   1      41.857  27.288  30.595  1.00  0.00     0.167 HD
ATOM     48  C   UNL A   1      37.513  33.070  30.113  1.00  0.00     0.031 A 
ATOM     49  C   UNL A   1      43.719  29.332  29.856  1.00  0.00     0.031 A 
ATOM     50  C   UNL A   1      38.837  33.454  30.570  1.00  0.00     0.049 A 
ATOM     51  C   UNL A   1      43.704  30.768  29.424  1.00  0.00     0.074 A 
ATOM     52  C   UNL A   1      39.437  33.360  31.813  1.00  0.00     0.029 A 
ATOM     53  N   UNL A   1      39.841  33.669  29.654  1.00  0.00    -0.354 N 
ATOM     54  N   UNL A   1      42.745  31.595  29.722  1.00  0.00    -0.248 NA
ATOM     55  C   UNL A   1      44.730  31.371  28.585  1.00  0.00     0.031 C 
ATOM     56  C   UNL A   1      40.836  33.499  31.629  1.00  0.00     0.029 A 
ATOM     57  C   UNL A   1      41.069  33.696  30.282  1.00  0.00     0.049 A 
ATOM     58  H   UNL A   1      39.702  33.788  28.687  1.00  0.00     0.167 HD
ATOM     59  C   UNL A   1      43.029  32.822  29.210  1.00  0.00     0.074 A 
ATOM     60  C   UNL A   1      44.252  32.619  28.451  1.00  0.00     0.031 C 
ATOM     61  C   UNL A   1      42.246  33.905  29.468  1.00  0.00     0.031 A 
BRANCH  48  62
ATOM     62  C   UNL A   1      36.273  33.802  30.640  1.00  0.00    -0.014 A 
ATOM     63  C   UNL A   1      35.248  34.157  29.724  1.00  0.00     0.010 A 
ATOM     64  C   UNL A   1      36.003  34.101  31.991  1.00  0.00     0.010 A 
ATOM     65  C   UNL A   1      34.078  34.832  30.098  1.00  0.00     0.020 A 
ATOM     66  C   UNL A   1      34.821  34.784  32.385  1.00  0.00     0.020 A 
ATOM     67  C   UNL A   1      33.872  35.157  31.430  1.00  0.00     0.054 A 
BRANCH  67  68
ATOM     68  S   UNL A   1      32.348  36.049  31.866  1.00  0.00     0.124 S 
ATOM     69  O   UNL A   1      31.580  35.030  32.580  1.00  0.00    -0.237 OA
ATOM     70  O   UNL A   1      32.844  37.147  32.691  1.00  0.00    -0.237 OA
ATOM     71  O   UNL A   1      31.793  36.444  30.574  1.00  0.00    -0.744 OA
ENDBRANCH  67  68
ENDBRANCH  48  62
BRANCH  49  72
ATOM     72  C   UNL A   1      43.972  28.165  28.910  1.00  0.00    -0.014 A 
ATOM     73  C   UNL A   1      44.315  26.895  29.434  1.00  0.00     0.010 A 
ATOM     74  C   UNL A   1      43.671  28.223  27.534  1.00  0.00     0.010 A 
ATOM     75  C   UNL A   1      44.295  25.729  28.644  1.00  0.00     0.020 A 
ATOM     76  C   UNL A   1      43.660  27.059  26.729  1.00  0.00     0.020 A 
ATOM     77  C   UNL A   1      43.955  25.813  27.293  1.00  0.00     0.054 A 
BRANCH  77  78
ATOM     78  S   UNL A   1      43.635  24.259  26.373  1.00  0.00     0.124 S 
ATOM     79  O   UNL A   1      42.826  24.721  25.250  1.00  0.00    -0.237 OA
ATOM     80  O   UNL A   1      44.985  23.815  26.019  1.00  0.00    -0.237 OA
ATOM     81  O   UNL A   1      42.944  23.425  27.352  1.00  0.00    -0.744 OA
ENDBRANCH  77  78
ENDBRANCH  49  72
BRANCH  61  82
ATOM     82  C   UNL A   1      42.522  35.281  28.954  1.00  0.00    -0.014 A 
ATOM     83  C   UNL A   1      43.196  36.242  29.713  1.00  0.00     0.010 A 
ATOM     84  C   UNL A   1      42.016  35.674  27.695  1.00  0.00     0.010 A 
ATOM     85  C   UNL A   1      43.479  37.500  29.180  1.00  0.00     0.020 A 
ATOM     86  C   UNL A   1      42.261  36.937  27.166  1.00  0.00     0.020 A 
ATOM     87  C   UNL A   1      43.027  37.830  27.902  1.00  0.00     0.054 A 
BRANCH  87  88
ATOM     88  S   UNL A   1      43.423  39.455  27.232  1.00  0.00     0.124 S 
ATOM     89  O   UNL A   1      43.552  40.268  28.439  1.00  0.00    -0.237 OA
ATOM     90  O   UNL A   1      44.669  39.187  26.518  1.00  0.00    -0.237 OA
ATOM     91  O   UNL A   1      42.275  39.775  26.388  1.00  0.00    -0.744 OA
ENDBRANCH  87  88
ENDBRANCH  61  82
ENDBRANCH  35  36
ENDBRANCH  28  30
ENDBRANCH  27  28
ENDBRANCH  26  27
ENDBRANCH   1  26
TORSDOF 17
ENDMDL
MODEL 2
REMARK VINA RESULT:     -14.3      3.868     10.346
REMARK SMILES Cc1ccc(NC(=O)[C@H]2CC(Cl)=CC[C@@H]2C(=O)OCCOC(=O)c2ccc(-c3c4nc(c(-c5ccc(S(=O)(=O)[O-])cc5)c5ccc([nH]5)c(-c5ccc(S(=O)(=O)[O-])cc5)c5nc(c(-c6ccc(S(=O)(=O)[O-])cc6)c6ccc3[nH]6)C=C5)C=C4)cc2)cc1[N+](=O)[O-]
REMARK SMILES IDX 19 1 18 2 16 3 17 4 15 5 9 6 10 7 11 8 14 9 12 10 13 11 7 12
REMARK SMILES IDX 6 13 8 15 5 16 1 17 2 18 3 19 85 20 4 21 84 22 86 23 87 24
REMARK SMILES IDX 88 25 20 26 21 27 22 28 23 29 24 30 25 31 83 32 26 33 82 34
REMARK SMILES IDX 27 35 28 36 29 37 76 38 30 39 81 40 75 41 77 42 31 43 80 44
REMARK SMILES IDX 74 45 73 46 32 48 62 49 43 50 61 51 44 52 47 53 60 54 78 55
REMARK SMILES IDX 45 56 46 57 59 59 79 60 48 61 33 62 34 63 42 64 35 65 41 66
REMARK SMILES IDX 36 67 37 68 38 69 39 70 40 71 63 72 64 73 72 74 65 75 71 76
REMARK SMILES IDX 66 77 67 78 68 79 69 80 70 81 49 82 50 83 58 84 51 85 57 86
REMARK SMILES IDX 52 87 53 88 54 89 55 90 56 91
REMARK H PARENT 6 14 77 47 47 58
REMARK Flexibility Score: inf
ROOT
ATOM      1  C   UNL A   1      33.716  28.053  26.856  1.00  0.00     0.274 C 
ENDROOT
BRANCH   1   2
ATOM      2  O   UNL A   1      32.652  26.685  26.382  1.00  0.00    -0.462 OA
BRANCH   2   3
ATOM      3  C   UNL A   1      31.485  26.033  26.092  1.00  0.00     0.310 C 
ATOM      4  O   UNL A   1      30.459  26.534  26.577  1.00  0.00    -0.252 OA
BRANCH   3   5
ATOM      5  C   UNL A   1      31.210  24.694  25.276  1.00  0.00     0.116 C 
ATOM      6  C   UNL A   1      31.957  23.349  25.427  1.00  0.00     0.098 C 
ATOM      7  C   UNL A   1      31.500  22.230  24.479  1.00  0.00     0.062 C 
ATOM      8  C   UNL A   1      31.531  22.697  23.066  1.00  0.00     0.015 C 
ATOM      9  C   UNL A   1      30.826  24.980  23.782  1.00  0.00     0.044 C 
ATOM     10  Cl  UNL A   1      32.002  21.552  21.869  1.00  0.00    -0.089 Cl
ATOM     11  C   UNL A   1      31.220  23.956  22.747  1.00  0.00    -0.010 C 
BRANCH   6  12
ATOM     12  C   UNL A   1      31.749  22.918  26.841  1.00  0.00     0.228 C 
ATOM     13  N   UNL A   1      32.640  22.036  27.348  1.00  0.00    -0.326 N 
ATOM     14  H   UNL A   1      32.500  21.792  28.290  1.00  0.00     0.169 HD
ATOM     15  O   UNL A   1      30.865  23.366  27.566  1.00  0.00    -0.274 OA
BRANCH  13  16
ATOM     16  C   UNL A   1      33.723  21.428  26.729  1.00  0.00     0.048 A 
ATOM     17  C   UNL A   1      38.052  19.730  24.651  1.00  0.00     0.052 C 
ATOM     18  C   UNL A   1      36.761  20.444  25.004  1.00  0.00     0.027 A 
ATOM     19  C   UNL A   1      35.348  19.411  24.940  1.00  0.00     0.012 A 
ATOM     20  C   UNL A   1      36.659  21.908  25.896  1.00  0.00     0.274 A 
ATOM     21  C   UNL A   1      33.757  19.856  25.796  1.00  0.00     0.027 A 
ATOM     22  C   UNL A   1      35.209  22.401  26.766  1.00  0.00     0.112 A 
BRANCH  20  23
ATOM     23  N   UNL A   1      37.735  22.878  25.754  1.00  0.00     0.063 N 
ATOM     24  O   UNL A   1      38.723  22.714  26.478  1.00  0.00    -0.258 OA
ATOM     25  O   UNL A   1      37.584  23.803  24.951  1.00  0.00    -0.258 OA
ENDBRANCH  20  23
ENDBRANCH  13  16
ENDBRANCH   6  12
ENDBRANCH   3   5
ENDBRANCH   2   3
ENDBRANCH   1   2
BRANCH   1  26
ATOM     26  C   UNL A   1      32.972  30.080  27.296  1.00  0.00     0.275 C 
BRANCH  26  27
ATOM     27  O   UNL A   1      33.997  31.352  28.124  1.00  0.00    -0.458 OA
BRANCH  27  28
ATOM     28  C   UNL A   1      35.370  31.848  28.188  1.00  0.00     0.338 C 
ATOM     29  O   UNL A   1      35.627  32.894  27.597  1.00  0.00    -0.246 OA
BRANCH  28  30
ATOM     30  C   UNL A   1      36.456  31.230  29.178  1.00  0.00     0.060 A 
ATOM     31  C   UNL A   1      36.474  29.895  29.641  1.00  0.00     0.016 A 
ATOM     32  C   UNL A   1      37.657  31.852  29.300  1.00  0.00     0.016 A 
ATOM     33  C   UNL A   1      37.693  29.110  29.691  1.00  0.00     0.010 A 
ATOM     34  C   UNL A   1      38.775  31.044  29.066  1.00  0.00     0.010 A 
ATOM     35  C   UNL A   1      38.871  29.651  29.201  1.00  0.00    -0.014 A 
BRANCH  35  36
ATOM     36  C   UNL A   1      40.234  29.041  28.930  1.00  0.00     0.031 A 
ATOM     37  C   UNL A   1      40.554  27.621  28.514  1.00  0.00     0.074 A 
ATOM     38  C   UNL A   1      41.282  29.885  29.164  1.00  0.00     0.049 A 
ATOM     39  N   UNL A   1      41.279  26.776  29.186  1.00  0.00    -0.248 NA
ATOM     40  C   UNL A   1      40.181  27.070  27.203  1.00  0.00     0.031 C 
ATOM     41  C   UNL A   1      42.722  29.695  29.194  1.00  0.00     0.029 A 
ATOM     42  N   UNL A   1      41.166  31.186  29.698  1.00  0.00    -0.354 N 
ATOM     43  C   UNL A   1      41.641  25.742  28.309  1.00  0.00     0.074 A 
ATOM     44  C   UNL A   1      40.763  25.860  27.180  1.00  0.00     0.031 C 
ATOM     45  C   UNL A   1      43.219  30.585  30.094  1.00  0.00     0.029 A 
ATOM     46  C   UNL A   1      42.089  31.298  30.707  1.00  0.00     0.049 A 
ATOM     47  H   UNL A   1      40.539  31.884  29.401  1.00  0.00     0.167 HD
ATOM     48  C   UNL A   1      42.839  25.082  28.408  1.00  0.00     0.031 A 
ATOM     49  C   UNL A   1      41.604  31.266  31.984  1.00  0.00     0.031 A 
ATOM     50  C   UNL A   1      43.690  25.784  29.352  1.00  0.00     0.049 A 
ATOM     51  C   UNL A   1      42.151  30.082  32.724  1.00  0.00     0.074 A 
ATOM     52  C   UNL A   1      44.704  26.706  29.157  1.00  0.00     0.029 A 
ATOM     53  N   UNL A   1      43.326  25.861  30.676  1.00  0.00    -0.354 N 
ATOM     54  N   UNL A   1      42.693  29.056  32.135  1.00  0.00    -0.248 NA
ATOM     55  C   UNL A   1      42.087  29.932  34.172  1.00  0.00     0.031 C 
ATOM     56  C   UNL A   1      44.931  27.365  30.392  1.00  0.00     0.029 A 
ATOM     57  C   UNL A   1      44.070  26.823  31.327  1.00  0.00     0.049 A 
ATOM     58  H   UNL A   1      42.632  25.306  31.101  1.00  0.00     0.167 HD
ATOM     59  C   UNL A   1      43.112  28.164  33.070  1.00  0.00     0.074 A 
ATOM     60  C   UNL A   1      42.654  28.724  34.331  1.00  0.00     0.031 C 
ATOM     61  C   UNL A   1      43.814  27.048  32.732  1.00  0.00     0.031 A 
BRANCH  48  62
ATOM     62  C   UNL A   1      43.440  24.048  27.448  1.00  0.00    -0.014 A 
ATOM     63  C   UNL A   1      42.914  22.730  27.447  1.00  0.00     0.010 A 
ATOM     64  C   UNL A   1      44.439  24.299  26.486  1.00  0.00     0.010 A 
ATOM     65  C   UNL A   1      43.393  21.708  26.615  1.00  0.00     0.020 A 
ATOM     66  C   UNL A   1      44.933  23.274  25.635  1.00  0.00     0.020 A 
ATOM     67  C   UNL A   1      44.414  21.979  25.718  1.00  0.00     0.054 A 
BRANCH  67  68
ATOM     68  S   UNL A   1      45.016  20.618  24.672  1.00  0.00     0.124 S 
ATOM     69  O   UNL A   1      44.711  21.098  23.325  1.00  0.00    -0.237 OA
ATOM     70  O   UNL A   1      46.437  20.560  25.007  1.00  0.00    -0.237 OA
ATOM     71  O   UNL A   1      44.228  19.468  25.108  1.00  0.00    -0.744 OA
ENDBRANCH  67  68
ENDBRANCH  48  62
BRANCH  49  72
ATOM     72  C   UNL A   1      40.217  31.848  32.225  1.00  0.00    -0.014 A 
ATOM     73  C   UNL A   1      39.157  30.998  32.628  1.00  0.00     0.010 A 
ATOM     74  C   UNL A   1      39.973  33.235  32.277  1.00  0.00     0.010 A 
ATOM     75  C   UNL A   1      37.939  31.504  33.122  1.00  0.00     0.020 A 
ATOM     76  C   UNL A   1      38.748  33.753  32.761  1.00  0.00     0.020 A 
ATOM     77  C   UNL A   1      37.743  32.884  33.199  1.00  0.00     0.054 A 
BRANCH  77  78
ATOM     78  S   UNL A   1      36.289  33.510  34.126  1.00  0.00     0.124 S 
ATOM     79  O   UNL A   1      36.372  34.950  33.903  1.00  0.00    -0.237 OA
ATOM     80  O   UNL A   1      35.171  32.845  33.455  1.00  0.00    -0.237 OA
ATOM     81  O   UNL A   1      36.546  33.065  35.493  1.00  0.00    -0.744 OA
ENDBRANCH  77  78
ENDBRANCH  49  72
BRANCH  61  82
ATOM     82  C   UNL A   1      44.321  26.046  33.718  1.00  0.00    -0.014 A 
ATOM     83  C   UNL A   1      43.678  25.801  34.935  1.00  0.00     0.010 A 
ATOM     84  C   UNL A   1      45.540  25.374  33.471  1.00  0.00     0.010 A 
ATOM     85  C   UNL A   1      44.153  24.821  35.807  1.00  0.00     0.020 A 
ATOM     86  C   UNL A   1      46.043  24.420  34.349  1.00  0.00     0.020 A 
ATOM     87  C   UNL A   1      45.321  24.124  35.497  1.00  0.00     0.054 A 
BRANCH  87  88
ATOM     88  S   UNL A   1      45.901  22.851  36.633  1.00  0.00     0.124 S 
ATOM     89  O   UNL A   1      47.353  22.985  36.537  1.00  0.00    -0.237 OA
ATOM     90  O   UNL A   1      45.312  23.288  37.896  1.00  0.00    -0.237 OA
ATOM     91  O   UNL A   1      45.355  21.614  36.082  1.00  0.00    -0.744 OA
ENDBRANCH  87  88
ENDBRANCH  61  82
ENDBRANCH  35  36
ENDBRANCH  28  30
ENDBRANCH  27  28
ENDBRANCH  26  27
ENDBRANCH   1  26
TORSDOF 17
ENDMDL
MODEL 3
REMARK VINA RESULT:     -14.3      3.543      9.913
REMARK SMILES Cc1ccc(NC(=O)[C@H]2CC(Cl)=CC[C@@H]2C(=O)OCCOC(=O)c2ccc(-c3c4nc(c(-c5ccc(S(=O)(=O)[O-])cc5)c5ccc([nH]5)c(-c5ccc(S(=O)(=O)[O-])cc5)c5nc(c(-c6ccc(S(=O)(=O)[O-])cc6)c6ccc3[nH]6)C=C5)C=C4)cc2)cc1[N+](=O)[O-]
REMARK SMILES IDX 19 1 18 2 16 3 17 4 15 5 9 6 10 7 11 8 14 9 12 10 13 11 7 12
REMARK SMILES IDX 6 13 8 15 5 16 1 17 2 18 3 19 85 20 4 21 84 22 86 23 87 24
REMARK SMILES IDX 88 25 20 26 21 27 22 28 23 29 24 30 25 31 83 32 26 33 82 34
REMARK SMILES IDX 27 35 28 36 29 37 76 38 30 39 81 40 75 41 77 42 31 43 80 44
REMARK SMILES IDX 74 45 73 46 32 48 62 49 43 50 61 51 44 52 47 53 60 54 78 55
REMARK SMILES IDX 45 56 46 57 59 59 79 60 48 61 33 62 34 63 42 64 35 65 41 66
REMARK SMILES IDX 36 67 37 68 38 69 39 70 40 71 63 72 64 73 72 74 65 75 71 76
REMARK SMILES IDX 66 77 67 78 68 79 69 80 70 81 49 82 50 83 58 84 51 85 57 86
REMARK SMILES IDX 52 87 53 88 54 89 55 90 56 91
REMARK H PARENT 6 14 77 47 47 58
REMARK Flexibility Score: inf
ROOT
ATOM      1  C   UNL A   1      34.299  28.988  26.518  1.00  0.00     0.274 C 
ENDROOT
BRANCH   1   2
ATOM      2  O   UNL A   1      33.909  28.048  25.037  1.00  0.00    -0.462 OA
BRANCH   2   3
ATOM      3  C   UNL A   1      33.644  26.945  24.274  1.00  0.00     0.310 C 
ATOM      4  O   UNL A   1      34.015  27.011  23.091  1.00  0.00    -0.252 OA
BRANCH   3   5
ATOM      5  C   UNL A   1      32.885  25.589  24.622  1.00  0.00     0.116 C 
ATOM      6  C   UNL A   1      31.477  25.169  24.142  1.00  0.00     0.098 C 
ATOM      7  C   UNL A   1      30.978  23.813  24.664  1.00  0.00     0.062 C 
ATOM      8  C   UNL A   1      31.069  23.760  26.149  1.00  0.00     0.015 C 
ATOM      9  C   UNL A   1      33.162  25.116  26.091  1.00  0.00     0.044 C 
ATOM     10  Cl  UNL A   1      29.820  22.917  26.984  1.00  0.00    -0.089 Cl
ATOM     11  C   UNL A   1      32.071  24.354  26.802  1.00  0.00    -0.010 C 
BRANCH   6  12
ATOM     12  C   UNL A   1      31.542  25.133  22.651  1.00  0.00     0.228 C 
ATOM     13  N   UNL A   1      32.360  24.210  22.097  1.00  0.00    -0.326 N 
ATOM     14  H   UNL A   1      32.362  24.185  21.114  1.00  0.00     0.169 HD
ATOM     15  O   UNL A   1      30.856  25.844  21.922  1.00  0.00    -0.274 OA
BRANCH  13  16
ATOM     16  C   UNL A   1      33.196  23.292  22.717  1.00  0.00     0.048 A 
ATOM     17  C   UNL A   1      35.761  19.485  24.924  1.00  0.00     0.052 C 
ATOM     18  C   UNL A   1      34.831  20.626  24.560  1.00  0.00     0.027 A 
ATOM     19  C   UNL A   1      35.654  22.153  24.321  1.00  0.00     0.012 A 
ATOM     20  C   UNL A   1      33.255  20.440  23.904  1.00  0.00     0.274 A 
ATOM     21  C   UNL A   1      34.874  23.564  23.391  1.00  0.00     0.027 A 
ATOM     22  C   UNL A   1      32.444  21.703  22.983  1.00  0.00     0.112 A 
BRANCH  20  23
ATOM     23  N   UNL A   1      32.475  19.277  24.304  1.00  0.00     0.063 N 
ATOM     24  O   UNL A   1      32.318  18.400  23.448  1.00  0.00    -0.258 OA
ATOM     25  O   UNL A   1      32.006  19.254  25.445  1.00  0.00    -0.258 OA
ENDBRANCH  20  23
ENDBRANCH  13  16
ENDBRANCH   6  12
ENDBRANCH   3   5
ENDBRANCH   2   3
ENDBRANCH   1   2
BRANCH   1  26
ATOM     26  C   UNL A   1      33.006  30.579  27.326  1.00  0.00     0.275 C 
BRANCH  26  27
ATOM     27  O   UNL A   1      33.669  32.162  27.966  1.00  0.00    -0.458 OA
BRANCH  27  28
ATOM     28  C   UNL A   1      34.933  32.834  28.263  1.00  0.00     0.338 C 
ATOM     29  O   UNL A   1      35.074  33.987  27.862  1.00  0.00    -0.246 OA
BRANCH  28  30
ATOM     30  C   UNL A   1      36.004  32.229  29.277  1.00  0.00     0.060 A 
ATOM     31  C   UNL A   1      36.075  30.877  29.680  1.00  0.00     0.016 A 
ATOM     32  C   UNL A   1      37.161  32.910  29.487  1.00  0.00     0.016 A 
ATOM     33  C   UNL A   1      37.333  30.157  29.755  1.00  0.00     0.010 A 
ATOM     34  C   UNL A   1      38.332  32.175  29.272  1.00  0.00     0.010 A 
ATOM     35  C   UNL A   1      38.500  30.784  29.350  1.00  0.00    -0.014 A 
BRANCH  35  36
ATOM     36  C   UNL A   1      39.907  30.262  29.120  1.00  0.00     0.031 A 
ATOM     37  C   UNL A   1      40.324  28.904  28.598  1.00  0.00     0.074 A 
ATOM     38  C   UNL A   1      40.894  31.124  29.503  1.00  0.00     0.049 A 
ATOM     39  N   UNL A   1      41.043  28.030  29.238  1.00  0.00    -0.248 NA
ATOM     40  C   UNL A   1      40.065  28.465  27.219  1.00  0.00     0.031 C 
ATOM     41  C   UNL A   1      42.336  30.995  29.617  1.00  0.00     0.029 A 
ATOM     42  N   UNL A   1      40.678  32.362  30.145  1.00  0.00    -0.354 N 
ATOM     43  C   UNL A   1      41.513  27.101  28.297  1.00  0.00     0.074 A 
ATOM     44  C   UNL A   1      40.707  27.288  27.125  1.00  0.00     0.031 C 
ATOM     45  C   UNL A   1      42.729  31.815  30.627  1.00  0.00     0.029 A 
ATOM     46  C   UNL A   1      41.527  32.418  31.223  1.00  0.00     0.049 A 
ATOM     47  H   UNL A   1      40.038  33.058  29.871  1.00  0.00     0.167 HD
ATOM     48  C   UNL A   1      42.733  26.487  28.419  1.00  0.00     0.031 A 
ATOM     49  C   UNL A   1      40.961  32.242  32.455  1.00  0.00     0.031 A 
ATOM     50  C   UNL A   1      43.485  27.132  29.481  1.00  0.00     0.049 A 
ATOM     51  C   UNL A   1      41.516  31.018  33.119  1.00  0.00     0.074 A 
ATOM     52  C   UNL A   1      44.462  28.111  29.444  1.00  0.00     0.029 A 
ATOM     53  N   UNL A   1      43.031  27.067  30.777  1.00  0.00    -0.354 N 
ATOM     54  N   UNL A   1      42.146  30.078  32.476  1.00  0.00    -0.248 NA
ATOM     55  C   UNL A   1      41.365  30.728  34.538  1.00  0.00     0.031 C 
ATOM     56  C   UNL A   1      44.575  28.659  30.746  1.00  0.00     0.029 A 
ATOM     57  C   UNL A   1      43.682  27.993  31.564  1.00  0.00     0.049 A 
ATOM     58  H   UNL A   1      42.339  26.444  31.099  1.00  0.00     0.167 HD
ATOM     59  C   UNL A   1      42.546  29.119  33.353  1.00  0.00     0.074 A 
ATOM     60  C   UNL A   1      41.979  29.537  34.624  1.00  0.00     0.031 C 
ATOM     61  C   UNL A   1      43.324  28.072  32.964  1.00  0.00     0.031 A 
BRANCH  48  62
ATOM     62  C   UNL A   1      43.446  25.576  27.412  1.00  0.00    -0.014 A 
ATOM     63  C   UNL A   1      43.810  24.265  27.814  1.00  0.00     0.010 A 
ATOM     64  C   UNL A   1      43.719  25.890  26.064  1.00  0.00     0.010 A 
ATOM     65  C   UNL A   1      44.469  23.354  26.976  1.00  0.00     0.020 A 
ATOM     66  C   UNL A   1      44.385  24.978  25.203  1.00  0.00     0.020 A 
ATOM     67  C   UNL A   1      44.768  23.719  25.672  1.00  0.00     0.054 A 
BRANCH  67  68
ATOM     68  S   UNL A   1      45.640  22.512  24.628  1.00  0.00     0.124 S 
ATOM     69  O   UNL A   1      44.553  21.936  23.837  1.00  0.00    -0.237 OA
ATOM     70  O   UNL A   1      46.577  23.349  23.883  1.00  0.00    -0.237 OA
ATOM     71  O   UNL A   1      46.254  21.597  25.587  1.00  0.00    -0.744 OA
ENDBRANCH  67  68
ENDBRANCH  48  62
BRANCH  49  72
ATOM     72  C   UNL A   1      39.534  32.738  32.650  1.00  0.00    -0.014 A 
ATOM     73  C   UNL A   1      38.491  31.808  32.884  1.00  0.00     0.010 A 
ATOM     74  C   UNL A   1      39.220  34.101  32.827  1.00  0.00     0.010 A 
ATOM     75  C   UNL A   1      37.218  32.209  33.335  1.00  0.00     0.020 A 
ATOM     76  C   UNL A   1      37.940  34.514  33.269  1.00  0.00     0.020 A 
ATOM     77  C   UNL A   1      36.950  33.563  33.539  1.00  0.00     0.054 A 
BRANCH  77  78
ATOM     78  S   UNL A   1      35.407  34.027  34.415  1.00  0.00     0.124 S 
ATOM     79  O   UNL A   1      34.443  33.072  33.879  1.00  0.00    -0.237 OA
ATOM     80  O   UNL A   1      35.763  33.822  35.820  1.00  0.00    -0.237 OA
ATOM     81  O   UNL A   1      35.205  35.419  34.022  1.00  0.00    -0.744 OA
ENDBRANCH  77  78
ENDBRANCH  49  72
BRANCH  61  82
ATOM     82  C   UNL A   1      43.813  27.003  33.885  1.00  0.00    -0.014 A 
ATOM     83  C   UNL A   1      43.058  25.864  34.180  1.00  0.00     0.010 A 
ATOM     84  C   UNL A   1      45.042  27.170  34.563  1.00  0.00     0.010 A 
ATOM     85  C   UNL A   1      43.571  24.863  35.006  1.00  0.00     0.020 A 
ATOM     86  C   UNL A   1      45.549  26.196  35.417  1.00  0.00     0.020 A 
ATOM     87  C   UNL A   1      44.822  25.029  35.601  1.00  0.00     0.054 A 
BRANCH  87  88
ATOM     88  S   UNL A   1      45.467  23.712  36.649  1.00  0.00     0.124 S 
ATOM     89  O   UNL A   1      44.895  22.516  36.035  1.00  0.00    -0.237 OA
ATOM     90  O   UNL A   1      46.908  23.877  36.481  1.00  0.00    -0.237 OA
ATOM     91  O   UNL A   1      44.950  24.035  37.976  1.00  0.00    -0.744 OA
ENDBRANCH  87  88
ENDBRANCH  61  82
ENDBRANCH  35  36
ENDBRANCH  28  30
ENDBRANCH  27  28
ENDBRANCH  26  27
ENDBRANCH   1  26
TORSDOF 17
ENDMDL
