MODEL 1
REMARK VINA RESULT:     -12.2      0.000      0.000
REMARK SMILES COc1ccc2c(c1)c(CC(=O)OCCOC(=O)c1ccc(-c3c4nc(c(-c5ccc(S(=O)(=O)[O-])cc5)c5ccc([nH]5)c(-c5ccc(S(=O)(=O)[O-])cc5)c5nc(c(-c6ccc(S(=O)(=O)[O-])cc6)c6ccc3[nH]6)C=C5)C=C4)cc1)c(C)n2Cc1ccn(C(F)F)c(=O)c1
REMARK SMILES IDX 14 1 13 2 11 3 12 4 10 5 9 6 3 7 4 8 8 9 5 10 7 11 6 12
REMARK SMILES IDX 81 13 79 14 80 15 2 16 1 17 82 18 83 19 84 20 92 21 85 22
REMARK SMILES IDX 90 23 86 24 91 25 87 26 88 27 89 28 15 29 16 30 17 31 18 32
REMARK SMILES IDX 19 33 20 34 78 35 21 36 77 37 22 38 23 39 24 40 71 41 25 42
REMARK SMILES IDX 76 43 70 44 72 45 26 46 75 47 69 48 68 49 27 51 57 52 38 53
REMARK SMILES IDX 56 54 39 55 42 56 55 57 73 58 40 59 41 60 54 62 74 63 43 64
REMARK SMILES IDX 28 65 29 66 37 67 30 68 36 69 31 70 32 71 33 72 34 73 35 74
REMARK SMILES IDX 58 75 59 76 67 77 60 78 66 79 61 80 62 81 63 82 64 83 65 84
REMARK SMILES IDX 44 85 45 86 53 87 46 88 52 89 47 90 48 91 49 92 50 93 51 94
REMARK H PARENT 72 50 42 61
REMARK Flexibility Score: inf
ROOT
ATOM      1  C   UNL A   1      39.391  21.707  26.474  1.00  0.00     0.274 C 
ENDROOT
BRANCH   1   2
ATOM      2  O   UNL A   1      38.628  21.961  25.267  1.00  0.00    -0.462 OA
BRANCH   2   3
ATOM      3  C   UNL A   1      37.305  21.703  25.379  1.00  0.00     0.310 C 
ATOM      4  O   UNL A   1      36.822  20.590  25.177  1.00  0.00    -0.252 OA
BRANCH   3   5
ATOM      5  C   UNL A   1      36.407  22.883  25.633  1.00  0.00     0.160 C 
BRANCH   5   6
ATOM      6  C   UNL A   1      34.959  22.948  25.232  1.00  0.00    -0.008 A 
ATOM      7  C   UNL A   1      33.422  25.282  22.513  1.00  0.00     0.119 A 
ATOM      8  C   UNL A   1      32.172  24.708  22.516  1.00  0.00     0.048 A 
ATOM      9  C   UNL A   1      34.416  24.751  23.340  1.00  0.00     0.057 A 
ATOM     10  C   UNL A   1      31.886  23.658  23.401  1.00  0.00     0.031 A 
ATOM     11  C   UNL A   1      34.193  23.706  24.266  1.00  0.00     0.007 A 
ATOM     12  C   UNL A   1      32.881  23.209  24.301  1.00  0.00     0.049 A 
ATOM     13  N   UNL A   1      32.844  22.258  25.303  1.00  0.00    -0.340 N 
ATOM     14  C   UNL A   1      34.008  22.320  26.033  1.00  0.00     0.020 A 
ATOM     15  C   UNL A   1      34.200  21.735  27.398  1.00  0.00     0.065 C 
BRANCH   7  16
ATOM     16  O   UNL A   1      33.848  26.277  21.677  1.00  0.00    -0.497 OA
ATOM     17  C   UNL A   1      33.606  27.611  22.104  1.00  0.00     0.278 C 
ENDBRANCH   7  16
BRANCH  13  18
ATOM     18  C   UNL A   1      31.777  21.281  25.511  1.00  0.00     0.158 C 
BRANCH  18  19
ATOM     19  C   UNL A   1      32.165  19.944  24.917  1.00  0.00    -0.021 A 
ATOM     20  C   UNL A   1      32.728  18.934  25.791  1.00  0.00     0.024 A 
ATOM     21  C   UNL A   1      32.076  19.687  23.602  1.00  0.00     0.077 A 
ATOM     22  C   UNL A   1      33.334  17.858  25.279  1.00  0.00     0.095 A 
ATOM     23  C   UNL A   1      32.640  18.430  23.030  1.00  0.00     0.255 A 
ATOM     24  N   UNL A   1      33.338  17.627  23.918  1.00  0.00    -0.258 N 
ATOM     25  O   UNL A   1      32.477  18.206  21.835  1.00  0.00    -0.269 OA
BRANCH  24  26
ATOM     26  C   UNL A   1      34.007  16.470  23.385  1.00  0.00     0.451 C 
ATOM     27  F   UNL A   1      34.774  16.807  22.319  1.00  0.00    -0.185 F 
ATOM     28  F   UNL A   1      34.810  15.889  24.311  1.00  0.00    -0.185 F 
ENDBRANCH  24  26
ENDBRANCH  18  19
ENDBRANCH  13  18
ENDBRANCH   5   6
ENDBRANCH   3   5
ENDBRANCH   2   3
ENDBRANCH   1   2
BRANCH   1  29
ATOM     29  C   UNL A   1      40.863  21.426  26.159  1.00  0.00     0.275 C 
BRANCH  29  30
ATOM     30  O   UNL A   1      41.525  22.662  25.844  1.00  0.00    -0.458 OA
BRANCH  30  31
ATOM     31  C   UNL A   1      42.367  23.148  26.785  1.00  0.00     0.338 C 
ATOM     32  O   UNL A   1      43.574  22.972  26.861  1.00  0.00    -0.246 OA
BRANCH  31  33
ATOM     33  C   UNL A   1      41.652  24.265  27.422  1.00  0.00     0.060 A 
ATOM     34  C   UNL A   1      40.645  25.008  26.824  1.00  0.00     0.016 A 
ATOM     35  C   UNL A   1      42.230  24.719  28.600  1.00  0.00     0.016 A 
ATOM     36  C   UNL A   1      40.354  26.269  27.351  1.00  0.00     0.010 A 
ATOM     37  C   UNL A   1      41.935  25.939  29.146  1.00  0.00     0.010 A 
ATOM     38  C   UNL A   1      41.073  26.759  28.454  1.00  0.00    -0.014 A 
BRANCH  38  39
ATOM     39  C   UNL A   1      40.878  28.090  28.990  1.00  0.00     0.031 A 
ATOM     40  C   UNL A   1      41.917  29.047  28.579  1.00  0.00     0.074 A 
ATOM     41  C   UNL A   1      39.787  28.553  29.631  1.00  0.00     0.049 A 
ATOM     42  N   UNL A   1      42.906  29.436  29.305  1.00  0.00    -0.248 NA
ATOM     43  C   UNL A   1      41.946  29.521  27.190  1.00  0.00     0.031 C 
ATOM     44  C   UNL A   1      38.491  27.920  29.868  1.00  0.00     0.029 A 
ATOM     45  N   UNL A   1      39.628  29.784  30.188  1.00  0.00    -0.354 N 
ATOM     46  C   UNL A   1      43.613  30.334  28.526  1.00  0.00     0.074 A 
ATOM     47  C   UNL A   1      43.075  30.232  27.191  1.00  0.00     0.031 C 
ATOM     48  C   UNL A   1      37.618  28.830  30.366  1.00  0.00     0.029 A 
ATOM     49  C   UNL A   1      38.353  30.046  30.661  1.00  0.00     0.049 A 
ATOM     50  H   UNL A   1      40.362  30.438  30.250  1.00  0.00     0.167 HD
ATOM     51  C   UNL A   1      44.473  31.226  29.084  1.00  0.00     0.031 A 
ATOM     52  C   UNL A   1      37.950  31.162  31.311  1.00  0.00     0.031 A 
ATOM     53  C   UNL A   1      44.706  30.947  30.479  1.00  0.00     0.049 A 
ATOM     54  C   UNL A   1      39.160  31.762  31.923  1.00  0.00     0.074 A 
ATOM     55  C   UNL A   1      45.298  29.912  31.173  1.00  0.00     0.029 A 
ATOM     56  N   UNL A   1      43.905  31.612  31.379  1.00  0.00    -0.354 N 
ATOM     57  N   UNL A   1      39.847  31.186  32.870  1.00  0.00    -0.248 NA
ATOM     58  C   UNL A   1      39.839  32.846  31.233  1.00  0.00     0.031 C 
ATOM     59  C   UNL A   1      44.517  29.754  32.356  1.00  0.00     0.029 A 
ATOM     60  C   UNL A   1      43.504  30.718  32.344  1.00  0.00     0.049 A 
ATOM     61  H   UNL A   1      43.663  32.565  31.339  1.00  0.00     0.167 HD
ATOM     62  C   UNL A   1      41.163  31.545  32.626  1.00  0.00     0.074 A 
ATOM     63  C   UNL A   1      41.078  32.668  31.700  1.00  0.00     0.031 C 
ATOM     64  C   UNL A   1      42.200  30.734  32.991  1.00  0.00     0.031 A 
BRANCH  51  65
ATOM     65  C   UNL A   1      44.860  32.522  28.440  1.00  0.00    -0.014 A 
ATOM     66  C   UNL A   1      43.912  33.483  28.033  1.00  0.00     0.010 A 
ATOM     67  C   UNL A   1      46.214  32.899  28.417  1.00  0.00     0.010 A 
ATOM     68  C   UNL A   1      44.291  34.744  27.577  1.00  0.00     0.020 A 
ATOM     69  C   UNL A   1      46.604  34.180  28.006  1.00  0.00     0.020 A 
ATOM     70  C   UNL A   1      45.637  35.090  27.578  1.00  0.00     0.054 A 
BRANCH  70  71
ATOM     71  S   UNL A   1      46.079  36.777  27.099  1.00  0.00     0.124 S 
ATOM     72  O   UNL A   1      46.765  36.559  25.828  1.00  0.00    -0.237 OA
ATOM     73  O   UNL A   1      44.775  37.427  27.007  1.00  0.00    -0.237 OA
ATOM     74  O   UNL A   1      46.925  37.235  28.197  1.00  0.00    -0.744 OA
ENDBRANCH  70  71
ENDBRANCH  51  65
BRANCH  52  75
ATOM     75  C   UNL A   1      36.707  31.937  31.092  1.00  0.00    -0.014 A 
ATOM     76  C   UNL A   1      36.646  32.859  30.029  1.00  0.00     0.010 A 
ATOM     77  C   UNL A   1      35.731  32.021  32.102  1.00  0.00     0.010 A 
ATOM     78  C   UNL A   1      35.700  33.890  30.022  1.00  0.00     0.020 A 
ATOM     79  C   UNL A   1      34.777  33.052  32.099  1.00  0.00     0.020 A 
ATOM     80  C   UNL A   1      34.795  34.003  31.078  1.00  0.00     0.054 A 
BRANCH  80  81
ATOM     81  S   UNL A   1      33.716  35.462  31.133  1.00  0.00     0.124 S 
ATOM     82  O   UNL A   1      34.410  36.317  32.092  1.00  0.00    -0.237 OA
ATOM     83  O   UNL A   1      33.745  35.925  29.747  1.00  0.00    -0.237 OA
ATOM     84  O   UNL A   1      32.434  34.930  31.582  1.00  0.00    -0.744 OA
ENDBRANCH  80  81
ENDBRANCH  52  75
BRANCH  64  85
ATOM     85  C   UNL A   1      41.918  29.592  33.949  1.00  0.00    -0.014 A 
ATOM     86  C   UNL A   1      42.042  29.847  35.328  1.00  0.00     0.010 A 
ATOM     87  C   UNL A   1      41.728  28.258  33.532  1.00  0.00     0.010 A 
ATOM     88  C   UNL A   1      42.031  28.805  36.259  1.00  0.00     0.020 A 
ATOM     89  C   UNL A   1      41.693  27.208  34.465  1.00  0.00     0.020 A 
ATOM     90  C   UNL A   1      41.876  27.488  35.820  1.00  0.00     0.054 A 
BRANCH  90  91
ATOM     91  S   UNL A   1      41.957  26.158  37.054  1.00  0.00     0.124 S 
ATOM     92  O   UNL A   1      40.602  26.162  37.602  1.00  0.00    -0.237 OA
ATOM     93  O   UNL A   1      42.298  24.987  36.248  1.00  0.00    -0.237 OA
ATOM     94  O   UNL A   1      43.001  26.593  37.979  1.00  0.00    -0.744 OA
ENDBRANCH  90  91
ENDBRANCH  64  85
ENDBRANCH  38  39
ENDBRANCH  31  33
ENDBRANCH  30  31
ENDBRANCH  29  30
ENDBRANCH   1  29
TORSDOF 19
ENDMDL
MODEL 2
REMARK VINA RESULT:     -12.2      2.130      3.714
REMARK SMILES COc1ccc2c(c1)c(CC(=O)OCCOC(=O)c1ccc(-c3c4nc(c(-c5ccc(S(=O)(=O)[O-])cc5)c5ccc([nH]5)c(-c5ccc(S(=O)(=O)[O-])cc5)c5nc(c(-c6ccc(S(=O)(=O)[O-])cc6)c6ccc3[nH]6)C=C5)C=C4)cc1)c(C)n2Cc1ccn(C(F)F)c(=O)c1
REMARK SMILES IDX 14 1 13 2 11 3 12 4 10 5 9 6 3 7 4 8 8 9 5 10 7 11 6 12
REMARK SMILES IDX 81 13 79 14 80 15 2 16 1 17 82 18 83 19 84 20 92 21 85 22
REMARK SMILES IDX 90 23 86 24 91 25 87 26 88 27 89 28 15 29 16 30 17 31 18 32
REMARK SMILES IDX 19 33 20 34 78 35 21 36 77 37 22 38 23 39 24 40 71 41 25 42
REMARK SMILES IDX 76 43 70 44 72 45 26 46 75 47 69 48 68 49 27 51 57 52 38 53
REMARK SMILES IDX 56 54 39 55 42 56 55 57 73 58 40 59 41 60 54 62 74 63 43 64
REMARK SMILES IDX 28 65 29 66 37 67 30 68 36 69 31 70 32 71 33 72 34 73 35 74
REMARK SMILES IDX 58 75 59 76 67 77 60 78 66 79 61 80 62 81 63 82 64 83 65 84
REMARK SMILES IDX 44 85 45 86 53 87 46 88 52 89 47 90 48 91 49 92 50 93 51 94
REMARK H PARENT 72 50 42 61
REMARK Flexibility Score: inf
ROOT
ATOM      1  C   UNL A   1      40.812  20.894  26.888  1.00  0.00     0.274 C 
ENDROOT
BRANCH   1   2
ATOM      2  O   UNL A   1      39.393  20.979  26.604  1.00  0.00    -0.462 OA
BRANCH   2   3
ATOM      3  C   UNL A   1      38.956  20.098  25.675  1.00  0.00     0.310 C 
ATOM      4  O   UNL A   1      39.440  18.976  25.539  1.00  0.00    -0.252 OA
BRANCH   3   5
ATOM      5  C   UNL A   1      37.924  20.601  24.703  1.00  0.00     0.160 C 
BRANCH   5   6
ATOM      6  C   UNL A   1      36.504  20.931  25.072  1.00  0.00    -0.008 A 
ATOM      7  C   UNL A   1      33.402  18.614  24.609  1.00  0.00     0.119 A 
ATOM      8  C   UNL A   1      32.519  19.409  25.302  1.00  0.00     0.048 A 
ATOM      9  C   UNL A   1      34.740  19.008  24.511  1.00  0.00     0.057 A 
ATOM     10  C   UNL A   1      32.948  20.636  25.829  1.00  0.00     0.031 A 
ATOM     11  C   UNL A   1      35.235  20.237  25.004  1.00  0.00     0.007 A 
ATOM     12  C   UNL A   1      34.283  21.058  25.626  1.00  0.00     0.049 A 
ATOM     13  N   UNL A   1      34.934  22.228  25.970  1.00  0.00    -0.340 N 
ATOM     14  C   UNL A   1      36.175  22.249  25.380  1.00  0.00     0.020 A 
ATOM     15  C   UNL A   1      37.021  23.471  25.199  1.00  0.00     0.065 C 
BRANCH   7  16
ATOM     16  O   UNL A   1      33.132  17.380  24.084  1.00  0.00    -0.497 OA
ATOM     17  C   UNL A   1      34.041  16.893  23.106  1.00  0.00     0.278 C 
ENDBRANCH   7  16
BRANCH  13  18
ATOM     18  C   UNL A   1      34.423  23.249  26.884  1.00  0.00     0.158 C 
BRANCH  18  19
ATOM     19  C   UNL A   1      33.498  24.196  26.150  1.00  0.00    -0.021 A 
ATOM     20  C   UNL A   1      32.075  24.123  26.416  1.00  0.00     0.024 A 
ATOM     21  C   UNL A   1      33.938  25.048  25.209  1.00  0.00     0.077 A 
ATOM     22  C   UNL A   1      31.203  24.732  25.607  1.00  0.00     0.095 A 
ATOM     23  C   UNL A   1      32.978  25.830  24.377  1.00  0.00     0.255 A 
ATOM     24  N   UNL A   1      31.638  25.535  24.571  1.00  0.00    -0.258 N 
ATOM     25  O   UNL A   1      33.425  26.645  23.577  1.00  0.00    -0.269 OA
BRANCH  24  26
ATOM     26  C   UNL A   1      30.684  26.173  23.704  1.00  0.00     0.451 C 
ATOM     27  F   UNL A   1      29.508  25.497  23.704  1.00  0.00    -0.185 F 
ATOM     28  F   UNL A   1      30.433  27.448  24.091  1.00  0.00    -0.185 F 
ENDBRANCH  24  26
ENDBRANCH  18  19
ENDBRANCH  13  18
ENDBRANCH   5   6
ENDBRANCH   3   5
ENDBRANCH   2   3
ENDBRANCH   1   2
BRANCH   1  29
ATOM     29  C   UNL A   1      41.237  21.924  27.938  1.00  0.00     0.275 C 
BRANCH  29  30
ATOM     30  O   UNL A   1      42.584  22.348  27.670  1.00  0.00    -0.458 OA
BRANCH  30  31
ATOM     31  C   UNL A   1      42.771  23.077  26.546  1.00  0.00     0.338 C 
ATOM     32  O   UNL A   1      42.545  22.734  25.395  1.00  0.00    -0.246 OA
BRANCH  31  33
ATOM     33  C   UNL A   1      42.865  24.477  26.990  1.00  0.00     0.060 A 
ATOM     34  C   UNL A   1      43.382  24.891  28.209  1.00  0.00     0.016 A 
ATOM     35  C   UNL A   1      42.152  25.375  26.208  1.00  0.00     0.016 A 
ATOM     36  C   UNL A   1      43.034  26.162  28.675  1.00  0.00     0.010 A 
ATOM     37  C   UNL A   1      41.826  26.634  26.637  1.00  0.00     0.010 A 
ATOM     38  C   UNL A   1      42.179  26.983  27.921  1.00  0.00    -0.014 A 
BRANCH  38  39
ATOM     39  C   UNL A   1      41.712  28.271  28.391  1.00  0.00     0.031 A 
ATOM     40  C   UNL A   1      42.654  29.370  28.124  1.00  0.00     0.074 A 
ATOM     41  C   UNL A   1      40.480  28.569  28.847  1.00  0.00     0.049 A 
ATOM     42  N   UNL A   1      43.451  29.899  28.985  1.00  0.00    -0.248 NA
ATOM     43  C   UNL A   1      42.830  29.844  26.746  1.00  0.00     0.031 C 
ATOM     44  C   UNL A   1      39.268  27.753  28.894  1.00  0.00     0.029 A 
ATOM     45  N   UNL A   1      40.060  29.764  29.345  1.00  0.00    -0.354 N 
ATOM     46  C   UNL A   1      44.133  30.891  28.305  1.00  0.00     0.074 A 
ATOM     47  C   UNL A   1      43.830  30.713  26.905  1.00  0.00     0.031 C 
ATOM     48  C   UNL A   1      38.206  28.525  29.233  1.00  0.00     0.029 A 
ATOM     49  C   UNL A   1      38.703  29.836  29.610  1.00  0.00     0.049 A 
ATOM     50  H   UNL A   1      40.673  30.517  29.505  1.00  0.00     0.167 HD
ATOM     51  C   UNL A   1      44.758  31.899  28.969  1.00  0.00     0.031 A 
ATOM     52  C   UNL A   1      38.046  30.880  30.166  1.00  0.00     0.031 A 
ATOM     53  C   UNL A   1      44.809  31.655  30.388  1.00  0.00     0.049 A 
ATOM     54  C   UNL A   1      39.048  31.650  30.943  1.00  0.00     0.074 A 
ATOM     55  C   UNL A   1      45.430  30.718  31.188  1.00  0.00     0.029 A 
ATOM     56  N   UNL A   1      43.791  32.196  31.140  1.00  0.00    -0.354 N 
ATOM     57  N   UNL A   1      39.655  31.179  31.998  1.00  0.00    -0.248 NA
ATOM     58  C   UNL A   1      39.662  32.823  30.343  1.00  0.00     0.031 C 
ATOM     59  C   UNL A   1      44.505  30.447  32.240  1.00  0.00     0.029 A 
ATOM     60  C   UNL A   1      43.377  31.252  32.051  1.00  0.00     0.049 A 
ATOM     61  H   UNL A   1      43.422  33.103  31.042  1.00  0.00     0.167 HD
ATOM     62  C   UNL A   1      40.927  31.727  31.951  1.00  0.00     0.074 A 
ATOM     63  C   UNL A   1      40.826  32.827  30.999  1.00  0.00     0.031 C 
ATOM     64  C   UNL A   1      42.001  31.077  32.489  1.00  0.00     0.031 A 
BRANCH  51  65
ATOM     65  C   UNL A   1      45.049  33.238  28.363  1.00  0.00    -0.014 A 
ATOM     66  C   UNL A   1      44.034  34.156  28.022  1.00  0.00     0.010 A 
ATOM     67  C   UNL A   1      46.378  33.695  28.316  1.00  0.00     0.010 A 
ATOM     68  C   UNL A   1      44.326  35.453  27.603  1.00  0.00     0.020 A 
ATOM     69  C   UNL A   1      46.679  35.011  27.942  1.00  0.00     0.020 A 
ATOM     70  C   UNL A   1      45.649  35.877  27.578  1.00  0.00     0.054 A 
BRANCH  70  71
ATOM     71  S   UNL A   1      45.977  37.604  27.152  1.00  0.00     0.124 S 
ATOM     72  O   UNL A   1      46.677  37.470  25.877  1.00  0.00    -0.237 OA
ATOM     73  O   UNL A   1      44.633  38.168  27.076  1.00  0.00    -0.237 OA
ATOM     74  O   UNL A   1      46.791  38.083  28.265  1.00  0.00    -0.744 OA
ENDBRANCH  70  71
ENDBRANCH  51  65
BRANCH  52  75
ATOM     75  C   UNL A   1      36.754  31.465  29.742  1.00  0.00    -0.014 A 
ATOM     76  C   UNL A   1      36.664  32.106  28.490  1.00  0.00     0.010 A 
ATOM     77  C   UNL A   1      35.730  31.692  30.680  1.00  0.00     0.010 A 
ATOM     78  C   UNL A   1      35.636  33.016  28.218  1.00  0.00     0.020 A 
ATOM     79  C   UNL A   1      34.695  32.601  30.412  1.00  0.00     0.020 A 
ATOM     80  C   UNL A   1      34.678  33.287  29.196  1.00  0.00     0.054 A 
BRANCH  80  81
ATOM     81  S   UNL A   1      33.479  34.613  28.881  1.00  0.00     0.124 S 
ATOM     82  O   UNL A   1      32.961  34.878  30.220  1.00  0.00    -0.237 OA
ATOM     83  O   UNL A   1      34.319  35.666  28.315  1.00  0.00    -0.237 OA
ATOM     84  O   UNL A   1      32.530  34.010  27.951  1.00  0.00    -0.744 OA
ENDBRANCH  80  81
ENDBRANCH  52  75
BRANCH  64  85
ATOM     85  C   UNL A   1      41.741  29.904  33.417  1.00  0.00    -0.014 A 
ATOM     86  C   UNL A   1      41.686  30.163  34.800  1.00  0.00     0.010 A 
ATOM     87  C   UNL A   1      41.743  28.561  32.989  1.00  0.00     0.010 A 
ATOM     88  C   UNL A   1      41.687  29.120  35.729  1.00  0.00     0.020 A 
ATOM     89  C   UNL A   1      41.720  27.507  33.918  1.00  0.00     0.020 A 
ATOM     90  C   UNL A   1      41.724  27.796  35.284  1.00  0.00     0.054 A 
BRANCH  90  91
ATOM     91  S   UNL A   1      41.814  26.475  36.526  1.00  0.00     0.124 S 
ATOM     92  O   UNL A   1      41.541  25.282  35.728  1.00  0.00    -0.237 OA
ATOM     93  O   UNL A   1      43.183  26.589  37.024  1.00  0.00    -0.237 OA
ATOM     94  O   UNL A   1      40.776  26.824  37.494  1.00  0.00    -0.744 OA
ENDBRANCH  90  91
ENDBRANCH  64  85
ENDBRANCH  38  39
ENDBRANCH  31  33
ENDBRANCH  30  31
ENDBRANCH  29  30
ENDBRANCH   1  29
TORSDOF 19
ENDMDL
MODEL 3
REMARK VINA RESULT:     -12.2      3.244      4.565
REMARK SMILES COc1ccc2c(c1)c(CC(=O)OCCOC(=O)c1ccc(-c3c4nc(c(-c5ccc(S(=O)(=O)[O-])cc5)c5ccc([nH]5)c(-c5ccc(S(=O)(=O)[O-])cc5)c5nc(c(-c6ccc(S(=O)(=O)[O-])cc6)c6ccc3[nH]6)C=C5)C=C4)cc1)c(C)n2Cc1ccn(C(F)F)c(=O)c1
REMARK SMILES IDX 14 1 13 2 11 3 12 4 10 5 9 6 3 7 4 8 8 9 5 10 7 11 6 12
REMARK SMILES IDX 81 13 79 14 80 15 2 16 1 17 82 18 83 19 84 20 92 21 85 22
REMARK SMILES IDX 90 23 86 24 91 25 87 26 88 27 89 28 15 29 16 30 17 31 18 32
REMARK SMILES IDX 19 33 20 34 78 35 21 36 77 37 22 38 23 39 24 40 71 41 25 42
REMARK SMILES IDX 76 43 70 44 72 45 26 46 75 47 69 48 68 49 27 51 57 52 38 53
REMARK SMILES IDX 56 54 39 55 42 56 55 57 73 58 40 59 41 60 54 62 74 63 43 64
REMARK SMILES IDX 28 65 29 66 37 67 30 68 36 69 31 70 32 71 33 72 34 73 35 74
REMARK SMILES IDX 58 75 59 76 67 77 60 78 66 79 61 80 62 81 63 82 64 83 65 84
REMARK SMILES IDX 44 85 45 86 53 87 46 88 52 89 47 90 48 91 49 92 50 93 51 94
REMARK H PARENT 72 50 42 61
REMARK Flexibility Score: inf
ROOT
ATOM      1  C   UNL A   1      37.084  22.154  24.364  1.00  0.00     0.274 C 
ENDROOT
BRANCH   1   2
ATOM      2  O   UNL A   1      36.919  23.592  24.274  1.00  0.00    -0.462 OA
BRANCH   2   3
ATOM      3  C   UNL A   1      35.631  24.005  24.248  1.00  0.00     0.310 C 
ATOM      4  O   UNL A   1      34.962  24.045  23.216  1.00  0.00    -0.252 OA
BRANCH   3   5
ATOM      5  C   UNL A   1      35.072  24.551  25.533  1.00  0.00     0.160 C 
BRANCH   5   6
ATOM      6  C   UNL A   1      33.745  25.248  25.652  1.00  0.00    -0.008 A 
ATOM      7  C   UNL A   1      33.154  28.879  26.944  1.00  0.00     0.119 A 
ATOM      8  C   UNL A   1      31.821  28.939  26.610  1.00  0.00     0.048 A 
ATOM      9  C   UNL A   1      33.882  27.726  26.636  1.00  0.00     0.057 A 
ATOM     10  C   UNL A   1      31.191  27.822  26.043  1.00  0.00     0.031 A 
ATOM     11  C   UNL A   1      33.307  26.560  26.080  1.00  0.00     0.007 A 
ATOM     12  C   UNL A   1      31.927  26.632  25.837  1.00  0.00     0.049 A 
ATOM     13  N   UNL A   1      31.542  25.389  25.369  1.00  0.00    -0.340 N 
ATOM     14  C   UNL A   1      32.576  24.499  25.536  1.00  0.00     0.020 A 
ATOM     15  C   UNL A   1      32.442  23.008  25.507  1.00  0.00     0.065 C 
BRANCH   7  16
ATOM     16  O   UNL A   1      33.901  29.903  27.460  1.00  0.00    -0.497 OA
ATOM     17  C   UNL A   1      35.221  29.578  27.876  1.00  0.00     0.278 C 
ENDBRANCH   7  16
BRANCH  13  18
ATOM     18  C   UNL A   1      30.268  25.082  24.721  1.00  0.00     0.158 C 
BRANCH  18  19
ATOM     19  C   UNL A   1      29.822  26.243  23.859  1.00  0.00    -0.021 A 
ATOM     20  C   UNL A   1      30.792  26.871  22.984  1.00  0.00     0.024 A 
ATOM     21  C   UNL A   1      28.584  26.759  23.930  1.00  0.00     0.077 A 
ATOM     22  C   UNL A   1      30.529  28.055  22.421  1.00  0.00     0.095 A 
ATOM     23  C   UNL A   1      28.238  28.017  23.206  1.00  0.00     0.255 A 
ATOM     24  N   UNL A   1      29.291  28.649  22.564  1.00  0.00    -0.258 N 
ATOM     25  O   UNL A   1      27.078  28.415  23.245  1.00  0.00    -0.269 OA
BRANCH  24  26
ATOM     26  C   UNL A   1      29.031  29.928  21.961  1.00  0.00     0.451 C 
ATOM     27  F   UNL A   1      29.155  30.924  22.872  1.00  0.00    -0.185 F 
ATOM     28  F   UNL A   1      29.893  30.183  20.944  1.00  0.00    -0.185 F 
ENDBRANCH  24  26
ENDBRANCH  18  19
ENDBRANCH  13  18
ENDBRANCH   5   6
ENDBRANCH   3   5
ENDBRANCH   2   3
ENDBRANCH   1   2
BRANCH   1  29
ATOM     29  C   UNL A   1      37.808  21.753  25.653  1.00  0.00     0.275 C 
BRANCH  29  30
ATOM     30  O   UNL A   1      38.567  22.873  26.140  1.00  0.00    -0.458 OA
BRANCH  30  31
ATOM     31  C   UNL A   1      39.594  22.584  26.971  1.00  0.00     0.338 C 
ATOM     32  O   UNL A   1      40.112  21.494  27.158  1.00  0.00    -0.246 OA
BRANCH  31  33
ATOM     33  C   UNL A   1      40.247  23.872  27.258  1.00  0.00     0.060 A 
ATOM     34  C   UNL A   1      41.191  24.080  28.252  1.00  0.00     0.016 A 
ATOM     35  C   UNL A   1      39.663  24.963  26.628  1.00  0.00     0.016 A 
ATOM     36  C   UNL A   1      41.409  25.390  28.691  1.00  0.00     0.010 A 
ATOM     37  C   UNL A   1      39.887  26.254  27.027  1.00  0.00     0.010 A 
ATOM     38  C   UNL A   1      40.680  26.454  28.133  1.00  0.00    -0.014 A 
BRANCH  38  39
ATOM     39  C   UNL A   1      40.798  27.818  28.606  1.00  0.00     0.031 A 
ATOM     40  C   UNL A   1      42.001  28.508  28.115  1.00  0.00     0.074 A 
ATOM     41  C   UNL A   1      39.859  28.533  29.255  1.00  0.00     0.049 A 
ATOM     42  N   UNL A   1      43.079  28.706  28.790  1.00  0.00    -0.248 NA
ATOM     43  C   UNL A   1      42.075  28.904  26.703  1.00  0.00     0.031 C 
ATOM     44  C   UNL A   1      38.468  28.207  29.563  1.00  0.00     0.029 A 
ATOM     45  N   UNL A   1      39.990  29.793  29.753  1.00  0.00    -0.354 N 
ATOM     46  C   UNL A   1      43.930  29.394  27.945  1.00  0.00     0.074 A 
ATOM     47  C   UNL A   1      43.329  29.354  26.633  1.00  0.00     0.031 C 
ATOM     48  C   UNL A   1      37.831  29.304  30.040  1.00  0.00     0.029 A 
ATOM     49  C   UNL A   1      38.822  30.344  30.250  1.00  0.00     0.049 A 
ATOM     50  H   UNL A   1      40.850  30.274  29.759  1.00  0.00     0.167 HD
ATOM     51  C   UNL A   1      44.983  30.102  28.431  1.00  0.00     0.031 A 
ATOM     52  C   UNL A   1      38.694  31.549  30.854  1.00  0.00     0.031 A 
ATOM     53  C   UNL A   1      45.207  29.840  29.830  1.00  0.00     0.049 A 
ATOM     54  C   UNL A   1      40.029  31.897  31.398  1.00  0.00     0.074 A 
ATOM     55  C   UNL A   1      45.591  28.733  30.558  1.00  0.00     0.029 A 
ATOM     56  N   UNL A   1      44.606  30.701  30.719  1.00  0.00    -0.354 N 
ATOM     57  N   UNL A   1      40.614  31.228  32.352  1.00  0.00    -0.248 NA
ATOM     58  C   UNL A   1      40.897  32.779  30.634  1.00  0.00     0.031 C 
ATOM     59  C   UNL A   1      44.843  28.799  31.771  1.00  0.00     0.029 A 
ATOM     60  C   UNL A   1      44.061  29.958  31.740  1.00  0.00     0.049 A 
ATOM     61  H   UNL A   1      44.572  31.681  30.638  1.00  0.00     0.167 HD
ATOM     62  C   UNL A   1      41.966  31.283  32.050  1.00  0.00     0.074 A 
ATOM     63  C   UNL A   1      42.087  32.357  31.071  1.00  0.00     0.031 C 
ATOM     64  C   UNL A   1      42.818  30.284  32.424  1.00  0.00     0.031 A 
BRANCH  51  65
ATOM     65  C   UNL A   1      45.613  31.254  27.710  1.00  0.00    -0.014 A 
ATOM     66  C   UNL A   1      44.859  32.308  27.153  1.00  0.00     0.010 A 
ATOM     67  C   UNL A   1      47.009  31.412  27.757  1.00  0.00     0.010 A 
ATOM     68  C   UNL A   1      45.464  33.445  26.621  1.00  0.00     0.020 A 
ATOM     69  C   UNL A   1      47.625  32.572  27.269  1.00  0.00     0.020 A 
ATOM     70  C   UNL A   1      46.846  33.576  26.693  1.00  0.00     0.054 A 
BRANCH  70  71
ATOM     71  S   UNL A   1      47.583  35.121  26.108  1.00  0.00     0.124 S 
ATOM     72  O   UNL A   1      48.280  34.682  24.902  1.00  0.00    -0.237 OA
ATOM     73  O   UNL A   1      46.410  35.962  25.888  1.00  0.00    -0.237 OA
ATOM     74  O   UNL A   1      48.444  35.530  27.214  1.00  0.00    -0.744 OA
ENDBRANCH  70  71
ENDBRANCH  51  65
BRANCH  52  75
ATOM     75  C   UNL A   1      37.640  32.563  30.634  1.00  0.00    -0.014 A 
ATOM     76  C   UNL A   1      36.432  32.473  31.355  1.00  0.00     0.010 A 
ATOM     77  C   UNL A   1      37.676  33.397  29.500  1.00  0.00     0.010 A 
ATOM     78  C   UNL A   1      35.275  33.119  30.906  1.00  0.00     0.020 A 
ATOM     79  C   UNL A   1      36.519  34.050  29.048  1.00  0.00     0.020 A 
ATOM     80  C   UNL A   1      35.316  33.873  29.733  1.00  0.00     0.054 A 
BRANCH  80  81
ATOM     81  S   UNL A   1      33.756  34.531  29.079  1.00  0.00     0.124 S 
ATOM     82  O   UNL A   1      34.198  35.752  28.412  1.00  0.00    -0.237 OA
ATOM     83  O   UNL A   1      33.311  33.459  28.192  1.00  0.00    -0.237 OA
ATOM     84  O   UNL A   1      32.936  34.731  30.270  1.00  0.00    -0.744 OA
ENDBRANCH  80  81
ENDBRANCH  52  75
BRANCH  64  85
ATOM     85  C   UNL A   1      42.336  29.272  33.448  1.00  0.00    -0.014 A 
ATOM     86  C   UNL A   1      42.427  29.622  34.808  1.00  0.00     0.010 A 
ATOM     87  C   UNL A   1      41.987  27.945  33.122  1.00  0.00     0.010 A 
ATOM     88  C   UNL A   1      42.228  28.671  35.813  1.00  0.00     0.020 A 
ATOM     89  C   UNL A   1      41.763  26.990  34.128  1.00  0.00     0.020 A 
ATOM     90  C   UNL A   1      41.917  27.354  35.467  1.00  0.00     0.054 A 
BRANCH  90  91
ATOM     91  S   UNL A   1      41.756  26.132  36.800  1.00  0.00     0.124 S 
ATOM     92  O   UNL A   1      41.838  24.868  36.071  1.00  0.00    -0.237 OA
ATOM     93  O   UNL A   1      42.902  26.431  37.656  1.00  0.00    -0.237 OA
ATOM     94  O   UNL A   1      40.452  26.421  37.393  1.00  0.00    -0.744 OA
ENDBRANCH  90  91
ENDBRANCH  64  85
ENDBRANCH  38  39
ENDBRANCH  31  33
ENDBRANCH  30  31
ENDBRANCH  29  30
ENDBRANCH   1  29
TORSDOF 19
ENDMDL
