MODEL 1
REMARK VINA RESULT:     -10.3      0.000      0.000
REMARK SMILES CCCC(=O)Nc1ccc(Cl)c(NC(=O)/C=C/C(=O)OCCOC(=O)c2ccc(-c3c4nc(c(-c5ccc(S(=O)(=O)[O-])cc5)c5ccc([nH]5)c(-c5ccc(S(=O)(=O)[O-])cc5)c5nc(c(-c6ccc(S(=O)(=O)[O-])cc6)c6ccc3[nH]6)C=C5)C=C4)cc2)c1
REMARK SMILES IDX 21 1 20 2 18 3 19 4 17 5 16 6 14 7 13 8 15 10 12 11 7 12
REMARK SMILES IDX 8 13 86 14 9 15 10 16 11 17 6 18 4 19 5 20 3 22 2 23 1 24
REMARK SMILES IDX 22 25 23 26 24 27 25 28 26 29 27 30 85 31 28 32 84 33 29 34
REMARK SMILES IDX 30 35 31 36 78 37 32 38 83 39 77 40 79 41 33 42 82 43 76 44
REMARK SMILES IDX 75 45 34 47 64 48 45 49 63 50 46 51 49 52 62 53 80 54 47 55
REMARK SMILES IDX 48 56 61 58 81 59 50 60 35 61 36 62 44 63 37 64 43 65 38 66
REMARK SMILES IDX 39 67 40 68 41 69 42 70 65 71 66 72 74 73 67 74 73 75 68 76
REMARK SMILES IDX 69 77 70 78 71 79 72 80 51 81 52 82 60 83 53 84 59 85 54 86
REMARK SMILES IDX 55 87 56 88 57 89 58 90
REMARK H PARENT 13 9 6 21 79 46 49 57
REMARK Flexibility Score: inf
ROOT
ATOM      1  C   UNL A   1      31.723  29.457  25.849  1.00  0.00     0.275 C 
ENDROOT
BRANCH   1   2
ATOM      2  O   UNL A   1      31.724  28.047  25.552  1.00  0.00    -0.459 OA
BRANCH   2   3
ATOM      3  C   UNL A   1      31.345  27.253  26.572  1.00  0.00     0.331 C 
ATOM      4  O   UNL A   1      31.290  27.566  27.753  1.00  0.00    -0.247 OA
BRANCH   3   5
ATOM      5  C   UNL A   1      30.915  25.931  26.089  1.00  0.00     0.099 C 
ATOM      6  C   UNL A   1      31.438  24.866  26.713  1.00  0.00     0.079 C 
BRANCH   6   7
ATOM      7  C   UNL A   1      30.813  23.528  26.645  1.00  0.00     0.248 C 
ATOM      8  N   UNL A   1      31.242  22.602  25.729  1.00  0.00    -0.321 N 
ATOM      9  H   UNL A   1      30.769  21.740  25.780  1.00  0.00     0.170 HD
ATOM     10  O   UNL A   1      29.879  23.272  27.403  1.00  0.00    -0.270 OA
BRANCH   8  11
ATOM     11  C   UNL A   1      32.237  22.651  24.722  1.00  0.00     0.062 A 
ATOM     12  C   UNL A   1      33.001  23.473  22.559  1.00  0.00     0.043 A 
ATOM     13  C   UNL A   1      34.307  23.130  22.885  1.00  0.00     0.028 A 
ATOM     14  C   UNL A   1      31.983  23.157  23.451  1.00  0.00     0.053 A 
ATOM     15  C   UNL A   1      34.577  22.470  24.091  1.00  0.00     0.025 A 
ATOM     16  C   UNL A   1      33.546  22.237  25.008  1.00  0.00     0.064 A 
ATOM     17  Cl  UNL A   1      33.937  21.494  26.517  1.00  0.00    -0.082 Cl
BRANCH  12  18
ATOM     18  N   UNL A   1      32.643  24.326  21.508  1.00  0.00    -0.326 N 
ATOM     19  C   UNL A   1      32.254  25.631  21.483  1.00  0.00     0.224 C 
ATOM     20  O   UNL A   1      31.616  26.058  20.518  1.00  0.00    -0.275 OA
ATOM     21  H   UNL A   1      32.678  23.902  20.619  1.00  0.00     0.169 HD
BRANCH  19  22
ATOM     22  C   UNL A   1      32.819  26.563  22.532  1.00  0.00     0.100 C 
BRANCH  22  23
ATOM     23  C   UNL A   1      33.846  27.522  21.979  1.00  0.00     0.006 C 
ATOM     24  C   UNL A   1      34.014  28.794  22.790  1.00  0.00     0.004 C 
ENDBRANCH  22  23
ENDBRANCH  19  22
ENDBRANCH  12  18
ENDBRANCH   8  11
ENDBRANCH   6   7
ENDBRANCH   3   5
ENDBRANCH   2   3
ENDBRANCH   1   2
BRANCH   1  25
ATOM     25  C   UNL A   1      33.157  29.974  25.984  1.00  0.00     0.275 C 
BRANCH  25  26
ATOM     26  O   UNL A   1      33.625  29.991  27.351  1.00  0.00    -0.458 OA
BRANCH  26  27
ATOM     27  C   UNL A   1      34.183  31.157  27.770  1.00  0.00     0.338 C 
ATOM     28  O   UNL A   1      33.636  32.243  27.769  1.00  0.00    -0.246 OA
BRANCH  27  29
ATOM     29  C   UNL A   1      35.554  30.955  28.320  1.00  0.00     0.060 A 
ATOM     30  C   UNL A   1      35.828  29.713  28.896  1.00  0.00     0.016 A 
ATOM     31  C   UNL A   1      36.550  31.938  28.326  1.00  0.00     0.016 A 
ATOM     32  C   UNL A   1      37.093  29.444  29.429  1.00  0.00     0.010 A 
ATOM     33  C   UNL A   1      37.816  31.672  28.893  1.00  0.00     0.010 A 
ATOM     34  C   UNL A   1      38.112  30.414  29.437  1.00  0.00    -0.014 A 
BRANCH  34  35
ATOM     35  C   UNL A   1      39.413  30.054  30.092  1.00  0.00     0.031 A 
ATOM     36  C   UNL A   1      39.692  30.574  31.476  1.00  0.00     0.074 A 
ATOM     37  C   UNL A   1      40.310  29.206  29.541  1.00  0.00     0.049 A 
ATOM     38  N   UNL A   1      40.599  30.194  32.338  1.00  0.00    -0.248 NA
ATOM     39  C   UNL A   1      38.849  31.690  31.935  1.00  0.00     0.031 C 
ATOM     40  C   UNL A   1      40.267  28.710  28.175  1.00  0.00     0.029 A 
ATOM     41  N   UNL A   1      41.401  28.556  30.087  1.00  0.00    -0.354 N 
ATOM     42  C   UNL A   1      40.468  31.051  33.421  1.00  0.00     0.074 A 
ATOM     43  C   UNL A   1      39.349  31.926  33.137  1.00  0.00     0.031 C 
ATOM     44  C   UNL A   1      41.185  27.737  28.030  1.00  0.00     0.029 A 
ATOM     45  C   UNL A   1      41.918  27.562  29.276  1.00  0.00     0.049 A 
ATOM     46  H   UNL A   1      41.775  28.779  30.971  1.00  0.00     0.167 HD
ATOM     47  C   UNL A   1      41.253  31.159  34.518  1.00  0.00     0.031 A 
ATOM     48  C   UNL A   1      42.852  26.609  29.506  1.00  0.00     0.031 A 
ATOM     49  C   UNL A   1      42.433  30.376  34.764  1.00  0.00     0.049 A 
ATOM     50  C   UNL A   1      43.637  26.671  30.795  1.00  0.00     0.074 A 
ATOM     51  C   UNL A   1      43.320  30.476  35.824  1.00  0.00     0.029 A 
ATOM     52  N   UNL A   1      42.915  29.379  33.934  1.00  0.00    -0.354 N 
ATOM     53  N   UNL A   1      43.467  27.462  31.827  1.00  0.00    -0.248 NA
ATOM     54  C   UNL A   1      44.782  25.753  30.925  1.00  0.00     0.031 C 
ATOM     55  C   UNL A   1      44.374  29.585  35.598  1.00  0.00     0.029 A 
ATOM     56  C   UNL A   1      44.097  28.869  34.447  1.00  0.00     0.049 A 
ATOM     57  H   UNL A   1      42.482  29.076  33.104  1.00  0.00     0.167 HD
ATOM     58  C   UNL A   1      44.509  27.170  32.702  1.00  0.00     0.074 A 
ATOM     59  C   UNL A   1      45.251  26.071  32.123  1.00  0.00     0.031 C 
ATOM     60  C   UNL A   1      44.847  27.789  33.860  1.00  0.00     0.031 A 
BRANCH  47  61
ATOM     61  C   UNL A   1      40.929  32.270  35.475  1.00  0.00    -0.014 A 
ATOM     62  C   UNL A   1      40.022  32.091  36.534  1.00  0.00     0.010 A 
ATOM     63  C   UNL A   1      41.566  33.513  35.310  1.00  0.00     0.010 A 
ATOM     64  C   UNL A   1      39.746  33.149  37.403  1.00  0.00     0.020 A 
ATOM     65  C   UNL A   1      41.311  34.564  36.192  1.00  0.00     0.020 A 
ATOM     66  C   UNL A   1      40.394  34.377  37.227  1.00  0.00     0.054 A 
BRANCH  66  67
ATOM     67  S   UNL A   1      40.050  35.718  38.396  1.00  0.00     0.124 S 
ATOM     68  O   UNL A   1      39.741  36.828  37.498  1.00  0.00    -0.237 OA
ATOM     69  O   UNL A   1      38.920  35.193  39.158  1.00  0.00    -0.237 OA
ATOM     70  O   UNL A   1      41.296  35.853  39.147  1.00  0.00    -0.744 OA
ENDBRANCH  66  67
ENDBRANCH  47  61
BRANCH  48  71
ATOM     71  C   UNL A   1      43.171  25.539  28.501  1.00  0.00    -0.014 A 
ATOM     72  C   UNL A   1      44.058  25.790  27.431  1.00  0.00     0.010 A 
ATOM     73  C   UNL A   1      42.531  24.288  28.548  1.00  0.00     0.010 A 
ATOM     74  C   UNL A   1      44.264  24.837  26.422  1.00  0.00     0.020 A 
ATOM     75  C   UNL A   1      42.773  23.313  27.573  1.00  0.00     0.020 A 
ATOM     76  C   UNL A   1      43.617  23.602  26.501  1.00  0.00     0.054 A 
BRANCH  76  77
ATOM     77  S   UNL A   1      43.900  22.359  25.207  1.00  0.00     0.124 S 
ATOM     78  O   UNL A   1      42.648  21.609  25.229  1.00  0.00    -0.237 OA
ATOM     79  O   UNL A   1      44.127  23.178  24.019  1.00  0.00    -0.237 OA
ATOM     80  O   UNL A   1      45.074  21.634  25.688  1.00  0.00    -0.744 OA
ENDBRANCH  76  77
ENDBRANCH  48  71
BRANCH  60  81
ATOM     81  C   UNL A   1      46.073  27.295  34.584  1.00  0.00    -0.014 A 
ATOM     82  C   UNL A   1      45.997  26.268  35.543  1.00  0.00     0.010 A 
ATOM     83  C   UNL A   1      47.329  27.848  34.276  1.00  0.00     0.010 A 
ATOM     84  C   UNL A   1      47.144  25.842  36.219  1.00  0.00     0.020 A 
ATOM     85  C   UNL A   1      48.482  27.404  34.926  1.00  0.00     0.020 A 
ATOM     86  C   UNL A   1      48.379  26.420  35.911  1.00  0.00     0.054 A 
BRANCH  86  87
ATOM     87  S   UNL A   1      49.856  25.856  36.801  1.00  0.00     0.124 S 
ATOM     88  O   UNL A   1      49.275  25.070  37.886  1.00  0.00    -0.237 OA
ATOM     89  O   UNL A   1      50.573  25.091  35.784  1.00  0.00    -0.237 OA
ATOM     90  O   UNL A   1      50.508  27.098  37.212  1.00  0.00    -0.744 OA
ENDBRANCH  86  87
ENDBRANCH  60  81
ENDBRANCH  34  35
ENDBRANCH  27  29
ENDBRANCH  26  27
ENDBRANCH  25  26
ENDBRANCH   1  25
TORSDOF 19
ENDMDL
MODEL 2
REMARK VINA RESULT:     -10.3      1.564      2.813
REMARK SMILES CCCC(=O)Nc1ccc(Cl)c(NC(=O)/C=C/C(=O)OCCOC(=O)c2ccc(-c3c4nc(c(-c5ccc(S(=O)(=O)[O-])cc5)c5ccc([nH]5)c(-c5ccc(S(=O)(=O)[O-])cc5)c5nc(c(-c6ccc(S(=O)(=O)[O-])cc6)c6ccc3[nH]6)C=C5)C=C4)cc2)c1
REMARK SMILES IDX 21 1 20 2 18 3 19 4 17 5 16 6 14 7 13 8 15 10 12 11 7 12
REMARK SMILES IDX 8 13 86 14 9 15 10 16 11 17 6 18 4 19 5 20 3 22 2 23 1 24
REMARK SMILES IDX 22 25 23 26 24 27 25 28 26 29 27 30 85 31 28 32 84 33 29 34
REMARK SMILES IDX 30 35 31 36 78 37 32 38 83 39 77 40 79 41 33 42 82 43 76 44
REMARK SMILES IDX 75 45 34 47 64 48 45 49 63 50 46 51 49 52 62 53 80 54 47 55
REMARK SMILES IDX 48 56 61 58 81 59 50 60 35 61 36 62 44 63 37 64 43 65 38 66
REMARK SMILES IDX 39 67 40 68 41 69 42 70 65 71 66 72 74 73 67 74 73 75 68 76
REMARK SMILES IDX 69 77 70 78 71 79 72 80 51 81 52 82 60 83 53 84 59 85 54 86
REMARK SMILES IDX 55 87 56 88 57 89 58 90
REMARK H PARENT 13 9 6 21 79 46 49 57
REMARK Flexibility Score: inf
ROOT
ATOM      1  C   UNL A   1      32.112  29.144  25.246  1.00  0.00     0.275 C 
ENDROOT
BRANCH   1   2
ATOM      2  O   UNL A   1      31.107  28.185  25.632  1.00  0.00    -0.459 OA
BRANCH   2   3
ATOM      3  C   UNL A   1      31.588  27.013  26.087  1.00  0.00     0.331 C 
ATOM      4  O   UNL A   1      31.776  26.711  27.258  1.00  0.00    -0.247 OA
BRANCH   3   5
ATOM      5  C   UNL A   1      31.805  26.060  24.987  1.00  0.00     0.099 C 
ATOM      6  C   UNL A   1      31.006  24.984  24.960  1.00  0.00     0.079 C 
BRANCH   6   7
ATOM      7  C   UNL A   1      30.807  24.181  23.734  1.00  0.00     0.248 C 
ATOM      8  N   UNL A   1      31.546  23.046  23.516  1.00  0.00    -0.321 N 
ATOM      9  H   UNL A   1      31.323  22.579  22.678  1.00  0.00     0.170 HD
ATOM     10  O   UNL A   1      29.991  24.566  22.900  1.00  0.00    -0.270 OA
BRANCH   8  11
ATOM     11  C   UNL A   1      32.570  22.418  24.267  1.00  0.00     0.062 A 
ATOM     12  C   UNL A   1      33.346  20.529  25.595  1.00  0.00     0.043 A 
ATOM     13  C   UNL A   1      34.663  20.934  25.410  1.00  0.00     0.028 A 
ATOM     14  C   UNL A   1      32.324  21.320  25.085  1.00  0.00     0.053 A 
ATOM     15  C   UNL A   1      34.938  22.126  24.728  1.00  0.00     0.025 A 
ATOM     16  C   UNL A   1      33.896  22.861  24.153  1.00  0.00     0.064 A 
ATOM     17  Cl  UNL A   1      34.287  24.281  23.251  1.00  0.00    -0.082 Cl
BRANCH  12  18
ATOM     18  N   UNL A   1      32.962  19.262  26.051  1.00  0.00    -0.326 N 
ATOM     19  C   UNL A   1      32.935  18.043  25.444  1.00  0.00     0.224 C 
ATOM     20  O   UNL A   1      32.202  17.157  25.889  1.00  0.00    -0.275 OA
ATOM     21  H   UNL A   1      32.652  19.250  26.986  1.00  0.00     0.169 HD
BRANCH  19  22
ATOM     22  C   UNL A   1      33.978  17.749  24.388  1.00  0.00     0.100 C 
BRANCH  22  23
ATOM     23  C   UNL A   1      33.382  17.304  23.075  1.00  0.00     0.006 C 
ATOM     24  C   UNL A   1      32.335  18.247  22.511  1.00  0.00     0.004 C 
ENDBRANCH  22  23
ENDBRANCH  19  22
ENDBRANCH  12  18
ENDBRANCH   8  11
ENDBRANCH   6   7
ENDBRANCH   3   5
ENDBRANCH   2   3
ENDBRANCH   1   2
BRANCH   1  25
ATOM     25  C   UNL A   1      32.404  30.103  26.402  1.00  0.00     0.275 C 
BRANCH  25  26
ATOM     26  O   UNL A   1      33.773  30.033  26.861  1.00  0.00    -0.458 OA
BRANCH  26  27
ATOM     27  C   UNL A   1      34.222  31.115  27.548  1.00  0.00     0.338 C 
ATOM     28  O   UNL A   1      33.594  32.139  27.743  1.00  0.00    -0.246 OA
BRANCH  27  29
ATOM     29  C   UNL A   1      35.578  30.890  28.124  1.00  0.00     0.060 A 
ATOM     30  C   UNL A   1      35.832  29.630  28.671  1.00  0.00     0.016 A 
ATOM     31  C   UNL A   1      36.580  31.866  28.180  1.00  0.00     0.016 A 
ATOM     32  C   UNL A   1      37.083  29.338  29.225  1.00  0.00     0.010 A 
ATOM     33  C   UNL A   1      37.831  31.576  28.768  1.00  0.00     0.010 A 
ATOM     34  C   UNL A   1      38.107  30.302  29.283  1.00  0.00    -0.014 A 
BRANCH  34  35
ATOM     35  C   UNL A   1      39.391  29.915  29.958  1.00  0.00     0.031 A 
ATOM     36  C   UNL A   1      39.668  30.445  31.339  1.00  0.00     0.074 A 
ATOM     37  C   UNL A   1      40.270  29.037  29.428  1.00  0.00     0.049 A 
ATOM     38  N   UNL A   1      40.555  30.052  32.215  1.00  0.00    -0.248 NA
ATOM     39  C   UNL A   1      38.850  31.590  31.773  1.00  0.00     0.031 C 
ATOM     40  C   UNL A   1      40.229  28.524  28.068  1.00  0.00     0.029 A 
ATOM     41  N   UNL A   1      41.337  28.365  29.995  1.00  0.00    -0.354 N 
ATOM     42  C   UNL A   1      40.435  30.927  33.285  1.00  0.00     0.074 A 
ATOM     43  C   UNL A   1      39.343  31.828  32.978  1.00  0.00     0.031 C 
ATOM     44  C   UNL A   1      41.122  27.525  27.946  1.00  0.00     0.029 A 
ATOM     45  C   UNL A   1      41.836  27.346  29.202  1.00  0.00     0.049 A 
ATOM     46  H   UNL A   1      41.707  28.589  30.880  1.00  0.00     0.167 HD
ATOM     47  C   UNL A   1      41.210  31.029  34.390  1.00  0.00     0.031 A 
ATOM     48  C   UNL A   1      42.741  26.372  29.456  1.00  0.00     0.031 A 
ATOM     49  C   UNL A   1      42.366  30.217  34.660  1.00  0.00     0.049 A 
ATOM     50  C   UNL A   1      43.513  26.429  30.753  1.00  0.00     0.074 A 
ATOM     51  C   UNL A   1      43.244  30.307  35.728  1.00  0.00     0.029 A 
ATOM     52  N   UNL A   1      42.830  29.196  33.848  1.00  0.00    -0.354 N 
ATOM     53  N   UNL A   1      43.353  27.238  31.772  1.00  0.00    -0.248 NA
ATOM     54  C   UNL A   1      44.631  25.483  30.908  1.00  0.00     0.031 C 
ATOM     55  C   UNL A   1      44.275  29.385  35.526  1.00  0.00     0.029 A 
ATOM     56  C   UNL A   1      43.992  28.661  34.381  1.00  0.00     0.049 A 
ATOM     57  H   UNL A   1      42.398  28.895  33.017  1.00  0.00     0.167 HD
ATOM     58  C   UNL A   1      44.377  26.929  32.663  1.00  0.00     0.074 A 
ATOM     59  C   UNL A   1      45.095  25.804  32.107  1.00  0.00     0.031 C 
ATOM     60  C   UNL A   1      44.719  27.554  33.817  1.00  0.00     0.031 A 
BRANCH  47  61
ATOM     61  C   UNL A   1      40.906  32.160  35.329  1.00  0.00    -0.014 A 
ATOM     62  C   UNL A   1      40.006  32.011  36.398  1.00  0.00     0.010 A 
ATOM     63  C   UNL A   1      41.555  33.393  35.136  1.00  0.00     0.010 A 
ATOM     64  C   UNL A   1      39.748  33.087  37.250  1.00  0.00     0.020 A 
ATOM     65  C   UNL A   1      41.318  34.462  36.000  1.00  0.00     0.020 A 
ATOM     66  C   UNL A   1      40.408  34.304  37.046  1.00  0.00     0.054 A 
BRANCH  66  67
ATOM     67  S   UNL A   1      40.088  35.670  38.193  1.00  0.00     0.124 S 
ATOM     68  O   UNL A   1      39.801  36.771  37.277  1.00  0.00    -0.237 OA
ATOM     69  O   UNL A   1      38.946  35.179  38.961  1.00  0.00    -0.237 OA
ATOM     70  O   UNL A   1      41.335  35.794  38.944  1.00  0.00    -0.744 OA
ENDBRANCH  66  67
ENDBRANCH  47  61
BRANCH  48  71
ATOM     71  C   UNL A   1      43.042  25.280  28.468  1.00  0.00    -0.014 A 
ATOM     72  C   UNL A   1      43.990  25.475  27.439  1.00  0.00     0.010 A 
ATOM     73  C   UNL A   1      42.329  24.070  28.488  1.00  0.00     0.010 A 
ATOM     74  C   UNL A   1      44.185  24.506  26.442  1.00  0.00     0.020 A 
ATOM     75  C   UNL A   1      42.556  23.077  27.527  1.00  0.00     0.020 A 
ATOM     76  C   UNL A   1      43.464  23.312  26.494  1.00  0.00     0.054 A 
BRANCH  76  77
ATOM     77  S   UNL A   1      43.732  22.049  25.217  1.00  0.00     0.124 S 
ATOM     78  O   UNL A   1      42.687  21.078  25.527  1.00  0.00    -0.237 OA
ATOM     79  O   UNL A   1      43.551  22.800  23.977  1.00  0.00    -0.237 OA
ATOM     80  O   UNL A   1      45.100  21.599  25.469  1.00  0.00    -0.744 OA
ENDBRANCH  76  77
ENDBRANCH  48  71
BRANCH  60  81
ATOM     81  C   UNL A   1      45.923  27.037  34.561  1.00  0.00    -0.014 A 
ATOM     82  C   UNL A   1      47.213  27.544  34.316  1.00  0.00     0.010 A 
ATOM     83  C   UNL A   1      45.756  26.048  35.545  1.00  0.00     0.010 A 
ATOM     84  C   UNL A   1      48.318  27.032  35.001  1.00  0.00     0.020 A 
ATOM     85  C   UNL A   1      46.853  25.555  36.255  1.00  0.00     0.020 A 
ATOM     86  C   UNL A   1      48.131  26.034  35.962  1.00  0.00     0.054 A 
BRANCH  86  87
ATOM     87  S   UNL A   1      49.578  25.381  36.840  1.00  0.00     0.124 S 
ATOM     88  O   UNL A   1      50.304  26.602  37.179  1.00  0.00    -0.237 OA
ATOM     89  O   UNL A   1      48.979  24.670  37.966  1.00  0.00    -0.237 OA
ATOM     90  O   UNL A   1      50.229  24.527  35.847  1.00  0.00    -0.744 OA
ENDBRANCH  86  87
ENDBRANCH  60  81
ENDBRANCH  34  35
ENDBRANCH  27  29
ENDBRANCH  26  27
ENDBRANCH  25  26
ENDBRANCH   1  25
TORSDOF 19
ENDMDL
MODEL 3
REMARK VINA RESULT:     -10.3      5.724      7.427
REMARK SMILES CCCC(=O)Nc1ccc(Cl)c(NC(=O)/C=C/C(=O)OCCOC(=O)c2ccc(-c3c4nc(c(-c5ccc(S(=O)(=O)[O-])cc5)c5ccc([nH]5)c(-c5ccc(S(=O)(=O)[O-])cc5)c5nc(c(-c6ccc(S(=O)(=O)[O-])cc6)c6ccc3[nH]6)C=C5)C=C4)cc2)c1
REMARK SMILES IDX 21 1 20 2 18 3 19 4 17 5 16 6 14 7 13 8 15 10 12 11 7 12
REMARK SMILES IDX 8 13 86 14 9 15 10 16 11 17 6 18 4 19 5 20 3 22 2 23 1 24
REMARK SMILES IDX 22 25 23 26 24 27 25 28 26 29 27 30 85 31 28 32 84 33 29 34
REMARK SMILES IDX 30 35 31 36 78 37 32 38 83 39 77 40 79 41 33 42 82 43 76 44
REMARK SMILES IDX 75 45 34 47 64 48 45 49 63 50 46 51 49 52 62 53 80 54 47 55
REMARK SMILES IDX 48 56 61 58 81 59 50 60 35 61 36 62 44 63 37 64 43 65 38 66
REMARK SMILES IDX 39 67 40 68 41 69 42 70 65 71 66 72 74 73 67 74 73 75 68 76
REMARK SMILES IDX 69 77 70 78 71 79 72 80 51 81 52 82 60 83 53 84 59 85 54 86
REMARK SMILES IDX 55 87 56 88 57 89 58 90
REMARK H PARENT 13 9 6 21 79 46 49 57
REMARK Flexibility Score: inf
ROOT
ATOM      1  C   UNL A   1      34.005  30.683  27.505  1.00  0.00     0.275 C 
ENDROOT
BRANCH   1   2
ATOM      2  O   UNL A   1      33.762  29.298  27.185  1.00  0.00    -0.459 OA
BRANCH   2   3
ATOM      3  C   UNL A   1      32.704  29.080  26.381  1.00  0.00     0.331 C 
ATOM      4  O   UNL A   1      31.572  28.781  26.737  1.00  0.00    -0.247 OA
BRANCH   3   5
ATOM      5  C   UNL A   1      33.046  29.320  24.970  1.00  0.00     0.099 C 
ATOM      6  C   UNL A   1      33.651  28.315  24.321  1.00  0.00     0.079 C 
BRANCH   6   7
ATOM      7  C   UNL A   1      33.674  28.231  22.845  1.00  0.00     0.248 C 
ATOM      8  N   UNL A   1      32.626  27.669  22.162  1.00  0.00    -0.321 N 
ATOM      9  H   UNL A   1      32.736  27.679  21.183  1.00  0.00     0.170 HD
ATOM     10  O   UNL A   1      34.664  28.644  22.244  1.00  0.00    -0.270 OA
BRANCH   8  11
ATOM     11  C   UNL A   1      31.415  27.078  22.596  1.00  0.00     0.062 A 
ATOM     12  C   UNL A   1      30.223  25.165  23.521  1.00  0.00     0.043 A 
ATOM     13  C   UNL A   1      29.152  25.986  23.853  1.00  0.00     0.028 A 
ATOM     14  C   UNL A   1      31.298  25.711  22.832  1.00  0.00     0.053 A 
ATOM     15  C   UNL A   1      29.168  27.338  23.485  1.00  0.00     0.025 A 
ATOM     16  C   UNL A   1      30.297  27.882  22.865  1.00  0.00     0.064 A 
ATOM     17  Cl  UNL A   1      30.306  29.571  22.501  1.00  0.00    -0.082 Cl
BRANCH  12  18
ATOM     18  N   UNL A   1      30.420  23.875  24.029  1.00  0.00    -0.326 N 
ATOM     19  C   UNL A   1      31.234  23.395  25.010  1.00  0.00     0.224 C 
ATOM     20  O   UNL A   1      31.536  22.199  25.020  1.00  0.00    -0.275 OA
ATOM     21  H   UNL A   1      29.868  23.185  23.594  1.00  0.00     0.169 HD
BRANCH  19  22
ATOM     22  C   UNL A   1      31.548  24.299  26.181  1.00  0.00     0.100 C 
BRANCH  22  23
ATOM     23  C   UNL A   1      33.027  24.417  26.459  1.00  0.00     0.006 C 
ATOM     24  C   UNL A   1      33.859  24.820  25.256  1.00  0.00     0.004 C 
ENDBRANCH  22  23
ENDBRANCH  19  22
ENDBRANCH  12  18
ENDBRANCH   8  11
ENDBRANCH   6   7
ENDBRANCH   3   5
ENDBRANCH   2   3
ENDBRANCH   1   2
BRANCH   1  25
ATOM     25  C   UNL A   1      35.457  30.882  27.942  1.00  0.00     0.275 C 
BRANCH  25  26
ATOM     26  O   UNL A   1      36.225  29.657  27.924  1.00  0.00    -0.458 OA
BRANCH  26  27
ATOM     27  C   UNL A   1      36.960  29.404  29.038  1.00  0.00     0.338 C 
ATOM     28  O   UNL A   1      36.514  29.261  30.161  1.00  0.00    -0.246 OA
BRANCH  27  29
ATOM     29  C   UNL A   1      38.408  29.237  28.728  1.00  0.00     0.060 A 
ATOM     30  C   UNL A   1      38.796  29.419  27.399  1.00  0.00     0.016 A 
ATOM     31  C   UNL A   1      39.377  28.876  29.672  1.00  0.00     0.016 A 
ATOM     32  C   UNL A   1      40.138  29.286  27.029  1.00  0.00     0.010 A 
ATOM     33  C   UNL A   1      40.726  28.712  29.287  1.00  0.00     0.010 A 
ATOM     34  C   UNL A   1      41.130  28.933  27.963  1.00  0.00    -0.014 A 
BRANCH  34  35
ATOM     35  C   UNL A   1      42.530  28.748  27.456  1.00  0.00     0.031 A 
ATOM     36  C   UNL A   1      43.567  29.778  27.810  1.00  0.00     0.074 A 
ATOM     37  C   UNL A   1      42.932  27.651  26.777  1.00  0.00     0.049 A 
ATOM     38  N   UNL A   1      44.870  29.708  27.722  1.00  0.00    -0.248 NA
ATOM     39  C   UNL A   1      43.061  31.069  28.304  1.00  0.00     0.031 C 
ATOM     40  C   UNL A   1      42.052  26.623  26.244  1.00  0.00     0.029 A 
ATOM     41  N   UNL A   1      44.197  27.182  26.474  1.00  0.00    -0.354 N 
ATOM     42  C   UNL A   1      45.338  30.956  28.105  1.00  0.00     0.074 A 
ATOM     43  C   UNL A   1      44.185  31.743  28.492  1.00  0.00     0.031 C 
ATOM     44  C   UNL A   1      42.794  25.587  25.813  1.00  0.00     0.029 A 
ATOM     45  C   UNL A   1      44.208  25.885  25.994  1.00  0.00     0.049 A 
ATOM     46  H   UNL A   1      45.013  27.721  26.589  1.00  0.00     0.167 HD
ATOM     47  C   UNL A   1      46.602  31.439  28.064  1.00  0.00     0.031 A 
ATOM     48  C   UNL A   1      45.226  25.027  25.747  1.00  0.00     0.031 A 
ATOM     49  C   UNL A   1      47.744  30.711  27.579  1.00  0.00     0.049 A 
ATOM     50  C   UNL A   1      46.640  25.550  25.827  1.00  0.00     0.074 A 
ATOM     51  C   UNL A   1      49.048  31.159  27.442  1.00  0.00     0.029 A 
ATOM     52  N   UNL A   1      47.719  29.407  27.116  1.00  0.00    -0.354 N 
ATOM     53  N   UNL A   1      47.064  26.721  26.234  1.00  0.00    -0.248 NA
ATOM     54  C   UNL A   1      47.711  24.656  25.353  1.00  0.00     0.031 C 
ATOM     55  C   UNL A   1      49.797  30.145  26.835  1.00  0.00     0.029 A 
ATOM     56  C   UNL A   1      48.981  29.039  26.676  1.00  0.00     0.049 A 
ATOM     57  H   UNL A   1      46.925  28.826  27.102  1.00  0.00     0.167 HD
ATOM     58  C   UNL A   1      48.439  26.720  26.020  1.00  0.00     0.074 A 
ATOM     59  C   UNL A   1      48.790  25.405  25.533  1.00  0.00     0.031 C 
ATOM     60  C   UNL A   1      49.326  27.736  26.171  1.00  0.00     0.031 A 
BRANCH  47  61
ATOM     61  C   UNL A   1      46.788  32.881  28.435  1.00  0.00    -0.014 A 
ATOM     62  C   UNL A   1      47.105  33.272  29.747  1.00  0.00     0.010 A 
ATOM     63  C   UNL A   1      46.658  33.860  27.433  1.00  0.00     0.010 A 
ATOM     64  C   UNL A   1      47.269  34.625  30.053  1.00  0.00     0.020 A 
ATOM     65  C   UNL A   1      46.846  35.210  27.731  1.00  0.00     0.020 A 
ATOM     66  C   UNL A   1      47.142  35.584  29.042  1.00  0.00     0.054 A 
BRANCH  66  67
ATOM     67  S   UNL A   1      47.404  37.328  29.458  1.00  0.00     0.124 S 
ATOM     68  O   UNL A   1      47.499  37.279  30.915  1.00  0.00    -0.237 OA
ATOM     69  O   UNL A   1      48.649  37.637  28.758  1.00  0.00    -0.237 OA
ATOM     70  O   UNL A   1      46.215  37.994  28.933  1.00  0.00    -0.744 OA
ENDBRANCH  66  67
ENDBRANCH  47  61
BRANCH  48  71
ATOM     71  C   UNL A   1      44.990  23.600  25.339  1.00  0.00    -0.014 A 
ATOM     72  C   UNL A   1      44.780  22.595  26.309  1.00  0.00     0.010 A 
ATOM     73  C   UNL A   1      45.056  23.212  23.990  1.00  0.00     0.010 A 
ATOM     74  C   UNL A   1      44.682  21.244  25.941  1.00  0.00     0.020 A 
ATOM     75  C   UNL A   1      44.905  21.872  23.612  1.00  0.00     0.020 A 
ATOM     76  C   UNL A   1      44.746  20.892  24.592  1.00  0.00     0.054 A 
BRANCH  76  77
ATOM     77  S   UNL A   1      44.597  19.146  24.114  1.00  0.00     0.124 S 
ATOM     78  O   UNL A   1      43.352  18.758  24.771  1.00  0.00    -0.237 OA
ATOM     79  O   UNL A   1      44.548  19.215  22.655  1.00  0.00    -0.237 OA
ATOM     80  O   UNL A   1      45.809  18.542  24.660  1.00  0.00    -0.744 OA
ENDBRANCH  76  77
ENDBRANCH  48  71
BRANCH  60  81
ATOM     81  C   UNL A   1      50.763  27.468  25.806  1.00  0.00    -0.014 A 
ATOM     82  C   UNL A   1      51.696  27.030  26.765  1.00  0.00     0.010 A 
ATOM     83  C   UNL A   1      51.181  27.629  24.474  1.00  0.00     0.010 A 
ATOM     84  C   UNL A   1      53.029  26.811  26.409  1.00  0.00     0.020 A 
ATOM     85  C   UNL A   1      52.505  27.381  24.106  1.00  0.00     0.020 A 
ATOM     86  C   UNL A   1      53.427  26.996  25.081  1.00  0.00     0.054 A 
BRANCH  86  87
ATOM     87  S   UNL A   1      55.163  26.710  24.639  1.00  0.00     0.124 S 
ATOM     88  O   UNL A   1      55.133  26.849  23.185  1.00  0.00    -0.237 OA
ATOM     89  O   UNL A   1      55.859  27.772  25.359  1.00  0.00    -0.237 OA
ATOM     90  O   UNL A   1      55.426  25.357  25.128  1.00  0.00    -0.744 OA
ENDBRANCH  86  87
ENDBRANCH  60  81
ENDBRANCH  34  35
ENDBRANCH  27  29
ENDBRANCH  26  27
ENDBRANCH  25  26
ENDBRANCH   1  25
TORSDOF 19
ENDMDL
