MODEL 1
REMARK VINA RESULT:     -10.5      0.000      0.000
REMARK SMILES O=C(C[N@@H+]1CCO[C@@H](CCc2ccccc2)C1)OCCOC(=O)c1ccc(-c2c3nc(c(-c4ccc(S(=O)(=O)[O-])cc4)c4ccc([nH]4)c(-c4ccc(S(=O)(=O)[O-])cc4)c4nc(c(-c5ccc(S(=O)(=O)[O-])cc5)c5ccc2[nH]5)C=C4)C=C3)cc1
REMARK SMILES IDX 19 1 18 2 2 3 1 4 3 5 4 6 5 7 17 8 6 10 8 11 7 12 9 13 10 14
REMARK SMILES IDX 11 15 12 16 16 17 13 18 15 19 14 20 20 21 21 22 22 23 23 24
REMARK SMILES IDX 24 25 25 26 83 27 26 28 82 29 27 30 28 31 29 32 76 33 30 34
REMARK SMILES IDX 81 35 75 36 77 37 31 38 80 39 74 40 73 41 32 43 62 44 43 45
REMARK SMILES IDX 61 46 44 47 47 48 60 49 78 50 45 51 46 52 59 54 79 55 48 56
REMARK SMILES IDX 33 57 34 58 42 59 35 60 41 61 36 62 37 63 38 64 39 65 40 66
REMARK SMILES IDX 63 67 64 68 72 69 65 70 71 71 66 72 67 73 68 74 69 75 70 76
REMARK SMILES IDX 49 77 50 78 58 79 51 80 57 81 52 82 53 83 54 84 55 85 56 86
REMARK H PARENT 4 9 77 42 47 53
REMARK Flexibility Score: inf
ROOT
ATOM      1  C   UNL A   1      39.449  22.252  26.233  1.00  0.00     0.274 C 
ENDROOT
BRANCH   1   2
ATOM      2  O   UNL A   1      38.097  22.608  25.885  1.00  0.00    -0.458 OA
BRANCH   2   3
ATOM      3  C   UNL A   1      37.340  22.000  24.936  1.00  0.00     0.361 C 
ATOM      4  O   UNL A   1      37.222  20.777  24.955  1.00  0.00    -0.245 OA
BRANCH   3   5
ATOM      5  C   UNL A   1      36.698  22.849  23.844  1.00  0.00     0.386 C 
BRANCH   5   6
ATOM      6  N   UNL A   1      35.366  23.410  24.111  1.00  0.00    -0.322 N 
ATOM      7  C   UNL A   1      35.159  24.080  25.395  1.00  0.00     0.291 C 
ATOM      8  C   UNL A   1      34.233  22.522  23.801  1.00  0.00     0.295 C 
ATOM      9  H   UNL A   1      35.371  24.160  23.419  1.00  0.00     0.348 HD
ATOM     10  C   UNL A   1      34.702  23.147  26.523  1.00  0.00     0.222 C 
ATOM     11  C   UNL A   1      33.726  21.646  24.973  1.00  0.00     0.173 C 
ATOM     12  O   UNL A   1      33.508  22.455  26.152  1.00  0.00    -0.366 OA
BRANCH  11  13
ATOM     13  C   UNL A   1      32.381  20.974  24.654  1.00  0.00     0.043 C 
BRANCH  13  14
ATOM     14  C   UNL A   1      32.412  19.918  23.545  1.00  0.00     0.038 C 
BRANCH  14  15
ATOM     15  C   UNL A   1      32.831  18.553  24.031  1.00  0.00    -0.048 A 
ATOM     16  C   UNL A   1      33.560  17.698  23.194  1.00  0.00     0.004 A 
ATOM     17  C   UNL A   1      32.482  18.111  25.314  1.00  0.00     0.004 A 
ATOM     18  C   UNL A   1      33.922  16.422  23.628  1.00  0.00     0.000 A 
ATOM     19  C   UNL A   1      32.837  16.832  25.743  1.00  0.00     0.000 A 
ATOM     20  C   UNL A   1      33.556  15.988  24.900  1.00  0.00     0.000 A 
ENDBRANCH  14  15
ENDBRANCH  13  14
ENDBRANCH  11  13
ENDBRANCH   5   6
ENDBRANCH   3   5
ENDBRANCH   2   3
ENDBRANCH   1   2
BRANCH   1  21
ATOM     21  C   UNL A   1      40.241  23.392  26.876  1.00  0.00     0.275 C 
BRANCH  21  22
ATOM     22  O   UNL A   1      39.501  24.620  26.848  1.00  0.00    -0.458 OA
BRANCH  22  23
ATOM     23  C   UNL A   1      40.253  25.726  26.614  1.00  0.00     0.338 C 
ATOM     24  O   UNL A   1      40.857  25.990  25.589  1.00  0.00    -0.246 OA
BRANCH  23  25
ATOM     25  C   UNL A   1      40.090  26.667  27.740  1.00  0.00     0.060 A 
ATOM     26  C   UNL A   1      40.693  27.927  27.639  1.00  0.00     0.016 A 
ATOM     27  C   UNL A   1      39.357  26.325  28.882  1.00  0.00     0.016 A 
ATOM     28  C   UNL A   1      40.608  28.829  28.698  1.00  0.00     0.010 A 
ATOM     29  C   UNL A   1      39.272  27.229  29.942  1.00  0.00     0.010 A 
ATOM     30  C   UNL A   1      39.925  28.471  29.869  1.00  0.00    -0.014 A 
BRANCH  30  31
ATOM     31  C   UNL A   1      40.031  29.311  31.083  1.00  0.00     0.031 A 
ATOM     32  C   UNL A   1      41.138  29.022  32.059  1.00  0.00     0.074 A 
ATOM     33  C   UNL A   1      39.144  30.289  31.334  1.00  0.00     0.049 A 
ATOM     34  N   UNL A   1      41.396  29.587  33.209  1.00  0.00    -0.248 NA
ATOM     35  C   UNL A   1      42.072  27.944  31.690  1.00  0.00     0.031 C 
ATOM     36  C   UNL A   1      38.037  30.675  30.464  1.00  0.00     0.029 A 
ATOM     37  N   UNL A   1      39.032  31.126  32.418  1.00  0.00    -0.354 N 
ATOM     38  C   UNL A   1      42.517  28.932  33.704  1.00  0.00     0.074 A 
ATOM     39  C   UNL A   1      42.872  27.909  32.745  1.00  0.00     0.031 C 
ATOM     40  C   UNL A   1      37.341  31.661  31.057  1.00  0.00     0.029 A 
ATOM     41  C   UNL A   1      37.939  31.955  32.359  1.00  0.00     0.049 A 
ATOM     42  H   UNL A   1      39.673  31.130  33.164  1.00  0.00     0.167 HD
ATOM     43  C   UNL A   1      43.193  29.162  34.855  1.00  0.00     0.031 A 
ATOM     44  C   UNL A   1      37.462  32.835  33.264  1.00  0.00     0.031 A 
ATOM     45  C   UNL A   1      42.826  30.159  35.822  1.00  0.00     0.049 A 
ATOM     46  C   UNL A   1      38.194  33.033  34.566  1.00  0.00     0.074 A 
ATOM     47  C   UNL A   1      43.467  30.487  37.004  1.00  0.00     0.029 A 
ATOM     48  N   UNL A   1      41.710  30.976  35.729  1.00  0.00    -0.354 N 
ATOM     49  N   UNL A   1      39.289  32.451  34.993  1.00  0.00    -0.248 NA
ATOM     50  C   UNL A   1      37.629  34.014  35.506  1.00  0.00     0.031 C 
ATOM     51  C   UNL A   1      42.706  31.465  37.653  1.00  0.00     0.029 A 
ATOM     52  C   UNL A   1      41.623  31.785  36.848  1.00  0.00     0.049 A 
ATOM     53  H   UNL A   1      41.074  30.980  34.978  1.00  0.00     0.167 HD
ATOM     54  C   UNL A   1      39.558  33.013  36.238  1.00  0.00     0.074 A 
ATOM     55  C   UNL A   1      38.515  33.985  36.493  1.00  0.00     0.031 C 
ATOM     56  C   UNL A   1      40.581  32.751  37.089  1.00  0.00     0.031 A 
BRANCH  43  57
ATOM     57  C   UNL A   1      44.378  28.282  35.138  1.00  0.00    -0.014 A 
ATOM     58  C   UNL A   1      44.236  27.077  35.849  1.00  0.00     0.010 A 
ATOM     59  C   UNL A   1      45.653  28.666  34.686  1.00  0.00     0.010 A 
ATOM     60  C   UNL A   1      45.356  26.299  36.150  1.00  0.00     0.020 A 
ATOM     61  C   UNL A   1      46.773  27.878  34.963  1.00  0.00     0.020 A 
ATOM     62  C   UNL A   1      46.620  26.710  35.714  1.00  0.00     0.054 A 
BRANCH  62  63
ATOM     63  S   UNL A   1      48.060  25.689  36.127  1.00  0.00     0.124 S 
ATOM     64  O   UNL A   1      48.741  25.598  34.837  1.00  0.00    -0.237 OA
ATOM     65  O   UNL A   1      48.742  26.488  37.141  1.00  0.00    -0.237 OA
ATOM     66  O   UNL A   1      47.473  24.442  36.611  1.00  0.00    -0.744 OA
ENDBRANCH  62  63
ENDBRANCH  43  57
BRANCH  44  67
ATOM     67  C   UNL A   1      36.206  33.578  32.976  1.00  0.00    -0.014 A 
ATOM     68  C   UNL A   1      34.989  33.189  33.561  1.00  0.00     0.010 A 
ATOM     69  C   UNL A   1      36.227  34.693  32.117  1.00  0.00     0.010 A 
ATOM     70  C   UNL A   1      33.815  33.895  33.287  1.00  0.00     0.020 A 
ATOM     71  C   UNL A   1      35.060  35.416  31.859  1.00  0.00     0.020 A 
ATOM     72  C   UNL A   1      33.858  35.006  32.440  1.00  0.00     0.054 A 
BRANCH  72  73
ATOM     73  S   UNL A   1      32.334  35.948  32.147  1.00  0.00     0.124 S 
ATOM     74  O   UNL A   1      32.415  36.219  30.716  1.00  0.00    -0.237 OA
ATOM     75  O   UNL A   1      31.295  35.006  32.555  1.00  0.00    -0.237 OA
ATOM     76  O   UNL A   1      32.482  37.115  33.015  1.00  0.00    -0.744 OA
ENDBRANCH  72  73
ENDBRANCH  44  67
BRANCH  56  77
ATOM     77  C   UNL A   1      40.655  33.541  38.370  1.00  0.00    -0.014 A 
ATOM     78  C   UNL A   1      41.296  34.791  38.418  1.00  0.00     0.010 A 
ATOM     79  C   UNL A   1      39.984  33.068  39.513  1.00  0.00     0.010 A 
ATOM     80  C   UNL A   1      41.274  35.551  39.592  1.00  0.00     0.020 A 
ATOM     81  C   UNL A   1      39.940  33.835  40.681  1.00  0.00     0.020 A 
ATOM     82  C   UNL A   1      40.592  35.069  40.715  1.00  0.00     0.054 A 
BRANCH  82  83
ATOM     83  S   UNL A   1      40.508  36.108  42.201  1.00  0.00     0.124 S 
ATOM     84  O   UNL A   1      40.018  35.166  43.202  1.00  0.00    -0.237 OA
ATOM     85  O   UNL A   1      41.893  36.542  42.369  1.00  0.00    -0.237 OA
ATOM     86  O   UNL A   1      39.571  37.168  41.830  1.00  0.00    -0.744 OA
ENDBRANCH  82  83
ENDBRANCH  56  77
ENDBRANCH  30  31
ENDBRANCH  23  25
ENDBRANCH  22  23
ENDBRANCH  21  22
ENDBRANCH   1  21
TORSDOF 18
ENDMDL
MODEL 2
REMARK VINA RESULT:     -10.4      1.277      8.324
REMARK SMILES O=C(C[N@@H+]1CCO[C@@H](CCc2ccccc2)C1)OCCOC(=O)c1ccc(-c2c3nc(c(-c4ccc(S(=O)(=O)[O-])cc4)c4ccc([nH]4)c(-c4ccc(S(=O)(=O)[O-])cc4)c4nc(c(-c5ccc(S(=O)(=O)[O-])cc5)c5ccc2[nH]5)C=C4)C=C3)cc1
REMARK SMILES IDX 19 1 18 2 2 3 1 4 3 5 4 6 5 7 17 8 6 10 8 11 7 12 9 13 10 14
REMARK SMILES IDX 11 15 12 16 16 17 13 18 15 19 14 20 20 21 21 22 22 23 23 24
REMARK SMILES IDX 24 25 25 26 83 27 26 28 82 29 27 30 28 31 29 32 76 33 30 34
REMARK SMILES IDX 81 35 75 36 77 37 31 38 80 39 74 40 73 41 32 43 62 44 43 45
REMARK SMILES IDX 61 46 44 47 47 48 60 49 78 50 45 51 46 52 59 54 79 55 48 56
REMARK SMILES IDX 33 57 34 58 42 59 35 60 41 61 36 62 37 63 38 64 39 65 40 66
REMARK SMILES IDX 63 67 64 68 72 69 65 70 71 71 66 72 67 73 68 74 69 75 70 76
REMARK SMILES IDX 49 77 50 78 58 79 51 80 57 81 52 82 53 83 54 84 55 85 56 86
REMARK H PARENT 4 9 77 42 47 53
REMARK Flexibility Score: inf
ROOT
ATOM      1  C   UNL A   1      39.345  21.724  26.175  1.00  0.00     0.274 C 
ENDROOT
BRANCH   1   2
ATOM      2  O   UNL A   1      38.217  22.406  25.595  1.00  0.00    -0.458 OA
BRANCH   2   3
ATOM      3  C   UNL A   1      37.342  21.870  24.705  1.00  0.00     0.361 C 
ATOM      4  O   UNL A   1      37.106  20.665  24.748  1.00  0.00    -0.245 OA
BRANCH   3   5
ATOM      5  C   UNL A   1      36.718  22.771  23.645  1.00  0.00     0.386 C 
BRANCH   5   6
ATOM      6  N   UNL A   1      35.387  23.330  23.924  1.00  0.00    -0.322 N 
ATOM      7  C   UNL A   1      35.244  24.176  25.109  1.00  0.00     0.291 C 
ATOM      8  C   UNL A   1      34.269  22.376  23.830  1.00  0.00     0.295 C 
ATOM      9  H   UNL A   1      35.318  23.969  23.133  1.00  0.00     0.348 HD
ATOM     10  C   UNL A   1      34.899  23.408  26.391  1.00  0.00     0.222 C 
ATOM     11  C   UNL A   1      33.876  21.669  25.150  1.00  0.00     0.173 C 
ATOM     12  O   UNL A   1      33.708  22.637  26.212  1.00  0.00    -0.366 OA
BRANCH  11  13
ATOM     13  C   UNL A   1      32.537  20.923  25.030  1.00  0.00     0.043 C 
BRANCH  13  14
ATOM     14  C   UNL A   1      32.404  19.986  23.825  1.00  0.00     0.038 C 
BRANCH  14  15
ATOM     15  C   UNL A   1      32.760  18.554  24.139  1.00  0.00    -0.048 A 
ATOM     16  C   UNL A   1      32.544  18.038  25.424  1.00  0.00     0.004 A 
ATOM     17  C   UNL A   1      33.330  17.727  23.163  1.00  0.00     0.004 A 
ATOM     18  C   UNL A   1      32.901  16.724  25.728  1.00  0.00     0.000 A 
ATOM     19  C   UNL A   1      33.694  16.416  23.472  1.00  0.00     0.000 A 
ATOM     20  C   UNL A   1      33.481  15.915  24.754  1.00  0.00     0.000 A 
ENDBRANCH  14  15
ENDBRANCH  13  14
ENDBRANCH  11  13
ENDBRANCH   5   6
ENDBRANCH   3   5
ENDBRANCH   2   3
ENDBRANCH   1   2
BRANCH   1  21
ATOM     21  C   UNL A   1      40.303  22.648  26.931  1.00  0.00     0.275 C 
BRANCH  21  22
ATOM     22  O   UNL A   1      39.980  24.027  26.706  1.00  0.00    -0.458 OA
BRANCH  22  23
ATOM     23  C   UNL A   1      41.041  24.872  26.771  1.00  0.00     0.338 C 
ATOM     24  O   UNL A   1      42.000  24.893  26.019  1.00  0.00    -0.246 OA
BRANCH  23  25
ATOM     25  C   UNL A   1      40.779  25.898  27.801  1.00  0.00     0.060 A 
ATOM     26  C   UNL A   1      41.702  26.941  27.941  1.00  0.00     0.016 A 
ATOM     27  C   UNL A   1      39.645  25.842  28.619  1.00  0.00     0.016 A 
ATOM     28  C   UNL A   1      41.521  27.904  28.934  1.00  0.00     0.010 A 
ATOM     29  C   UNL A   1      39.465  26.807  29.612  1.00  0.00     0.010 A 
ATOM     30  C   UNL A   1      40.419  27.822  29.795  1.00  0.00    -0.014 A 
BRANCH  30  31
ATOM     31  C   UNL A   1      40.343  28.684  30.996  1.00  0.00     0.031 A 
ATOM     32  C   UNL A   1      39.351  29.814  31.004  1.00  0.00     0.074 A 
ATOM     33  C   UNL A   1      41.160  28.492  32.046  1.00  0.00     0.049 A 
ATOM     34  N   UNL A   1      39.142  30.726  31.917  1.00  0.00    -0.248 NA
ATOM     35  C   UNL A   1      38.486  29.935  29.818  1.00  0.00     0.031 C 
ATOM     36  C   UNL A   1      42.153  27.428  32.165  1.00  0.00     0.029 A 
ATOM     37  N   UNL A   1      41.290  29.210  33.210  1.00  0.00    -0.354 N 
ATOM     38  C   UNL A   1      38.127  31.532  31.416  1.00  0.00     0.074 A 
ATOM     39  C   UNL A   1      37.783  31.019  30.107  1.00  0.00     0.031 C 
ATOM     40  C   UNL A   1      42.809  27.574  33.331  1.00  0.00     0.029 A 
ATOM     41  C   UNL A   1      42.299  28.756  34.024  1.00  0.00     0.049 A 
ATOM     42  H   UNL A   1      40.715  29.976  33.438  1.00  0.00     0.167 HD
ATOM     43  C   UNL A   1      37.532  32.603  31.993  1.00  0.00     0.031 A 
ATOM     44  C   UNL A   1      42.772  29.252  35.186  1.00  0.00     0.031 A 
ATOM     45  C   UNL A   1      37.891  33.129  33.281  1.00  0.00     0.049 A 
ATOM     46  C   UNL A   1      42.136  30.482  35.783  1.00  0.00     0.074 A 
ATOM     47  C   UNL A   1      37.326  34.192  33.962  1.00  0.00     0.029 A 
ATOM     48  N   UNL A   1      38.921  32.646  34.072  1.00  0.00    -0.354 N 
ATOM     49  N   UNL A   1      41.135  31.196  35.328  1.00  0.00    -0.248 NA
ATOM     50  C   UNL A   1      42.691  30.967  37.056  1.00  0.00     0.031 C 
ATOM     51  C   UNL A   1      38.051  34.386  35.142  1.00  0.00     0.029 A 
ATOM     52  C   UNL A   1      39.030  33.408  35.221  1.00  0.00     0.049 A 
ATOM     53  H   UNL A   1      39.489  31.873  33.850  1.00  0.00     0.167 HD
ATOM     54  C   UNL A   1      40.924  32.199  36.270  1.00  0.00     0.074 A 
ATOM     55  C   UNL A   1      41.896  31.996  37.323  1.00  0.00     0.031 C 
ATOM     56  C   UNL A   1      40.002  33.194  36.264  1.00  0.00     0.031 A 
BRANCH  43  57
ATOM     57  C   UNL A   1      36.456  33.293  31.204  1.00  0.00    -0.014 A 
ATOM     58  C   UNL A   1      36.737  33.906  29.969  1.00  0.00     0.010 A 
ATOM     59  C   UNL A   1      35.142  33.330  31.704  1.00  0.00     0.010 A 
ATOM     60  C   UNL A   1      35.736  34.590  29.276  1.00  0.00     0.020 A 
ATOM     61  C   UNL A   1      34.132  33.991  31.002  1.00  0.00     0.020 A 
ATOM     62  C   UNL A   1      34.441  34.637  29.802  1.00  0.00     0.054 A 
BRANCH  62  63
ATOM     63  S   UNL A   1      33.161  35.541  28.889  1.00  0.00     0.124 S 
ATOM     64  O   UNL A   1      33.960  36.486  28.113  1.00  0.00    -0.237 OA
ATOM     65  O   UNL A   1      32.510  34.486  28.117  1.00  0.00    -0.237 OA
ATOM     66  O   UNL A   1      32.341  36.136  29.942  1.00  0.00    -0.744 OA
ENDBRANCH  62  63
ENDBRANCH  43  57
BRANCH  44  67
ATOM     67  C   UNL A   1      43.930  28.596  35.848  1.00  0.00    -0.014 A 
ATOM     68  C   UNL A   1      45.246  28.986  35.550  1.00  0.00     0.010 A 
ATOM     69  C   UNL A   1      43.716  27.578  36.797  1.00  0.00     0.010 A 
ATOM     70  C   UNL A   1      46.329  28.366  36.180  1.00  0.00     0.020 A 
ATOM     71  C   UNL A   1      44.794  26.971  37.446  1.00  0.00     0.020 A 
ATOM     72  C   UNL A   1      46.095  27.364  37.126  1.00  0.00     0.054 A 
BRANCH  72  73
ATOM     73  S   UNL A   1      47.512  26.614  37.979  1.00  0.00     0.124 S 
ATOM     74  O   UNL A   1      48.612  26.926  37.073  1.00  0.00    -0.237 OA
ATOM     75  O   UNL A   1      47.524  27.321  39.257  1.00  0.00    -0.237 OA
ATOM     76  O   UNL A   1      47.150  25.200  38.062  1.00  0.00    -0.744 OA
ENDBRANCH  72  73
ENDBRANCH  44  67
BRANCH  56  77
ATOM     77  C   UNL A   1      39.968  34.132  37.443  1.00  0.00    -0.014 A 
ATOM     78  C   UNL A   1      40.661  35.354  37.420  1.00  0.00     0.010 A 
ATOM     79  C   UNL A   1      39.148  33.827  38.545  1.00  0.00     0.010 A 
ATOM     80  C   UNL A   1      40.543  36.253  38.485  1.00  0.00     0.020 A 
ATOM     81  C   UNL A   1      39.010  34.733  39.601  1.00  0.00     0.020 A 
ATOM     82  C   UNL A   1      39.714  35.938  39.567  1.00  0.00     0.054 A 
BRANCH  82  83
ATOM     83  S   UNL A   1      39.514  37.154  40.900  1.00  0.00     0.124 S 
ATOM     84  O   UNL A   1      38.617  38.130  40.287  1.00  0.00    -0.237 OA
ATOM     85  O   UNL A   1      38.933  36.357  41.978  1.00  0.00    -0.237 OA
ATOM     86  O   UNL A   1      40.875  37.626  41.146  1.00  0.00    -0.744 OA
ENDBRANCH  82  83
ENDBRANCH  56  77
ENDBRANCH  30  31
ENDBRANCH  23  25
ENDBRANCH  22  23
ENDBRANCH  21  22
ENDBRANCH   1  21
TORSDOF 18
ENDMDL
MODEL 3
REMARK VINA RESULT:     -10.4      5.214      9.882
REMARK SMILES O=C(C[N@@H+]1CCO[C@@H](CCc2ccccc2)C1)OCCOC(=O)c1ccc(-c2c3nc(c(-c4ccc(S(=O)(=O)[O-])cc4)c4ccc([nH]4)c(-c4ccc(S(=O)(=O)[O-])cc4)c4nc(c(-c5ccc(S(=O)(=O)[O-])cc5)c5ccc2[nH]5)C=C4)C=C3)cc1
REMARK SMILES IDX 19 1 18 2 2 3 1 4 3 5 4 6 5 7 17 8 6 10 8 11 7 12 9 13 10 14
REMARK SMILES IDX 11 15 12 16 16 17 13 18 15 19 14 20 20 21 21 22 22 23 23 24
REMARK SMILES IDX 24 25 25 26 83 27 26 28 82 29 27 30 28 31 29 32 76 33 30 34
REMARK SMILES IDX 81 35 75 36 77 37 31 38 80 39 74 40 73 41 32 43 62 44 43 45
REMARK SMILES IDX 61 46 44 47 47 48 60 49 78 50 45 51 46 52 59 54 79 55 48 56
REMARK SMILES IDX 33 57 34 58 42 59 35 60 41 61 36 62 37 63 38 64 39 65 40 66
REMARK SMILES IDX 63 67 64 68 72 69 65 70 71 71 66 72 67 73 68 74 69 75 70 76
REMARK SMILES IDX 49 77 50 78 58 79 51 80 57 81 52 82 53 83 54 84 55 85 56 86
REMARK H PARENT 4 9 77 42 47 53
REMARK Flexibility Score: inf
ROOT
ATOM      1  C   UNL A   1      32.002  29.616  26.325  1.00  0.00     0.274 C 
ENDROOT
BRANCH   1   2
ATOM      2  O   UNL A   1      31.375  29.912  25.061  1.00  0.00    -0.458 OA
BRANCH   2   3
ATOM      3  C   UNL A   1      30.888  28.994  24.187  1.00  0.00     0.361 C 
ATOM      4  O   UNL A   1      29.967  29.309  23.437  1.00  0.00    -0.245 OA
BRANCH   3   5
ATOM      5  C   UNL A   1      31.465  27.582  24.197  1.00  0.00     0.386 C 
BRANCH   5   6
ATOM      6  N   UNL A   1      32.865  27.415  23.781  1.00  0.00    -0.322 N 
ATOM      7  C   UNL A   1      33.157  27.488  22.349  1.00  0.00     0.291 C 
ATOM      8  C   UNL A   1      33.577  26.284  24.399  1.00  0.00     0.295 C 
ATOM      9  H   UNL A   1      33.247  28.276  24.173  1.00  0.00     0.348 HD
ATOM     10  C   UNL A   1      33.056  26.144  21.619  1.00  0.00     0.222 C 
ATOM     11  C   UNL A   1      33.538  24.954  23.609  1.00  0.00     0.173 C 
ATOM     12  O   UNL A   1      33.910  25.173  22.229  1.00  0.00    -0.366 OA
BRANCH  11  13
ATOM     13  C   UNL A   1      34.531  23.921  24.166  1.00  0.00     0.043 C 
BRANCH  13  14
ATOM     14  C   UNL A   1      35.444  24.417  25.292  1.00  0.00     0.038 C 
BRANCH  14  15
ATOM     15  C   UNL A   1      36.666  23.557  25.494  1.00  0.00    -0.048 A 
ATOM     16  C   UNL A   1      36.734  22.280  24.920  1.00  0.00     0.004 A 
ATOM     17  C   UNL A   1      37.740  24.008  26.272  1.00  0.00     0.004 A 
ATOM     18  C   UNL A   1      37.849  21.468  25.130  1.00  0.00     0.000 A 
ATOM     19  C   UNL A   1      38.850  23.192  26.487  1.00  0.00     0.000 A 
ATOM     20  C   UNL A   1      38.904  21.922  25.918  1.00  0.00     0.000 A 
ENDBRANCH  14  15
ENDBRANCH  13  14
ENDBRANCH  11  13
ENDBRANCH   5   6
ENDBRANCH   3   5
ENDBRANCH   2   3
ENDBRANCH   1   2
BRANCH   1  21
ATOM     21  C   UNL A   1      33.463  30.063  26.408  1.00  0.00     0.275 C 
BRANCH  21  22
ATOM     22  O   UNL A   1      34.095  29.556  27.590  1.00  0.00    -0.458 OA
BRANCH  22  23
ATOM     23  C   UNL A   1      34.819  30.474  28.280  1.00  0.00     0.338 C 
ATOM     24  O   UNL A   1      34.388  31.470  28.836  1.00  0.00    -0.246 OA
BRANCH  23  25
ATOM     25  C   UNL A   1      36.209  29.993  28.413  1.00  0.00     0.060 A 
ATOM     26  C   UNL A   1      36.615  29.485  29.653  1.00  0.00     0.016 A 
ATOM     27  C   UNL A   1      37.106  30.037  27.339  1.00  0.00     0.016 A 
ATOM     28  C   UNL A   1      37.932  29.066  29.839  1.00  0.00     0.010 A 
ATOM     29  C   UNL A   1      38.424  29.616  27.526  1.00  0.00     0.010 A 
ATOM     30  C   UNL A   1      38.851  29.161  28.785  1.00  0.00    -0.014 A 
BRANCH  30  31
ATOM     31  C   UNL A   1      40.296  28.953  29.032  1.00  0.00     0.031 A 
ATOM     32  C   UNL A   1      40.895  27.617  28.689  1.00  0.00     0.074 A 
ATOM     33  C   UNL A   1      41.056  29.916  29.581  1.00  0.00     0.049 A 
ATOM     34  N   UNL A   1      42.118  27.189  28.864  1.00  0.00    -0.248 NA
ATOM     35  C   UNL A   1      39.990  26.631  28.075  1.00  0.00     0.031 C 
ATOM     36  C   UNL A   1      40.597  31.254  29.946  1.00  0.00     0.029 A 
ATOM     37  N   UNL A   1      42.380  29.900  29.944  1.00  0.00    -0.354 N 
ATOM     38  C   UNL A   1      42.129  25.884  28.388  1.00  0.00     0.074 A 
ATOM     39  C   UNL A   1      40.786  25.581  27.944  1.00  0.00     0.031 C 
ATOM     40  C   UNL A   1      41.620  31.927  30.503  1.00  0.00     0.029 A 
ATOM     41  C   UNL A   1      42.795  31.057  30.557  1.00  0.00     0.049 A 
ATOM     42  H   UNL A   1      42.974  29.132  29.781  1.00  0.00     0.167 HD
ATOM     43  C   UNL A   1      43.164  25.014  28.324  1.00  0.00     0.031 A 
ATOM     44  C   UNL A   1      43.981  31.370  31.118  1.00  0.00     0.031 A 
ATOM     45  C   UNL A   1      44.493  25.304  28.789  1.00  0.00     0.049 A 
ATOM     46  C   UNL A   1      45.105  30.366  31.091  1.00  0.00     0.074 A 
ATOM     47  C   UNL A   1      45.616  24.498  28.740  1.00  0.00     0.029 A 
ATOM     48  N   UNL A   1      44.872  26.485  29.408  1.00  0.00    -0.354 N 
ATOM     49  N   UNL A   1      45.118  29.158  30.581  1.00  0.00    -0.248 NA
ATOM     50  C   UNL A   1      46.376  30.771  31.711  1.00  0.00     0.031 C 
ATOM     51  C   UNL A   1      46.662  25.171  29.378  1.00  0.00     0.029 A 
ATOM     52  C   UNL A   1      46.204  26.417  29.776  1.00  0.00     0.049 A 
ATOM     53  H   UNL A   1      44.281  27.257  29.562  1.00  0.00     0.167 HD
ATOM     54  C   UNL A   1      46.405  28.669  30.794  1.00  0.00     0.074 A 
ATOM     55  C   UNL A   1      47.142  29.713  31.474  1.00  0.00     0.031 C 
ATOM     56  C   UNL A   1      46.928  27.465  30.450  1.00  0.00     0.031 A 
BRANCH  43  57
ATOM     57  C   UNL A   1      42.877  23.651  27.760  1.00  0.00    -0.014 A 
ATOM     58  C   UNL A   1      42.422  22.604  28.583  1.00  0.00     0.010 A 
ATOM     59  C   UNL A   1      43.066  23.411  26.388  1.00  0.00     0.010 A 
ATOM     60  C   UNL A   1      42.212  21.329  28.053  1.00  0.00     0.020 A 
ATOM     61  C   UNL A   1      42.833  22.144  25.848  1.00  0.00     0.020 A 
ATOM     62  C   UNL A   1      42.429  21.105  26.689  1.00  0.00     0.054 A 
BRANCH  62  63
ATOM     63  S   UNL A   1      42.162  19.439  26.026  1.00  0.00     0.124 S 
ATOM     64  O   UNL A   1      43.001  19.454  24.831  1.00  0.00    -0.237 OA
ATOM     65  O   UNL A   1      42.630  18.580  27.111  1.00  0.00    -0.237 OA
ATOM     66  O   UNL A   1      40.723  19.393  25.776  1.00  0.00    -0.744 OA
ENDBRANCH  62  63
ENDBRANCH  43  57
BRANCH  44  67
ATOM     67  C   UNL A   1      44.156  32.691  31.778  1.00  0.00    -0.014 A 
ATOM     68  C   UNL A   1      44.594  33.808  31.047  1.00  0.00     0.010 A 
ATOM     69  C   UNL A   1      43.872  32.838  33.149  1.00  0.00     0.010 A 
ATOM     70  C   UNL A   1      44.754  35.047  31.675  1.00  0.00     0.020 A 
ATOM     71  C   UNL A   1      44.007  34.079  33.775  1.00  0.00     0.020 A 
ATOM     72  C   UNL A   1      44.456  35.175  33.035  1.00  0.00     0.054 A 
BRANCH  72  73
ATOM     73  S   UNL A   1      44.609  36.806  33.817  1.00  0.00     0.124 S 
ATOM     74  O   UNL A   1      44.244  36.515  35.199  1.00  0.00    -0.237 OA
ATOM     75  O   UNL A   1      46.013  37.138  33.589  1.00  0.00    -0.237 OA
ATOM     76  O   UNL A   1      43.654  37.630  33.077  1.00  0.00    -0.744 OA
ENDBRANCH  72  73
ENDBRANCH  44  67
BRANCH  56  77
ATOM     77  C   UNL A   1      48.376  27.208  30.772  1.00  0.00    -0.014 A 
ATOM     78  C   UNL A   1      48.750  26.470  31.909  1.00  0.00     0.010 A 
ATOM     79  C   UNL A   1      49.370  27.625  29.867  1.00  0.00     0.010 A 
ATOM     80  C   UNL A   1      50.094  26.163  32.140  1.00  0.00     0.020 A 
ATOM     81  C   UNL A   1      50.712  27.299  30.083  1.00  0.00     0.020 A 
ATOM     82  C   UNL A   1      51.067  26.576  31.224  1.00  0.00     0.054 A 
BRANCH  82  83
ATOM     83  S   UNL A   1      52.795  26.096  31.503  1.00  0.00     0.124 S 
ATOM     84  O   UNL A   1      52.647  24.842  32.236  1.00  0.00    -0.237 OA
ATOM     85  O   UNL A   1      53.318  25.972  30.145  1.00  0.00    -0.237 OA
ATOM     86  O   UNL A   1      53.343  27.209  32.276  1.00  0.00    -0.744 OA
ENDBRANCH  82  83
ENDBRANCH  56  77
ENDBRANCH  30  31
ENDBRANCH  23  25
ENDBRANCH  22  23
ENDBRANCH  21  22
ENDBRANCH   1  21
TORSDOF 18
ENDMDL
