MODEL 1
REMARK VINA RESULT:     -10.4      0.000      0.000
REMARK SMILES C[C@H]1[C@@H](C(=O)OCCOC(=O)c2ccc(-c3c4nc(c(-c5ccc(S(=O)(=O)[O-])cc5)c5ccc([nH]5)c(-c5ccc(S(=O)(=O)[O-])cc5)c5nc(c(-c6ccc(S(=O)(=O)[O-])cc6)c6ccc3[nH]6)C=C5)C=C4)cc2)CC[N@@H+]1CC1(O)CCCC1
REMARK SMILES IDX 7 1 6 2 4 3 5 4 3 5 1 6 2 7 74 8 72 9 73 10 75 12 76 13
REMARK SMILES IDX 78 14 81 15 79 16 80 17 77 18 8 20 9 21 10 22 11 23 12 24
REMARK SMILES IDX 13 25 71 26 14 27 70 28 15 29 16 30 17 31 64 32 18 33 69 34
REMARK SMILES IDX 63 35 65 36 19 37 68 38 62 39 61 40 20 42 50 43 31 44 49 45
REMARK SMILES IDX 32 46 35 47 48 48 66 49 33 50 34 51 47 53 67 54 36 55 21 56
REMARK SMILES IDX 22 57 30 58 23 59 29 60 24 61 25 62 26 63 27 64 28 65 51 66
REMARK SMILES IDX 52 67 60 68 53 69 59 70 54 71 55 72 56 73 57 74 58 75 37 76
REMARK SMILES IDX 38 77 46 78 39 79 45 80 40 81 41 82 42 83 43 84 44 85
REMARK H PARENT 74 11 77 19 65 41 35 52
REMARK Flexibility Score: inf
ROOT
ATOM      1  C   UNL A   1      32.531  29.614  25.250  1.00  0.00     0.274 C 
ENDROOT
BRANCH   1   2
ATOM      2  O   UNL A   1      32.193  28.222  25.094  1.00  0.00    -0.462 OA
BRANCH   2   3
ATOM      3  C   UNL A   1      32.970  27.508  24.246  1.00  0.00     0.315 C 
ATOM      4  O   UNL A   1      33.553  27.982  23.275  1.00  0.00    -0.252 OA
BRANCH   3   5
ATOM      5  C   UNL A   1      33.142  26.059  24.645  1.00  0.00     0.162 C 
ATOM      6  C   UNL A   1      31.144  25.278  23.179  1.00  0.00     0.076 C 
ATOM      7  C   UNL A   1      32.486  24.943  23.834  1.00  0.00     0.195 C 
ATOM      8  N   UNL A   1      32.236  23.868  24.804  1.00  0.00    -0.330 N 
ATOM      9  C   UNL A   1      32.790  25.787  26.099  1.00  0.00     0.083 C 
ATOM     10  C   UNL A   1      32.005  24.492  26.104  1.00  0.00     0.263 C 
ATOM     11  H   UNL A   1      31.402  23.375  24.486  1.00  0.00     0.348 HD
BRANCH   8  12
ATOM     12  C   UNL A   1      33.148  22.717  24.821  1.00  0.00     0.297 C 
BRANCH  12  13
ATOM     13  C   UNL A   1      32.681  21.228  24.821  1.00  0.00     0.113 C 
ATOM     14  C   UNL A   1      33.732  20.194  25.230  1.00  0.00     0.041 C 
ATOM     15  C   UNL A   1      32.348  20.797  23.381  1.00  0.00     0.041 C 
ATOM     16  C   UNL A   1      33.369  18.900  24.496  1.00  0.00     0.003 C 
ATOM     17  C   UNL A   1      32.363  19.275  23.415  1.00  0.00     0.003 C 
BRANCH  13  18
ATOM     18  O   UNL A   1      31.507  21.077  25.620  1.00  0.00    -0.384 OA
ATOM     19  H   UNL A   1      31.760  20.821  26.521  1.00  0.00     0.211 HD
ENDBRANCH  13  18
ENDBRANCH  12  13
ENDBRANCH   8  12
ENDBRANCH   3   5
ENDBRANCH   2   3
ENDBRANCH   1   2
BRANCH   1  20
ATOM     20  C   UNL A   1      32.473  29.992  26.725  1.00  0.00     0.275 C 
BRANCH  20  21
ATOM     21  O   UNL A   1      33.669  29.538  27.382  1.00  0.00    -0.458 OA
BRANCH  21  22
ATOM     22  C   UNL A   1      34.376  30.498  28.021  1.00  0.00     0.338 C 
ATOM     23  O   UNL A   1      33.998  31.620  28.316  1.00  0.00    -0.246 OA
BRANCH  22  24
ATOM     24  C   UNL A   1      35.737  30.015  28.309  1.00  0.00     0.060 A 
ATOM     25  C   UNL A   1      36.113  29.633  29.600  1.00  0.00     0.016 A 
ATOM     26  C   UNL A   1      36.680  30.059  27.284  1.00  0.00     0.016 A 
ATOM     27  C   UNL A   1      37.455  29.365  29.879  1.00  0.00     0.010 A 
ATOM     28  C   UNL A   1      38.000  29.696  27.546  1.00  0.00     0.010 A 
ATOM     29  C   UNL A   1      38.409  29.366  28.850  1.00  0.00    -0.014 A 
BRANCH  29  30
ATOM     30  C   UNL A   1      39.837  29.016  29.086  1.00  0.00     0.031 A 
ATOM     31  C   UNL A   1      40.813  30.086  29.500  1.00  0.00     0.074 A 
ATOM     32  C   UNL A   1      40.284  27.770  28.831  1.00  0.00     0.049 A 
ATOM     33  N   UNL A   1      42.118  30.091  29.419  1.00  0.00    -0.248 NA
ATOM     34  C   UNL A   1      40.239  31.321  30.060  1.00  0.00     0.031 C 
ATOM     35  C   UNL A   1      39.451  26.620  28.475  1.00  0.00     0.029 A 
ATOM     36  N   UNL A   1      41.564  27.272  28.802  1.00  0.00    -0.354 N 
ATOM     37  C   UNL A   1      42.520  31.350  29.852  1.00  0.00     0.074 A 
ATOM     38  C   UNL A   1      41.320  32.076  30.211  1.00  0.00     0.031 C 
ATOM     39  C   UNL A   1      40.236  25.554  28.264  1.00  0.00     0.029 A 
ATOM     40  C   UNL A   1      41.630  25.966  28.375  1.00  0.00     0.049 A 
ATOM     41  H   UNL A   1      42.355  27.797  29.062  1.00  0.00     0.167 HD
ATOM     42  C   UNL A   1      43.774  31.856  29.925  1.00  0.00     0.031 A 
ATOM     43  C   UNL A   1      42.686  25.200  28.037  1.00  0.00     0.031 A 
ATOM     44  C   UNL A   1      44.962  31.112  29.596  1.00  0.00     0.049 A 
ATOM     45  C   UNL A   1      44.066  25.789  28.084  1.00  0.00     0.074 A 
ATOM     46  C   UNL A   1      46.281  31.530  29.640  1.00  0.00     0.029 A 
ATOM     47  N   UNL A   1      44.974  29.790  29.177  1.00  0.00    -0.354 N 
ATOM     48  N   UNL A   1      44.429  27.002  28.426  1.00  0.00    -0.248 NA
ATOM     49  C   UNL A   1      45.176  24.915  27.681  1.00  0.00     0.031 C 
ATOM     50  C   UNL A   1      47.089  30.468  29.218  1.00  0.00     0.029 A 
ATOM     51  C   UNL A   1      46.276  29.378  28.954  1.00  0.00     0.049 A 
ATOM     52  H   UNL A   1      44.176  29.228  29.057  1.00  0.00     0.167 HD
ATOM     53  C   UNL A   1      45.812  27.032  28.295  1.00  0.00     0.074 A 
ATOM     54  C   UNL A   1      46.220  25.715  27.849  1.00  0.00     0.031 C 
ATOM     55  C   UNL A   1      46.664  28.060  28.522  1.00  0.00     0.031 A 
BRANCH  42  56
ATOM     56  C   UNL A   1      43.929  33.298  30.329  1.00  0.00    -0.014 A 
ATOM     57  C   UNL A   1      43.883  34.336  29.383  1.00  0.00     0.010 A 
ATOM     58  C   UNL A   1      44.073  33.620  31.692  1.00  0.00     0.010 A 
ATOM     59  C   UNL A   1      44.015  35.668  29.789  1.00  0.00     0.020 A 
ATOM     60  C   UNL A   1      44.183  34.951  32.104  1.00  0.00     0.020 A 
ATOM     61  C   UNL A   1      44.170  35.966  31.147  1.00  0.00     0.054 A 
BRANCH  61  62
ATOM     62  S   UNL A   1      44.318  37.703  31.653  1.00  0.00     0.124 S 
ATOM     63  O   UNL A   1      43.758  38.401  30.499  1.00  0.00    -0.237 OA
ATOM     64  O   UNL A   1      43.510  37.756  32.870  1.00  0.00    -0.237 OA
ATOM     65  O   UNL A   1      45.754  37.884  31.855  1.00  0.00    -0.744 OA
ENDBRANCH  61  62
ENDBRANCH  42  56
BRANCH  43  66
ATOM     66  C   UNL A   1      42.457  23.810  27.562  1.00  0.00    -0.014 A 
ATOM     67  C   UNL A   1      42.398  23.531  26.186  1.00  0.00     0.010 A 
ATOM     68  C   UNL A   1      42.355  22.751  28.483  1.00  0.00     0.010 A 
ATOM     69  C   UNL A   1      42.245  22.215  25.740  1.00  0.00     0.020 A 
ATOM     70  C   UNL A   1      42.228  21.432  28.040  1.00  0.00     0.020 A 
ATOM     71  C   UNL A   1      42.167  21.173  26.669  1.00  0.00     0.054 A 
BRANCH  71  72
ATOM     72  S   UNL A   1      42.060  19.465  26.069  1.00  0.00     0.124 S 
ATOM     73  O   UNL A   1      42.942  19.495  24.907  1.00  0.00    -0.237 OA
ATOM     74  O   UNL A   1      42.543  18.692  27.211  1.00  0.00    -0.237 OA
ATOM     75  O   UNL A   1      40.638  19.297  25.775  1.00  0.00    -0.744 OA
ENDBRANCH  71  72
ENDBRANCH  43  66
BRANCH  55  76
ATOM     76  C   UNL A   1      48.132  27.795  28.343  1.00  0.00    -0.014 A 
ATOM     77  C   UNL A   1      48.759  28.000  27.103  1.00  0.00     0.010 A 
ATOM     78  C   UNL A   1      48.905  27.416  29.456  1.00  0.00     0.010 A 
ATOM     79  C   UNL A   1      50.139  27.822  26.976  1.00  0.00     0.020 A 
ATOM     80  C   UNL A   1      50.287  27.254  29.336  1.00  0.00     0.020 A 
ATOM     81  C   UNL A   1      50.894  27.452  28.094  1.00  0.00     0.054 A 
BRANCH  81  82
ATOM     82  S   UNL A   1      52.694  27.300  27.925  1.00  0.00     0.124 S 
ATOM     83  O   UNL A   1      52.855  27.186  26.479  1.00  0.00    -0.237 OA
ATOM     84  O   UNL A   1      53.181  28.546  28.515  1.00  0.00    -0.237 OA
ATOM     85  O   UNL A   1      53.011  26.093  28.686  1.00  0.00    -0.744 OA
ENDBRANCH  81  82
ENDBRANCH  55  76
ENDBRANCH  29  30
ENDBRANCH  22  24
ENDBRANCH  21  22
ENDBRANCH  20  21
ENDBRANCH   1  20
TORSDOF 17
ENDMDL
MODEL 2
REMARK VINA RESULT:     -10.2      4.197     10.188
REMARK SMILES C[C@H]1[C@@H](C(=O)OCCOC(=O)c2ccc(-c3c4nc(c(-c5ccc(S(=O)(=O)[O-])cc5)c5ccc([nH]5)c(-c5ccc(S(=O)(=O)[O-])cc5)c5nc(c(-c6ccc(S(=O)(=O)[O-])cc6)c6ccc3[nH]6)C=C5)C=C4)cc2)CC[N@@H+]1CC1(O)CCCC1
REMARK SMILES IDX 7 1 6 2 4 3 5 4 3 5 1 6 2 7 74 8 72 9 73 10 75 12 76 13
REMARK SMILES IDX 78 14 81 15 79 16 80 17 77 18 8 20 9 21 10 22 11 23 12 24
REMARK SMILES IDX 13 25 71 26 14 27 70 28 15 29 16 30 17 31 64 32 18 33 69 34
REMARK SMILES IDX 63 35 65 36 19 37 68 38 62 39 61 40 20 42 50 43 31 44 49 45
REMARK SMILES IDX 32 46 35 47 48 48 66 49 33 50 34 51 47 53 67 54 36 55 21 56
REMARK SMILES IDX 22 57 30 58 23 59 29 60 24 61 25 62 26 63 27 64 28 65 51 66
REMARK SMILES IDX 52 67 60 68 53 69 59 70 54 71 55 72 56 73 57 74 58 75 37 76
REMARK SMILES IDX 38 77 46 78 39 79 45 80 40 81 41 82 42 83 43 84 44 85
REMARK H PARENT 74 11 77 19 65 41 35 52
REMARK Flexibility Score: inf
ROOT
ATOM      1  C   UNL A   1      35.964  21.991  25.546  1.00  0.00     0.274 C 
ENDROOT
BRANCH   1   2
ATOM      2  O   UNL A   1      35.316  21.761  24.280  1.00  0.00    -0.462 OA
BRANCH   2   3
ATOM      3  C   UNL A   1      35.155  22.845  23.483  1.00  0.00     0.315 C 
ATOM      4  O   UNL A   1      36.039  23.325  22.781  1.00  0.00    -0.252 OA
BRANCH   3   5
ATOM      5  C   UNL A   1      33.741  23.379  23.455  1.00  0.00     0.162 C 
ATOM      6  C   UNL A   1      34.205  25.090  25.355  1.00  0.00     0.076 C 
ATOM      7  C   UNL A   1      33.398  24.717  24.109  1.00  0.00     0.195 C 
ATOM      8  N   UNL A   1      31.996  24.585  24.527  1.00  0.00    -0.330 N 
ATOM      9  C   UNL A   1      32.708  22.385  23.963  1.00  0.00     0.083 C 
ATOM     10  C   UNL A   1      31.758  23.178  24.836  1.00  0.00     0.263 C 
ATOM     11  H   UNL A   1      31.883  25.163  25.361  1.00  0.00     0.348 HD
BRANCH   8  12
ATOM     12  C   UNL A   1      30.959  25.225  23.707  1.00  0.00     0.297 C 
BRANCH  12  13
ATOM     13  C   UNL A   1      30.605  26.743  23.767  1.00  0.00     0.113 C 
ATOM     14  C   UNL A   1      29.130  27.098  23.564  1.00  0.00     0.041 C 
ATOM     15  C   UNL A   1      31.276  27.472  22.590  1.00  0.00     0.041 C 
ATOM     16  C   UNL A   1      29.108  28.498  22.945  1.00  0.00     0.003 C 
ATOM     17  C   UNL A   1      30.523  28.789  22.464  1.00  0.00     0.003 C 
BRANCH  13  18
ATOM     18  O   UNL A   1      31.084  27.315  24.985  1.00  0.00    -0.384 OA
ATOM     19  H   UNL A   1      31.336  26.606  25.598  1.00  0.00     0.211 HD
ENDBRANCH  13  18
ENDBRANCH  12  13
ENDBRANCH   8  12
ENDBRANCH   3   5
ENDBRANCH   2   3
ENDBRANCH   1   2
BRANCH   1  20
ATOM     20  C   UNL A   1      37.475  21.914  25.368  1.00  0.00     0.275 C 
BRANCH  20  21
ATOM     21  O   UNL A   1      38.053  23.206  25.621  1.00  0.00    -0.458 OA
BRANCH  21  22
ATOM     22  C   UNL A   1      39.305  23.188  26.132  1.00  0.00     0.338 C 
ATOM     23  O   UNL A   1      40.116  22.278  26.066  1.00  0.00    -0.246 OA
BRANCH  22  24
ATOM     24  C   UNL A   1      39.582  24.451  26.836  1.00  0.00     0.060 A 
ATOM     25  C   UNL A   1      40.467  25.397  26.311  1.00  0.00     0.016 A 
ATOM     26  C   UNL A   1      39.027  24.630  28.102  1.00  0.00     0.016 A 
ATOM     27  C   UNL A   1      40.854  26.490  27.090  1.00  0.00     0.010 A 
ATOM     28  C   UNL A   1      39.342  25.773  28.836  1.00  0.00     0.010 A 
ATOM     29  C   UNL A   1      40.275  26.706  28.350  1.00  0.00    -0.014 A 
BRANCH  29  30
ATOM     30  C   UNL A   1      40.602  27.894  29.185  1.00  0.00     0.031 A 
ATOM     31  C   UNL A   1      41.794  27.859  30.104  1.00  0.00     0.074 A 
ATOM     32  C   UNL A   1      39.779  28.962  29.200  1.00  0.00     0.049 A 
ATOM     33  N   UNL A   1      42.058  28.606  31.145  1.00  0.00    -0.248 NA
ATOM     34  C   UNL A   1      42.813  26.833  29.826  1.00  0.00     0.031 C 
ATOM     35  C   UNL A   1      38.620  29.160  28.329  1.00  0.00     0.029 A 
ATOM     36  N   UNL A   1      39.780  30.073  30.009  1.00  0.00    -0.354 N 
ATOM     37  C   UNL A   1      43.235  28.100  31.686  1.00  0.00     0.074 A 
ATOM     38  C   UNL A   1      43.643  26.992  30.848  1.00  0.00     0.031 C 
ATOM     39  C   UNL A   1      38.021  30.318  28.646  1.00  0.00     0.029 A 
ATOM     40  C   UNL A   1      38.695  30.895  29.803  1.00  0.00     0.049 A 
ATOM     41  H   UNL A   1      40.485  30.263  30.668  1.00  0.00     0.167 HD
ATOM     42  C   UNL A   1      43.900  28.513  32.792  1.00  0.00     0.031 A 
ATOM     43  C   UNL A   1      38.244  31.953  30.505  1.00  0.00     0.031 A 
ATOM     44  C   UNL A   1      43.501  29.637  33.597  1.00  0.00     0.049 A 
ATOM     45  C   UNL A   1      38.970  32.372  31.750  1.00  0.00     0.074 A 
ATOM     46  C   UNL A   1      44.109  30.142  34.734  1.00  0.00     0.029 A 
ATOM     47  N   UNL A   1      42.400  30.441  33.341  1.00  0.00    -0.354 N 
ATOM     48  N   UNL A   1      40.039  31.843  32.294  1.00  0.00    -0.248 NA
ATOM     49  C   UNL A   1      38.418  33.516  32.489  1.00  0.00     0.031 C 
ATOM     50  C   UNL A   1      43.357  31.234  35.183  1.00  0.00     0.029 A 
ATOM     51  C   UNL A   1      42.307  31.434  34.301  1.00  0.00     0.049 A 
ATOM     52  H   UNL A   1      41.778  30.324  32.588  1.00  0.00     0.167 HD
ATOM     53  C   UNL A   1      40.298  32.600  33.429  1.00  0.00     0.074 A 
ATOM     54  C   UNL A   1      39.278  33.627  33.491  1.00  0.00     0.031 C 
ATOM     55  C   UNL A   1      41.292  32.455  34.339  1.00  0.00     0.031 A 
BRANCH  42  56
ATOM     56  C   UNL A   1      45.102  27.718  33.227  1.00  0.00    -0.014 A 
ATOM     57  C   UNL A   1      44.976  26.594  34.062  1.00  0.00     0.010 A 
ATOM     58  C   UNL A   1      46.376  28.077  32.749  1.00  0.00     0.010 A 
ATOM     59  C   UNL A   1      46.109  25.865  34.439  1.00  0.00     0.020 A 
ATOM     60  C   UNL A   1      47.508  27.338  33.107  1.00  0.00     0.020 A 
ATOM     61  C   UNL A   1      47.368  26.246  33.963  1.00  0.00     0.054 A 
BRANCH  61  62
ATOM     62  S   UNL A   1      48.821  25.272  34.449  1.00  0.00     0.124 S 
ATOM     63  O   UNL A   1      48.296  24.483  35.560  1.00  0.00    -0.237 OA
ATOM     64  O   UNL A   1      49.128  24.519  33.234  1.00  0.00    -0.237 OA
ATOM     65  O   UNL A   1      49.809  26.285  34.815  1.00  0.00    -0.744 OA
ENDBRANCH  61  62
ENDBRANCH  42  56
BRANCH  43  66
ATOM     66  C   UNL A   1      37.000  32.641  30.070  1.00  0.00    -0.014 A 
ATOM     67  C   UNL A   1      35.753  32.243  30.580  1.00  0.00     0.010 A 
ATOM     68  C   UNL A   1      37.064  33.734  29.186  1.00  0.00     0.010 A 
ATOM     69  C   UNL A   1      34.591  32.932  30.217  1.00  0.00     0.020 A 
ATOM     70  C   UNL A   1      35.908  34.440  28.842  1.00  0.00     0.020 A 
ATOM     71  C   UNL A   1      34.677  34.030  29.356  1.00  0.00     0.054 A 
BRANCH  71  72
ATOM     72  S   UNL A   1      33.171  34.964  28.968  1.00  0.00     0.124 S 
ATOM     73  O   UNL A   1      32.496  34.076  28.028  1.00  0.00    -0.237 OA
ATOM     74  O   UNL A   1      32.535  35.104  30.276  1.00  0.00    -0.237 OA
ATOM     75  O   UNL A   1      33.682  36.211  28.400  1.00  0.00    -0.744 OA
ENDBRANCH  71  72
ENDBRANCH  43  66
BRANCH  55  76
ATOM     76  C   UNL A   1      41.361  33.457  35.455  1.00  0.00    -0.014 A 
ATOM     77  C   UNL A   1      42.138  34.621  35.338  1.00  0.00     0.010 A 
ATOM     78  C   UNL A   1      40.567  33.267  36.602  1.00  0.00     0.010 A 
ATOM     79  C   UNL A   1      42.128  35.578  36.356  1.00  0.00     0.020 A 
ATOM     80  C   UNL A   1      40.541  34.230  37.613  1.00  0.00     0.020 A 
ATOM     81  C   UNL A   1      41.328  35.377  37.485  1.00  0.00     0.054 A 
BRANCH  81  82
ATOM     82  S   UNL A   1      41.270  36.667  38.760  1.00  0.00     0.124 S 
ATOM     83  O   UNL A   1      39.949  37.249  38.545  1.00  0.00    -0.237 OA
ATOM     84  O   UNL A   1      41.428  35.907  39.998  1.00  0.00    -0.237 OA
ATOM     85  O   UNL A   1      42.397  37.535  38.423  1.00  0.00    -0.744 OA
ENDBRANCH  81  82
ENDBRANCH  55  76
ENDBRANCH  29  30
ENDBRANCH  22  24
ENDBRANCH  21  22
ENDBRANCH  20  21
ENDBRANCH   1  20
TORSDOF 17
ENDMDL
MODEL 3
REMARK VINA RESULT:     -10.1      4.581     10.154
REMARK SMILES C[C@H]1[C@@H](C(=O)OCCOC(=O)c2ccc(-c3c4nc(c(-c5ccc(S(=O)(=O)[O-])cc5)c5ccc([nH]5)c(-c5ccc(S(=O)(=O)[O-])cc5)c5nc(c(-c6ccc(S(=O)(=O)[O-])cc6)c6ccc3[nH]6)C=C5)C=C4)cc2)CC[N@@H+]1CC1(O)CCCC1
REMARK SMILES IDX 7 1 6 2 4 3 5 4 3 5 1 6 2 7 74 8 72 9 73 10 75 12 76 13
REMARK SMILES IDX 78 14 81 15 79 16 80 17 77 18 8 20 9 21 10 22 11 23 12 24
REMARK SMILES IDX 13 25 71 26 14 27 70 28 15 29 16 30 17 31 64 32 18 33 69 34
REMARK SMILES IDX 63 35 65 36 19 37 68 38 62 39 61 40 20 42 50 43 31 44 49 45
REMARK SMILES IDX 32 46 35 47 48 48 66 49 33 50 34 51 47 53 67 54 36 55 21 56
REMARK SMILES IDX 22 57 30 58 23 59 29 60 24 61 25 62 26 63 27 64 28 65 51 66
REMARK SMILES IDX 52 67 60 68 53 69 59 70 54 71 55 72 56 73 57 74 58 75 37 76
REMARK SMILES IDX 38 77 46 78 39 79 45 80 40 81 41 82 42 83 43 84 44 85
REMARK H PARENT 74 11 77 19 65 41 35 52
REMARK Flexibility Score: inf
ROOT
ATOM      1  C   UNL A   1      37.204  22.055  24.378  1.00  0.00     0.274 C 
ENDROOT
BRANCH   1   2
ATOM      2  O   UNL A   1      36.407  23.230  24.133  1.00  0.00    -0.462 OA
BRANCH   2   3
ATOM      3  C   UNL A   1      35.217  23.292  24.775  1.00  0.00     0.315 C 
ATOM      4  O   UNL A   1      34.842  24.247  25.449  1.00  0.00    -0.252 OA
BRANCH   3   5
ATOM      5  C   UNL A   1      34.320  22.101  24.520  1.00  0.00     0.162 C 
ATOM      6  C   UNL A   1      32.827  23.414  22.847  1.00  0.00     0.076 C 
ATOM      7  C   UNL A   1      33.393  22.067  23.306  1.00  0.00     0.195 C 
ATOM      8  N   UNL A   1      32.253  21.241  23.724  1.00  0.00    -0.330 N 
ATOM      9  C   UNL A   1      33.460  21.725  25.717  1.00  0.00     0.083 C 
ATOM     10  C   UNL A   1      32.085  21.415  25.164  1.00  0.00     0.263 C 
ATOM     11  H   UNL A   1      31.437  21.590  23.220  1.00  0.00     0.348 HD
BRANCH   8  12
ATOM     12  C   UNL A   1      32.190  19.850  23.255  1.00  0.00     0.297 C 
BRANCH  12  13
ATOM     13  C   UNL A   1      32.817  18.639  24.013  1.00  0.00     0.113 C 
ATOM     14  C   UNL A   1      34.294  18.772  24.388  1.00  0.00     0.041 C 
ATOM     15  C   UNL A   1      32.828  17.408  23.090  1.00  0.00     0.041 C 
ATOM     16  C   UNL A   1      34.859  17.349  24.413  1.00  0.00     0.003 C 
ATOM     17  C   UNL A   1      33.839  16.459  23.716  1.00  0.00     0.003 C 
BRANCH  13  18
ATOM     18  O   UNL A   1      32.042  18.327  25.173  1.00  0.00    -0.384 OA
ATOM     19  H   UNL A   1      31.141  18.668  25.061  1.00  0.00     0.211 HD
ENDBRANCH  13  18
ENDBRANCH  12  13
ENDBRANCH   8  12
ENDBRANCH   3   5
ENDBRANCH   2   3
ENDBRANCH   1   2
BRANCH   1  20
ATOM     20  C   UNL A   1      37.857  22.158  25.750  1.00  0.00     0.275 C 
BRANCH  20  21
ATOM     21  O   UNL A   1      38.404  23.476  25.921  1.00  0.00    -0.458 OA
BRANCH  21  22
ATOM     22  C   UNL A   1      39.661  23.519  26.419  1.00  0.00     0.338 C 
ATOM     23  O   UNL A   1      40.520  22.658  26.328  1.00  0.00    -0.246 OA
BRANCH  22  24
ATOM     24  C   UNL A   1      39.875  24.783  27.143  1.00  0.00     0.060 A 
ATOM     25  C   UNL A   1      40.736  25.767  26.650  1.00  0.00     0.016 A 
ATOM     26  C   UNL A   1      39.285  24.927  28.398  1.00  0.00     0.016 A 
ATOM     27  C   UNL A   1      41.065  26.864  27.449  1.00  0.00     0.010 A 
ATOM     28  C   UNL A   1      39.541  26.071  29.152  1.00  0.00     0.010 A 
ATOM     29  C   UNL A   1      40.450  27.043  28.698  1.00  0.00    -0.014 A 
BRANCH  29  30
ATOM     30  C   UNL A   1      40.713  28.233  29.553  1.00  0.00     0.031 A 
ATOM     31  C   UNL A   1      41.872  28.223  30.514  1.00  0.00     0.074 A 
ATOM     32  C   UNL A   1      39.861  29.277  29.548  1.00  0.00     0.049 A 
ATOM     33  N   UNL A   1      42.078  28.968  31.569  1.00  0.00    -0.248 NA
ATOM     34  C   UNL A   1      42.929  27.229  30.264  1.00  0.00     0.031 C 
ATOM     35  C   UNL A   1      38.728  29.450  28.638  1.00  0.00     0.029 A 
ATOM     36  N   UNL A   1      39.801  30.381  30.365  1.00  0.00    -0.354 N 
ATOM     37  C   UNL A   1      43.250  28.490  32.148  1.00  0.00     0.074 A 
ATOM     38  C   UNL A   1      43.718  27.401  31.316  1.00  0.00     0.031 C 
ATOM     39  C   UNL A   1      38.086  30.588  28.943  1.00  0.00     0.029 A 
ATOM     40  C   UNL A   1      38.702  31.174  30.128  1.00  0.00     0.049 A 
ATOM     41  H   UNL A   1      40.477  30.584  31.050  1.00  0.00     0.167 HD
ATOM     42  C   UNL A   1      43.864  28.912  33.280  1.00  0.00     0.031 A 
ATOM     43  C   UNL A   1      38.197  32.212  30.821  1.00  0.00     0.031 A 
ATOM     44  C   UNL A   1      43.405  30.017  34.080  1.00  0.00     0.049 A 
ATOM     45  C   UNL A   1      38.866  32.640  32.095  1.00  0.00     0.074 A 
ATOM     46  C   UNL A   1      43.958  30.528  35.241  1.00  0.00     0.029 A 
ATOM     47  N   UNL A   1      42.292  30.792  33.791  1.00  0.00    -0.354 N 
ATOM     48  N   UNL A   1      39.931  32.136  32.672  1.00  0.00    -0.248 NA
ATOM     49  C   UNL A   1      38.256  33.762  32.822  1.00  0.00     0.031 C 
ATOM     50  C   UNL A   1      43.160  31.594  35.672  1.00  0.00     0.029 A 
ATOM     51  C   UNL A   1      42.137  31.773  34.754  1.00  0.00     0.049 A 
ATOM     52  H   UNL A   1      41.700  30.664  33.015  1.00  0.00     0.167 HD
ATOM     53  C   UNL A   1      40.128  32.890  33.822  1.00  0.00     0.074 A 
ATOM     54  C   UNL A   1      39.078  33.888  33.856  1.00  0.00     0.031 C 
ATOM     55  C   UNL A   1      41.093  32.765  34.765  1.00  0.00     0.031 A 
BRANCH  42  56
ATOM     56  C   UNL A   1      45.071  28.146  33.751  1.00  0.00    -0.014 A 
ATOM     57  C   UNL A   1      46.371  28.510  33.359  1.00  0.00     0.010 A 
ATOM     58  C   UNL A   1      44.900  27.070  34.643  1.00  0.00     0.010 A 
ATOM     59  C   UNL A   1      47.476  27.789  33.825  1.00  0.00     0.020 A 
ATOM     60  C   UNL A   1      46.003  26.361  35.127  1.00  0.00     0.020 A 
ATOM     61  C   UNL A   1      47.284  26.715  34.701  1.00  0.00     0.054 A 
BRANCH  61  62
ATOM     62  S   UNL A   1      48.733  25.807  35.308  1.00  0.00     0.124 S 
ATOM     63  O   UNL A   1      48.202  25.159  36.505  1.00  0.00    -0.237 OA
ATOM     64  O   UNL A   1      49.045  24.911  34.196  1.00  0.00    -0.237 OA
ATOM     65  O   UNL A   1      49.721  26.856  35.553  1.00  0.00    -0.744 OA
ENDBRANCH  61  62
ENDBRANCH  42  56
BRANCH  43  66
ATOM     66  C   UNL A   1      36.950  32.869  30.348  1.00  0.00    -0.014 A 
ATOM     67  C   UNL A   1      35.713  32.552  30.934  1.00  0.00     0.010 A 
ATOM     68  C   UNL A   1      37.002  33.857  29.347  1.00  0.00     0.010 A 
ATOM     69  C   UNL A   1      34.551  33.216  30.531  1.00  0.00     0.020 A 
ATOM     70  C   UNL A   1      35.847  34.540  28.960  1.00  0.00     0.020 A 
ATOM     71  C   UNL A   1      34.626  34.210  29.550  1.00  0.00     0.054 A 
BRANCH  71  72
ATOM     72  S   UNL A   1      33.122  35.122  29.104  1.00  0.00     0.124 S 
ATOM     73  O   UNL A   1      33.668  36.367  28.575  1.00  0.00    -0.237 OA
ATOM     74  O   UNL A   1      32.491  34.241  28.125  1.00  0.00    -0.237 OA
ATOM     75  O   UNL A   1      32.407  35.238  30.374  1.00  0.00    -0.744 OA
ENDBRANCH  71  72
ENDBRANCH  43  66
BRANCH  55  76
ATOM     76  C   UNL A   1      41.094  33.759  35.891  1.00  0.00    -0.014 A 
ATOM     77  C   UNL A   1      41.809  34.964  35.794  1.00  0.00     0.010 A 
ATOM     78  C   UNL A   1      40.298  33.515  37.026  1.00  0.00     0.010 A 
ATOM     79  C   UNL A   1      41.735  35.910  36.820  1.00  0.00     0.020 A 
ATOM     80  C   UNL A   1      40.208  34.465  38.045  1.00  0.00     0.020 A 
ATOM     81  C   UNL A   1      40.933  35.655  37.937  1.00  0.00     0.054 A 
BRANCH  81  82
ATOM     82  S   UNL A   1      40.791  36.928  39.223  1.00  0.00     0.124 S 
ATOM     83  O   UNL A   1      40.764  36.127  40.442  1.00  0.00    -0.237 OA
ATOM     84  O   UNL A   1      41.998  37.727  39.021  1.00  0.00    -0.237 OA
ATOM     85  O   UNL A   1      39.540  37.609  38.896  1.00  0.00    -0.744 OA
ENDBRANCH  81  82
ENDBRANCH  55  76
ENDBRANCH  29  30
ENDBRANCH  22  24
ENDBRANCH  21  22
ENDBRANCH  20  21
ENDBRANCH   1  20
TORSDOF 17
ENDMDL
