MODEL 1
REMARK VINA RESULT:     -10.5      0.000      0.000
REMARK SMILES CC(C)(C)OC(=O)N1CCC[C@](Cc2ccccc2)(C(=O)OCCOC(=O)c2ccc(-c3c4nc(c(-c5ccc(S(=O)(=O)[O-])cc5)c5ccc([nH]5)c(-c5ccc(S(=O)(=O)[O-])cc5)c5nc(c(-c6ccc(S(=O)(=O)[O-])cc6)c6ccc3[nH]6)C=C5)C=C4)cc2)C1
REMARK SMILES IDX 23 1 22 2 20 3 21 4 12 5 8 6 9 7 88 8 10 9 11 10 6 11 7 12
REMARK SMILES IDX 5 13 2 14 1 15 3 16 4 17 13 18 14 19 15 20 19 21 16 22 18 23
REMARK SMILES IDX 17 24 24 25 25 26 26 27 27 28 28 29 29 30 87 31 30 32 86 33
REMARK SMILES IDX 31 34 32 35 33 36 80 37 34 38 85 39 79 40 81 41 35 42 84 43
REMARK SMILES IDX 78 44 77 45 36 47 66 48 47 49 65 50 48 51 51 52 64 53 82 54
REMARK SMILES IDX 49 55 50 56 63 58 83 59 52 60 37 61 38 62 46 63 39 64 45 65
REMARK SMILES IDX 40 66 41 67 42 68 43 69 44 70 67 71 68 72 76 73 69 74 75 75
REMARK SMILES IDX 70 76 71 77 72 78 73 79 74 80 53 81 54 82 62 83 55 84 61 85
REMARK SMILES IDX 56 86 57 87 58 88 59 89 60 90
REMARK H PARENT 81 46 51 57
REMARK Flexibility Score: inf
ROOT
ATOM      1  C   UNL A   1      32.021  27.283  26.915  1.00  0.00     0.274 C 
ENDROOT
BRANCH   1   2
ATOM      2  O   UNL A   1      33.093  26.410  26.487  1.00  0.00    -0.462 OA
BRANCH   2   3
ATOM      3  C   UNL A   1      32.742  25.153  26.083  1.00  0.00     0.314 C 
ATOM      4  O   UNL A   1      32.442  24.256  26.863  1.00  0.00    -0.252 OA
BRANCH   3   5
ATOM      5  C   UNL A   1      32.885  24.954  24.560  1.00  0.00     0.090 C 
ATOM      6  N   UNL A   1      30.586  25.572  23.622  1.00  0.00    -0.307 N 
ATOM      7  C   UNL A   1      30.324  24.189  23.242  1.00  0.00     0.123 C 
ATOM      8  C   UNL A   1      31.981  25.967  23.812  1.00  0.00     0.142 C 
ATOM      9  C   UNL A   1      31.045  23.186  24.126  1.00  0.00     0.023 C 
ATOM     10  C   UNL A   1      32.532  23.481  24.193  1.00  0.00     0.023 C 
BRANCH   6  11
ATOM     11  C   UNL A   1      29.570  26.505  23.375  1.00  0.00     0.410 C 
ATOM     12  O   UNL A   1      28.442  26.367  23.829  1.00  0.00    -0.224 OA
BRANCH  11  13
ATOM     13  O   UNL A   1      29.952  27.541  22.583  1.00  0.00    -0.444 OA
BRANCH  13  14
ATOM     14  C   UNL A   1      29.827  28.959  22.937  1.00  0.00     0.106 C 
ATOM     15  C   UNL A   1      28.329  29.250  23.053  1.00  0.00     0.056 C 
ATOM     16  C   UNL A   1      30.379  29.781  21.760  1.00  0.00     0.056 C 
ATOM     17  C   UNL A   1      30.549  29.428  24.205  1.00  0.00     0.056 C 
ENDBRANCH  13  14
ENDBRANCH  11  13
ENDBRANCH   6  11
BRANCH   5  18
ATOM     18  C   UNL A   1      34.404  25.218  24.256  1.00  0.00     0.056 C 
BRANCH  18  19
ATOM     19  C   UNL A   1      35.346  24.054  24.511  1.00  0.00    -0.047 A 
ATOM     20  C   UNL A   1      35.539  23.582  25.820  1.00  0.00     0.004 A 
ATOM     21  C   UNL A   1      35.947  23.361  23.453  1.00  0.00     0.004 A 
ATOM     22  C   UNL A   1      36.260  22.408  26.054  1.00  0.00     0.000 A 
ATOM     23  C   UNL A   1      36.655  22.181  23.689  1.00  0.00     0.000 A 
ATOM     24  C   UNL A   1      36.803  21.699  24.987  1.00  0.00     0.000 A 
ENDBRANCH  18  19
ENDBRANCH   5  18
ENDBRANCH   3   5
ENDBRANCH   2   3
ENDBRANCH   1   2
BRANCH   1  25
ATOM     25  C   UNL A   1      32.521  28.583  27.553  1.00  0.00     0.275 C 
BRANCH  25  26
ATOM     26  O   UNL A   1      33.937  28.757  27.356  1.00  0.00    -0.458 OA
BRANCH  26  27
ATOM     27  C   UNL A   1      34.371  29.957  27.799  1.00  0.00     0.338 C 
ATOM     28  O   UNL A   1      33.669  30.941  27.941  1.00  0.00    -0.246 OA
BRANCH  27  29
ATOM     29  C   UNL A   1      35.777  29.945  28.219  1.00  0.00     0.060 A 
ATOM     30  C   UNL A   1      36.737  30.116  27.233  1.00  0.00     0.016 A 
ATOM     31  C   UNL A   1      36.152  29.499  29.487  1.00  0.00     0.016 A 
ATOM     32  C   UNL A   1      38.056  29.734  27.470  1.00  0.00     0.010 A 
ATOM     33  C   UNL A   1      37.502  29.224  29.755  1.00  0.00     0.010 A 
ATOM     34  C   UNL A   1      38.470  29.305  28.739  1.00  0.00    -0.014 A 
BRANCH  34  35
ATOM     35  C   UNL A   1      39.901  28.968  29.001  1.00  0.00     0.031 A 
ATOM     36  C   UNL A   1      40.873  30.013  29.494  1.00  0.00     0.074 A 
ATOM     37  C   UNL A   1      40.347  27.711  28.792  1.00  0.00     0.049 A 
ATOM     38  N   UNL A   1      42.182  29.978  29.531  1.00  0.00    -0.248 NA
ATOM     39  C   UNL A   1      40.298  31.256  30.021  1.00  0.00     0.031 C 
ATOM     40  C   UNL A   1      39.519  26.563  28.416  1.00  0.00     0.029 A 
ATOM     41  N   UNL A   1      41.618  27.191  28.854  1.00  0.00    -0.354 N 
ATOM     42  C   UNL A   1      42.583  31.209  30.047  1.00  0.00     0.074 A 
ATOM     43  C   UNL A   1      41.381  31.962  30.320  1.00  0.00     0.031 C 
ATOM     44  C   UNL A   1      40.296  25.478  28.294  1.00  0.00     0.029 A 
ATOM     45  C   UNL A   1      41.686  25.877  28.455  1.00  0.00     0.049 A 
ATOM     46  H   UNL A   1      42.401  27.708  29.155  1.00  0.00     0.167 HD
ATOM     47  C   UNL A   1      43.841  31.672  30.253  1.00  0.00     0.031 A 
ATOM     48  C   UNL A   1      42.740  25.094  28.156  1.00  0.00     0.031 A 
ATOM     49  C   UNL A   1      45.033  30.912  29.974  1.00  0.00     0.049 A 
ATOM     50  C   UNL A   1      44.123  25.664  28.249  1.00  0.00     0.074 A 
ATOM     51  C   UNL A   1      46.355  31.300  30.107  1.00  0.00     0.029 A 
ATOM     52  N   UNL A   1      45.045  29.607  29.505  1.00  0.00    -0.354 N 
ATOM     53  N   UNL A   1      44.492  26.859  28.643  1.00  0.00    -0.248 NA
ATOM     54  C   UNL A   1      45.230  24.791  27.840  1.00  0.00     0.031 C 
ATOM     55  C   UNL A   1      47.166  30.249  29.666  1.00  0.00     0.029 A 
ATOM     56  C   UNL A   1      46.350  29.184  29.319  1.00  0.00     0.049 A 
ATOM     57  H   UNL A   1      44.245  29.063  29.330  1.00  0.00     0.167 HD
ATOM     58  C   UNL A   1      45.879  26.874  28.550  1.00  0.00     0.074 A 
ATOM     59  C   UNL A   1      46.280  25.569  28.066  1.00  0.00     0.031 C 
ATOM     60  C   UNL A   1      46.737  27.879  28.846  1.00  0.00     0.031 A 
BRANCH  47  61
ATOM     61  C   UNL A   1      44.002  33.093  30.731  1.00  0.00    -0.014 A 
ATOM     62  C   UNL A   1      44.127  33.412  32.094  1.00  0.00     0.010 A 
ATOM     63  C   UNL A   1      44.080  34.130  29.780  1.00  0.00     0.010 A 
ATOM     64  C   UNL A   1      44.292  34.741  32.499  1.00  0.00     0.020 A 
ATOM     65  C   UNL A   1      44.268  35.457  30.178  1.00  0.00     0.020 A 
ATOM     66  C   UNL A   1      44.356  35.757  31.539  1.00  0.00     0.054 A 
BRANCH  66  67
ATOM     67  S   UNL A   1      44.583  37.473  32.085  1.00  0.00     0.124 S 
ATOM     68  O   UNL A   1      44.104  38.225  30.927  1.00  0.00    -0.237 OA
ATOM     69  O   UNL A   1      43.739  37.548  33.274  1.00  0.00    -0.237 OA
ATOM     70  O   UNL A   1      46.019  37.571  32.339  1.00  0.00    -0.744 OA
ENDBRANCH  66  67
ENDBRANCH  47  61
BRANCH  48  71
ATOM     71  C   UNL A   1      42.499  23.720  27.637  1.00  0.00    -0.014 A 
ATOM     72  C   UNL A   1      42.425  23.472  26.258  1.00  0.00     0.010 A 
ATOM     73  C   UNL A   1      42.406  22.636  28.534  1.00  0.00     0.010 A 
ATOM     74  C   UNL A   1      42.269  22.165  25.784  1.00  0.00     0.020 A 
ATOM     75  C   UNL A   1      42.283  21.327  28.063  1.00  0.00     0.020 A 
ATOM     76  C   UNL A   1      42.208  21.102  26.690  1.00  0.00     0.054 A 
BRANCH  76  77
ATOM     77  S   UNL A   1      42.093  19.407  26.050  1.00  0.00     0.124 S 
ATOM     78  O   UNL A   1      42.560  18.622  27.188  1.00  0.00    -0.237 OA
ATOM     79  O   UNL A   1      40.673  19.282  25.734  1.00  0.00    -0.237 OA
ATOM     80  O   UNL A   1      42.981  19.420  24.890  1.00  0.00    -0.744 OA
ENDBRANCH  76  77
ENDBRANCH  48  71
BRANCH  60  81
ATOM     81  C   UNL A   1      48.207  27.595  28.715  1.00  0.00    -0.014 A 
ATOM     82  C   UNL A   1      48.919  27.945  27.555  1.00  0.00     0.010 A 
ATOM     83  C   UNL A   1      48.896  27.036  29.806  1.00  0.00     0.010 A 
ATOM     84  C   UNL A   1      50.298  27.727  27.486  1.00  0.00     0.020 A 
ATOM     85  C   UNL A   1      50.277  26.839  29.749  1.00  0.00     0.020 A 
ATOM     86  C   UNL A   1      50.969  27.178  28.586  1.00  0.00     0.054 A 
BRANCH  86  87
ATOM     87  S   UNL A   1      52.768  26.972  28.498  1.00  0.00     0.124 S 
ATOM     88  O   UNL A   1      53.102  26.625  29.877  1.00  0.00    -0.237 OA
ATOM     89  O   UNL A   1      52.922  25.894  27.525  1.00  0.00    -0.237 OA
ATOM     90  O   UNL A   1      53.246  28.279  28.051  1.00  0.00    -0.744 OA
ENDBRANCH  86  87
ENDBRANCH  60  81
ENDBRANCH  34  35
ENDBRANCH  27  29
ENDBRANCH  26  27
ENDBRANCH  25  26
ENDBRANCH   1  25
TORSDOF 19
ENDMDL
MODEL 2
REMARK VINA RESULT:     -10.4      4.123      9.502
REMARK SMILES CC(C)(C)OC(=O)N1CCC[C@](Cc2ccccc2)(C(=O)OCCOC(=O)c2ccc(-c3c4nc(c(-c5ccc(S(=O)(=O)[O-])cc5)c5ccc([nH]5)c(-c5ccc(S(=O)(=O)[O-])cc5)c5nc(c(-c6ccc(S(=O)(=O)[O-])cc6)c6ccc3[nH]6)C=C5)C=C4)cc2)C1
REMARK SMILES IDX 23 1 22 2 20 3 21 4 12 5 8 6 9 7 88 8 10 9 11 10 6 11 7 12
REMARK SMILES IDX 5 13 2 14 1 15 3 16 4 17 13 18 14 19 15 20 19 21 16 22 18 23
REMARK SMILES IDX 17 24 24 25 25 26 26 27 27 28 28 29 29 30 87 31 30 32 86 33
REMARK SMILES IDX 31 34 32 35 33 36 80 37 34 38 85 39 79 40 81 41 35 42 84 43
REMARK SMILES IDX 78 44 77 45 36 47 66 48 47 49 65 50 48 51 51 52 64 53 82 54
REMARK SMILES IDX 49 55 50 56 63 58 83 59 52 60 37 61 38 62 46 63 39 64 45 65
REMARK SMILES IDX 40 66 41 67 42 68 43 69 44 70 67 71 68 72 76 73 69 74 75 75
REMARK SMILES IDX 70 76 71 77 72 78 73 79 74 80 53 81 54 82 62 83 55 84 61 85
REMARK SMILES IDX 56 86 57 87 58 88 59 89 60 90
REMARK H PARENT 81 46 51 57
REMARK Flexibility Score: inf
ROOT
ATOM      1  C   UNL A   1      31.560  30.294  26.245  1.00  0.00     0.274 C 
ENDROOT
BRANCH   1   2
ATOM      2  O   UNL A   1      31.892  29.492  25.087  1.00  0.00    -0.462 OA
BRANCH   2   3
ATOM      3  C   UNL A   1      31.208  28.319  24.932  1.00  0.00     0.314 C 
ATOM      4  O   UNL A   1      30.957  27.559  25.861  1.00  0.00    -0.252 OA
BRANCH   3   5
ATOM      5  C   UNL A   1      30.901  27.998  23.454  1.00  0.00     0.090 C 
ATOM      6  N   UNL A   1      32.633  26.225  22.820  1.00  0.00    -0.307 N 
ATOM      7  C   UNL A   1      33.314  27.152  21.924  1.00  0.00     0.123 C 
ATOM      8  C   UNL A   1      31.240  26.514  23.159  1.00  0.00     0.142 C 
ATOM      9  C   UNL A   1      33.161  28.603  22.346  1.00  0.00     0.023 C 
ATOM     10  C   UNL A   1      31.701  28.969  22.535  1.00  0.00     0.023 C 
BRANCH   6  11
ATOM     11  C   UNL A   1      33.185  24.943  22.952  1.00  0.00     0.410 C 
ATOM     12  O   UNL A   1      33.984  24.498  22.138  1.00  0.00    -0.224 OA
BRANCH  11  13
ATOM     13  O   UNL A   1      32.737  24.257  24.035  1.00  0.00    -0.444 OA
BRANCH  13  14
ATOM     14  C   UNL A   1      33.307  24.351  25.383  1.00  0.00     0.106 C 
ATOM     15  C   UNL A   1      34.186  23.111  25.573  1.00  0.00     0.056 C 
ATOM     16  C   UNL A   1      32.145  24.264  26.386  1.00  0.00     0.056 C 
ATOM     17  C   UNL A   1      34.110  25.614  25.715  1.00  0.00     0.056 C 
ENDBRANCH  13  14
ENDBRANCH  11  13
ENDBRANCH   6  11
BRANCH   5  18
ATOM     18  C   UNL A   1      29.362  28.271  23.290  1.00  0.00     0.056 C 
BRANCH  18  19
ATOM     19  C   UNL A   1      28.978  29.673  22.847  1.00  0.00    -0.047 A 
ATOM     20  C   UNL A   1      29.004  30.732  23.770  1.00  0.00     0.004 A 
ATOM     21  C   UNL A   1      28.705  29.960  21.504  1.00  0.00     0.004 A 
ATOM     22  C   UNL A   1      28.826  32.051  23.344  1.00  0.00     0.000 A 
ATOM     23  C   UNL A   1      28.541  31.280  21.079  1.00  0.00     0.000 A 
ATOM     24  C   UNL A   1      28.612  32.326  21.997  1.00  0.00     0.000 A 
ENDBRANCH  18  19
ENDBRANCH   5  18
ENDBRANCH   3   5
ENDBRANCH   2   3
ENDBRANCH   1   2
BRANCH   1  25
ATOM     25  C   UNL A   1      32.595  30.189  27.369  1.00  0.00     0.275 C 
BRANCH  25  26
ATOM     26  O   UNL A   1      33.900  30.607  26.925  1.00  0.00    -0.458 OA
BRANCH  26  27
ATOM     27  C   UNL A   1      34.492  31.447  27.801  1.00  0.00     0.338 C 
ATOM     28  O   UNL A   1      33.945  32.395  28.334  1.00  0.00    -0.246 OA
BRANCH  27  29
ATOM     29  C   UNL A   1      35.857  31.042  28.159  1.00  0.00     0.060 A 
ATOM     30  C   UNL A   1      36.020  29.786  28.724  1.00  0.00     0.016 A 
ATOM     31  C   UNL A   1      36.901  31.967  28.204  1.00  0.00     0.016 A 
ATOM     32  C   UNL A   1      37.179  29.487  29.436  1.00  0.00     0.010 A 
ATOM     33  C   UNL A   1      38.111  31.619  28.824  1.00  0.00     0.010 A 
ATOM     34  C   UNL A   1      38.255  30.384  29.480  1.00  0.00    -0.014 A 
BRANCH  34  35
ATOM     35  C   UNL A   1      39.522  30.023  30.184  1.00  0.00     0.031 A 
ATOM     36  C   UNL A   1      40.397  28.896  29.691  1.00  0.00     0.074 A 
ATOM     37  C   UNL A   1      39.899  30.706  31.285  1.00  0.00     0.049 A 
ATOM     38  N   UNL A   1      41.377  28.277  30.302  1.00  0.00    -0.248 NA
ATOM     39  C   UNL A   1      40.142  28.405  28.331  1.00  0.00     0.031 C 
ATOM     40  C   UNL A   1      39.223  31.885  31.833  1.00  0.00     0.029 A 
ATOM     41  N   UNL A   1      40.944  30.496  32.155  1.00  0.00    -0.354 N 
ATOM     42  C   UNL A   1      41.825  27.301  29.414  1.00  0.00     0.074 A 
ATOM     43  C   UNL A   1      41.019  27.416  28.220  1.00  0.00     0.031 C 
ATOM     44  C   UNL A   1      39.872  32.299  32.930  1.00  0.00     0.029 A 
ATOM     45  C   UNL A   1      40.927  31.344  33.237  1.00  0.00     0.049 A 
ATOM     46  H   UNL A   1      41.634  29.807  32.015  1.00  0.00     0.167 HD
ATOM     47  C   UNL A   1      42.805  26.380  29.591  1.00  0.00     0.031 A 
ATOM     48  C   UNL A   1      41.613  31.317  34.396  1.00  0.00     0.031 A 
ATOM     49  C   UNL A   1      43.600  26.272  30.788  1.00  0.00     0.049 A 
ATOM     50  C   UNL A   1      42.591  30.209  34.639  1.00  0.00     0.074 A 
ATOM     51  C   UNL A   1      44.589  25.352  31.087  1.00  0.00     0.029 A 
ATOM     52  N   UNL A   1      43.496  27.116  31.883  1.00  0.00    -0.354 N 
ATOM     53  N   UNL A   1      42.939  29.231  33.838  1.00  0.00    -0.248 NA
ATOM     54  C   UNL A   1      43.255  30.185  35.949  1.00  0.00     0.031 C 
ATOM     55  C   UNL A   1      45.044  25.605  32.385  1.00  0.00     0.029 A 
ATOM     56  C   UNL A   1      44.384  26.723  32.870  1.00  0.00     0.049 A 
ATOM     57  H   UNL A   1      42.881  27.882  31.949  1.00  0.00     0.167 HD
ATOM     58  C   UNL A   1      43.881  28.487  34.538  1.00  0.00     0.074 A 
ATOM     59  C   UNL A   1      44.049  29.130  35.826  1.00  0.00     0.031 C 
ATOM     60  C   UNL A   1      44.548  27.377  34.143  1.00  0.00     0.031 A 
BRANCH  47  61
ATOM     61  C   UNL A   1      43.023  25.361  28.501  1.00  0.00    -0.014 A 
ATOM     62  C   UNL A   1      43.922  25.582  27.443  1.00  0.00     0.010 A 
ATOM     63  C   UNL A   1      42.344  24.128  28.571  1.00  0.00     0.010 A 
ATOM     64  C   UNL A   1      44.111  24.605  26.458  1.00  0.00     0.020 A 
ATOM     65  C   UNL A   1      42.547  23.141  27.602  1.00  0.00     0.020 A 
ATOM     66  C   UNL A   1      43.418  23.393  26.541  1.00  0.00     0.054 A 
BRANCH  66  67
ATOM     67  S   UNL A   1      43.688  22.135  25.259  1.00  0.00     0.124 S 
ATOM     68  O   UNL A   1      43.494  22.907  24.034  1.00  0.00    -0.237 OA
ATOM     69  O   UNL A   1      45.058  21.701  25.516  1.00  0.00    -0.237 OA
ATOM     70  O   UNL A   1      42.659  21.134  25.532  1.00  0.00    -0.744 OA
ENDBRANCH  66  67
ENDBRANCH  47  61
BRANCH  48  71
ATOM     71  C   UNL A   1      41.302  32.325  35.446  1.00  0.00    -0.014 A 
ATOM     72  C   UNL A   1      42.017  33.530  35.524  1.00  0.00     0.010 A 
ATOM     73  C   UNL A   1      40.235  32.101  36.340  1.00  0.00     0.010 A 
ATOM     74  C   UNL A   1      41.666  34.497  36.472  1.00  0.00     0.020 A 
ATOM     75  C   UNL A   1      39.861  33.078  37.265  1.00  0.00     0.020 A 
ATOM     76  C   UNL A   1      40.585  34.268  37.330  1.00  0.00     0.054 A 
BRANCH  76  77
ATOM     77  S   UNL A   1      40.093  35.571  38.492  1.00  0.00     0.124 S 
ATOM     78  O   UNL A   1      41.313  35.763  39.267  1.00  0.00    -0.237 OA
ATOM     79  O   UNL A   1      39.729  36.671  37.601  1.00  0.00    -0.237 OA
ATOM     80  O   UNL A   1      38.974  34.975  39.219  1.00  0.00    -0.744 OA
ENDBRANCH  76  77
ENDBRANCH  48  71
BRANCH  60  81
ATOM     81  C   UNL A   1      45.571  26.810  35.088  1.00  0.00    -0.014 A 
ATOM     82  C   UNL A   1      45.237  25.807  36.013  1.00  0.00     0.010 A 
ATOM     83  C   UNL A   1      46.906  27.243  34.990  1.00  0.00     0.010 A 
ATOM     84  C   UNL A   1      46.222  25.255  36.835  1.00  0.00     0.020 A 
ATOM     85  C   UNL A   1      47.897  26.677  35.793  1.00  0.00     0.020 A 
ATOM     86  C   UNL A   1      47.548  25.690  36.717  1.00  0.00     0.054 A 
BRANCH  86  87
ATOM     87  S   UNL A   1      48.820  24.907  37.744  1.00  0.00     0.124 S 
ATOM     88  O   UNL A   1      48.143  24.792  39.033  1.00  0.00    -0.237 OA
ATOM     89  O   UNL A   1      49.064  23.645  37.049  1.00  0.00    -0.237 OA
ATOM     90  O   UNL A   1      49.930  25.857  37.705  1.00  0.00    -0.744 OA
ENDBRANCH  86  87
ENDBRANCH  60  81
ENDBRANCH  34  35
ENDBRANCH  27  29
ENDBRANCH  26  27
ENDBRANCH  25  26
ENDBRANCH   1  25
TORSDOF 19
ENDMDL
MODEL 3
REMARK VINA RESULT:     -10.3      2.899      7.508
REMARK SMILES CC(C)(C)OC(=O)N1CCC[C@](Cc2ccccc2)(C(=O)OCCOC(=O)c2ccc(-c3c4nc(c(-c5ccc(S(=O)(=O)[O-])cc5)c5ccc([nH]5)c(-c5ccc(S(=O)(=O)[O-])cc5)c5nc(c(-c6ccc(S(=O)(=O)[O-])cc6)c6ccc3[nH]6)C=C5)C=C4)cc2)C1
REMARK SMILES IDX 23 1 22 2 20 3 21 4 12 5 8 6 9 7 88 8 10 9 11 10 6 11 7 12
REMARK SMILES IDX 5 13 2 14 1 15 3 16 4 17 13 18 14 19 15 20 19 21 16 22 18 23
REMARK SMILES IDX 17 24 24 25 25 26 26 27 27 28 28 29 29 30 87 31 30 32 86 33
REMARK SMILES IDX 31 34 32 35 33 36 80 37 34 38 85 39 79 40 81 41 35 42 84 43
REMARK SMILES IDX 78 44 77 45 36 47 66 48 47 49 65 50 48 51 51 52 64 53 82 54
REMARK SMILES IDX 49 55 50 56 63 58 83 59 52 60 37 61 38 62 46 63 39 64 45 65
REMARK SMILES IDX 40 66 41 67 42 68 43 69 44 70 67 71 68 72 76 73 69 74 75 75
REMARK SMILES IDX 70 76 71 77 72 78 73 79 74 80 53 81 54 82 62 83 55 84 61 85
REMARK SMILES IDX 56 86 57 87 58 88 59 89 60 90
REMARK H PARENT 81 46 51 57
REMARK Flexibility Score: inf
ROOT
ATOM      1  C   UNL A   1      36.955  21.342  24.401  1.00  0.00     0.274 C 
ENDROOT
BRANCH   1   2
ATOM      2  O   UNL A   1      35.709  21.405  25.135  1.00  0.00    -0.462 OA
BRANCH   2   3
ATOM      3  C   UNL A   1      34.610  21.838  24.448  1.00  0.00     0.314 C 
ATOM      4  O   UNL A   1      34.669  22.635  23.518  1.00  0.00    -0.252 OA
BRANCH   3   5
ATOM      5  C   UNL A   1      33.288  21.317  25.049  1.00  0.00     0.090 C 
ATOM      6  N   UNL A   1      32.219  23.383  26.115  1.00  0.00    -0.307 N 
ATOM      7  C   UNL A   1      32.422  22.847  27.455  1.00  0.00     0.123 C 
ATOM      8  C   UNL A   1      32.214  22.435  25.001  1.00  0.00     0.142 C 
ATOM      9  C   UNL A   1      33.619  21.916  27.545  1.00  0.00     0.023 C 
ATOM     10  C   UNL A   1      33.539  20.816  26.503  1.00  0.00     0.023 C 
BRANCH   6  11
ATOM     11  C   UNL A   1      31.638  24.655  26.017  1.00  0.00     0.410 C 
ATOM     12  O   UNL A   1      31.020  25.154  26.948  1.00  0.00    -0.224 OA
BRANCH  11  13
ATOM     13  O   UNL A   1      31.811  25.251  24.808  1.00  0.00    -0.444 OA
BRANCH  13  14
ATOM     14  C   UNL A   1      32.763  26.331  24.533  1.00  0.00     0.106 C 
ATOM     15  C   UNL A   1      33.867  26.220  25.588  1.00  0.00     0.056 C 
ATOM     16  C   UNL A   1      32.030  27.664  24.754  1.00  0.00     0.056 C 
ATOM     17  C   UNL A   1      33.385  26.374  23.132  1.00  0.00     0.056 C 
ENDBRANCH  13  14
ENDBRANCH  11  13
ENDBRANCH   6  11
BRANCH   5  18
ATOM     18  C   UNL A   1      32.879  20.101  24.141  1.00  0.00     0.056 C 
BRANCH  18  19
ATOM     19  C   UNL A   1      33.298  18.728  24.639  1.00  0.00    -0.047 A 
ATOM     20  C   UNL A   1      32.395  17.944  25.377  1.00  0.00     0.004 A 
ATOM     21  C   UNL A   1      34.533  18.172  24.284  1.00  0.00     0.004 A 
ATOM     22  C   UNL A   1      32.696  16.617  25.691  1.00  0.00     0.000 A 
ATOM     23  C   UNL A   1      34.826  16.841  24.587  1.00  0.00     0.000 A 
ATOM     24  C   UNL A   1      33.905  16.061  25.281  1.00  0.00     0.000 A 
ENDBRANCH  18  19
ENDBRANCH   5  18
ENDBRANCH   3   5
ENDBRANCH   2   3
ENDBRANCH   1   2
BRANCH   1  25
ATOM     25  C   UNL A   1      38.171  21.089  25.298  1.00  0.00     0.275 C 
BRANCH  25  26
ATOM     26  O   UNL A   1      38.508  22.257  26.071  1.00  0.00    -0.458 OA
BRANCH  26  27
ATOM     27  C   UNL A   1      39.815  22.284  26.411  1.00  0.00     0.338 C 
ATOM     28  O   UNL A   1      40.637  21.446  26.085  1.00  0.00    -0.246 OA
BRANCH  27  29
ATOM     29  C   UNL A   1      40.201  23.505  27.128  1.00  0.00     0.060 A 
ATOM     30  C   UNL A   1      39.915  24.717  26.519  1.00  0.00     0.016 A 
ATOM     31  C   UNL A   1      41.066  23.462  28.222  1.00  0.00     0.016 A 
ATOM     32  C   UNL A   1      40.578  25.874  26.923  1.00  0.00     0.010 A 
ATOM     33  C   UNL A   1      41.643  24.649  28.699  1.00  0.00     0.010 A 
ATOM     34  C   UNL A   1      41.434  25.869  28.034  1.00  0.00    -0.014 A 
BRANCH  34  35
ATOM     35  C   UNL A   1      42.082  27.130  28.503  1.00  0.00     0.031 A 
ATOM     36  C   UNL A   1      41.260  28.283  29.027  1.00  0.00     0.074 A 
ATOM     37  C   UNL A   1      43.425  27.255  28.460  1.00  0.00     0.049 A 
ATOM     38  N   UNL A   1      41.613  29.529  29.233  1.00  0.00    -0.248 NA
ATOM     39  C   UNL A   1      39.861  27.999  29.371  1.00  0.00     0.031 C 
ATOM     40  C   UNL A   1      44.369  26.201  28.078  1.00  0.00     0.029 A 
ATOM     41  N   UNL A   1      44.233  28.335  28.726  1.00  0.00    -0.354 N 
ATOM     42  C   UNL A   1      40.469  30.179  29.691  1.00  0.00     0.074 A 
ATOM     43  C   UNL A   1      39.415  29.191  29.744  1.00  0.00     0.031 C 
ATOM     44  C   UNL A   1      45.618  26.679  28.148  1.00  0.00     0.029 A 
ATOM     45  C   UNL A   1      45.559  28.102  28.450  1.00  0.00     0.049 A 
ATOM     46  H   UNL A   1      43.894  29.190  29.080  1.00  0.00     0.167 HD
ATOM     47  C   UNL A   1      40.310  31.486  30.016  1.00  0.00     0.031 A 
ATOM     48  C   UNL A   1      46.607  28.943  28.355  1.00  0.00     0.031 A 
ATOM     49  C   UNL A   1      41.367  32.464  29.956  1.00  0.00     0.049 A 
ATOM     50  C   UNL A   1      46.389  30.409  28.576  1.00  0.00     0.074 A 
ATOM     51  C   UNL A   1      41.305  33.820  30.223  1.00  0.00     0.029 A 
ATOM     52  N   UNL A   1      42.679  32.186  29.604  1.00  0.00    -0.354 N 
ATOM     53  N   UNL A   1      45.286  31.032  28.912  1.00  0.00    -0.248 NA
ATOM     54  C   UNL A   1      47.549  31.288  28.385  1.00  0.00     0.031 C 
ATOM     55  C   UNL A   1      42.567  34.372  29.979  1.00  0.00     0.029 A 
ATOM     56  C   UNL A   1      43.430  33.349  29.622  1.00  0.00     0.049 A 
ATOM     57  H   UNL A   1      43.025  31.294  29.374  1.00  0.00     0.167 HD
ATOM     58  C   UNL A   1      45.624  32.377  28.995  1.00  0.00     0.074 A 
ATOM     59  C   UNL A   1      47.034  32.475  28.677  1.00  0.00     0.031 C 
ATOM     60  C   UNL A   1      44.835  33.432  29.313  1.00  0.00     0.031 A 
BRANCH  47  61
ATOM     61  C   UNL A   1      38.927  31.959  30.390  1.00  0.00    -0.014 A 
ATOM     62  C   UNL A   1      38.487  31.995  31.724  1.00  0.00     0.010 A 
ATOM     63  C   UNL A   1      38.068  32.428  29.376  1.00  0.00     0.010 A 
ATOM     64  C   UNL A   1      37.203  32.457  32.034  1.00  0.00     0.020 A 
ATOM     65  C   UNL A   1      36.793  32.912  29.684  1.00  0.00     0.020 A 
ATOM     66  C   UNL A   1      36.361  32.907  31.011  1.00  0.00     0.054 A 
BRANCH  66  67
ATOM     67  S   UNL A   1      34.704  33.514  31.438  1.00  0.00     0.124 S 
ATOM     68  O   UNL A   1      34.198  32.438  32.288  1.00  0.00    -0.237 OA
ATOM     69  O   UNL A   1      34.986  34.773  32.121  1.00  0.00    -0.237 OA
ATOM     70  O   UNL A   1      34.038  33.647  30.143  1.00  0.00    -0.744 OA
ENDBRANCH  66  67
ENDBRANCH  47  61
BRANCH  48  71
ATOM     71  C   UNL A   1      47.929  28.409  27.927  1.00  0.00    -0.014 A 
ATOM     72  C   UNL A   1      48.860  27.947  28.870  1.00  0.00     0.010 A 
ATOM     73  C   UNL A   1      48.233  28.303  26.555  1.00  0.00     0.010 A 
ATOM     74  C   UNL A   1      50.069  27.383  28.448  1.00  0.00     0.020 A 
ATOM     75  C   UNL A   1      49.424  27.711  26.130  1.00  0.00     0.020 A 
ATOM     76  C   UNL A   1      50.338  27.261  27.081  1.00  0.00     0.054 A 
BRANCH  76  77
ATOM     77  S   UNL A   1      51.872  26.447  26.556  1.00  0.00     0.124 S 
ATOM     78  O   UNL A   1      51.587  25.047  26.848  1.00  0.00    -0.237 OA
ATOM     79  O   UNL A   1      51.949  26.796  25.140  1.00  0.00    -0.237 OA
ATOM     80  O   UNL A   1      52.893  27.069  27.397  1.00  0.00    -0.744 OA
ENDBRANCH  76  77
ENDBRANCH  48  71
BRANCH  60  81
ATOM     81  C   UNL A   1      45.486  34.784  29.394  1.00  0.00    -0.014 A 
ATOM     82  C   UNL A   1      45.555  35.631  28.276  1.00  0.00     0.010 A 
ATOM     83  C   UNL A   1      45.968  35.237  30.635  1.00  0.00     0.010 A 
ATOM     84  C   UNL A   1      46.109  36.908  28.397  1.00  0.00     0.020 A 
ATOM     85  C   UNL A   1      46.500  36.521  30.765  1.00  0.00     0.020 A 
ATOM     86  C   UNL A   1      46.575  37.347  29.642  1.00  0.00     0.054 A 
BRANCH  86  87
ATOM     87  S   UNL A   1      47.223  39.034  29.788  1.00  0.00     0.124 S 
ATOM     88  O   UNL A   1      46.004  39.811  29.995  1.00  0.00    -0.237 OA
ATOM     89  O   UNL A   1      48.111  38.939  30.945  1.00  0.00    -0.237 OA
ATOM     90  O   UNL A   1      47.897  39.258  28.511  1.00  0.00    -0.744 OA
ENDBRANCH  86  87
ENDBRANCH  60  81
ENDBRANCH  34  35
ENDBRANCH  27  29
ENDBRANCH  26  27
ENDBRANCH  25  26
ENDBRANCH   1  25
TORSDOF 19
ENDMDL
