MODEL 1
REMARK VINA RESULT:     -11.7      0.000      0.000
REMARK SMILES CS(=O)(=O)c1ccc(/C=C(/C(=O)OCCOC(=O)c2ccc(-c3c4nc(c(-c5ccc(S(=O)(=O)[O-])cc5)c5ccc([nH]5)c(-c5ccc(S(=O)(=O)[O-])cc5)c5nc(c(-c6ccc(S(=O)(=O)[O-])cc6)c6ccc3[nH]6)C=C5)C=C4)cc2)c2ccc(-c3ccc(F)cc3F)cc2)cc1
REMARK SMILES IDX 15 1 14 2 13 3 11 4 12 5 10 6 9 7 8 8 5 9 6 10 94 11 7 12
REMARK SMILES IDX 93 13 2 14 1 15 3 16 4 17 79 18 80 19 92 20 81 21 91 22
REMARK SMILES IDX 82 23 83 24 84 25 89 26 85 27 88 28 90 29 86 30 87 31 16 32
REMARK SMILES IDX 17 33 18 34 19 35 20 36 78 37 21 38 77 39 22 40 23 41 24 42
REMARK SMILES IDX 71 43 25 44 76 45 70 46 72 47 26 48 75 49 69 50 68 51 27 53
REMARK SMILES IDX 57 54 38 55 56 56 39 57 42 58 55 59 73 60 40 61 41 62 54 64
REMARK SMILES IDX 74 65 43 66 28 67 29 68 37 69 30 70 36 71 31 72 32 73 33 74
REMARK SMILES IDX 34 75 35 76 58 77 59 78 67 79 60 80 66 81 61 82 62 83 63 84
REMARK SMILES IDX 64 85 65 86 44 87 45 88 53 89 46 90 52 91 47 92 48 93 49 94
REMARK SMILES IDX 50 95 51 96
REMARK H PARENT 72 52 42 63
REMARK Flexibility Score: inf
ROOT
ATOM      1  C   UNL A   1      35.746  23.137  25.583  1.00  0.00     0.275 C 
ENDROOT
BRANCH   1   2
ATOM      2  C   UNL A   1      34.567  23.151  26.554  1.00  0.00     0.275 C 
BRANCH   2   3
ATOM      3  O   UNL A   1      33.318  23.275  25.840  1.00  0.00    -0.458 OA
BRANCH   3   4
ATOM      4  C   UNL A   1      32.364  24.010  26.470  1.00  0.00     0.338 C 
ATOM      5  O   UNL A   1      31.878  23.754  27.562  1.00  0.00    -0.246 OA
BRANCH   4   6
ATOM      6  C   UNL A   1      31.984  25.221  25.683  1.00  0.00     0.067 C 
ATOM      7  C   UNL A   1      31.036  25.102  24.725  1.00  0.00     0.024 C 
BRANCH   7   8
ATOM      8  C   UNL A   1      30.336  26.199  24.020  1.00  0.00    -0.025 A 
ATOM      9  C   UNL A   1      28.933  28.400  22.989  1.00  0.00     0.067 A 
ATOM     10  C   UNL A   1      30.293  28.264  22.725  1.00  0.00     0.021 A 
ATOM     11  C   UNL A   1      28.246  27.405  23.685  1.00  0.00     0.021 A 
ATOM     12  C   UNL A   1      30.978  27.153  23.219  1.00  0.00     0.009 A 
ATOM     13  C   UNL A   1      28.949  26.310  24.197  1.00  0.00     0.009 A 
BRANCH   9  14
ATOM     14  S   UNL A   1      28.084  29.867  22.465  1.00  0.00     0.175 S 
ATOM     15  C   UNL A   1      29.095  31.201  23.061  1.00  0.00     0.163 C 
ATOM     16  O   UNL A   1      26.826  29.924  23.185  1.00  0.00    -0.224 OA
ATOM     17  O   UNL A   1      28.111  29.876  21.014  1.00  0.00    -0.224 OA
ENDBRANCH   9  14
ENDBRANCH   7   8
BRANCH   6  18
ATOM     18  C   UNL A   1      32.552  26.515  26.101  1.00  0.00    -0.011 A 
ATOM     19  C   UNL A   1      31.826  27.333  26.973  1.00  0.00     0.009 A 
ATOM     20  C   UNL A   1      33.813  26.934  25.678  1.00  0.00     0.009 A 
ATOM     21  C   UNL A   1      32.360  28.549  27.416  1.00  0.00     0.009 A 
ATOM     22  C   UNL A   1      34.338  28.154  26.125  1.00  0.00     0.009 A 
ATOM     23  C   UNL A   1      33.623  29.002  26.994  1.00  0.00    -0.015 A 
BRANCH  23  24
ATOM     24  C   UNL A   1      34.149  30.326  27.422  1.00  0.00     0.018 A 
ATOM     25  C   UNL A   1      33.309  31.459  27.487  1.00  0.00     0.015 A 
ATOM     26  C   UNL A   1      35.503  30.530  27.764  1.00  0.00     0.133 A 
ATOM     27  C   UNL A   1      33.799  32.713  27.869  1.00  0.00     0.040 A 
ATOM     28  C   UNL A   1      35.996  31.770  28.162  1.00  0.00     0.079 A 
ATOM     29  F   UNL A   1      36.379  29.514  27.709  1.00  0.00    -0.206 F 
ATOM     30  C   UNL A   1      35.136  32.854  28.209  1.00  0.00     0.126 A 
ATOM     31  F   UNL A   1      35.595  34.046  28.610  1.00  0.00    -0.207 F 
ENDBRANCH  23  24
ENDBRANCH   6  18
ENDBRANCH   4   6
ENDBRANCH   3   4
ENDBRANCH   2   3
ENDBRANCH   1   2
BRANCH   1  32
ATOM     32  O   UNL A   1      36.826  23.926  26.113  1.00  0.00    -0.458 OA
BRANCH  32  33
ATOM     33  C   UNL A   1      38.048  23.347  26.091  1.00  0.00     0.338 C 
ATOM     34  O   UNL A   1      38.328  22.243  25.645  1.00  0.00    -0.246 OA
BRANCH  33  35
ATOM     35  C   UNL A   1      39.066  24.247  26.669  1.00  0.00     0.060 A 
ATOM     36  C   UNL A   1      39.152  24.423  28.046  1.00  0.00     0.016 A 
ATOM     37  C   UNL A   1      39.832  25.051  25.824  1.00  0.00     0.016 A 
ATOM     38  C   UNL A   1      39.886  25.494  28.562  1.00  0.00     0.010 A 
ATOM     39  C   UNL A   1      40.652  26.054  26.359  1.00  0.00     0.010 A 
ATOM     40  C   UNL A   1      40.637  26.345  27.733  1.00  0.00    -0.014 A 
BRANCH  40  41
ATOM     41  C   UNL A   1      41.324  27.563  28.281  1.00  0.00     0.031 A 
ATOM     42  C   UNL A   1      42.816  27.763  28.089  1.00  0.00     0.074 A 
ATOM     43  C   UNL A   1      40.637  28.530  28.929  1.00  0.00     0.049 A 
ATOM     44  N   UNL A   1      43.621  28.616  28.676  1.00  0.00    -0.248 NA
ATOM     45  C   UNL A   1      43.497  26.879  27.129  1.00  0.00     0.031 C 
ATOM     46  C   UNL A   1      39.193  28.545  29.161  1.00  0.00     0.029 A 
ATOM     47  N   UNL A   1      41.070  29.706  29.499  1.00  0.00    -0.354 N 
ATOM     48  C   UNL A   1      44.904  28.301  28.239  1.00  0.00     0.074 A 
ATOM     49  C   UNL A   1      44.771  27.197  27.313  1.00  0.00     0.031 C 
ATOM     50  C   UNL A   1      38.850  29.701  29.747  1.00  0.00     0.029 A 
ATOM     51  C   UNL A   1      40.058  30.455  30.053  1.00  0.00     0.049 A 
ATOM     52  H   UNL A   1      42.014  29.984  29.509  1.00  0.00     0.167 HD
ATOM     53  C   UNL A   1      46.087  28.867  28.588  1.00  0.00     0.031 A 
ATOM     54  C   UNL A   1      40.083  31.590  30.778  1.00  0.00     0.031 A 
ATOM     55  C   UNL A   1      46.222  30.018  29.441  1.00  0.00     0.049 A 
ATOM     56  C   UNL A   1      41.398  32.211  31.142  1.00  0.00     0.074 A 
ATOM     57  C   UNL A   1      47.382  30.663  29.840  1.00  0.00     0.029 A 
ATOM     58  N   UNL A   1      45.167  30.719  30.001  1.00  0.00    -0.354 N 
ATOM     59  N   UNL A   1      42.608  31.824  30.818  1.00  0.00    -0.248 NA
ATOM     60  C   UNL A   1      41.353  33.403  32.001  1.00  0.00     0.031 C 
ATOM     61  C   UNL A   1      47.029  31.738  30.664  1.00  0.00     0.029 A 
ATOM     62  C   UNL A   1      45.647  31.786  30.743  1.00  0.00     0.049 A 
ATOM     63  H   UNL A   1      44.216  30.492  29.889  1.00  0.00     0.167 HD
ATOM     64  C   UNL A   1      43.467  32.722  31.438  1.00  0.00     0.074 A 
ATOM     65  C   UNL A   1      42.641  33.688  32.132  1.00  0.00     0.031 C 
ATOM     66  C   UNL A   1      44.822  32.735  31.440  1.00  0.00     0.031 A 
BRANCH  53  67
ATOM     67  C   UNL A   1      47.353  28.216  28.087  1.00  0.00    -0.014 A 
ATOM     68  C   UNL A   1      47.993  27.190  28.803  1.00  0.00     0.010 A 
ATOM     69  C   UNL A   1      47.871  28.604  26.837  1.00  0.00     0.010 A 
ATOM     70  C   UNL A   1      49.148  26.589  28.292  1.00  0.00     0.020 A 
ATOM     71  C   UNL A   1      49.011  27.989  26.312  1.00  0.00     0.020 A 
ATOM     72  C   UNL A   1      49.652  26.995  27.052  1.00  0.00     0.054 A 
BRANCH  72  73
ATOM     73  S   UNL A   1      51.136  26.181  26.397  1.00  0.00     0.124 S 
ATOM     74  O   UNL A   1      52.200  27.042  26.907  1.00  0.00    -0.237 OA
ATOM     75  O   UNL A   1      51.065  24.851  26.995  1.00  0.00    -0.237 OA
ATOM     76  O   UNL A   1      50.943  26.221  24.949  1.00  0.00    -0.744 OA
ENDBRANCH  72  73
ENDBRANCH  53  67
BRANCH  54  77
ATOM     77  C   UNL A   1      38.805  32.171  31.271  1.00  0.00    -0.014 A 
ATOM     78  C   UNL A   1      38.108  31.568  32.331  1.00  0.00     0.010 A 
ATOM     79  C   UNL A   1      38.303  33.360  30.707  1.00  0.00     0.010 A 
ATOM     80  C   UNL A   1      36.937  32.149  32.828  1.00  0.00     0.020 A 
ATOM     81  C   UNL A   1      37.152  33.960  31.220  1.00  0.00     0.020 A 
ATOM     82  C   UNL A   1      36.472  33.346  32.274  1.00  0.00     0.054 A 
BRANCH  82  83
ATOM     83  S   UNL A   1      35.007  34.143  32.992  1.00  0.00     0.124 S 
ATOM     84  O   UNL A   1      34.805  33.363  34.208  1.00  0.00    -0.237 OA
ATOM     85  O   UNL A   1      35.455  35.520  33.190  1.00  0.00    -0.237 OA
ATOM     86  O   UNL A   1      33.990  33.973  31.957  1.00  0.00    -0.744 OA
ENDBRANCH  82  83
ENDBRANCH  54  77
BRANCH  66  87
ATOM     87  C   UNL A   1      45.497  33.840  32.206  1.00  0.00    -0.014 A 
ATOM     88  C   UNL A   1      45.853  33.671  33.556  1.00  0.00     0.010 A 
ATOM     89  C   UNL A   1      45.803  35.050  31.559  1.00  0.00     0.010 A 
ATOM     90  C   UNL A   1      46.475  34.709  34.255  1.00  0.00     0.020 A 
ATOM     91  C   UNL A   1      46.441  36.082  32.250  1.00  0.00     0.020 A 
ATOM     92  C   UNL A   1      46.760  35.911  33.600  1.00  0.00     0.054 A 
BRANCH  92  93
ATOM     93  S   UNL A   1      47.590  37.237  34.519  1.00  0.00     0.124 S 
ATOM     94  O   UNL A   1      48.891  37.295  33.859  1.00  0.00    -0.237 OA
ATOM     95  O   UNL A   1      46.717  38.386  34.287  1.00  0.00    -0.237 OA
ATOM     96  O   UNL A   1      47.609  36.745  35.893  1.00  0.00    -0.744 OA
ENDBRANCH  92  93
ENDBRANCH  66  87
ENDBRANCH  40  41
ENDBRANCH  33  35
ENDBRANCH  32  33
ENDBRANCH   1  32
TORSDOF 18
ENDMDL
MODEL 2
REMARK VINA RESULT:     -11.2      1.168      7.939
REMARK SMILES CS(=O)(=O)c1ccc(/C=C(/C(=O)OCCOC(=O)c2ccc(-c3c4nc(c(-c5ccc(S(=O)(=O)[O-])cc5)c5ccc([nH]5)c(-c5ccc(S(=O)(=O)[O-])cc5)c5nc(c(-c6ccc(S(=O)(=O)[O-])cc6)c6ccc3[nH]6)C=C5)C=C4)cc2)c2ccc(-c3ccc(F)cc3F)cc2)cc1
REMARK SMILES IDX 15 1 14 2 13 3 11 4 12 5 10 6 9 7 8 8 5 9 6 10 94 11 7 12
REMARK SMILES IDX 93 13 2 14 1 15 3 16 4 17 79 18 80 19 92 20 81 21 91 22
REMARK SMILES IDX 82 23 83 24 84 25 89 26 85 27 88 28 90 29 86 30 87 31 16 32
REMARK SMILES IDX 17 33 18 34 19 35 20 36 78 37 21 38 77 39 22 40 23 41 24 42
REMARK SMILES IDX 71 43 25 44 76 45 70 46 72 47 26 48 75 49 69 50 68 51 27 53
REMARK SMILES IDX 57 54 38 55 56 56 39 57 42 58 55 59 73 60 40 61 41 62 54 64
REMARK SMILES IDX 74 65 43 66 28 67 29 68 37 69 30 70 36 71 31 72 32 73 33 74
REMARK SMILES IDX 34 75 35 76 58 77 59 78 67 79 60 80 66 81 61 82 62 83 63 84
REMARK SMILES IDX 64 85 65 86 44 87 45 88 53 89 46 90 52 91 47 92 48 93 49 94
REMARK SMILES IDX 50 95 51 96
REMARK H PARENT 72 52 42 63
REMARK Flexibility Score: inf
ROOT
ATOM      1  C   UNL A   1      36.385  23.493  25.585  1.00  0.00     0.275 C 
ENDROOT
BRANCH   1   2
ATOM      2  C   UNL A   1      35.045  23.592  26.310  1.00  0.00     0.275 C 
BRANCH   2   3
ATOM      3  O   UNL A   1      33.951  23.367  25.395  1.00  0.00    -0.458 OA
BRANCH   3   4
ATOM      4  C   UNL A   1      32.727  23.737  25.858  1.00  0.00     0.338 C 
ATOM      5  O   UNL A   1      32.089  23.151  26.720  1.00  0.00    -0.246 OA
BRANCH   4   6
ATOM      6  C   UNL A   1      32.243  24.992  25.211  1.00  0.00     0.067 C 
ATOM      7  C   UNL A   1      31.280  24.907  24.265  1.00  0.00     0.024 C 
BRANCH   7   8
ATOM      8  C   UNL A   1      30.488  26.019  23.693  1.00  0.00    -0.025 A 
ATOM      9  C   UNL A   1      28.971  28.251  22.923  1.00  0.00     0.067 A 
ATOM     10  C   UNL A   1      30.253  28.077  22.408  1.00  0.00     0.021 A 
ATOM     11  C   UNL A   1      28.403  27.279  23.747  1.00  0.00     0.021 A 
ATOM     12  C   UNL A   1      30.991  26.951  22.776  1.00  0.00     0.009 A 
ATOM     13  C   UNL A   1      29.162  26.168  24.129  1.00  0.00     0.009 A 
BRANCH   9  14
ATOM     14  S   UNL A   1      28.076  29.738  22.554  1.00  0.00     0.175 S 
ATOM     15  C   UNL A   1      28.991  31.021  23.374  1.00  0.00     0.163 C 
ATOM     16  O   UNL A   1      26.785  29.644  23.207  1.00  0.00    -0.224 OA
ATOM     17  O   UNL A   1      28.171  29.943  21.120  1.00  0.00    -0.224 OA
ENDBRANCH   9  14
ENDBRANCH   7   8
BRANCH   6  18
ATOM     18  C   UNL A   1      32.733  26.274  25.751  1.00  0.00    -0.011 A 
ATOM     19  C   UNL A   1      33.828  26.900  25.146  1.00  0.00     0.009 A 
ATOM     20  C   UNL A   1      32.111  26.901  26.830  1.00  0.00     0.009 A 
ATOM     21  C   UNL A   1      34.288  28.136  25.614  1.00  0.00     0.009 A 
ATOM     22  C   UNL A   1      32.580  28.138  27.293  1.00  0.00     0.009 A 
ATOM     23  C   UNL A   1      33.688  28.784  26.710  1.00  0.00    -0.015 A 
BRANCH  23  24
ATOM     24  C   UNL A   1      34.228  30.065  27.235  1.00  0.00     0.018 A 
ATOM     25  C   UNL A   1      35.585  30.190  27.605  1.00  0.00     0.015 A 
ATOM     26  C   UNL A   1      33.423  31.211  27.415  1.00  0.00     0.133 A 
ATOM     27  C   UNL A   1      36.098  31.385  28.120  1.00  0.00     0.040 A 
ATOM     28  C   UNL A   1      33.929  32.411  27.910  1.00  0.00     0.079 A 
ATOM     29  F   UNL A   1      32.116  31.179  27.112  1.00  0.00    -0.206 F 
ATOM     30  C   UNL A   1      35.265  32.485  28.261  1.00  0.00     0.126 A 
ATOM     31  F   UNL A   1      35.765  33.640  28.719  1.00  0.00    -0.207 F 
ENDBRANCH  23  24
ENDBRANCH   6  18
ENDBRANCH   4   6
ENDBRANCH   3   4
ENDBRANCH   2   3
ENDBRANCH   1   2
BRANCH   1  32
ATOM     32  O   UNL A   1      37.436  23.999  26.427  1.00  0.00    -0.458 OA
BRANCH  32  33
ATOM     33  C   UNL A   1      38.597  23.305  26.406  1.00  0.00     0.338 C 
ATOM     34  O   UNL A   1      38.740  22.125  26.120  1.00  0.00    -0.246 OA
BRANCH  33  35
ATOM     35  C   UNL A   1      39.735  24.177  26.761  1.00  0.00     0.060 A 
ATOM     36  C   UNL A   1      40.495  23.918  27.897  1.00  0.00     0.016 A 
ATOM     37  C   UNL A   1      39.945  25.357  26.047  1.00  0.00     0.016 A 
ATOM     38  C   UNL A   1      41.350  24.904  28.396  1.00  0.00     0.010 A 
ATOM     39  C   UNL A   1      40.887  26.293  26.496  1.00  0.00     0.010 A 
ATOM     40  C   UNL A   1      41.553  26.120  27.721  1.00  0.00    -0.014 A 
BRANCH  40  41
ATOM     41  C   UNL A   1      42.379  27.219  28.323  1.00  0.00     0.031 A 
ATOM     42  C   UNL A   1      41.737  28.282  29.195  1.00  0.00     0.074 A 
ATOM     43  C   UNL A   1      43.717  27.281  28.136  1.00  0.00     0.049 A 
ATOM     44  N   UNL A   1      42.230  29.424  29.610  1.00  0.00    -0.248 NA
ATOM     45  C   UNL A   1      40.357  28.040  29.647  1.00  0.00     0.031 C 
ATOM     46  C   UNL A   1      44.520  26.322  27.379  1.00  0.00     0.029 A 
ATOM     47  N   UNL A   1      44.643  28.192  28.593  1.00  0.00    -0.354 N 
ATOM     48  C   UNL A   1      41.194  30.076  30.272  1.00  0.00     0.074 A 
ATOM     49  C   UNL A   1      40.051  29.190  30.232  1.00  0.00     0.031 C 
ATOM     50  C   UNL A   1      45.817  26.646  27.488  1.00  0.00     0.029 A 
ATOM     51  C   UNL A   1      45.933  27.905  28.211  1.00  0.00     0.049 A 
ATOM     52  H   UNL A   1      44.404  28.975  29.140  1.00  0.00     0.167 HD
ATOM     53  C   UNL A   1      41.187  31.305  30.846  1.00  0.00     0.031 A 
ATOM     54  C   UNL A   1      47.082  28.591  28.365  1.00  0.00     0.031 A 
ATOM     55  C   UNL A   1      42.342  32.157  30.965  1.00  0.00     0.049 A 
ATOM     56  C   UNL A   1      47.060  29.942  29.015  1.00  0.00     0.074 A 
ATOM     57  C   UNL A   1      42.427  33.416  31.540  1.00  0.00     0.029 A 
ATOM     58  N   UNL A   1      43.617  31.831  30.534  1.00  0.00    -0.354 N 
ATOM     59  N   UNL A   1      46.042  30.592  29.525  1.00  0.00    -0.248 NA
ATOM     60  C   UNL A   1      48.337  30.668  29.078  1.00  0.00     0.031 C 
ATOM     61  C   UNL A   1      43.749  33.861  31.431  1.00  0.00     0.029 A 
ATOM     62  C   UNL A   1      44.494  32.863  30.826  1.00  0.00     0.049 A 
ATOM     63  H   UNL A   1      43.863  30.991  30.085  1.00  0.00     0.167 HD
ATOM     64  C   UNL A   1      46.556  31.806  29.965  1.00  0.00     0.074 A 
ATOM     65  C   UNL A   1      47.977  31.789  29.687  1.00  0.00     0.031 C 
ATOM     66  C   UNL A   1      45.903  32.846  30.537  1.00  0.00     0.031 A 
BRANCH  53  67
ATOM     67  C   UNL A   1      39.871  31.838  31.353  1.00  0.00    -0.014 A 
ATOM     68  C   UNL A   1      39.458  31.655  32.683  1.00  0.00     0.010 A 
ATOM     69  C   UNL A   1      39.063  32.598  30.484  1.00  0.00     0.010 A 
ATOM     70  C   UNL A   1      38.243  32.191  33.125  1.00  0.00     0.020 A 
ATOM     71  C   UNL A   1      37.861  33.156  30.929  1.00  0.00     0.020 A 
ATOM     72  C   UNL A   1      37.451  32.935  32.244  1.00  0.00     0.054 A 
BRANCH  72  73
ATOM     73  S   UNL A   1      35.894  33.645  32.848  1.00  0.00     0.124 S 
ATOM     74  O   UNL A   1      35.655  32.857  34.055  1.00  0.00    -0.237 OA
ATOM     75  O   UNL A   1      36.243  35.045  33.073  1.00  0.00    -0.237 OA
ATOM     76  O   UNL A   1      34.956  33.407  31.753  1.00  0.00    -0.744 OA
ENDBRANCH  72  73
ENDBRANCH  53  67
BRANCH  54  77
ATOM     77  C   UNL A   1      48.347  28.030  27.819  1.00  0.00    -0.014 A 
ATOM     78  C   UNL A   1      49.142  27.173  28.597  1.00  0.00     0.010 A 
ATOM     79  C   UNL A   1      48.737  28.319  26.497  1.00  0.00     0.010 A 
ATOM     80  C   UNL A   1      50.301  26.603  28.059  1.00  0.00     0.020 A 
ATOM     81  C   UNL A   1      49.876  27.728  25.947  1.00  0.00     0.020 A 
ATOM     82  C   UNL A   1      50.655  26.878  26.735  1.00  0.00     0.054 A 
BRANCH  82  83
ATOM     83  S   UNL A   1      52.105  26.056  26.017  1.00  0.00     0.124 S 
ATOM     84  O   UNL A   1      53.181  26.534  26.878  1.00  0.00    -0.237 OA
ATOM     85  O   UNL A   1      51.770  24.639  26.151  1.00  0.00    -0.237 OA
ATOM     86  O   UNL A   1      52.129  26.552  24.643  1.00  0.00    -0.744 OA
ENDBRANCH  82  83
ENDBRANCH  54  77
BRANCH  66  87
ATOM     87  C   UNL A   1      46.723  34.048  30.916  1.00  0.00    -0.014 A 
ATOM     88  C   UNL A   1      46.896  35.116  30.019  1.00  0.00     0.010 A 
ATOM     89  C   UNL A   1      47.303  34.121  32.195  1.00  0.00     0.010 A 
ATOM     90  C   UNL A   1      47.666  36.225  30.384  1.00  0.00     0.020 A 
ATOM     91  C   UNL A   1      48.057  35.235  32.569  1.00  0.00     0.020 A 
ATOM     92  C   UNL A   1      48.247  36.274  31.655  1.00  0.00     0.054 A 
BRANCH  92  93
ATOM     93  S   UNL A   1      49.223  37.732  32.118  1.00  0.00     0.124 S 
ATOM     94  O   UNL A   1      48.209  38.784  32.127  1.00  0.00    -0.237 OA
ATOM     95  O   UNL A   1      49.756  37.363  33.427  1.00  0.00    -0.237 OA
ATOM     96  O   UNL A   1      50.218  37.835  31.054  1.00  0.00    -0.744 OA
ENDBRANCH  92  93
ENDBRANCH  66  87
ENDBRANCH  40  41
ENDBRANCH  33  35
ENDBRANCH  32  33
ENDBRANCH   1  32
TORSDOF 18
ENDMDL
MODEL 3
REMARK VINA RESULT:     -11.0      2.195      8.017
REMARK SMILES CS(=O)(=O)c1ccc(/C=C(/C(=O)OCCOC(=O)c2ccc(-c3c4nc(c(-c5ccc(S(=O)(=O)[O-])cc5)c5ccc([nH]5)c(-c5ccc(S(=O)(=O)[O-])cc5)c5nc(c(-c6ccc(S(=O)(=O)[O-])cc6)c6ccc3[nH]6)C=C5)C=C4)cc2)c2ccc(-c3ccc(F)cc3F)cc2)cc1
REMARK SMILES IDX 15 1 14 2 13 3 11 4 12 5 10 6 9 7 8 8 5 9 6 10 94 11 7 12
REMARK SMILES IDX 93 13 2 14 1 15 3 16 4 17 79 18 80 19 92 20 81 21 91 22
REMARK SMILES IDX 82 23 83 24 84 25 89 26 85 27 88 28 90 29 86 30 87 31 16 32
REMARK SMILES IDX 17 33 18 34 19 35 20 36 78 37 21 38 77 39 22 40 23 41 24 42
REMARK SMILES IDX 71 43 25 44 76 45 70 46 72 47 26 48 75 49 69 50 68 51 27 53
REMARK SMILES IDX 57 54 38 55 56 56 39 57 42 58 55 59 73 60 40 61 41 62 54 64
REMARK SMILES IDX 74 65 43 66 28 67 29 68 37 69 30 70 36 71 31 72 32 73 33 74
REMARK SMILES IDX 34 75 35 76 58 77 59 78 67 79 60 80 66 81 61 82 62 83 63 84
REMARK SMILES IDX 64 85 65 86 44 87 45 88 53 89 46 90 52 91 47 92 48 93 49 94
REMARK SMILES IDX 50 95 51 96
REMARK H PARENT 72 52 42 63
REMARK Flexibility Score: inf
ROOT
ATOM      1  C   UNL A   1      36.852  22.771  24.706  1.00  0.00     0.275 C 
ENDROOT
BRANCH   1   2
ATOM      2  C   UNL A   1      35.335  22.667  24.569  1.00  0.00     0.275 C 
BRANCH   2   3
ATOM      3  O   UNL A   1      34.716  23.962  24.724  1.00  0.00    -0.458 OA
BRANCH   3   4
ATOM      4  C   UNL A   1      33.369  23.939  24.902  1.00  0.00     0.338 C 
ATOM      5  O   UNL A   1      32.732  23.009  25.374  1.00  0.00    -0.246 OA
BRANCH   4   6
ATOM      6  C   UNL A   1      32.730  25.222  24.483  1.00  0.00     0.067 C 
ATOM      7  C   UNL A   1      31.694  25.179  23.615  1.00  0.00     0.024 C 
BRANCH   7   8
ATOM      8  C   UNL A   1      30.767  26.282  23.274  1.00  0.00    -0.025 A 
ATOM      9  C   UNL A   1      29.021  28.456  22.956  1.00  0.00     0.067 A 
ATOM     10  C   UNL A   1      30.249  28.455  22.299  1.00  0.00     0.021 A 
ATOM     11  C   UNL A   1      28.616  27.345  23.696  1.00  0.00     0.021 A 
ATOM     12  C   UNL A   1      31.101  27.359  22.442  1.00  0.00     0.009 A 
ATOM     13  C   UNL A   1      29.489  26.264  23.853  1.00  0.00     0.009 A 
BRANCH   9  14
ATOM     14  S   UNL A   1      27.988  29.896  22.874  1.00  0.00     0.175 S 
ATOM     15  C   UNL A   1      28.079  30.412  21.176  1.00  0.00     0.163 C 
ATOM     16  O   UNL A   1      28.617  30.930  23.673  1.00  0.00    -0.224 OA
ATOM     17  O   UNL A   1      26.632  29.460  23.155  1.00  0.00    -0.224 OA
ENDBRANCH   9  14
ENDBRANCH   7   8
BRANCH   6  18
ATOM     18  C   UNL A   1      33.166  26.457  25.160  1.00  0.00    -0.011 A 
ATOM     19  C   UNL A   1      32.725  26.718  26.461  1.00  0.00     0.009 A 
ATOM     20  C   UNL A   1      34.037  27.360  24.551  1.00  0.00     0.009 A 
ATOM     21  C   UNL A   1      33.155  27.864  27.141  1.00  0.00     0.009 A 
ATOM     22  C   UNL A   1      34.461  28.505  25.238  1.00  0.00     0.009 A 
ATOM     23  C   UNL A   1      34.022  28.798  26.544  1.00  0.00    -0.015 A 
BRANCH  23  24
ATOM     24  C   UNL A   1      34.418  30.042  27.255  1.00  0.00     0.018 A 
ATOM     25  C   UNL A   1      35.716  30.197  27.790  1.00  0.00     0.015 A 
ATOM     26  C   UNL A   1      33.527  31.119  27.455  1.00  0.00     0.133 A 
ATOM     27  C   UNL A   1      36.092  31.355  28.479  1.00  0.00     0.040 A 
ATOM     28  C   UNL A   1      33.898  32.283  28.124  1.00  0.00     0.079 A 
ATOM     29  F   UNL A   1      32.265  31.051  27.001  1.00  0.00    -0.206 F 
ATOM     30  C   UNL A   1      35.180  32.389  28.632  1.00  0.00     0.126 A 
ATOM     31  F   UNL A   1      35.552  33.512  29.260  1.00  0.00    -0.207 F 
ENDBRANCH  23  24
ENDBRANCH   6  18
ENDBRANCH   4   6
ENDBRANCH   3   4
ENDBRANCH   2   3
ENDBRANCH   1   2
BRANCH   1  32
ATOM     32  O   UNL A   1      37.221  22.758  26.096  1.00  0.00    -0.458 OA
BRANCH  32  33
ATOM     33  C   UNL A   1      38.525  22.516  26.361  1.00  0.00     0.338 C 
ATOM     34  O   UNL A   1      39.144  21.491  26.114  1.00  0.00    -0.246 OA
BRANCH  33  35
ATOM     35  C   UNL A   1      39.159  23.692  26.991  1.00  0.00     0.060 A 
ATOM     36  C   UNL A   1      38.600  24.957  26.847  1.00  0.00     0.016 A 
ATOM     37  C   UNL A   1      40.411  23.556  27.592  1.00  0.00     0.016 A 
ATOM     38  C   UNL A   1      39.358  26.087  27.167  1.00  0.00     0.010 A 
ATOM     39  C   UNL A   1      41.118  24.693  28.010  1.00  0.00     0.010 A 
ATOM     40  C   UNL A   1      40.638  25.985  27.737  1.00  0.00    -0.014 A 
BRANCH  40  41
ATOM     41  C   UNL A   1      41.491  27.199  27.965  1.00  0.00     0.031 A 
ATOM     42  C   UNL A   1      41.082  28.254  28.975  1.00  0.00     0.074 A 
ATOM     43  C   UNL A   1      42.659  27.375  27.308  1.00  0.00     0.049 A 
ATOM     44  N   UNL A   1      41.554  29.466  29.147  1.00  0.00    -0.248 NA
ATOM     45  C   UNL A   1      39.988  27.914  29.901  1.00  0.00     0.031 C 
ATOM     46  C   UNL A   1      43.247  26.446  26.344  1.00  0.00     0.029 A 
ATOM     47  N   UNL A   1      43.575  28.401  27.371  1.00  0.00    -0.354 N 
ATOM     48  C   UNL A   1      40.752  30.061  30.116  1.00  0.00     0.074 A 
ATOM     49  C   UNL A   1      39.779  29.069  30.520  1.00  0.00     0.031 C 
ATOM     50  C   UNL A   1      44.452  26.899  25.969  1.00  0.00     0.029 A 
ATOM     51  C   UNL A   1      44.670  28.212  26.560  1.00  0.00     0.049 A 
ATOM     52  H   UNL A   1      43.457  29.194  27.942  1.00  0.00     0.167 HD
ATOM     53  C   UNL A   1      40.808  31.322  30.615  1.00  0.00     0.031 A 
ATOM     54  C   UNL A   1      45.712  29.015  26.268  1.00  0.00     0.031 A 
ATOM     55  C   UNL A   1      41.823  32.287  30.282  1.00  0.00     0.049 A 
ATOM     56  C   UNL A   1      45.767  30.400  26.838  1.00  0.00     0.074 A 
ATOM     57  C   UNL A   1      41.961  33.586  30.746  1.00  0.00     0.029 A 
ATOM     58  N   UNL A   1      42.891  32.055  29.431  1.00  0.00    -0.354 N 
ATOM     59  N   UNL A   1      44.928  30.985  27.659  1.00  0.00    -0.248 NA
ATOM     60  C   UNL A   1      46.891  31.248  26.414  1.00  0.00     0.031 C 
ATOM     61  C   UNL A   1      43.098  34.147  30.154  1.00  0.00     0.029 A 
ATOM     62  C   UNL A   1      43.690  33.184  29.355  1.00  0.00     0.049 A 
ATOM     63  H   UNL A   1      43.058  31.212  28.952  1.00  0.00     0.167 HD
ATOM     64  C   UNL A   1      45.421  32.270  27.845  1.00  0.00     0.074 A 
ATOM     65  C   UNL A   1      46.643  32.370  27.075  1.00  0.00     0.031 C 
ATOM     66  C   UNL A   1      44.897  33.281  28.579  1.00  0.00     0.031 A 
BRANCH  53  67
ATOM     67  C   UNL A   1      39.704  31.761  31.543  1.00  0.00    -0.014 A 
ATOM     68  C   UNL A   1      39.808  31.624  32.938  1.00  0.00     0.010 A 
ATOM     69  C   UNL A   1      38.564  32.387  31.001  1.00  0.00     0.010 A 
ATOM     70  C   UNL A   1      38.776  32.071  33.769  1.00  0.00     0.020 A 
ATOM     71  C   UNL A   1      37.543  32.858  31.830  1.00  0.00     0.020 A 
ATOM     72  C   UNL A   1      37.648  32.682  33.210  1.00  0.00     0.054 A 
BRANCH  72  73
ATOM     73  S   UNL A   1      36.336  33.281  34.311  1.00  0.00     0.124 S 
ATOM     74  O   UNL A   1      35.146  32.679  33.714  1.00  0.00    -0.237 OA
ATOM     75  O   UNL A   1      36.729  32.737  35.608  1.00  0.00    -0.237 OA
ATOM     76  O   UNL A   1      36.423  34.735  34.196  1.00  0.00    -0.744 OA
ENDBRANCH  72  73
ENDBRANCH  53  67
BRANCH  54  77
ATOM     77  C   UNL A   1      46.758  28.540  25.321  1.00  0.00    -0.014 A 
ATOM     78  C   UNL A   1      47.948  27.967  25.801  1.00  0.00     0.010 A 
ATOM     79  C   UNL A   1      46.544  28.619  23.932  1.00  0.00     0.010 A 
ATOM     80  C   UNL A   1      48.902  27.471  24.907  1.00  0.00     0.020 A 
ATOM     81  C   UNL A   1      47.481  28.097  23.038  1.00  0.00     0.020 A 
ATOM     82  C   UNL A   1      48.658  27.532  23.532  1.00  0.00     0.054 A 
BRANCH  82  83
ATOM     83  S   UNL A   1      49.858  26.796  22.386  1.00  0.00     0.124 S 
ATOM     84  O   UNL A   1      50.935  26.403  23.288  1.00  0.00    -0.237 OA
ATOM     85  O   UNL A   1      49.100  25.698  21.789  1.00  0.00    -0.237 OA
ATOM     86  O   UNL A   1      50.169  27.893  21.473  1.00  0.00    -0.744 OA
ENDBRANCH  82  83
ENDBRANCH  54  77
BRANCH  66  87
ATOM     87  C   UNL A   1      45.654  34.580  28.598  1.00  0.00    -0.014 A 
ATOM     88  C   UNL A   1      45.341  35.613  27.697  1.00  0.00     0.010 A 
ATOM     89  C   UNL A   1      46.672  34.780  29.548  1.00  0.00     0.010 A 
ATOM     90  C   UNL A   1      46.057  36.813  27.724  1.00  0.00     0.020 A 
ATOM     91  C   UNL A   1      47.377  35.985  29.589  1.00  0.00     0.020 A 
ATOM     92  C   UNL A   1      47.075  36.990  28.665  1.00  0.00     0.054 A 
BRANCH  92  93
ATOM     93  S   UNL A   1      47.977  38.563  28.700  1.00  0.00     0.124 S 
ATOM     94  O   UNL A   1      49.245  38.200  28.072  1.00  0.00    -0.237 OA
ATOM     95  O   UNL A   1      47.118  39.446  27.913  1.00  0.00    -0.237 OA
ATOM     96  O   UNL A   1      48.054  38.886  30.121  1.00  0.00    -0.744 OA
ENDBRANCH  92  93
ENDBRANCH  66  87
ENDBRANCH  40  41
ENDBRANCH  33  35
ENDBRANCH  32  33
ENDBRANCH   1  32
TORSDOF 18
ENDMDL
