MODEL 1
REMARK VINA RESULT:     -11.0      0.000      0.000
REMARK SMILES COc1cc(OC)cc(-c2cc3nc(C)c(CCC(=O)OCCOC(=O)c4ccc(-c5c6nc(c(-c7ccc(S(=O)(=O)[O-])cc7)c7ccc([nH]7)c(-c7ccc(S(=O)(=O)[O-])cc7)c7nc(c(-c8ccc(S(=O)(=O)[O-])cc8)c8ccc5[nH]8)C=C7)C=C6)cc4)c(C)n3n2)c1
REMARK SMILES IDX 22 1 21 2 19 3 20 4 18 5 17 6 16 7 10 8 11 9 90 10 12 11
REMARK SMILES IDX 89 12 13 13 87 14 14 15 88 16 15 17 9 18 3 19 4 20 91 21
REMARK SMILES IDX 5 22 8 23 2 24 1 25 6 26 7 27 23 28 24 29 25 30 26 31 27 32
REMARK SMILES IDX 28 33 86 34 29 35 85 36 30 37 31 38 32 39 79 40 33 41 84 42
REMARK SMILES IDX 78 43 80 44 34 45 83 46 77 47 76 48 35 50 65 51 46 52 64 53
REMARK SMILES IDX 47 54 50 55 63 56 81 57 48 58 49 59 62 61 82 62 51 63 36 64
REMARK SMILES IDX 37 65 45 66 38 67 44 68 39 69 40 70 41 71 42 72 43 73 66 74
REMARK SMILES IDX 67 75 75 76 68 77 74 78 69 79 70 80 71 81 72 82 73 83 52 84
REMARK SMILES IDX 53 85 61 86 54 87 60 88 55 89 56 90 57 91 58 92 59 93
REMARK H PARENT 80 49 50 60
REMARK Flexibility Score: inf
ROOT
ATOM      1  C   UNL A   1      44.592  19.729  24.656  1.00  0.00     0.274 C 
ENDROOT
BRANCH   1   2
ATOM      2  O   UNL A   1      44.305  18.681  25.615  1.00  0.00    -0.462 OA
BRANCH   2   3
ATOM      3  C   UNL A   1      43.038  18.636  26.106  1.00  0.00     0.306 C 
ATOM      4  O   UNL A   1      42.225  17.760  25.821  1.00  0.00    -0.252 OA
BRANCH   3   5
ATOM      5  C   UNL A   1      42.664  19.817  26.993  1.00  0.00     0.127 C 
BRANCH   5   6
ATOM      6  C   UNL A   1      41.251  19.917  27.602  1.00  0.00     0.051 C 
BRANCH   6   7
ATOM      7  C   UNL A   1      40.418  20.988  26.957  1.00  0.00    -0.005 A 
ATOM      8  C   UNL A   1      36.731  22.760  25.230  1.00  0.00     0.095 A 
ATOM      9  C   UNL A   1      37.421  23.646  26.079  1.00  0.00     0.080 A 
ATOM     10  N   UNL A   1      37.440  21.660  24.982  1.00  0.00    -0.166 NA
ATOM     11  C   UNL A   1      38.589  22.996  26.408  1.00  0.00     0.156 A 
ATOM     12  N   UNL A   1      38.551  21.771  25.742  1.00  0.00    -0.219 N 
ATOM     13  N   UNL A   1      39.644  23.355  27.192  1.00  0.00    -0.234 NA
ATOM     14  C   UNL A   1      39.508  20.780  25.979  1.00  0.00     0.046 A 
ATOM     15  C   UNL A   1      40.524  22.424  27.434  1.00  0.00     0.045 A 
ATOM     16  C   UNL A   1      39.360  19.504  25.200  1.00  0.00     0.067 C 
ATOM     17  C   UNL A   1      41.794  22.872  28.132  1.00  0.00     0.067 C 
BRANCH   8  18
ATOM     18  C   UNL A   1      35.430  22.896  24.609  1.00  0.00     0.009 A 
ATOM     19  C   UNL A   1      33.706  24.298  23.666  1.00  0.00     0.123 A 
ATOM     20  C   UNL A   1      32.815  23.224  23.754  1.00  0.00     0.092 A 
ATOM     21  C   UNL A   1      35.017  24.137  24.109  1.00  0.00     0.057 A 
ATOM     22  C   UNL A   1      33.223  21.986  24.258  1.00  0.00     0.123 A 
ATOM     23  C   UNL A   1      34.541  21.819  24.670  1.00  0.00     0.057 A 
BRANCH  19  24
ATOM     24  O   UNL A   1      33.165  25.464  23.193  1.00  0.00    -0.497 OA
ATOM     25  C   UNL A   1      32.868  26.454  24.171  1.00  0.00     0.278 C 
ENDBRANCH  19  24
BRANCH  22  26
ATOM     26  O   UNL A   1      32.253  21.022  24.308  1.00  0.00    -0.497 OA
ATOM     27  C   UNL A   1      32.394  19.952  23.376  1.00  0.00     0.278 C 
ENDBRANCH  22  26
ENDBRANCH   8  18
ENDBRANCH   6   7
ENDBRANCH   5   6
ENDBRANCH   3   5
ENDBRANCH   2   3
ENDBRANCH   1   2
BRANCH   1  28
ATOM     28  C   UNL A   1      45.267  20.971  25.257  1.00  0.00     0.275 C 
BRANCH  28  29
ATOM     29  O   UNL A   1      45.030  22.182  24.521  1.00  0.00    -0.458 OA
BRANCH  29  30
ATOM     30  C   UNL A   1      43.954  22.852  24.981  1.00  0.00     0.338 C 
ATOM     31  O   UNL A   1      42.786  22.545  24.827  1.00  0.00    -0.246 OA
BRANCH  30  32
ATOM     32  C   UNL A   1      44.221  24.210  25.415  1.00  0.00     0.060 A 
ATOM     33  C   UNL A   1      44.996  24.315  26.585  1.00  0.00     0.016 A 
ATOM     34  C   UNL A   1      43.232  25.132  25.077  1.00  0.00     0.016 A 
ATOM     35  C   UNL A   1      44.654  25.263  27.523  1.00  0.00     0.010 A 
ATOM     36  C   UNL A   1      42.864  26.041  26.038  1.00  0.00     0.010 A 
ATOM     37  C   UNL A   1      43.550  26.072  27.263  1.00  0.00    -0.014 A 
BRANCH  37  38
ATOM     38  C   UNL A   1      43.166  27.069  28.246  1.00  0.00     0.031 A 
ATOM     39  C   UNL A   1      44.114  28.210  28.334  1.00  0.00     0.074 A 
ATOM     40  C   UNL A   1      41.931  27.083  28.775  1.00  0.00     0.049 A 
ATOM     41  N   UNL A   1      44.724  28.698  29.365  1.00  0.00    -0.248 NA
ATOM     42  C   UNL A   1      44.536  28.801  27.049  1.00  0.00     0.031 C 
ATOM     43  C   UNL A   1      40.809  26.209  28.412  1.00  0.00     0.029 A 
ATOM     44  N   UNL A   1      41.359  28.014  29.586  1.00  0.00    -0.354 N 
ATOM     45  C   UNL A   1      45.486  29.753  28.866  1.00  0.00     0.074 A 
ATOM     46  C   UNL A   1      45.510  29.613  27.437  1.00  0.00     0.031 C 
ATOM     47  C   UNL A   1      39.659  26.812  28.777  1.00  0.00     0.029 A 
ATOM     48  C   UNL A   1      39.977  28.052  29.470  1.00  0.00     0.049 A 
ATOM     49  H   UNL A   1      41.871  28.597  30.192  1.00  0.00     0.167 HD
ATOM     50  C   UNL A   1      45.837  30.841  29.601  1.00  0.00     0.031 A 
ATOM     51  C   UNL A   1      39.175  29.100  29.780  1.00  0.00     0.031 A 
ATOM     52  C   UNL A   1      45.657  30.638  31.009  1.00  0.00     0.049 A 
ATOM     53  C   UNL A   1      39.961  30.053  30.605  1.00  0.00     0.074 A 
ATOM     54  C   UNL A   1      46.199  29.787  31.947  1.00  0.00     0.029 A 
ATOM     55  N   UNL A   1      44.525  31.175  31.574  1.00  0.00    -0.354 N 
ATOM     56  N   UNL A   1      40.407  29.798  31.803  1.00  0.00    -0.248 NA
ATOM     57  C   UNL A   1      40.590  31.191  29.947  1.00  0.00     0.031 C 
ATOM     58  C   UNL A   1      45.155  29.544  32.883  1.00  0.00     0.029 A 
ATOM     59  C   UNL A   1      44.029  30.260  32.466  1.00  0.00     0.049 A 
ATOM     60  H   UNL A   1      44.139  32.059  31.375  1.00  0.00     0.167 HD
ATOM     61  C   UNL A   1      41.612  30.480  31.901  1.00  0.00     0.074 A 
ATOM     62  C   UNL A   1      41.605  31.416  30.783  1.00  0.00     0.031 C 
ATOM     63  C   UNL A   1      42.617  30.029  32.708  1.00  0.00     0.031 A 
BRANCH  50  64
ATOM     64  C   UNL A   1      45.992  32.211  28.990  1.00  0.00    -0.014 A 
ATOM     65  C   UNL A   1      47.167  32.945  29.224  1.00  0.00     0.010 A 
ATOM     66  C   UNL A   1      44.917  32.903  28.386  1.00  0.00     0.010 A 
ATOM     67  C   UNL A   1      47.245  34.309  28.902  1.00  0.00     0.020 A 
ATOM     68  C   UNL A   1      45.002  34.239  28.005  1.00  0.00     0.020 A 
ATOM     69  C   UNL A   1      46.154  34.946  28.305  1.00  0.00     0.054 A 
BRANCH  69  70
ATOM     70  S   UNL A   1      46.209  36.727  27.997  1.00  0.00     0.124 S 
ATOM     71  O   UNL A   1      44.830  37.002  27.611  1.00  0.00    -0.237 OA
ATOM     72  O   UNL A   1      46.627  37.258  29.291  1.00  0.00    -0.237 OA
ATOM     73  O   UNL A   1      47.198  36.857  26.928  1.00  0.00    -0.744 OA
ENDBRANCH  69  70
ENDBRANCH  50  64
BRANCH  51  74
ATOM     74  C   UNL A   1      37.901  29.472  29.113  1.00  0.00    -0.014 A 
ATOM     75  C   UNL A   1      37.786  29.462  27.712  1.00  0.00     0.010 A 
ATOM     76  C   UNL A   1      36.716  29.626  29.865  1.00  0.00     0.010 A 
ATOM     77  C   UNL A   1      36.531  29.575  27.091  1.00  0.00     0.020 A 
ATOM     78  C   UNL A   1      35.466  29.758  29.254  1.00  0.00     0.020 A 
ATOM     79  C   UNL A   1      35.377  29.713  27.867  1.00  0.00     0.054 A 
BRANCH  79  80
ATOM     80  S   UNL A   1      33.749  29.722  27.064  1.00  0.00     0.124 S 
ATOM     81  O   UNL A   1      33.246  31.051  27.398  1.00  0.00    -0.237 OA
ATOM     82  O   UNL A   1      34.089  29.509  25.660  1.00  0.00    -0.237 OA
ATOM     83  O   UNL A   1      33.043  28.612  27.703  1.00  0.00    -0.744 OA
ENDBRANCH  79  80
ENDBRANCH  51  74
BRANCH  63  84
ATOM     84  C   UNL A   1      42.286  28.971  33.734  1.00  0.00    -0.014 A 
ATOM     85  C   UNL A   1      42.564  27.605  33.533  1.00  0.00     0.010 A 
ATOM     86  C   UNL A   1      41.857  29.389  35.007  1.00  0.00     0.010 A 
ATOM     87  C   UNL A   1      42.411  26.680  34.573  1.00  0.00     0.020 A 
ATOM     88  C   UNL A   1      41.720  28.473  36.055  1.00  0.00     0.020 A 
ATOM     89  C   UNL A   1      41.996  27.123  35.833  1.00  0.00     0.054 A 
BRANCH  89  90
ATOM     90  S   UNL A   1      41.910  25.936  37.202  1.00  0.00     0.124 S 
ATOM     91  O   UNL A   1      42.250  24.675  36.550  1.00  0.00    -0.237 OA
ATOM     92  O   UNL A   1      42.906  26.447  38.142  1.00  0.00    -0.237 OA
ATOM     93  O   UNL A   1      40.526  26.041  37.666  1.00  0.00    -0.744 OA
ENDBRANCH  89  90
ENDBRANCH  63  84
ENDBRANCH  37  38
ENDBRANCH  30  32
ENDBRANCH  29  30
ENDBRANCH  28  29
ENDBRANCH   1  28
TORSDOF 19
ENDMDL
MODEL 2
REMARK VINA RESULT:     -10.9      1.065      2.064
REMARK SMILES COc1cc(OC)cc(-c2cc3nc(C)c(CCC(=O)OCCOC(=O)c4ccc(-c5c6nc(c(-c7ccc(S(=O)(=O)[O-])cc7)c7ccc([nH]7)c(-c7ccc(S(=O)(=O)[O-])cc7)c7nc(c(-c8ccc(S(=O)(=O)[O-])cc8)c8ccc5[nH]8)C=C7)C=C6)cc4)c(C)n3n2)c1
REMARK SMILES IDX 22 1 21 2 19 3 20 4 18 5 17 6 16 7 10 8 11 9 90 10 12 11
REMARK SMILES IDX 89 12 13 13 87 14 14 15 88 16 15 17 9 18 3 19 4 20 91 21
REMARK SMILES IDX 5 22 8 23 2 24 1 25 6 26 7 27 23 28 24 29 25 30 26 31 27 32
REMARK SMILES IDX 28 33 86 34 29 35 85 36 30 37 31 38 32 39 79 40 33 41 84 42
REMARK SMILES IDX 78 43 80 44 34 45 83 46 77 47 76 48 35 50 65 51 46 52 64 53
REMARK SMILES IDX 47 54 50 55 63 56 81 57 48 58 49 59 62 61 82 62 51 63 36 64
REMARK SMILES IDX 37 65 45 66 38 67 44 68 39 69 40 70 41 71 42 72 43 73 66 74
REMARK SMILES IDX 67 75 75 76 68 77 74 78 69 79 70 80 71 81 72 82 73 83 52 84
REMARK SMILES IDX 53 85 61 86 54 87 60 88 55 89 56 90 57 91 58 92 59 93
REMARK H PARENT 80 49 50 60
REMARK Flexibility Score: inf
ROOT
ATOM      1  C   UNL A   1      44.573  19.481  24.527  1.00  0.00     0.274 C 
ENDROOT
BRANCH   1   2
ATOM      2  O   UNL A   1      44.309  18.592  25.641  1.00  0.00    -0.462 OA
BRANCH   2   3
ATOM      3  C   UNL A   1      43.033  18.563  26.108  1.00  0.00     0.306 C 
ATOM      4  O   UNL A   1      42.212  17.702  25.800  1.00  0.00    -0.252 OA
BRANCH   3   5
ATOM      5  C   UNL A   1      42.661  19.743  26.997  1.00  0.00     0.127 C 
BRANCH   5   6
ATOM      6  C   UNL A   1      41.247  19.844  27.606  1.00  0.00     0.051 C 
BRANCH   6   7
ATOM      7  C   UNL A   1      40.400  20.884  26.932  1.00  0.00    -0.005 A 
ATOM      8  C   UNL A   1      36.690  22.552  25.149  1.00  0.00     0.095 A 
ATOM      9  C   UNL A   1      37.363  23.470  25.977  1.00  0.00     0.080 A 
ATOM     10  N   UNL A   1      37.417  21.456  24.932  1.00  0.00    -0.166 NA
ATOM     11  C   UNL A   1      38.540  22.847  26.326  1.00  0.00     0.156 A 
ATOM     12  N   UNL A   1      38.524  21.605  25.691  1.00  0.00    -0.219 N 
ATOM     13  N   UNL A   1      39.586  23.244  27.104  1.00  0.00    -0.234 NA
ATOM     14  C   UNL A   1      39.496  20.637  25.957  1.00  0.00     0.046 A 
ATOM     15  C   UNL A   1      40.480  22.333  27.372  1.00  0.00     0.045 A 
ATOM     16  C   UNL A   1      39.371  19.339  25.210  1.00  0.00     0.067 C 
ATOM     17  C   UNL A   1      41.741  22.819  28.062  1.00  0.00     0.067 C 
BRANCH   8  18
ATOM     18  C   UNL A   1      35.389  22.650  24.521  1.00  0.00     0.009 A 
ATOM     19  C   UNL A   1      33.303  21.621  23.874  1.00  0.00     0.123 A 
ATOM     20  C   UNL A   1      33.060  22.703  23.022  1.00  0.00     0.092 A 
ATOM     21  C   UNL A   1      34.481  21.589  24.617  1.00  0.00     0.057 A 
ATOM     22  C   UNL A   1      33.967  23.761  22.918  1.00  0.00     0.123 A 
ATOM     23  C   UNL A   1      35.127  23.739  23.685  1.00  0.00     0.057 A 
BRANCH  19  24
ATOM     24  O   UNL A   1      32.353  20.635  23.848  1.00  0.00    -0.497 OA
ATOM     25  C   UNL A   1      32.575  19.535  24.721  1.00  0.00     0.278 C 
ENDBRANCH  19  24
BRANCH  22  26
ATOM     26  O   UNL A   1      33.622  24.749  22.037  1.00  0.00    -0.497 OA
ATOM     27  C   UNL A   1      33.692  26.080  22.540  1.00  0.00     0.278 C 
ENDBRANCH  22  26
ENDBRANCH   8  18
ENDBRANCH   6   7
ENDBRANCH   5   6
ENDBRANCH   3   5
ENDBRANCH   2   3
ENDBRANCH   1   2
BRANCH   1  28
ATOM     28  C   UNL A   1      45.289  20.784  24.912  1.00  0.00     0.275 C 
BRANCH  28  29
ATOM     29  O   UNL A   1      44.870  21.931  24.155  1.00  0.00    -0.458 OA
BRANCH  29  30
ATOM     30  C   UNL A   1      43.908  22.633  24.788  1.00  0.00     0.338 C 
ATOM     31  O   UNL A   1      42.716  22.389  24.795  1.00  0.00    -0.246 OA
BRANCH  30  32
ATOM     32  C   UNL A   1      44.308  23.958  25.224  1.00  0.00     0.060 A 
ATOM     33  C   UNL A   1      45.190  23.977  26.320  1.00  0.00     0.016 A 
ATOM     34  C   UNL A   1      43.360  24.953  24.998  1.00  0.00     0.016 A 
ATOM     35  C   UNL A   1      45.001  24.920  27.305  1.00  0.00     0.010 A 
ATOM     36  C   UNL A   1      43.144  25.858  26.008  1.00  0.00     0.010 A 
ATOM     37  C   UNL A   1      43.938  25.809  27.165  1.00  0.00    -0.014 A 
BRANCH  37  38
ATOM     38  C   UNL A   1      43.715  26.802  28.200  1.00  0.00     0.031 A 
ATOM     39  C   UNL A   1      44.736  27.881  28.217  1.00  0.00     0.074 A 
ATOM     40  C   UNL A   1      42.540  26.878  28.849  1.00  0.00     0.049 A 
ATOM     41  N   UNL A   1      45.473  28.304  29.192  1.00  0.00    -0.248 NA
ATOM     42  C   UNL A   1      45.069  28.477  26.908  1.00  0.00     0.031 C 
ATOM     43  C   UNL A   1      41.336  26.083  28.581  1.00  0.00     0.029 A 
ATOM     44  N   UNL A   1      42.109  27.821  29.730  1.00  0.00    -0.354 N 
ATOM     45  C   UNL A   1      46.248  29.323  28.641  1.00  0.00     0.074 A 
ATOM     46  C   UNL A   1      46.125  29.218  27.214  1.00  0.00     0.031 C 
ATOM     47  C   UNL A   1      40.266  26.746  29.068  1.00  0.00     0.029 A 
ATOM     48  C   UNL A   1      40.727  27.946  29.750  1.00  0.00     0.049 A 
ATOM     49  H   UNL A   1      42.713  28.356  30.294  1.00  0.00     0.167 HD
ATOM     50  C   UNL A   1      46.736  30.369  29.359  1.00  0.00     0.031 A 
ATOM     51  C   UNL A   1      40.027  29.033  30.158  1.00  0.00     0.031 A 
ATOM     52  C   UNL A   1      46.682  30.142  30.773  1.00  0.00     0.049 A 
ATOM     53  C   UNL A   1      40.948  29.914  30.920  1.00  0.00     0.074 A 
ATOM     54  C   UNL A   1      47.258  29.236  31.637  1.00  0.00     0.029 A 
ATOM     55  N   UNL A   1      45.646  30.732  31.457  1.00  0.00    -0.354 N 
ATOM     56  N   UNL A   1      41.491  29.603  32.064  1.00  0.00    -0.248 NA
ATOM     57  C   UNL A   1      41.580  31.029  30.226  1.00  0.00     0.031 C 
ATOM     58  C   UNL A   1      46.295  29.033  32.666  1.00  0.00     0.029 A 
ATOM     59  C   UNL A   1      45.182  29.826  32.376  1.00  0.00     0.049 A 
ATOM     60  H   UNL A   1      45.299  31.642  31.314  1.00  0.00     0.167 HD
ATOM     61  C   UNL A   1      42.741  30.207  32.055  1.00  0.00     0.074 A 
ATOM     62  C   UNL A   1      42.684  31.170  30.962  1.00  0.00     0.031 C 
ATOM     63  C   UNL A   1      43.788  29.676  32.751  1.00  0.00     0.031 A 
BRANCH  50  64
ATOM     64  C   UNL A   1      46.918  31.743  28.762  1.00  0.00    -0.014 A 
ATOM     65  C   UNL A   1      45.840  32.645  28.761  1.00  0.00     0.010 A 
ATOM     66  C   UNL A   1      48.045  32.093  27.984  1.00  0.00     0.010 A 
ATOM     67  C   UNL A   1      45.880  33.818  27.991  1.00  0.00     0.020 A 
ATOM     68  C   UNL A   1      48.122  33.283  27.266  1.00  0.00     0.020 A 
ATOM     69  C   UNL A   1      47.019  34.120  27.241  1.00  0.00     0.054 A 
BRANCH  69  70
ATOM     70  S   UNL A   1      47.027  35.569  26.159  1.00  0.00     0.124 S 
ATOM     71  O   UNL A   1      47.126  36.657  27.126  1.00  0.00    -0.237 OA
ATOM     72  O   UNL A   1      48.211  35.340  25.335  1.00  0.00    -0.237 OA
ATOM     73  O   UNL A   1      45.753  35.472  25.450  1.00  0.00    -0.744 OA
ENDBRANCH  69  70
ENDBRANCH  50  64
BRANCH  51  74
ATOM     74  C   UNL A   1      38.721  29.498  29.627  1.00  0.00    -0.014 A 
ATOM     75  C   UNL A   1      37.544  29.376  30.386  1.00  0.00     0.010 A 
ATOM     76  C   UNL A   1      38.661  30.273  28.449  1.00  0.00     0.010 A 
ATOM     77  C   UNL A   1      36.362  30.027  29.993  1.00  0.00     0.020 A 
ATOM     78  C   UNL A   1      37.485  30.908  28.041  1.00  0.00     0.020 A 
ATOM     79  C   UNL A   1      36.343  30.797  28.828  1.00  0.00     0.054 A 
BRANCH  79  80
ATOM     80  S   UNL A   1      34.854  31.744  28.400  1.00  0.00     0.124 S 
ATOM     81  O   UNL A   1      33.995  30.721  27.812  1.00  0.00    -0.237 OA
ATOM     82  O   UNL A   1      34.425  32.261  29.696  1.00  0.00    -0.237 OA
ATOM     83  O   UNL A   1      35.345  32.755  27.465  1.00  0.00    -0.744 OA
ENDBRANCH  79  80
ENDBRANCH  51  74
BRANCH  63  84
ATOM     84  C   UNL A   1      43.493  28.614  33.784  1.00  0.00    -0.014 A 
ATOM     85  C   UNL A   1      42.911  28.911  35.033  1.00  0.00     0.010 A 
ATOM     86  C   UNL A   1      43.632  27.265  33.412  1.00  0.00     0.010 A 
ATOM     87  C   UNL A   1      42.487  27.888  35.888  1.00  0.00     0.020 A 
ATOM     88  C   UNL A   1      43.193  26.239  34.255  1.00  0.00     0.020 A 
ATOM     89  C   UNL A   1      42.624  26.555  35.490  1.00  0.00     0.054 A 
BRANCH  89  90
ATOM     90  S   UNL A   1      41.968  25.242  36.556  1.00  0.00     0.124 S 
ATOM     91  O   UNL A   1      43.119  24.906  37.389  1.00  0.00    -0.237 OA
ATOM     92  O   UNL A   1      40.863  25.902  37.247  1.00  0.00    -0.237 OA
ATOM     93  O   UNL A   1      41.559  24.201  35.613  1.00  0.00    -0.744 OA
ENDBRANCH  89  90
ENDBRANCH  63  84
ENDBRANCH  37  38
ENDBRANCH  30  32
ENDBRANCH  29  30
ENDBRANCH  28  29
ENDBRANCH   1  28
TORSDOF 19
ENDMDL
MODEL 3
REMARK VINA RESULT:     -10.8      2.687      9.715
REMARK SMILES COc1cc(OC)cc(-c2cc3nc(C)c(CCC(=O)OCCOC(=O)c4ccc(-c5c6nc(c(-c7ccc(S(=O)(=O)[O-])cc7)c7ccc([nH]7)c(-c7ccc(S(=O)(=O)[O-])cc7)c7nc(c(-c8ccc(S(=O)(=O)[O-])cc8)c8ccc5[nH]8)C=C7)C=C6)cc4)c(C)n3n2)c1
REMARK SMILES IDX 22 1 21 2 19 3 20 4 18 5 17 6 16 7 10 8 11 9 90 10 12 11
REMARK SMILES IDX 89 12 13 13 87 14 14 15 88 16 15 17 9 18 3 19 4 20 91 21
REMARK SMILES IDX 5 22 8 23 2 24 1 25 6 26 7 27 23 28 24 29 25 30 26 31 27 32
REMARK SMILES IDX 28 33 86 34 29 35 85 36 30 37 31 38 32 39 79 40 33 41 84 42
REMARK SMILES IDX 78 43 80 44 34 45 83 46 77 47 76 48 35 50 65 51 46 52 64 53
REMARK SMILES IDX 47 54 50 55 63 56 81 57 48 58 49 59 62 61 82 62 51 63 36 64
REMARK SMILES IDX 37 65 45 66 38 67 44 68 39 69 40 70 41 71 42 72 43 73 66 74
REMARK SMILES IDX 67 75 75 76 68 77 74 78 69 79 70 80 71 81 72 82 73 83 52 84
REMARK SMILES IDX 53 85 61 86 54 87 60 88 55 89 56 90 57 91 58 92 59 93
REMARK H PARENT 80 49 50 60
REMARK Flexibility Score: inf
ROOT
ATOM      1  C   UNL A   1      31.861  30.051  25.675  1.00  0.00     0.274 C 
ENDROOT
BRANCH   1   2
ATOM      2  O   UNL A   1      31.811  28.675  25.221  1.00  0.00    -0.462 OA
BRANCH   2   3
ATOM      3  C   UNL A   1      32.566  28.366  24.134  1.00  0.00     0.306 C 
ATOM      4  O   UNL A   1      33.669  27.830  24.199  1.00  0.00    -0.252 OA
BRANCH   3   5
ATOM      5  C   UNL A   1      31.969  28.811  22.805  1.00  0.00     0.127 C 
BRANCH   5   6
ATOM      6  C   UNL A   1      30.884  27.960  22.113  1.00  0.00     0.051 C 
BRANCH   6   7
ATOM      7  C   UNL A   1      30.866  26.540  22.601  1.00  0.00    -0.005 A 
ATOM      8  C   UNL A   1      32.639  22.707  23.975  1.00  0.00     0.095 A 
ATOM      9  C   UNL A   1      31.531  23.108  24.746  1.00  0.00     0.080 A 
ATOM     10  N   UNL A   1      32.787  23.466  22.890  1.00  0.00    -0.166 NA
ATOM     11  C   UNL A   1      31.029  24.220  24.107  1.00  0.00     0.156 A 
ATOM     12  N   UNL A   1      31.842  24.425  22.992  1.00  0.00    -0.219 N 
ATOM     13  N   UNL A   1      29.971  25.032  24.385  1.00  0.00    -0.234 NA
ATOM     14  C   UNL A   1      31.720  25.571  22.200  1.00  0.00     0.046 A 
ATOM     15  C   UNL A   1      29.871  26.113  23.663  1.00  0.00     0.045 A 
ATOM     16  C   UNL A   1      32.652  25.678  21.027  1.00  0.00     0.067 C 
ATOM     17  C   UNL A   1      28.591  26.910  23.829  1.00  0.00     0.067 C 
BRANCH   8  18
ATOM     18  C   UNL A   1      33.573  21.622  24.189  1.00  0.00     0.009 A 
ATOM     19  C   UNL A   1      33.989  19.294  24.675  1.00  0.00     0.123 A 
ATOM     20  C   UNL A   1      35.322  19.613  24.954  1.00  0.00     0.092 A 
ATOM     21  C   UNL A   1      33.107  20.307  24.303  1.00  0.00     0.057 A 
ATOM     22  C   UNL A   1      35.789  20.927  24.847  1.00  0.00     0.123 A 
ATOM     23  C   UNL A   1      34.912  21.930  24.446  1.00  0.00     0.057 A 
BRANCH  19  24
ATOM     24  O   UNL A   1      33.656  17.979  24.859  1.00  0.00    -0.497 OA
ATOM     25  C   UNL A   1      34.523  17.027  24.255  1.00  0.00     0.278 C 
ENDBRANCH  19  24
BRANCH  22  26
ATOM     26  O   UNL A   1      37.107  21.110  25.165  1.00  0.00    -0.497 OA
ATOM     27  C   UNL A   1      37.488  22.447  25.479  1.00  0.00     0.278 C 
ENDBRANCH  22  26
ENDBRANCH   8  18
ENDBRANCH   6   7
ENDBRANCH   5   6
ENDBRANCH   3   5
ENDBRANCH   2   3
ENDBRANCH   1   2
BRANCH   1  28
ATOM     28  C   UNL A   1      32.591  30.251  27.012  1.00  0.00     0.275 C 
BRANCH  28  29
ATOM     29  O   UNL A   1      34.013  30.062  26.939  1.00  0.00    -0.458 OA
BRANCH  29  30
ATOM     30  C   UNL A   1      34.683  30.955  27.695  1.00  0.00     0.338 C 
ATOM     31  O   UNL A   1      34.733  32.159  27.525  1.00  0.00    -0.246 OA
BRANCH  30  32
ATOM     32  C   UNL A   1      35.673  30.379  28.585  1.00  0.00     0.060 A 
ATOM     33  C   UNL A   1      36.325  31.304  29.421  1.00  0.00     0.016 A 
ATOM     34  C   UNL A   1      36.296  29.232  28.096  1.00  0.00     0.016 A 
ATOM     35  C   UNL A   1      37.680  31.170  29.628  1.00  0.00     0.010 A 
ATOM     36  C   UNL A   1      37.655  29.133  28.264  1.00  0.00     0.010 A 
ATOM     37  C   UNL A   1      38.337  30.119  28.993  1.00  0.00    -0.014 A 
BRANCH  37  38
ATOM     38  C   UNL A   1      39.768  29.968  29.189  1.00  0.00     0.031 A 
ATOM     39  C   UNL A   1      40.162  29.849  30.617  1.00  0.00     0.074 A 
ATOM     40  C   UNL A   1      40.582  29.662  28.164  1.00  0.00     0.049 A 
ATOM     41  N   UNL A   1      41.026  30.533  31.295  1.00  0.00    -0.248 NA
ATOM     42  C   UNL A   1      39.366  28.909  31.431  1.00  0.00     0.031 C 
ATOM     43  C   UNL A   1      40.182  29.364  26.784  1.00  0.00     0.029 A 
ATOM     44  N   UNL A   1      41.904  29.345  28.187  1.00  0.00    -0.354 N 
ATOM     45  C   UNL A   1      40.981  29.996  32.580  1.00  0.00     0.074 A 
ATOM     46  C   UNL A   1      39.798  29.184  32.654  1.00  0.00     0.031 C 
ATOM     47  C   UNL A   1      41.168  28.656  26.194  1.00  0.00     0.029 A 
ATOM     48  C   UNL A   1      42.283  28.540  27.122  1.00  0.00     0.049 A 
ATOM     49  H   UNL A   1      42.527  29.653  28.885  1.00  0.00     0.167 HD
ATOM     50  C   UNL A   1      42.034  30.012  33.439  1.00  0.00     0.031 A 
ATOM     51  C   UNL A   1      43.361  27.719  27.081  1.00  0.00     0.031 A 
ATOM     52  C   UNL A   1      43.060  30.930  33.039  1.00  0.00     0.049 A 
ATOM     53  C   UNL A   1      44.267  28.094  28.197  1.00  0.00     0.074 A 
ATOM     54  C   UNL A   1      43.133  32.295  32.870  1.00  0.00     0.029 A 
ATOM     55  N   UNL A   1      44.157  30.397  32.405  1.00  0.00    -0.354 N 
ATOM     56  N   UNL A   1      44.902  29.229  28.283  1.00  0.00    -0.248 NA
ATOM     57  C   UNL A   1      44.190  27.339  29.441  1.00  0.00     0.031 C 
ATOM     58  C   UNL A   1      44.054  32.494  31.803  1.00  0.00     0.029 A 
ATOM     59  C   UNL A   1      44.495  31.238  31.376  1.00  0.00     0.049 A 
ATOM     60  H   UNL A   1      44.618  29.561  32.646  1.00  0.00     0.167 HD
ATOM     61  C   UNL A   1      44.964  29.514  29.640  1.00  0.00     0.074 A 
ATOM     62  C   UNL A   1      44.628  28.260  30.303  1.00  0.00     0.031 C 
ATOM     63  C   UNL A   1      45.009  30.802  30.092  1.00  0.00     0.031 A 
BRANCH  50  64
ATOM     64  C   UNL A   1      42.273  28.910  34.441  1.00  0.00    -0.014 A 
ATOM     65  C   UNL A   1      42.415  29.231  35.802  1.00  0.00     0.010 A 
ATOM     66  C   UNL A   1      42.603  27.589  34.058  1.00  0.00     0.010 A 
ATOM     67  C   UNL A   1      42.896  28.286  36.721  1.00  0.00     0.020 A 
ATOM     68  C   UNL A   1      43.022  26.625  34.970  1.00  0.00     0.020 A 
ATOM     69  C   UNL A   1      43.207  26.993  36.293  1.00  0.00     0.054 A 
BRANCH  69  70
ATOM     70  S   UNL A   1      43.936  25.811  37.450  1.00  0.00     0.124 S 
ATOM     71  O   UNL A   1      45.336  25.822  37.040  1.00  0.00    -0.237 OA
ATOM     72  O   UNL A   1      43.648  26.419  38.746  1.00  0.00    -0.237 OA
ATOM     73  O   UNL A   1      43.210  24.572  37.175  1.00  0.00    -0.744 OA
ENDBRANCH  69  70
ENDBRANCH  50  64
BRANCH  51  74
ATOM     74  C   UNL A   1      43.467  26.428  26.355  1.00  0.00    -0.014 A 
ATOM     75  C   UNL A   1      44.558  26.157  25.512  1.00  0.00     0.010 A 
ATOM     76  C   UNL A   1      42.598  25.359  26.663  1.00  0.00     0.010 A 
ATOM     77  C   UNL A   1      44.785  24.861  25.019  1.00  0.00     0.020 A 
ATOM     78  C   UNL A   1      42.805  24.071  26.162  1.00  0.00     0.020 A 
ATOM     79  C   UNL A   1      43.911  23.823  25.356  1.00  0.00     0.054 A 
BRANCH  79  80
ATOM     80  S   UNL A   1      44.285  22.126  24.828  1.00  0.00     0.124 S 
ATOM     81  O   UNL A   1      44.487  22.287  23.391  1.00  0.00    -0.237 OA
ATOM     82  O   UNL A   1      45.481  21.811  25.604  1.00  0.00    -0.237 OA
ATOM     83  O   UNL A   1      43.089  21.377  25.207  1.00  0.00    -0.744 OA
ENDBRANCH  79  80
ENDBRANCH  51  74
BRANCH  63  84
ATOM     84  C   UNL A   1      45.318  31.895  29.097  1.00  0.00    -0.014 A 
ATOM     85  C   UNL A   1      46.608  32.439  28.942  1.00  0.00     0.010 A 
ATOM     86  C   UNL A   1      44.323  32.250  28.167  1.00  0.00     0.010 A 
ATOM     87  C   UNL A   1      46.895  33.319  27.892  1.00  0.00     0.020 A 
ATOM     88  C   UNL A   1      44.609  33.113  27.105  1.00  0.00     0.020 A 
ATOM     89  C   UNL A   1      45.894  33.645  26.973  1.00  0.00     0.054 A 
BRANCH  89  90
ATOM     90  S   UNL A   1      46.306  34.695  25.552  1.00  0.00     0.124 S 
ATOM     91  O   UNL A   1      46.119  36.040  26.087  1.00  0.00    -0.237 OA
ATOM     92  O   UNL A   1      47.688  34.320  25.258  1.00  0.00    -0.237 OA
ATOM     93  O   UNL A   1      45.338  34.293  24.531  1.00  0.00    -0.744 OA
ENDBRANCH  89  90
ENDBRANCH  63  84
ENDBRANCH  37  38
ENDBRANCH  30  32
ENDBRANCH  29  30
ENDBRANCH  28  29
ENDBRANCH   1  28
TORSDOF 19
ENDMDL
