MODEL 1
REMARK VINA RESULT:      -8.9      0.000      0.000
REMARK SMILES C[C@H](Oc1cccc(/C=C2/SC(=S)N(c3ccc(Cl)c(Cl)c3)C2=O)c1)C(=O)OCCOC(=O)c1ccc(-c2c3nc(c(-c4ccc(S(=O)(=O)[O-])cc4)c4ccc([nH]4)c(-c4ccc(S(=O)(=O)[O-])cc4)c4nc(c(-c5ccc(S(=O)(=O)[O-])cc5)c5ccc2[nH]5)C=C4)C=C3)cc1
REMARK SMILES IDX 29 1 28 2 26 3 27 4 2 5 1 6 3 7 4 8 5 9 25 10 6 11 8 12 7 13
REMARK SMILES IDX 9 14 10 15 11 16 23 17 12 18 14 19 24 20 13 21 15 22 16 23
REMARK SMILES IDX 22 24 17 25 20 26 18 27 21 28 19 29 30 30 31 31 32 32 33 33
REMARK SMILES IDX 34 34 35 35 93 36 36 37 92 38 37 39 38 40 39 41 86 42 40 43
REMARK SMILES IDX 91 44 85 45 87 46 41 47 90 48 84 49 83 50 42 52 72 53 53 54
REMARK SMILES IDX 71 55 54 56 57 57 70 58 88 59 55 60 56 61 69 63 89 64 58 65
REMARK SMILES IDX 43 66 44 67 52 68 45 69 51 70 46 71 47 72 48 73 49 74 50 75
REMARK SMILES IDX 73 76 74 77 82 78 75 79 81 80 76 81 77 82 78 83 79 84 80 85
REMARK SMILES IDX 59 86 60 87 68 88 61 89 67 90 62 91 63 92 64 93 65 94 66 95
REMARK H PARENT 87 51 57 62
REMARK Flexibility Score: inf
ROOT
ATOM      1  C   UNL A   1      43.258  18.822  25.713  1.00  0.00     0.274 C 
ENDROOT
BRANCH   1   2
ATOM      2  O   UNL A   1      43.491  19.650  24.560  1.00  0.00    -0.459 OA
BRANCH   2   3
ATOM      3  C   UNL A   1      44.727  19.568  23.985  1.00  0.00     0.347 C 
ATOM      4  O   UNL A   1      45.183  18.560  23.457  1.00  0.00    -0.248 OA
BRANCH   3   5
ATOM      5  C   UNL A   1      45.540  20.854  24.175  1.00  0.00     0.279 C 
ATOM      6  C   UNL A   1      45.959  20.878  25.646  1.00  0.00     0.066 C 
BRANCH   5   7
ATOM      7  O   UNL A   1      44.738  21.951  23.744  1.00  0.00    -0.479 OA
BRANCH   7   8
ATOM      8  C   UNL A   1      44.774  23.165  24.356  1.00  0.00     0.121 A 
ATOM      9  C   UNL A   1      43.722  23.824  24.982  1.00  0.00     0.046 A 
ATOM     10  C   UNL A   1      46.022  23.792  24.287  1.00  0.00     0.054 A 
ATOM     11  C   UNL A   1      43.891  25.137  25.436  1.00  0.00     0.004 A 
ATOM     12  C   UNL A   1      46.201  25.113  24.719  1.00  0.00    -0.021 A 
ATOM     13  C   UNL A   1      45.121  25.783  25.295  1.00  0.00     0.008 A 
BRANCH  12  14
ATOM     14  C   UNL A   1      47.507  25.779  24.618  1.00  0.00     0.029 C 
ATOM     15  C   UNL A   1      48.435  25.859  25.585  1.00  0.00     0.081 C 
ATOM     16  S   UNL A   1      49.864  26.803  25.429  1.00  0.00    -0.054 SA
ATOM     17  C   UNL A   1      48.389  25.240  26.942  1.00  0.00     0.270 C 
ATOM     18  C   UNL A   1      50.276  26.633  27.136  1.00  0.00     0.152 C 
ATOM     19  N   UNL A   1      49.328  25.846  27.777  1.00  0.00    -0.261 N 
ATOM     20  O   UNL A   1      47.638  24.318  27.227  1.00  0.00    -0.268 OA
ATOM     21  S   UNL A   1      51.707  27.275  27.727  1.00  0.00    -0.051 S 
BRANCH  19  22
ATOM     22  C   UNL A   1      49.266  25.624  29.192  1.00  0.00     0.052 A 
ATOM     23  C   UNL A   1      48.228  26.164  29.967  1.00  0.00     0.028 A 
ATOM     24  C   UNL A   1      50.299  24.947  29.860  1.00  0.00     0.048 A 
ATOM     25  C   UNL A   1      48.215  26.030  31.359  1.00  0.00     0.024 A 
ATOM     26  C   UNL A   1      50.291  24.812  31.256  1.00  0.00     0.061 A 
ATOM     27  C   UNL A   1      49.248  25.356  32.008  1.00  0.00     0.059 A 
ATOM     28  Cl  UNL A   1      51.622  23.985  31.988  1.00  0.00    -0.083 Cl
ATOM     29  Cl  UNL A   1      49.182  25.245  33.730  1.00  0.00    -0.083 Cl
ENDBRANCH  19  22
ENDBRANCH  12  14
ENDBRANCH   7   8
ENDBRANCH   5   7
ENDBRANCH   3   5
ENDBRANCH   2   3
ENDBRANCH   1   2
BRANCH   1  30
ATOM     30  C   UNL A   1      41.933  19.144  26.408  1.00  0.00     0.275 C 
BRANCH  30  31
ATOM     31  O   UNL A   1      42.084  20.199  27.371  1.00  0.00    -0.458 OA
BRANCH  31  32
ATOM     32  C   UNL A   1      41.539  21.385  27.005  1.00  0.00     0.338 C 
ATOM     33  O   UNL A   1      40.591  21.561  26.260  1.00  0.00    -0.246 OA
BRANCH  32  34
ATOM     34  C   UNL A   1      42.187  22.473  27.755  1.00  0.00     0.060 A 
ATOM     35  C   UNL A   1      43.522  22.304  28.136  1.00  0.00     0.016 A 
ATOM     36  C   UNL A   1      41.474  23.610  28.141  1.00  0.00     0.016 A 
ATOM     37  C   UNL A   1      44.150  23.270  28.919  1.00  0.00     0.010 A 
ATOM     38  C   UNL A   1      42.101  24.573  28.934  1.00  0.00     0.010 A 
ATOM     39  C   UNL A   1      43.437  24.398  29.343  1.00  0.00    -0.014 A 
BRANCH  39  40
ATOM     40  C   UNL A   1      44.054  25.352  30.293  1.00  0.00     0.031 A 
ATOM     41  C   UNL A   1      44.300  26.768  29.858  1.00  0.00     0.074 A 
ATOM     42  C   UNL A   1      44.384  24.954  31.536  1.00  0.00     0.049 A 
ATOM     43  N   UNL A   1      44.899  27.738  30.498  1.00  0.00    -0.248 NA
ATOM     44  C   UNL A   1      43.808  27.140  28.520  1.00  0.00     0.031 C 
ATOM     45  C   UNL A   1      44.146  23.621  32.088  1.00  0.00     0.029 A 
ATOM     46  N   UNL A   1      44.995  25.638  32.555  1.00  0.00    -0.354 N 
ATOM     47  C   UNL A   1      44.875  28.829  29.638  1.00  0.00     0.074 A 
ATOM     48  C   UNL A   1      44.216  28.397  28.424  1.00  0.00     0.031 C 
ATOM     49  C   UNL A   1      44.615  23.580  33.346  1.00  0.00     0.029 A 
ATOM     50  C   UNL A   1      45.220  24.870  33.672  1.00  0.00     0.049 A 
ATOM     51  H   UNL A   1      45.249  26.588  32.493  1.00  0.00     0.167 HD
ATOM     52  C   UNL A   1      45.360  30.078  29.842  1.00  0.00     0.031 A 
ATOM     53  C   UNL A   1      45.866  25.164  34.818  1.00  0.00     0.031 A 
ATOM     54  C   UNL A   1      46.023  30.497  31.048  1.00  0.00     0.049 A 
ATOM     55  C   UNL A   1      46.453  26.538  34.997  1.00  0.00     0.074 A 
ATOM     56  C   UNL A   1      46.547  31.740  31.354  1.00  0.00     0.029 A 
ATOM     57  N   UNL A   1      46.255  29.682  32.146  1.00  0.00    -0.354 N 
ATOM     58  N   UNL A   1      46.424  27.560  34.175  1.00  0.00    -0.248 NA
ATOM     59  C   UNL A   1      47.159  26.800  36.260  1.00  0.00     0.031 C 
ATOM     60  C   UNL A   1      47.138  31.665  32.621  1.00  0.00     0.029 A 
ATOM     61  C   UNL A   1      46.932  30.389  33.125  1.00  0.00     0.049 A 
ATOM     62  H   UNL A   1      45.978  28.741  32.219  1.00  0.00     0.167 HD
ATOM     63  C   UNL A   1      47.087  28.593  34.830  1.00  0.00     0.074 A 
ATOM     64  C   UNL A   1      47.495  28.075  36.120  1.00  0.00     0.031 C 
ATOM     65  C   UNL A   1      47.331  29.857  34.403  1.00  0.00     0.031 A 
BRANCH  52  66
ATOM     66  C   UNL A   1      45.227  31.063  28.711  1.00  0.00    -0.014 A 
ATOM     67  C   UNL A   1      44.114  31.917  28.614  1.00  0.00     0.010 A 
ATOM     68  C   UNL A   1      46.241  31.143  27.739  1.00  0.00     0.010 A 
ATOM     69  C   UNL A   1      43.995  32.803  27.538  1.00  0.00     0.020 A 
ATOM     70  C   UNL A   1      46.138  32.046  26.676  1.00  0.00     0.020 A 
ATOM     71  C   UNL A   1      45.005  32.856  26.572  1.00  0.00     0.054 A 
BRANCH  71  72
ATOM     72  S   UNL A   1      44.829  34.014  25.187  1.00  0.00     0.124 S 
ATOM     73  O   UNL A   1      44.349  33.139  24.122  1.00  0.00    -0.237 OA
ATOM     74  O   UNL A   1      43.855  34.977  25.696  1.00  0.00    -0.237 OA
ATOM     75  O   UNL A   1      46.179  34.540  25.001  1.00  0.00    -0.744 OA
ENDBRANCH  71  72
ENDBRANCH  52  66
BRANCH  53  76
ATOM     76  C   UNL A   1      46.010  24.125  35.872  1.00  0.00    -0.014 A 
ATOM     77  C   UNL A   1      46.971  23.108  35.749  1.00  0.00     0.010 A 
ATOM     78  C   UNL A   1      45.196  24.163  37.020  1.00  0.00     0.010 A 
ATOM     79  C   UNL A   1      47.112  22.143  36.751  1.00  0.00     0.020 A 
ATOM     80  C   UNL A   1      45.351  23.215  38.035  1.00  0.00     0.020 A 
ATOM     81  C   UNL A   1      46.303  22.205  37.890  1.00  0.00     0.054 A 
BRANCH  81  82
ATOM     82  S   UNL A   1      46.548  20.982  39.209  1.00  0.00     0.124 S 
ATOM     83  O   UNL A   1      45.668  21.486  40.257  1.00  0.00    -0.237 OA
ATOM     84  O   UNL A   1      46.124  19.738  38.569  1.00  0.00    -0.237 OA
ATOM     85  O   UNL A   1      47.978  21.069  39.494  1.00  0.00    -0.744 OA
ENDBRANCH  81  82
ENDBRANCH  53  76
BRANCH  65  86
ATOM     86  C   UNL A   1      48.044  30.783  35.353  1.00  0.00    -0.014 A 
ATOM     87  C   UNL A   1      49.439  30.943  35.307  1.00  0.00     0.010 A 
ATOM     88  C   UNL A   1      47.294  31.548  36.264  1.00  0.00     0.010 A 
ATOM     89  C   UNL A   1      50.076  31.836  36.174  1.00  0.00     0.020 A 
ATOM     90  C   UNL A   1      47.923  32.459  37.117  1.00  0.00     0.020 A 
ATOM     91  C   UNL A   1      49.314  32.587  37.074  1.00  0.00     0.054 A 
BRANCH  91  92
ATOM     92  S   UNL A   1      50.155  33.775  38.157  1.00  0.00     0.124 S 
ATOM     93  O   UNL A   1      50.686  32.906  39.205  1.00  0.00    -0.237 OA
ATOM     94  O   UNL A   1      51.152  34.370  37.270  1.00  0.00    -0.237 OA
ATOM     95  O   UNL A   1      49.086  34.677  38.578  1.00  0.00    -0.744 OA
ENDBRANCH  91  92
ENDBRANCH  65  86
ENDBRANCH  39  40
ENDBRANCH  32  34
ENDBRANCH  31  32
ENDBRANCH  30  31
ENDBRANCH   1  30
TORSDOF 18
ENDMDL
MODEL 2
REMARK VINA RESULT:      -8.8      5.207      8.815
REMARK SMILES C[C@H](Oc1cccc(/C=C2/SC(=S)N(c3ccc(Cl)c(Cl)c3)C2=O)c1)C(=O)OCCOC(=O)c1ccc(-c2c3nc(c(-c4ccc(S(=O)(=O)[O-])cc4)c4ccc([nH]4)c(-c4ccc(S(=O)(=O)[O-])cc4)c4nc(c(-c5ccc(S(=O)(=O)[O-])cc5)c5ccc2[nH]5)C=C4)C=C3)cc1
REMARK SMILES IDX 29 1 28 2 26 3 27 4 2 5 1 6 3 7 4 8 5 9 25 10 6 11 8 12 7 13
REMARK SMILES IDX 9 14 10 15 11 16 23 17 12 18 14 19 24 20 13 21 15 22 16 23
REMARK SMILES IDX 22 24 17 25 20 26 18 27 21 28 19 29 30 30 31 31 32 32 33 33
REMARK SMILES IDX 34 34 35 35 93 36 36 37 92 38 37 39 38 40 39 41 86 42 40 43
REMARK SMILES IDX 91 44 85 45 87 46 41 47 90 48 84 49 83 50 42 52 72 53 53 54
REMARK SMILES IDX 71 55 54 56 57 57 70 58 88 59 55 60 56 61 69 63 89 64 58 65
REMARK SMILES IDX 43 66 44 67 52 68 45 69 51 70 46 71 47 72 48 73 49 74 50 75
REMARK SMILES IDX 73 76 74 77 82 78 75 79 81 80 76 81 77 82 78 83 79 84 80 85
REMARK SMILES IDX 59 86 60 87 68 88 61 89 67 90 62 91 63 92 64 93 65 94 66 95
REMARK H PARENT 87 51 57 62
REMARK Flexibility Score: inf
ROOT
ATOM      1  C   UNL A   1      42.077  21.421  26.382  1.00  0.00     0.274 C 
ENDROOT
BRANCH   1   2
ATOM      2  O   UNL A   1      42.764  21.991  25.254  1.00  0.00    -0.459 OA
BRANCH   2   3
ATOM      3  C   UNL A   1      43.957  21.421  24.910  1.00  0.00     0.347 C 
ATOM      4  O   UNL A   1      44.112  20.233  24.653  1.00  0.00    -0.248 OA
BRANCH   3   5
ATOM      5  C   UNL A   1      45.120  22.417  24.996  1.00  0.00     0.279 C 
ATOM      6  C   UNL A   1      45.450  22.558  26.482  1.00  0.00     0.066 C 
BRANCH   5   7
ATOM      7  O   UNL A   1      44.722  23.617  24.336  1.00  0.00    -0.479 OA
BRANCH   7   8
ATOM      8  C   UNL A   1      44.801  24.837  24.932  1.00  0.00     0.121 A 
ATOM      9  C   UNL A   1      43.782  25.771  25.079  1.00  0.00     0.046 A 
ATOM     10  C   UNL A   1      46.082  25.152  25.397  1.00  0.00     0.054 A 
ATOM     11  C   UNL A   1      44.068  27.043  25.587  1.00  0.00     0.004 A 
ATOM     12  C   UNL A   1      46.387  26.428  25.890  1.00  0.00    -0.021 A 
ATOM     13  C   UNL A   1      45.366  27.375  25.981  1.00  0.00     0.008 A 
BRANCH  12  14
ATOM     14  C   UNL A   1      47.741  26.764  26.352  1.00  0.00     0.029 C 
ATOM     15  C   UNL A   1      48.747  27.230  25.594  1.00  0.00     0.081 C 
ATOM     16  S   UNL A   1      50.346  27.437  26.192  1.00  0.00    -0.054 SA
ATOM     17  C   UNL A   1      48.706  27.577  24.144  1.00  0.00     0.270 C 
ATOM     18  C   UNL A   1      51.014  27.710  24.582  1.00  0.00     0.152 C 
ATOM     19  N   UNL A   1      50.001  27.658  23.634  1.00  0.00    -0.261 N 
ATOM     20  O   UNL A   1      47.663  27.780  23.538  1.00  0.00    -0.268 OA
ATOM     21  S   UNL A   1      52.634  28.096  24.396  1.00  0.00    -0.051 S 
BRANCH  19  22
ATOM     22  C   UNL A   1      50.204  27.688  22.214  1.00  0.00     0.052 A 
ATOM     23  C   UNL A   1      49.955  26.558  21.421  1.00  0.00     0.028 A 
ATOM     24  C   UNL A   1      50.757  28.818  21.591  1.00  0.00     0.048 A 
ATOM     25  C   UNL A   1      50.241  26.553  20.052  1.00  0.00     0.024 A 
ATOM     26  C   UNL A   1      51.047  28.817  20.219  1.00  0.00     0.061 A 
ATOM     27  C   UNL A   1      50.791  27.682  19.447  1.00  0.00     0.059 A 
ATOM     28  Cl  UNL A   1      51.752  30.247  19.548  1.00  0.00    -0.083 Cl
ATOM     29  Cl  UNL A   1      51.139  27.602  17.758  1.00  0.00    -0.083 Cl
ENDBRANCH  19  22
ENDBRANCH  12  14
ENDBRANCH   7   8
ENDBRANCH   5   7
ENDBRANCH   3   5
ENDBRANCH   2   3
ENDBRANCH   1   2
BRANCH   1  30
ATOM     30  C   UNL A   1      40.604  21.130  26.086  1.00  0.00     0.275 C 
BRANCH  30  31
ATOM     31  O   UNL A   1      39.733  21.896  26.932  1.00  0.00    -0.458 OA
BRANCH  31  32
ATOM     32  C   UNL A   1      39.026  22.862  26.296  1.00  0.00     0.338 C 
ATOM     33  O   UNL A   1      38.185  22.708  25.428  1.00  0.00    -0.246 OA
BRANCH  32  34
ATOM     34  C   UNL A   1      39.328  24.169  26.902  1.00  0.00     0.060 A 
ATOM     35  C   UNL A   1      40.070  25.086  26.150  1.00  0.00     0.016 A 
ATOM     36  C   UNL A   1      38.950  24.462  28.213  1.00  0.00     0.016 A 
ATOM     37  C   UNL A   1      40.451  26.301  26.714  1.00  0.00     0.010 A 
ATOM     38  C   UNL A   1      39.341  25.677  28.781  1.00  0.00     0.010 A 
ATOM     39  C   UNL A   1      40.109  26.594  28.040  1.00  0.00    -0.014 A 
BRANCH  39  40
ATOM     40  C   UNL A   1      40.636  27.817  28.689  1.00  0.00     0.031 A 
ATOM     41  C   UNL A   1      42.063  27.844  29.158  1.00  0.00     0.074 A 
ATOM     42  C   UNL A   1      39.847  28.894  28.849  1.00  0.00     0.049 A 
ATOM     43  N   UNL A   1      42.700  28.775  29.818  1.00  0.00    -0.248 NA
ATOM     44  C   UNL A   1      42.881  26.660  28.842  1.00  0.00     0.031 C 
ATOM     45  C   UNL A   1      38.462  29.004  28.390  1.00  0.00     0.029 A 
ATOM     46  N   UNL A   1      40.099  30.101  29.451  1.00  0.00    -0.354 N 
ATOM     47  C   UNL A   1      43.985  28.286  30.016  1.00  0.00     0.074 A 
ATOM     48  C   UNL A   1      44.034  26.968  29.420  1.00  0.00     0.031 C 
ATOM     49  C   UNL A   1      37.984  30.212  28.733  1.00  0.00     0.029 A 
ATOM     50  C   UNL A   1      39.013  30.942  29.470  1.00  0.00     0.049 A 
ATOM     51  H   UNL A   1      40.975  30.342  29.831  1.00  0.00     0.167 HD
ATOM     52  C   UNL A   1      45.029  28.882  30.641  1.00  0.00     0.031 A 
ATOM     53  C   UNL A   1      38.856  32.151  30.043  1.00  0.00     0.031 A 
ATOM     54  C   UNL A   1      44.971  30.188  31.241  1.00  0.00     0.049 A 
ATOM     55  C   UNL A   1      40.010  32.766  30.787  1.00  0.00     0.074 A 
ATOM     56  C   UNL A   1      45.974  30.881  31.894  1.00  0.00     0.029 A 
ATOM     57  N   UNL A   1      43.844  30.996  31.263  1.00  0.00    -0.354 N 
ATOM     58  N   UNL A   1      41.221  32.293  30.968  1.00  0.00    -0.248 NA
ATOM     59  C   UNL A   1      39.779  34.081  31.403  1.00  0.00     0.031 C 
ATOM     60  C   UNL A   1      45.441  32.091  32.352  1.00  0.00     0.029 A 
ATOM     61  C   UNL A   1      44.121  32.175  31.936  1.00  0.00     0.049 A 
ATOM     62  H   UNL A   1      42.977  30.768  30.860  1.00  0.00     0.167 HD
ATOM     63  C   UNL A   1      41.902  33.260  31.698  1.00  0.00     0.074 A 
ATOM     64  C   UNL A   1      40.973  34.350  31.916  1.00  0.00     0.031 C 
ATOM     65  C   UNL A   1      43.183  33.249  32.144  1.00  0.00     0.031 A 
BRANCH  52  66
ATOM     66  C   UNL A   1      46.311  28.098  30.741  1.00  0.00    -0.014 A 
ATOM     67  C   UNL A   1      47.307  28.197  29.754  1.00  0.00     0.010 A 
ATOM     68  C   UNL A   1      46.526  27.261  31.851  1.00  0.00     0.010 A 
ATOM     69  C   UNL A   1      48.477  27.436  29.851  1.00  0.00     0.020 A 
ATOM     70  C   UNL A   1      47.705  26.518  31.966  1.00  0.00     0.020 A 
ATOM     71  C   UNL A   1      48.664  26.596  30.954  1.00  0.00     0.054 A 
BRANCH  71  72
ATOM     72  S   UNL A   1      50.190  25.621  31.059  1.00  0.00     0.124 S 
ATOM     73  O   UNL A   1      51.180  26.645  31.382  1.00  0.00    -0.237 OA
ATOM     74  O   UNL A   1      49.894  24.674  32.131  1.00  0.00    -0.237 OA
ATOM     75  O   UNL A   1      50.317  25.030  29.729  1.00  0.00    -0.744 OA
ENDBRANCH  71  72
ENDBRANCH  52  66
BRANCH  53  76
ATOM     76  C   UNL A   1      37.544  32.847  29.952  1.00  0.00    -0.014 A 
ATOM     77  C   UNL A   1      37.222  33.626  28.828  1.00  0.00     0.010 A 
ATOM     78  C   UNL A   1      36.599  32.714  30.987  1.00  0.00     0.010 A 
ATOM     79  C   UNL A   1      35.982  34.265  28.742  1.00  0.00     0.020 A 
ATOM     80  C   UNL A   1      35.349  33.330  30.893  1.00  0.00     0.020 A 
ATOM     81  C   UNL A   1      35.051  34.110  29.774  1.00  0.00     0.054 A 
BRANCH  81  82
ATOM     82  S   UNL A   1      33.422  34.893  29.612  1.00  0.00     0.124 S 
ATOM     83  O   UNL A   1      32.720  33.956  28.741  1.00  0.00    -0.237 OA
ATOM     84  O   UNL A   1      32.955  34.942  30.997  1.00  0.00    -0.237 OA
ATOM     85  O   UNL A   1      33.725  36.194  29.021  1.00  0.00    -0.744 OA
ENDBRANCH  81  82
ENDBRANCH  53  76
BRANCH  65  86
ATOM     86  C   UNL A   1      43.670  34.467  32.883  1.00  0.00    -0.014 A 
ATOM     87  C   UNL A   1      44.135  35.600  32.196  1.00  0.00     0.010 A 
ATOM     88  C   UNL A   1      43.600  34.495  34.288  1.00  0.00     0.010 A 
ATOM     89  C   UNL A   1      44.548  36.733  32.903  1.00  0.00     0.020 A 
ATOM     90  C   UNL A   1      43.989  35.634  34.998  1.00  0.00     0.020 A 
ATOM     91  C   UNL A   1      44.473  36.743  34.299  1.00  0.00     0.054 A 
BRANCH  91  92
ATOM     92  S   UNL A   1      44.968  38.241  35.194  1.00  0.00     0.124 S 
ATOM     93  O   UNL A   1      46.203  37.811  35.846  1.00  0.00    -0.237 OA
ATOM     94  O   UNL A   1      45.134  39.218  34.120  1.00  0.00    -0.237 OA
ATOM     95  O   UNL A   1      43.844  38.496  36.091  1.00  0.00    -0.744 OA
ENDBRANCH  91  92
ENDBRANCH  65  86
ENDBRANCH  39  40
ENDBRANCH  32  34
ENDBRANCH  31  32
ENDBRANCH  30  31
ENDBRANCH   1  30
TORSDOF 18
ENDMDL
MODEL 3
REMARK VINA RESULT:      -8.4      6.154      7.300
REMARK SMILES C[C@H](Oc1cccc(/C=C2/SC(=S)N(c3ccc(Cl)c(Cl)c3)C2=O)c1)C(=O)OCCOC(=O)c1ccc(-c2c3nc(c(-c4ccc(S(=O)(=O)[O-])cc4)c4ccc([nH]4)c(-c4ccc(S(=O)(=O)[O-])cc4)c4nc(c(-c5ccc(S(=O)(=O)[O-])cc5)c5ccc2[nH]5)C=C4)C=C3)cc1
REMARK SMILES IDX 29 1 28 2 26 3 27 4 2 5 1 6 3 7 4 8 5 9 25 10 6 11 8 12 7 13
REMARK SMILES IDX 9 14 10 15 11 16 23 17 12 18 14 19 24 20 13 21 15 22 16 23
REMARK SMILES IDX 22 24 17 25 20 26 18 27 21 28 19 29 30 30 31 31 32 32 33 33
REMARK SMILES IDX 34 34 35 35 93 36 36 37 92 38 37 39 38 40 39 41 86 42 40 43
REMARK SMILES IDX 91 44 85 45 87 46 41 47 90 48 84 49 83 50 42 52 72 53 53 54
REMARK SMILES IDX 71 55 54 56 57 57 70 58 88 59 55 60 56 61 69 63 89 64 58 65
REMARK SMILES IDX 43 66 44 67 52 68 45 69 51 70 46 71 47 72 48 73 49 74 50 75
REMARK SMILES IDX 73 76 74 77 82 78 75 79 81 80 76 81 77 82 78 83 79 84 80 85
REMARK SMILES IDX 59 86 60 87 68 88 61 89 67 90 62 91 63 92 64 93 65 94 66 95
REMARK H PARENT 87 51 57 62
REMARK Flexibility Score: inf
ROOT
ATOM      1  C   UNL A   1      42.039  21.966  26.775  1.00  0.00     0.274 C 
ENDROOT
BRANCH   1   2
ATOM      2  O   UNL A   1      42.649  21.979  25.472  1.00  0.00    -0.459 OA
BRANCH   2   3
ATOM      3  C   UNL A   1      43.533  20.974  25.198  1.00  0.00     0.347 C 
ATOM      4  O   UNL A   1      43.230  19.791  25.091  1.00  0.00    -0.248 OA
BRANCH   3   5
ATOM      5  C   UNL A   1      44.982  21.475  25.154  1.00  0.00     0.279 C 
ATOM      6  C   UNL A   1      45.865  20.230  25.250  1.00  0.00     0.066 C 
BRANCH   5   7
ATOM      7  O   UNL A   1      45.150  22.431  26.198  1.00  0.00    -0.479 OA
BRANCH   7   8
ATOM      8  C   UNL A   1      45.992  23.493  26.085  1.00  0.00     0.121 A 
ATOM      9  C   UNL A   1      46.449  24.084  24.913  1.00  0.00     0.046 A 
ATOM     10  C   UNL A   1      46.447  23.983  27.314  1.00  0.00     0.054 A 
ATOM     11  C   UNL A   1      47.431  25.080  24.970  1.00  0.00     0.004 A 
ATOM     12  C   UNL A   1      47.443  24.965  27.386  1.00  0.00    -0.021 A 
ATOM     13  C   UNL A   1      47.934  25.511  26.200  1.00  0.00     0.008 A 
BRANCH  12  14
ATOM     14  C   UNL A   1      47.939  25.456  28.679  1.00  0.00     0.029 C 
ATOM     15  C   UNL A   1      47.532  26.565  29.317  1.00  0.00     0.081 C 
ATOM     16  S   UNL A   1      48.290  27.149  30.746  1.00  0.00    -0.054 SA
ATOM     17  C   UNL A   1      46.449  27.505  28.904  1.00  0.00     0.270 C 
ATOM     18  C   UNL A   1      47.429  28.688  30.687  1.00  0.00     0.152 C 
ATOM     19  N   UNL A   1      46.572  28.711  29.594  1.00  0.00    -0.261 N 
ATOM     20  O   UNL A   1      45.582  27.206  28.094  1.00  0.00    -0.268 OA
ATOM     21  S   UNL A   1      47.622  29.811  31.916  1.00  0.00    -0.051 S 
BRANCH  19  22
ATOM     22  C   UNL A   1      45.832  29.858  29.155  1.00  0.00     0.052 A 
ATOM     23  C   UNL A   1      46.371  30.758  28.223  1.00  0.00     0.028 A 
ATOM     24  C   UNL A   1      44.587  30.170  29.723  1.00  0.00     0.048 A 
ATOM     25  C   UNL A   1      45.692  31.926  27.864  1.00  0.00     0.024 A 
ATOM     26  C   UNL A   1      43.903  31.342  29.367  1.00  0.00     0.061 A 
ATOM     27  C   UNL A   1      44.458  32.223  28.437  1.00  0.00     0.059 A 
ATOM     28  Cl  UNL A   1      42.388  31.653  30.142  1.00  0.00    -0.083 Cl
ATOM     29  Cl  UNL A   1      43.683  33.693  27.966  1.00  0.00    -0.083 Cl
ENDBRANCH  19  22
ENDBRANCH  12  14
ENDBRANCH   7   8
ENDBRANCH   5   7
ENDBRANCH   3   5
ENDBRANCH   2   3
ENDBRANCH   1   2
BRANCH   1  30
ATOM     30  C   UNL A   1      41.956  23.362  27.397  1.00  0.00     0.275 C 
BRANCH  30  31
ATOM     31  O   UNL A   1      40.832  24.100  26.893  1.00  0.00    -0.458 OA
BRANCH  31  32
ATOM     32  C   UNL A   1      41.117  25.359  26.482  1.00  0.00     0.338 C 
ATOM     33  O   UNL A   1      41.451  25.710  25.363  1.00  0.00    -0.246 OA
BRANCH  32  34
ATOM     34  C   UNL A   1      40.836  26.306  27.573  1.00  0.00     0.060 A 
ATOM     35  C   UNL A   1      41.719  27.375  27.758  1.00  0.00     0.016 A 
ATOM     36  C   UNL A   1      39.764  26.107  28.445  1.00  0.00     0.016 A 
ATOM     37  C   UNL A   1      41.541  28.247  28.829  1.00  0.00     0.010 A 
ATOM     38  C   UNL A   1      39.592  26.977  29.524  1.00  0.00     0.010 A 
ATOM     39  C   UNL A   1      40.491  28.039  29.732  1.00  0.00    -0.014 A 
BRANCH  39  40
ATOM     40  C   UNL A   1      40.386  28.874  30.951  1.00  0.00     0.031 A 
ATOM     41  C   UNL A   1      39.366  29.976  31.001  1.00  0.00     0.074 A 
ATOM     42  C   UNL A   1      41.190  28.643  32.005  1.00  0.00     0.049 A 
ATOM     43  N   UNL A   1      39.161  30.872  31.931  1.00  0.00    -0.248 NA
ATOM     44  C   UNL A   1      38.458  30.085  29.846  1.00  0.00     0.031 C 
ATOM     45  C   UNL A   1      42.182  27.571  32.092  1.00  0.00     0.029 A 
ATOM     46  N   UNL A   1      41.301  29.303  33.201  1.00  0.00    -0.354 N 
ATOM     47  C   UNL A   1      38.116  31.663  31.469  1.00  0.00     0.074 A 
ATOM     48  C   UNL A   1      37.740  31.152  30.168  1.00  0.00     0.031 C 
ATOM     49  C   UNL A   1      42.807  27.651  33.279  1.00  0.00     0.029 A 
ATOM     50  C   UNL A   1      42.288  28.802  34.015  1.00  0.00     0.049 A 
ATOM     51  H   UNL A   1      40.728  30.063  33.454  1.00  0.00     0.167 HD
ATOM     52  C   UNL A   1      37.526  32.722  32.074  1.00  0.00     0.031 A 
ATOM     53  C   UNL A   1      42.743  29.240  35.205  1.00  0.00     0.031 A 
ATOM     54  C   UNL A   1      37.911  33.231  33.363  1.00  0.00     0.049 A 
ATOM     55  C   UNL A   1      42.115  30.456  35.829  1.00  0.00     0.074 A 
ATOM     56  C   UNL A   1      37.374  34.296  34.064  1.00  0.00     0.029 A 
ATOM     57  N   UNL A   1      38.934  32.713  34.143  1.00  0.00    -0.354 N 
ATOM     58  N   UNL A   1      41.128  31.196  35.381  1.00  0.00    -0.248 NA
ATOM     59  C   UNL A   1      42.660  30.897  37.122  1.00  0.00     0.031 C 
ATOM     60  C   UNL A   1      38.102  34.451  35.248  1.00  0.00     0.029 A 
ATOM     61  C   UNL A   1      39.058  33.448  35.310  1.00  0.00     0.049 A 
ATOM     62  H   UNL A   1      39.490  31.938  33.903  1.00  0.00     0.167 HD
ATOM     63  C   UNL A   1      40.919  32.175  36.346  1.00  0.00     0.074 A 
ATOM     64  C   UNL A   1      41.874  31.926  37.407  1.00  0.00     0.031 C 
ATOM     65  C   UNL A   1      40.014  33.186  36.355  1.00  0.00     0.031 A 
BRANCH  52  66
ATOM     66  C   UNL A   1      36.427  33.423  31.320  1.00  0.00    -0.014 A 
ATOM     67  C   UNL A   1      35.199  33.727  31.932  1.00  0.00     0.010 A 
ATOM     68  C   UNL A   1      36.636  33.796  29.979  1.00  0.00     0.010 A 
ATOM     69  C   UNL A   1      34.181  34.351  31.204  1.00  0.00     0.020 A 
ATOM     70  C   UNL A   1      35.630  34.443  29.255  1.00  0.00     0.020 A 
ATOM     71  C   UNL A   1      34.401  34.698  29.867  1.00  0.00     0.054 A 
BRANCH  71  72
ATOM     72  S   UNL A   1      33.066  35.508  28.944  1.00  0.00     0.124 S 
ATOM     73  O   UNL A   1      32.525  34.399  28.163  1.00  0.00    -0.237 OA
ATOM     74  O   UNL A   1      32.198  36.009  30.007  1.00  0.00    -0.237 OA
ATOM     75  O   UNL A   1      33.755  36.539  28.171  1.00  0.00    -0.744 OA
ENDBRANCH  71  72
ENDBRANCH  52  66
BRANCH  53  76
ATOM     76  C   UNL A   1      43.870  28.532  35.870  1.00  0.00    -0.014 A 
ATOM     77  C   UNL A   1      43.626  27.457  36.743  1.00  0.00     0.010 A 
ATOM     78  C   UNL A   1      45.199  28.919  35.615  1.00  0.00     0.010 A 
ATOM     79  C   UNL A   1      44.690  26.786  37.353  1.00  0.00     0.020 A 
ATOM     80  C   UNL A   1      46.266  28.235  36.204  1.00  0.00     0.020 A 
ATOM     81  C   UNL A   1      46.004  27.177  37.077  1.00  0.00     0.054 A 
BRANCH  81  82
ATOM     82  S   UNL A   1      47.372  26.250  37.827  1.00  0.00     0.124 S 
ATOM     83  O   UNL A   1      46.979  24.869  37.572  1.00  0.00    -0.237 OA
ATOM     84  O   UNL A   1      48.530  26.729  37.074  1.00  0.00    -0.237 OA
ATOM     85  O   UNL A   1      47.337  26.664  39.228  1.00  0.00    -0.744 OA
ENDBRANCH  81  82
ENDBRANCH  53  76
BRANCH  65  86
ATOM     86  C   UNL A   1      39.988  34.081  37.566  1.00  0.00    -0.014 A 
ATOM     87  C   UNL A   1      40.647  35.322  37.570  1.00  0.00     0.010 A 
ATOM     88  C   UNL A   1      39.240  33.695  38.692  1.00  0.00     0.010 A 
ATOM     89  C   UNL A   1      40.579  36.152  38.692  1.00  0.00     0.020 A 
ATOM     90  C   UNL A   1      39.149  34.533  39.808  1.00  0.00     0.020 A 
ATOM     91  C   UNL A   1      39.831  35.752  39.805  1.00  0.00     0.054 A 
BRANCH  91  92
ATOM     92  S   UNL A   1      39.716  36.866  41.231  1.00  0.00     0.124 S 
ATOM     93  O   UNL A   1      39.012  38.014  40.664  1.00  0.00    -0.237 OA
ATOM     94  O   UNL A   1      38.953  36.077  42.196  1.00  0.00    -0.237 OA
ATOM     95  O   UNL A   1      41.110  37.107  41.596  1.00  0.00    -0.744 OA
ENDBRANCH  91  92
ENDBRANCH  65  86
ENDBRANCH  39  40
ENDBRANCH  32  34
ENDBRANCH  31  32
ENDBRANCH  30  31
ENDBRANCH   1  30
TORSDOF 18
ENDMDL
