MODEL 1
REMARK VINA RESULT:     -13.6      0.000      0.000
REMARK SMILES Cc1ccc(-c2cc(C(=O)OCCOC(=O)c3ccc(-c4c5nc(c(-c6ccc(S(=O)(=O)[O-])cc6)c6ccc([nH]6)c(-c6ccc(S(=O)(=O)[O-])cc6)c6nc(c(-c7ccc(S(=O)(=O)[O-])cc7)c7ccc4[nH]7)C=C6)C=C5)cc3)c3c(-c4cccc([N+](=O)[O-])c4)[nH]nc3n2)cc1
REMARK SMILES IDX 13 1 12 2 11 3 9 4 10 5 8 6 6 7 7 8 91 9 90 10 77 11 89 12
REMARK SMILES IDX 78 13 88 14 5 16 1 17 2 18 3 19 93 20 4 21 92 22 79 23 80 24
REMARK SMILES IDX 87 25 81 26 83 27 82 28 84 29 85 30 86 31 14 32 15 33 16 34
REMARK SMILES IDX 17 35 18 36 76 37 19 38 75 39 20 40 21 41 22 42 69 43 23 44
REMARK SMILES IDX 74 45 68 46 70 47 24 48 73 49 67 50 66 51 25 53 55 54 36 55
REMARK SMILES IDX 54 56 37 57 40 58 53 59 71 60 38 61 39 62 52 64 72 65 41 66
REMARK SMILES IDX 26 67 27 68 35 69 28 70 34 71 29 72 30 73 31 74 32 75 33 76
REMARK SMILES IDX 56 77 57 78 65 79 58 80 64 81 59 82 60 83 61 84 62 85 63 86
REMARK SMILES IDX 42 87 43 88 51 89 44 90 50 91 45 92 46 93 47 94 48 95 49 96
REMARK H PARENT 88 15 70 52 40 63
REMARK Flexibility Score: inf
ROOT
ATOM      1  C   UNL A   1      34.735  29.424  26.986  1.00  0.00     0.275 C 
ENDROOT
BRANCH   1   2
ATOM      2  C   UNL A   1      33.267  28.916  26.999  1.00  0.00     0.275 C 
BRANCH   2   3
ATOM      3  O   UNL A   1      33.184  27.473  27.116  1.00  0.00    -0.458 OA
BRANCH   3   4
ATOM      4  C   UNL A   1      32.428  26.787  26.193  1.00  0.00     0.339 C 
ATOM      5  O   UNL A   1      31.752  25.801  26.447  1.00  0.00    -0.246 OA
BRANCH   4   6
ATOM      6  C   UNL A   1      32.834  27.154  24.787  1.00  0.00     0.075 A 
ATOM      7  C   UNL A   1      34.199  25.321  23.878  1.00  0.00     0.074 A 
ATOM      8  C   UNL A   1      34.053  26.427  24.728  1.00  0.00     0.045 A 
ATOM      9  N   UNL A   1      33.481  25.078  22.773  1.00  0.00    -0.226 NA
ATOM     10  C   UNL A   1      32.508  25.987  22.565  1.00  0.00     0.182 A 
ATOM     11  C   UNL A   1      32.087  27.008  23.539  1.00  0.00     0.061 A 
ATOM     12  N   UNL A   1      31.846  26.039  21.421  1.00  0.00    -0.154 NA
ATOM     13  C   UNL A   1      31.021  27.666  22.842  1.00  0.00     0.076 A 
ATOM     14  N   UNL A   1      31.092  27.105  21.571  1.00  0.00    -0.275 N 
ATOM     15  H   UNL A   1      30.596  27.492  20.813  1.00  0.00     0.190 HD
BRANCH   7  16
ATOM     16  C   UNL A   1      35.071  24.235  24.322  1.00  0.00     0.000 A 
ATOM     17  C   UNL A   1      38.215  21.516  25.443  1.00  0.00     0.044 C 
ATOM     18  C   UNL A   1      37.072  22.418  25.090  1.00  0.00    -0.051 A 
ATOM     19  C   UNL A   1      36.588  22.434  23.775  1.00  0.00     0.004 A 
ATOM     20  C   UNL A   1      36.509  23.276  26.039  1.00  0.00     0.004 A 
ATOM     21  C   UNL A   1      35.592  23.332  23.396  1.00  0.00     0.010 A 
ATOM     22  C   UNL A   1      35.513  24.178  25.658  1.00  0.00     0.010 A 
ENDBRANCH   7  16
BRANCH  13  23
ATOM     23  C   UNL A   1      29.883  28.656  22.850  1.00  0.00     0.007 A 
ATOM     24  C   UNL A   1      28.621  28.102  23.242  1.00  0.00     0.011 A 
ATOM     25  C   UNL A   1      29.818  29.924  22.237  1.00  0.00     0.096 A 
ATOM     26  C   UNL A   1      27.390  28.765  23.104  1.00  0.00     0.008 A 
ATOM     27  C   UNL A   1      28.565  30.625  22.152  1.00  0.00     0.270 A 
ATOM     28  C   UNL A   1      27.362  30.048  22.589  1.00  0.00     0.085 A 
BRANCH  27  29
ATOM     29  N   UNL A   1      28.461  31.975  21.554  1.00  0.00     0.062 N 
ATOM     30  O   UNL A   1      28.285  32.937  22.326  1.00  0.00    -0.258 OA
ATOM     31  O   UNL A   1      28.360  32.048  20.319  1.00  0.00    -0.258 OA
ENDBRANCH  27  29
ENDBRANCH  13  23
ENDBRANCH   4   6
ENDBRANCH   3   4
ENDBRANCH   2   3
ENDBRANCH   1   2
BRANCH   1  32
ATOM     32  O   UNL A   1      35.360  29.830  28.229  1.00  0.00    -0.458 OA
BRANCH  32  33
ATOM     33  C   UNL A   1      36.574  30.427  28.158  1.00  0.00     0.338 C 
ATOM     34  O   UNL A   1      36.715  31.635  28.366  1.00  0.00    -0.246 OA
BRANCH  33  35
ATOM     35  C   UNL A   1      37.650  29.404  28.173  1.00  0.00     0.060 A 
ATOM     36  C   UNL A   1      38.629  29.452  27.176  1.00  0.00     0.016 A 
ATOM     37  C   UNL A   1      37.835  28.613  29.304  1.00  0.00     0.016 A 
ATOM     38  C   UNL A   1      39.869  28.873  27.369  1.00  0.00     0.010 A 
ATOM     39  C   UNL A   1      39.064  28.051  29.521  1.00  0.00     0.010 A 
ATOM     40  C   UNL A   1      40.070  28.200  28.561  1.00  0.00    -0.014 A 
BRANCH  40  41
ATOM     41  C   UNL A   1      41.296  27.491  28.834  1.00  0.00     0.031 A 
ATOM     42  C   UNL A   1      41.271  26.025  28.646  1.00  0.00     0.074 A 
ATOM     43  C   UNL A   1      42.297  28.328  29.193  1.00  0.00     0.049 A 
ATOM     44  N   UNL A   1      41.885  25.163  29.376  1.00  0.00    -0.248 NA
ATOM     45  C   UNL A   1      40.418  25.369  27.638  1.00  0.00     0.031 C 
ATOM     46  C   UNL A   1      43.709  28.110  29.414  1.00  0.00     0.029 A 
ATOM     47  N   UNL A   1      42.124  29.651  29.644  1.00  0.00    -0.354 N 
ATOM     48  C   UNL A   1      41.944  24.013  28.604  1.00  0.00     0.074 A 
ATOM     49  C   UNL A   1      40.826  24.095  27.706  1.00  0.00     0.031 C 
ATOM     50  C   UNL A   1      44.148  29.031  30.299  1.00  0.00     0.029 A 
ATOM     51  C   UNL A   1      42.994  29.811  30.722  1.00  0.00     0.049 A 
ATOM     52  H   UNL A   1      41.512  30.326  29.273  1.00  0.00     0.167 HD
ATOM     53  C   UNL A   1      43.122  23.325  28.556  1.00  0.00     0.031 A 
ATOM     54  C   UNL A   1      42.504  29.904  31.996  1.00  0.00     0.031 A 
ATOM     55  C   UNL A   1      44.085  23.972  29.445  1.00  0.00     0.049 A 
ATOM     56  C   UNL A   1      42.890  28.644  32.761  1.00  0.00     0.074 A 
ATOM     57  C   UNL A   1      45.111  24.866  29.187  1.00  0.00     0.029 A 
ATOM     58  N   UNL A   1      43.783  24.092  30.795  1.00  0.00    -0.354 N 
ATOM     59  N   UNL A   1      43.040  27.457  32.226  1.00  0.00    -0.248 NA
ATOM     60  C   UNL A   1      43.301  28.680  34.160  1.00  0.00     0.031 C 
ATOM     61  C   UNL A   1      45.374  25.578  30.387  1.00  0.00     0.029 A 
ATOM     62  C   UNL A   1      44.470  25.157  31.346  1.00  0.00     0.049 A 
ATOM     63  H   UNL A   1      43.167  23.503  31.288  1.00  0.00     0.167 HD
ATOM     64  C   UNL A   1      43.747  26.655  33.099  1.00  0.00     0.074 A 
ATOM     65  C   UNL A   1      43.826  27.452  34.315  1.00  0.00     0.031 C 
ATOM     66  C   UNL A   1      44.322  25.455  32.762  1.00  0.00     0.031 A 
BRANCH  53  67
ATOM     67  C   UNL A   1      43.535  22.376  27.448  1.00  0.00    -0.014 A 
ATOM     68  C   UNL A   1      44.792  22.564  26.832  1.00  0.00     0.010 A 
ATOM     69  C   UNL A   1      42.761  21.305  26.958  1.00  0.00     0.010 A 
ATOM     70  C   UNL A   1      45.237  21.781  25.761  1.00  0.00     0.020 A 
ATOM     71  C   UNL A   1      43.193  20.511  25.874  1.00  0.00     0.020 A 
ATOM     72  C   UNL A   1      44.431  20.757  25.281  1.00  0.00     0.054 A 
BRANCH  72  73
ATOM     73  S   UNL A   1      45.052  19.746  23.910  1.00  0.00     0.124 S 
ATOM     74  O   UNL A   1      44.363  18.475  24.117  1.00  0.00    -0.237 OA
ATOM     75  O   UNL A   1      44.624  20.507  22.739  1.00  0.00    -0.237 OA
ATOM     76  O   UNL A   1      46.496  19.709  24.131  1.00  0.00    -0.744 OA
ENDBRANCH  72  73
ENDBRANCH  53  67
BRANCH  54  77
ATOM     77  C   UNL A   1      41.216  30.679  32.069  1.00  0.00    -0.014 A 
ATOM     78  C   UNL A   1      40.015  29.940  32.261  1.00  0.00     0.010 A 
ATOM     79  C   UNL A   1      41.208  32.019  32.448  1.00  0.00     0.010 A 
ATOM     80  C   UNL A   1      38.929  30.451  32.993  1.00  0.00     0.020 A 
ATOM     81  C   UNL A   1      40.116  32.510  33.189  1.00  0.00     0.020 A 
ATOM     82  C   UNL A   1      39.019  31.719  33.524  1.00  0.00     0.054 A 
BRANCH  82  83
ATOM     83  S   UNL A   1      37.772  32.256  34.739  1.00  0.00     0.124 S 
ATOM     84  O   UNL A   1      38.258  33.562  35.153  1.00  0.00    -0.237 OA
ATOM     85  O   UNL A   1      36.544  32.253  33.955  1.00  0.00    -0.237 OA
ATOM     86  O   UNL A   1      37.853  31.231  35.770  1.00  0.00    -0.744 OA
ENDBRANCH  82  83
ENDBRANCH  54  77
BRANCH  66  87
ATOM     87  C   UNL A   1      44.958  24.437  33.694  1.00  0.00    -0.014 A 
ATOM     88  C   UNL A   1      46.271  24.495  34.165  1.00  0.00     0.010 A 
ATOM     89  C   UNL A   1      44.136  23.408  34.236  1.00  0.00     0.010 A 
ATOM     90  C   UNL A   1      46.756  23.541  35.071  1.00  0.00     0.020 A 
ATOM     91  C   UNL A   1      44.583  22.499  35.191  1.00  0.00     0.020 A 
ATOM     92  C   UNL A   1      45.909  22.553  35.579  1.00  0.00     0.054 A 
BRANCH  92  93
ATOM     93  S   UNL A   1      46.545  21.368  36.781  1.00  0.00     0.124 S 
ATOM     94  O   UNL A   1      45.938  21.848  38.020  1.00  0.00    -0.237 OA
ATOM     95  O   UNL A   1      46.029  20.097  36.280  1.00  0.00    -0.237 OA
ATOM     96  O   UNL A   1      47.995  21.524  36.692  1.00  0.00    -0.744 OA
ENDBRANCH  92  93
ENDBRANCH  66  87
ENDBRANCH  40  41
ENDBRANCH  33  35
ENDBRANCH  32  33
ENDBRANCH   1  32
TORSDOF 17
ENDMDL
MODEL 2
REMARK VINA RESULT:     -13.5      1.645      4.967
REMARK SMILES Cc1ccc(-c2cc(C(=O)OCCOC(=O)c3ccc(-c4c5nc(c(-c6ccc(S(=O)(=O)[O-])cc6)c6ccc([nH]6)c(-c6ccc(S(=O)(=O)[O-])cc6)c6nc(c(-c7ccc(S(=O)(=O)[O-])cc7)c7ccc4[nH]7)C=C6)C=C5)cc3)c3c(-c4cccc([N+](=O)[O-])c4)[nH]nc3n2)cc1
REMARK SMILES IDX 13 1 12 2 11 3 9 4 10 5 8 6 6 7 7 8 91 9 90 10 77 11 89 12
REMARK SMILES IDX 78 13 88 14 5 16 1 17 2 18 3 19 93 20 4 21 92 22 79 23 80 24
REMARK SMILES IDX 87 25 81 26 83 27 82 28 84 29 85 30 86 31 14 32 15 33 16 34
REMARK SMILES IDX 17 35 18 36 76 37 19 38 75 39 20 40 21 41 22 42 69 43 23 44
REMARK SMILES IDX 74 45 68 46 70 47 24 48 73 49 67 50 66 51 25 53 55 54 36 55
REMARK SMILES IDX 54 56 37 57 40 58 53 59 71 60 38 61 39 62 52 64 72 65 41 66
REMARK SMILES IDX 26 67 27 68 35 69 28 70 34 71 29 72 30 73 31 74 32 75 33 76
REMARK SMILES IDX 56 77 57 78 65 79 58 80 64 81 59 82 60 83 61 84 62 85 63 86
REMARK SMILES IDX 42 87 43 88 51 89 44 90 50 91 45 92 46 93 47 94 48 95 49 96
REMARK H PARENT 88 15 70 52 40 63
REMARK Flexibility Score: inf
ROOT
ATOM      1  C   UNL A   1      34.680  29.605  27.344  1.00  0.00     0.275 C 
ENDROOT
BRANCH   1   2
ATOM      2  C   UNL A   1      34.392  28.236  26.668  1.00  0.00     0.275 C 
BRANCH   2   3
ATOM      3  O   UNL A   1      33.608  28.375  25.455  1.00  0.00    -0.458 OA
BRANCH   3   4
ATOM      4  C   UNL A   1      33.642  27.350  24.537  1.00  0.00     0.339 C 
ATOM      5  O   UNL A   1      34.150  27.431  23.428  1.00  0.00    -0.246 OA
BRANCH   4   6
ATOM      6  C   UNL A   1      32.658  26.268  24.903  1.00  0.00     0.075 A 
ATOM      7  C   UNL A   1      30.466  26.875  23.967  1.00  0.00     0.074 A 
ATOM      8  C   UNL A   1      31.478  27.060  24.920  1.00  0.00     0.045 A 
ATOM      9  N   UNL A   1      30.241  25.757  23.263  1.00  0.00    -0.226 NA
ATOM     10  C   UNL A   1      31.153  24.793  23.498  1.00  0.00     0.182 A 
ATOM     11  C   UNL A   1      32.406  24.984  24.249  1.00  0.00     0.061 A 
ATOM     12  N   UNL A   1      30.975  23.555  23.069  1.00  0.00    -0.154 NA
ATOM     13  C   UNL A   1      33.004  23.685  24.170  1.00  0.00     0.076 A 
ATOM     14  N   UNL A   1      31.999  22.917  23.591  1.00  0.00    -0.275 N 
ATOM     15  H   UNL A   1      32.051  21.934  23.575  1.00  0.00     0.190 HD
BRANCH   7  16
ATOM     16  C   UNL A   1      29.700  28.051  23.556  1.00  0.00     0.000 A 
ATOM     17  C   UNL A   1      27.277  31.580  23.094  1.00  0.00     0.044 C 
ATOM     18  C   UNL A   1      28.146  30.362  23.185  1.00  0.00    -0.051 A 
ATOM     19  C   UNL A   1      27.559  29.091  23.133  1.00  0.00     0.004 A 
ATOM     20  C   UNL A   1      29.528  30.473  23.364  1.00  0.00     0.004 A 
ATOM     21  C   UNL A   1      28.330  27.945  23.313  1.00  0.00     0.010 A 
ATOM     22  C   UNL A   1      30.301  29.325  23.547  1.00  0.00     0.010 A 
ENDBRANCH   7  16
BRANCH  13  23
ATOM     23  C   UNL A   1      34.193  22.787  24.412  1.00  0.00     0.007 A 
ATOM     24  C   UNL A   1      33.864  21.399  24.553  1.00  0.00     0.011 A 
ATOM     25  C   UNL A   1      35.491  23.142  24.829  1.00  0.00     0.096 A 
ATOM     26  C   UNL A   1      34.761  20.418  25.009  1.00  0.00     0.008 A 
ATOM     27  C   UNL A   1      36.426  22.128  25.238  1.00  0.00     0.270 A 
ATOM     28  C   UNL A   1      36.060  20.774  25.320  1.00  0.00     0.085 A 
BRANCH  27  29
ATOM     29  N   UNL A   1      37.812  22.455  25.642  1.00  0.00     0.062 N 
ATOM     30  O   UNL A   1      38.588  21.506  25.862  1.00  0.00    -0.258 OA
ATOM     31  O   UNL A   1      38.061  23.637  25.926  1.00  0.00    -0.258 OA
ENDBRANCH  27  29
ENDBRANCH  13  23
ENDBRANCH   4   6
ENDBRANCH   3   4
ENDBRANCH   2   3
ENDBRANCH   1   2
BRANCH   1  32
ATOM     32  O   UNL A   1      35.978  30.224  27.174  1.00  0.00    -0.458 OA
BRANCH  32  33
ATOM     33  C   UNL A   1      36.755  30.371  28.274  1.00  0.00     0.338 C 
ATOM     34  O   UNL A   1      36.402  31.067  29.228  1.00  0.00    -0.246 OA
BRANCH  33  35
ATOM     35  C   UNL A   1      37.820  29.335  28.292  1.00  0.00     0.060 A 
ATOM     36  C   UNL A   1      38.785  29.354  27.281  1.00  0.00     0.016 A 
ATOM     37  C   UNL A   1      38.009  28.559  29.432  1.00  0.00     0.016 A 
ATOM     38  C   UNL A   1      40.021  28.763  27.467  1.00  0.00     0.010 A 
ATOM     39  C   UNL A   1      39.234  27.986  29.643  1.00  0.00     0.010 A 
ATOM     40  C   UNL A   1      40.229  28.106  28.668  1.00  0.00    -0.014 A 
BRANCH  40  41
ATOM     41  C   UNL A   1      41.449  27.387  28.936  1.00  0.00     0.031 A 
ATOM     42  C   UNL A   1      41.447  25.939  28.636  1.00  0.00     0.074 A 
ATOM     43  C   UNL A   1      42.427  28.200  29.399  1.00  0.00     0.049 A 
ATOM     44  N   UNL A   1      42.039  25.027  29.322  1.00  0.00    -0.248 NA
ATOM     45  C   UNL A   1      40.642  25.357  27.546  1.00  0.00     0.031 C 
ATOM     46  C   UNL A   1      43.831  27.975  29.661  1.00  0.00     0.029 A 
ATOM     47  N   UNL A   1      42.223  29.484  29.943  1.00  0.00    -0.354 N 
ATOM     48  C   UNL A   1      42.140  23.941  28.468  1.00  0.00     0.074 A 
ATOM     49  C   UNL A   1      41.059  24.084  27.534  1.00  0.00     0.031 C 
ATOM     50  C   UNL A   1      44.224  28.827  30.632  1.00  0.00     0.029 A 
ATOM     51  C   UNL A   1      43.046  29.566  31.065  1.00  0.00     0.049 A 
ATOM     52  H   UNL A   1      41.620  30.181  29.600  1.00  0.00     0.167 HD
ATOM     53  C   UNL A   1      43.325  23.267  28.416  1.00  0.00     0.031 A 
ATOM     54  C   UNL A   1      42.504  29.558  32.321  1.00  0.00     0.031 A 
ATOM     55  C   UNL A   1      44.245  23.850  29.391  1.00  0.00     0.049 A 
ATOM     56  C   UNL A   1      42.871  28.245  33.003  1.00  0.00     0.074 A 
ATOM     57  C   UNL A   1      45.272  24.767  29.245  1.00  0.00     0.029 A 
ATOM     58  N   UNL A   1      43.887  23.864  30.732  1.00  0.00    -0.354 N 
ATOM     59  N   UNL A   1      43.054  27.104  32.385  1.00  0.00    -0.248 NA
ATOM     60  C   UNL A   1      43.224  28.176  34.416  1.00  0.00     0.031 C 
ATOM     61  C   UNL A   1      45.479  25.387  30.506  1.00  0.00     0.029 A 
ATOM     62  C   UNL A   1      44.541  24.887  31.392  1.00  0.00     0.049 A 
ATOM     63  H   UNL A   1      43.257  23.234  31.154  1.00  0.00     0.167 HD
ATOM     64  C   UNL A   1      43.733  26.241  33.222  1.00  0.00     0.074 A 
ATOM     65  C   UNL A   1      43.754  26.943  34.498  1.00  0.00     0.031 C 
ATOM     66  C   UNL A   1      44.332  25.075  32.819  1.00  0.00     0.031 A 
BRANCH  53  67
ATOM     67  C   UNL A   1      43.792  22.407  27.257  1.00  0.00    -0.014 A 
ATOM     68  C   UNL A   1      42.969  21.340  26.834  1.00  0.00     0.010 A 
ATOM     69  C   UNL A   1      45.002  22.570  26.553  1.00  0.00     0.010 A 
ATOM     70  C   UNL A   1      43.338  20.454  25.816  1.00  0.00     0.020 A 
ATOM     71  C   UNL A   1      45.392  21.680  25.529  1.00  0.00     0.020 A 
ATOM     72  C   UNL A   1      44.555  20.625  25.169  1.00  0.00     0.054 A 
BRANCH  72  73
ATOM     73  S   UNL A   1      44.989  19.473  23.838  1.00  0.00     0.124 S 
ATOM     74  O   UNL A   1      44.530  20.180  22.645  1.00  0.00    -0.237 OA
ATOM     75  O   UNL A   1      46.438  19.359  23.980  1.00  0.00    -0.237 OA
ATOM     76  O   UNL A   1      44.238  18.262  24.166  1.00  0.00    -0.744 OA
ENDBRANCH  72  73
ENDBRANCH  53  67
BRANCH  54  77
ATOM     77  C   UNL A   1      41.207  30.316  32.400  1.00  0.00    -0.014 A 
ATOM     78  C   UNL A   1      40.039  29.586  32.760  1.00  0.00     0.010 A 
ATOM     79  C   UNL A   1      41.194  31.690  32.626  1.00  0.00     0.010 A 
ATOM     80  C   UNL A   1      38.996  30.160  33.506  1.00  0.00     0.020 A 
ATOM     81  C   UNL A   1      40.146  32.245  33.383  1.00  0.00     0.020 A 
ATOM     82  C   UNL A   1      39.094  31.481  33.884  1.00  0.00     0.054 A 
BRANCH  82  83
ATOM     83  S   UNL A   1      37.923  32.133  35.118  1.00  0.00     0.124 S 
ATOM     84  O   UNL A   1      37.855  31.064  36.102  1.00  0.00    -0.237 OA
ATOM     85  O   UNL A   1      38.574  33.361  35.557  1.00  0.00    -0.237 OA
ATOM     86  O   UNL A   1      36.701  32.318  34.349  1.00  0.00    -0.744 OA
ENDBRANCH  82  83
ENDBRANCH  54  77
BRANCH  66  87
ATOM     87  C   UNL A   1      44.939  23.992  33.696  1.00  0.00    -0.014 A 
ATOM     88  C   UNL A   1      46.202  24.056  34.286  1.00  0.00     0.010 A 
ATOM     89  C   UNL A   1      44.130  22.877  34.055  1.00  0.00     0.010 A 
ATOM     90  C   UNL A   1      46.659  23.034  35.131  1.00  0.00     0.020 A 
ATOM     91  C   UNL A   1      44.541  21.893  34.949  1.00  0.00     0.020 A 
ATOM     92  C   UNL A   1      45.825  21.962  35.458  1.00  0.00     0.054 A 
BRANCH  92  93
ATOM     93  S   UNL A   1      46.418  20.685  36.585  1.00  0.00     0.124 S 
ATOM     94  O   UNL A   1      47.859  20.925  36.573  1.00  0.00    -0.237 OA
ATOM     95  O   UNL A   1      45.736  21.021  37.833  1.00  0.00    -0.237 OA
ATOM     96  O   UNL A   1      45.984  19.439  35.961  1.00  0.00    -0.744 OA
ENDBRANCH  92  93
ENDBRANCH  66  87
ENDBRANCH  40  41
ENDBRANCH  33  35
ENDBRANCH  32  33
ENDBRANCH   1  32
TORSDOF 17
ENDMDL
MODEL 3
REMARK VINA RESULT:     -13.4      4.443     10.835
REMARK SMILES Cc1ccc(-c2cc(C(=O)OCCOC(=O)c3ccc(-c4c5nc(c(-c6ccc(S(=O)(=O)[O-])cc6)c6ccc([nH]6)c(-c6ccc(S(=O)(=O)[O-])cc6)c6nc(c(-c7ccc(S(=O)(=O)[O-])cc7)c7ccc4[nH]7)C=C6)C=C5)cc3)c3c(-c4cccc([N+](=O)[O-])c4)[nH]nc3n2)cc1
REMARK SMILES IDX 13 1 12 2 11 3 9 4 10 5 8 6 6 7 7 8 91 9 90 10 77 11 89 12
REMARK SMILES IDX 78 13 88 14 5 16 1 17 2 18 3 19 93 20 4 21 92 22 79 23 80 24
REMARK SMILES IDX 87 25 81 26 83 27 82 28 84 29 85 30 86 31 14 32 15 33 16 34
REMARK SMILES IDX 17 35 18 36 76 37 19 38 75 39 20 40 21 41 22 42 69 43 23 44
REMARK SMILES IDX 74 45 68 46 70 47 24 48 73 49 67 50 66 51 25 53 55 54 36 55
REMARK SMILES IDX 54 56 37 57 40 58 53 59 71 60 38 61 39 62 52 64 72 65 41 66
REMARK SMILES IDX 26 67 27 68 35 69 28 70 34 71 29 72 30 73 31 74 32 75 33 76
REMARK SMILES IDX 56 77 57 78 65 79 58 80 64 81 59 82 60 83 61 84 62 85 63 86
REMARK SMILES IDX 42 87 43 88 51 89 44 90 50 91 45 92 46 93 47 94 48 95 49 96
REMARK H PARENT 88 15 70 52 40 63
REMARK Flexibility Score: inf
ROOT
ATOM      1  C   UNL A   1      37.160  21.105  25.287  1.00  0.00     0.275 C 
ENDROOT
BRANCH   1   2
ATOM      2  C   UNL A   1      36.216  22.082  26.040  1.00  0.00     0.275 C 
BRANCH   2   3
ATOM      3  O   UNL A   1      35.178  21.387  26.778  1.00  0.00    -0.458 OA
BRANCH   3   4
ATOM      4  C   UNL A   1      34.124  22.123  27.269  1.00  0.00     0.339 C 
ATOM      5  O   UNL A   1      34.115  22.675  28.359  1.00  0.00    -0.246 OA
BRANCH   4   6
ATOM      6  C   UNL A   1      32.865  21.846  26.487  1.00  0.00     0.075 A 
ATOM      7  C   UNL A   1      32.108  23.957  25.475  1.00  0.00     0.074 A 
ATOM      8  C   UNL A   1      32.267  23.130  26.597  1.00  0.00     0.045 A 
ATOM      9  N   UNL A   1      32.058  23.551  24.199  1.00  0.00    -0.226 NA
ATOM     10  C   UNL A   1      32.254  22.224  24.059  1.00  0.00     0.182 A 
ATOM     11  C   UNL A   1      32.712  21.323  25.130  1.00  0.00     0.061 A 
ATOM     12  N   UNL A   1      32.023  21.611  22.910  1.00  0.00    -0.154 NA
ATOM     13  C   UNL A   1      32.785  20.064  24.450  1.00  0.00     0.076 A 
ATOM     14  N   UNL A   1      32.213  20.346  23.214  1.00  0.00    -0.275 N 
ATOM     15  H   UNL A   1      31.958  19.627  22.592  1.00  0.00     0.190 HD
BRANCH   7  16
ATOM     16  C   UNL A   1      32.194  25.401  25.681  1.00  0.00     0.000 A 
ATOM     17  C   UNL A   1      32.705  29.471  26.989  1.00  0.00     0.044 C 
ATOM     18  C   UNL A   1      32.521  28.080  26.463  1.00  0.00    -0.051 A 
ATOM     19  C   UNL A   1      31.312  27.410  26.696  1.00  0.00     0.004 A 
ATOM     20  C   UNL A   1      33.549  27.424  25.782  1.00  0.00     0.004 A 
ATOM     21  C   UNL A   1      31.149  26.083  26.304  1.00  0.00     0.010 A 
ATOM     22  C   UNL A   1      33.387  26.092  25.391  1.00  0.00     0.010 A 
ENDBRANCH   7  16
BRANCH  13  23
ATOM     23  C   UNL A   1      33.190  18.610  24.453  1.00  0.00     0.007 A 
ATOM     24  C   UNL A   1      33.937  18.204  23.299  1.00  0.00     0.011 A 
ATOM     25  C   UNL A   1      32.680  17.557  25.239  1.00  0.00     0.096 A 
ATOM     26  C   UNL A   1      34.219  16.866  22.971  1.00  0.00     0.008 A 
ATOM     27  C   UNL A   1      33.021  16.193  24.936  1.00  0.00     0.270 A 
ATOM     28  C   UNL A   1      33.791  15.855  23.811  1.00  0.00     0.085 A 
BRANCH  27  29
ATOM     29  N   UNL A   1      32.540  15.062  25.761  1.00  0.00     0.062 N 
ATOM     30  O   UNL A   1      31.722  15.315  26.665  1.00  0.00    -0.258 OA
ATOM     31  O   UNL A   1      33.120  13.973  25.633  1.00  0.00    -0.258 OA
ENDBRANCH  27  29
ENDBRANCH  13  23
ENDBRANCH   4   6
ENDBRANCH   3   4
ENDBRANCH   2   3
ENDBRANCH   1   2
BRANCH   1  32
ATOM     32  O   UNL A   1      38.545  21.473  25.077  1.00  0.00    -0.458 OA
BRANCH  32  33
ATOM     33  C   UNL A   1      39.455  21.050  25.988  1.00  0.00     0.338 C 
ATOM     34  O   UNL A   1      40.034  19.968  25.870  1.00  0.00    -0.246 OA
BRANCH  33  35
ATOM     35  C   UNL A   1      39.877  22.181  26.853  1.00  0.00     0.060 A 
ATOM     36  C   UNL A   1      40.745  21.917  27.917  1.00  0.00     0.016 A 
ATOM     37  C   UNL A   1      39.647  23.490  26.440  1.00  0.00     0.016 A 
ATOM     38  C   UNL A   1      41.531  22.917  28.457  1.00  0.00     0.010 A 
ATOM     39  C   UNL A   1      40.433  24.490  26.948  1.00  0.00     0.010 A 
ATOM     40  C   UNL A   1      41.374  24.190  27.938  1.00  0.00    -0.014 A 
BRANCH  40  41
ATOM     41  C   UNL A   1      42.084  25.322  28.479  1.00  0.00     0.031 A 
ATOM     42  C   UNL A   1      41.278  26.517  28.807  1.00  0.00     0.074 A 
ATOM     43  C   UNL A   1      43.406  25.070  28.628  1.00  0.00     0.049 A 
ATOM     44  N   UNL A   1      41.646  27.739  28.654  1.00  0.00    -0.248 NA
ATOM     45  C   UNL A   1      39.874  26.428  29.252  1.00  0.00     0.031 C 
ATOM     46  C   UNL A   1      44.471  25.822  29.252  1.00  0.00     0.029 A 
ATOM     47  N   UNL A   1      44.108  24.028  27.991  1.00  0.00    -0.354 N 
ATOM     48  C   UNL A   1      40.801  28.476  29.469  1.00  0.00     0.074 A 
ATOM     49  C   UNL A   1      39.600  27.697  29.583  1.00  0.00     0.031 C 
ATOM     50  C   UNL A   1      45.633  25.495  28.646  1.00  0.00     0.029 A 
ATOM     51  C   UNL A   1      45.315  24.577  27.561  1.00  0.00     0.049 A 
ATOM     52  H   UNL A   1      43.806  23.099  27.874  1.00  0.00     0.167 HD
ATOM     53  C   UNL A   1      41.345  29.457  30.247  1.00  0.00     0.031 A 
ATOM     54  C   UNL A   1      45.540  24.791  26.229  1.00  0.00     0.031 A 
ATOM     55  C   UNL A   1      42.776  29.548  29.962  1.00  0.00     0.049 A 
ATOM     56  C   UNL A   1      45.558  26.294  25.972  1.00  0.00     0.074 A 
ATOM     57  C   UNL A   1      43.876  29.031  30.626  1.00  0.00     0.029 A 
ATOM     58  N   UNL A   1      43.190  29.831  28.667  1.00  0.00    -0.354 N 
ATOM     59  N   UNL A   1      44.868  27.180  26.648  1.00  0.00    -0.248 NA
ATOM     60  C   UNL A   1      46.496  26.910  25.041  1.00  0.00     0.031 C 
ATOM     61  C   UNL A   1      44.941  28.939  29.691  1.00  0.00     0.029 A 
ATOM     62  C   UNL A   1      44.466  29.343  28.455  1.00  0.00     0.049 A 
ATOM     63  H   UNL A   1      42.652  30.310  27.996  1.00  0.00     0.167 HD
ATOM     64  C   UNL A   1      45.399  28.434  26.420  1.00  0.00     0.074 A 
ATOM     65  C   UNL A   1      46.371  28.211  25.360  1.00  0.00     0.031 C 
ATOM     66  C   UNL A   1      45.112  29.548  27.168  1.00  0.00     0.031 A 
BRANCH  53  67
ATOM     67  C   UNL A   1      40.721  30.020  31.509  1.00  0.00    -0.014 A 
ATOM     68  C   UNL A   1      40.867  29.296  32.714  1.00  0.00     0.010 A 
ATOM     69  C   UNL A   1      39.983  31.217  31.593  1.00  0.00     0.010 A 
ATOM     70  C   UNL A   1      40.277  29.700  33.917  1.00  0.00     0.020 A 
ATOM     71  C   UNL A   1      39.376  31.633  32.798  1.00  0.00     0.020 A 
ATOM     72  C   UNL A   1      39.527  30.868  33.953  1.00  0.00     0.054 A 
BRANCH  72  73
ATOM     73  S   UNL A   1      38.799  31.372  35.535  1.00  0.00     0.124 S 
ATOM     74  O   UNL A   1      38.836  30.135  36.310  1.00  0.00    -0.237 OA
ATOM     75  O   UNL A   1      39.713  32.420  35.982  1.00  0.00    -0.237 OA
ATOM     76  O   UNL A   1      37.460  31.834  35.171  1.00  0.00    -0.744 OA
ENDBRANCH  72  73
ENDBRANCH  53  67
BRANCH  54  77
ATOM     77  C   UNL A   1      44.965  23.706  25.360  1.00  0.00    -0.014 A 
ATOM     78  C   UNL A   1      45.874  22.942  24.575  1.00  0.00     0.010 A 
ATOM     79  C   UNL A   1      43.737  23.123  25.662  1.00  0.00     0.010 A 
ATOM     80  C   UNL A   1      45.658  21.583  24.288  1.00  0.00     0.020 A 
ATOM     81  C   UNL A   1      43.543  21.758  25.376  1.00  0.00     0.020 A 
ATOM     82  C   UNL A   1      44.518  20.973  24.763  1.00  0.00     0.054 A 
BRANCH  82  83
ATOM     83  S   UNL A   1      44.392  19.157  24.685  1.00  0.00     0.124 S 
ATOM     84  O   UNL A   1      45.351  18.720  25.688  1.00  0.00    -0.237 OA
ATOM     85  O   UNL A   1      42.989  18.922  25.001  1.00  0.00    -0.237 OA
ATOM     86  O   UNL A   1      44.780  18.859  23.314  1.00  0.00    -0.744 OA
ENDBRANCH  82  83
ENDBRANCH  54  77
BRANCH  66  87
ATOM     87  C   UNL A   1      45.509  30.986  26.880  1.00  0.00    -0.014 A 
ATOM     88  C   UNL A   1      44.625  32.001  26.510  1.00  0.00     0.010 A 
ATOM     89  C   UNL A   1      46.858  31.377  27.117  1.00  0.00     0.010 A 
ATOM     90  C   UNL A   1      45.074  33.316  26.321  1.00  0.00     0.020 A 
ATOM     91  C   UNL A   1      47.301  32.692  27.005  1.00  0.00     0.020 A 
ATOM     92  C   UNL A   1      46.406  33.653  26.572  1.00  0.00     0.054 A 
BRANCH  92  93
ATOM     93  S   UNL A   1      46.945  35.361  26.368  1.00  0.00     0.124 S 
ATOM     94  O   UNL A   1      45.678  36.045  26.120  1.00  0.00    -0.237 OA
ATOM     95  O   UNL A   1      47.575  35.652  27.654  1.00  0.00    -0.237 OA
ATOM     96  O   UNL A   1      47.861  35.306  25.232  1.00  0.00    -0.744 OA
ENDBRANCH  92  93
ENDBRANCH  66  87
ENDBRANCH  40  41
ENDBRANCH  33  35
ENDBRANCH  32  33
ENDBRANCH   1  32
TORSDOF 17
ENDMDL
