MODEL 1
REMARK VINA RESULT:     -10.2      0.000      0.000
REMARK SMILES C[NH2+][C@@]1(C(=O)OCCOC(=O)c2ccc(-c3c4nc(c(-c5ccc(S(=O)(=O)[O-])cc5)c5ccc([nH]5)c(-c5ccc(S(=O)(=O)[O-])cc5)c5nc(c(-c6ccc(S(=O)(=O)[O-])cc6)c6ccc3[nH]6)C=C5)C=C4)cc2)CC[C@H]([NH+]2CC[NH+](C)CC2)C1
REMARK SMILES IDX 8 1 7 2 6 3 4 4 5 5 3 6 72 7 82 8 73 9 74 10 2 11 1 12 75 15
REMARK SMILES IDX 76 16 81 17 77 19 80 20 78 21 79 22 9 24 10 25 11 26 12 27
REMARK SMILES IDX 13 28 71 29 14 30 70 31 15 32 16 33 17 34 64 35 18 36 69 37
REMARK SMILES IDX 63 38 65 39 19 40 68 41 62 42 61 43 20 45 50 46 31 47 49 48
REMARK SMILES IDX 32 49 35 50 48 51 66 52 33 53 34 54 47 56 67 57 36 58 21 59
REMARK SMILES IDX 22 60 30 61 23 62 29 63 24 64 25 65 26 66 27 67 28 68 51 69
REMARK SMILES IDX 52 70 60 71 53 72 59 73 54 74 55 75 56 76 57 77 58 78 37 79
REMARK SMILES IDX 38 80 46 81 39 82 45 83 40 84 41 85 42 86 43 87 44 88
REMARK H PARENT 2 13 2 14 75 18 78 23 65 44 35 55
REMARK Flexibility Score: inf
ROOT
ATOM      1  C   UNL A   1      32.533  30.182  27.218  1.00  0.00     0.275 C 
ENDROOT
BRANCH   1   2
ATOM      2  C   UNL A   1      31.781  28.996  26.615  1.00  0.00     0.274 C 
BRANCH   2   3
ATOM      3  O   UNL A   1      32.313  28.720  25.305  1.00  0.00    -0.457 OA
BRANCH   3   4
ATOM      4  C   UNL A   1      31.430  28.837  24.272  1.00  0.00     0.368 C 
ATOM      5  O   UNL A   1      30.586  29.725  24.211  1.00  0.00    -0.245 OA
BRANCH   4   6
ATOM      6  C   UNL A   1      31.652  27.724  23.182  1.00  0.00     0.200 C 
ATOM      7  C   UNL A   1      30.270  27.170  22.795  1.00  0.00     0.087 C 
ATOM      8  C   UNL A   1      32.349  26.486  23.783  1.00  0.00     0.146 C 
ATOM      9  C   UNL A   1      29.902  26.322  24.010  1.00  0.00     0.072 C 
ATOM     10  C   UNL A   1      31.218  25.623  24.396  1.00  0.00     0.191 C 
BRANCH   6  11
ATOM     11  N   UNL A   1      32.420  28.354  22.089  1.00  0.00    -0.334 N 
ATOM     12  C   UNL A   1      33.869  28.229  22.131  1.00  0.00     0.331 C 
ATOM     13  H   UNL A   1      32.103  27.939  21.212  1.00  0.00     0.347 HD
ATOM     14  H   UNL A   1      32.241  29.353  22.184  1.00  0.00     0.347 HD
ENDBRANCH   6  11
BRANCH  10  15
ATOM     15  N   UNL A   1      31.424  25.153  25.769  1.00  0.00    -0.323 N 
ATOM     16  C   UNL A   1      32.827  24.852  26.105  1.00  0.00     0.324 C 
ATOM     17  C   UNL A   1      30.575  24.066  26.273  1.00  0.00     0.324 C 
ATOM     18  H   UNL A   1      31.112  25.991  26.261  1.00  0.00     0.348 HD
ATOM     19  C   UNL A   1      33.314  23.426  25.743  1.00  0.00     0.324 C 
ATOM     20  C   UNL A   1      31.005  22.648  25.854  1.00  0.00     0.324 C 
ATOM     21  N   UNL A   1      32.409  22.342  26.172  1.00  0.00    -0.328 N 
ATOM     22  C   UNL A   1      32.795  21.077  25.546  1.00  0.00     0.333 C 
ATOM     23  H   UNL A   1      32.493  22.257  27.185  1.00  0.00     0.348 HD
ENDBRANCH  10  15
ENDBRANCH   4   6
ENDBRANCH   3   4
ENDBRANCH   2   3
ENDBRANCH   1   2
BRANCH   1  24
ATOM     24  O   UNL A   1      33.830  29.718  27.621  1.00  0.00    -0.458 OA
BRANCH  24  25
ATOM     25  C   UNL A   1      34.604  30.656  28.212  1.00  0.00     0.338 C 
ATOM     26  O   UNL A   1      34.261  31.709  28.716  1.00  0.00    -0.246 OA
BRANCH  25  27
ATOM     27  C   UNL A   1      35.951  30.096  28.345  1.00  0.00     0.060 A 
ATOM     28  C   UNL A   1      36.343  29.635  29.602  1.00  0.00     0.016 A 
ATOM     29  C   UNL A   1      36.849  30.133  27.285  1.00  0.00     0.016 A 
ATOM     30  C   UNL A   1      37.674  29.316  29.838  1.00  0.00     0.010 A 
ATOM     31  C   UNL A   1      38.160  29.703  27.499  1.00  0.00     0.010 A 
ATOM     32  C   UNL A   1      38.597  29.327  28.785  1.00  0.00    -0.014 A 
BRANCH  32  33
ATOM     33  C   UNL A   1      40.027  28.990  29.022  1.00  0.00     0.031 A 
ATOM     34  C   UNL A   1      40.953  30.038  29.577  1.00  0.00     0.074 A 
ATOM     35  C   UNL A   1      40.501  27.764  28.730  1.00  0.00     0.049 A 
ATOM     36  N   UNL A   1      42.261  30.058  29.598  1.00  0.00    -0.248 NA
ATOM     37  C   UNL A   1      40.324  31.234  30.165  1.00  0.00     0.031 C 
ATOM     38  C   UNL A   1      39.707  26.631  28.248  1.00  0.00     0.029 A 
ATOM     39  N   UNL A   1      41.779  27.263  28.795  1.00  0.00    -0.354 N 
ATOM     40  C   UNL A   1      42.611  31.298  30.120  1.00  0.00     0.074 A 
ATOM     41  C   UNL A   1      41.379  31.995  30.422  1.00  0.00     0.031 C 
ATOM     42  C   UNL A   1      40.506  25.563  28.096  1.00  0.00     0.029 A 
ATOM     43  C   UNL A   1      41.881  25.960  28.372  1.00  0.00     0.049 A 
ATOM     44  H   UNL A   1      42.547  27.789  29.116  1.00  0.00     0.167 HD
ATOM     45  C   UNL A   1      43.850  31.812  30.310  1.00  0.00     0.031 A 
ATOM     46  C   UNL A   1      42.962  25.182  28.173  1.00  0.00     0.031 A 
ATOM     47  C   UNL A   1      45.065  31.084  30.056  1.00  0.00     0.049 A 
ATOM     48  C   UNL A   1      44.326  25.767  28.396  1.00  0.00     0.074 A 
ATOM     49  C   UNL A   1      46.374  31.509  30.206  1.00  0.00     0.029 A 
ATOM     50  N   UNL A   1      45.118  29.766  29.628  1.00  0.00    -0.354 N 
ATOM     51  N   UNL A   1      44.647  26.977  28.787  1.00  0.00    -0.248 NA
ATOM     52  C   UNL A   1      45.474  24.891  28.126  1.00  0.00     0.031 C 
ATOM     53  C   UNL A   1      47.219  30.451  29.845  1.00  0.00     0.029 A 
ATOM     54  C   UNL A   1      46.435  29.359  29.509  1.00  0.00     0.049 A 
ATOM     55  H   UNL A   1      44.334  29.203  29.436  1.00  0.00     0.167 HD
ATOM     56  C   UNL A   1      46.035  27.010  28.807  1.00  0.00     0.074 A 
ATOM     57  C   UNL A   1      46.491  25.691  28.415  1.00  0.00     0.031 C 
ATOM     58  C   UNL A   1      46.859  28.042  29.111  1.00  0.00     0.031 A 
BRANCH  45  59
ATOM     59  C   UNL A   1      43.947  33.244  30.762  1.00  0.00    -0.014 A 
ATOM     60  C   UNL A   1      43.999  34.308  29.844  1.00  0.00     0.010 A 
ATOM     61  C   UNL A   1      43.969  33.528  32.141  1.00  0.00     0.010 A 
ATOM     62  C   UNL A   1      44.114  35.626  30.297  1.00  0.00     0.020 A 
ATOM     63  C   UNL A   1      44.060  34.845  32.597  1.00  0.00     0.020 A 
ATOM     64  C   UNL A   1      44.153  35.886  31.671  1.00  0.00     0.054 A 
BRANCH  64  65
ATOM     65  S   UNL A   1      44.294  37.604  32.238  1.00  0.00     0.124 S 
ATOM     66  O   UNL A   1      43.388  37.617  33.383  1.00  0.00    -0.237 OA
ATOM     67  O   UNL A   1      45.713  37.724  32.560  1.00  0.00    -0.237 OA
ATOM     68  O   UNL A   1      43.853  38.385  31.085  1.00  0.00    -0.744 OA
ENDBRANCH  64  65
ENDBRANCH  45  59
BRANCH  46  69
ATOM     69  C   UNL A   1      42.786  23.791  27.679  1.00  0.00    -0.014 A 
ATOM     70  C   UNL A   1      42.530  22.742  28.578  1.00  0.00     0.010 A 
ATOM     71  C   UNL A   1      42.820  23.518  26.299  1.00  0.00     0.010 A 
ATOM     72  C   UNL A   1      42.305  21.445  28.105  1.00  0.00     0.020 A 
ATOM     73  C   UNL A   1      42.569  22.229  25.821  1.00  0.00     0.020 A 
ATOM     74  C   UNL A   1      42.320  21.198  26.728  1.00  0.00     0.054 A 
BRANCH  74  75
ATOM     75  S   UNL A   1      41.932  19.531  26.125  1.00  0.00     0.124 S 
ATOM     76  O   UNL A   1      42.315  18.700  27.263  1.00  0.00    -0.237 OA
ATOM     77  O   UNL A   1      40.499  19.611  25.854  1.00  0.00    -0.237 OA
ATOM     78  O   UNL A   1      42.774  19.397  24.938  1.00  0.00    -0.744 OA
ENDBRANCH  74  75
ENDBRANCH  46  69
BRANCH  58  79
ATOM     79  C   UNL A   1      48.335  27.772  29.049  1.00  0.00    -0.014 A 
ATOM     80  C   UNL A   1      49.030  27.306  30.178  1.00  0.00     0.010 A 
ATOM     81  C   UNL A   1      49.024  27.951  27.836  1.00  0.00     0.010 A 
ATOM     82  C   UNL A   1      50.402  27.052  30.104  1.00  0.00     0.020 A 
ATOM     83  C   UNL A   1      50.391  27.681  27.754  1.00  0.00     0.020 A 
ATOM     84  C   UNL A   1      51.074  27.247  28.893  1.00  0.00     0.054 A 
BRANCH  84  85
ATOM     85  S   UNL A   1      52.848  26.880  28.806  1.00  0.00     0.124 S 
ATOM     86  O   UNL A   1      53.093  26.260  30.106  1.00  0.00    -0.237 OA
ATOM     87  O   UNL A   1      52.939  25.984  27.656  1.00  0.00    -0.237 OA
ATOM     88  O   UNL A   1      53.462  28.193  28.615  1.00  0.00    -0.744 OA
ENDBRANCH  84  85
ENDBRANCH  58  79
ENDBRANCH  32  33
ENDBRANCH  25  27
ENDBRANCH  24  25
ENDBRANCH   1  24
TORSDOF 16
ENDMDL
MODEL 2
REMARK VINA RESULT:     -10.0      0.999      2.482
REMARK SMILES C[NH2+][C@@]1(C(=O)OCCOC(=O)c2ccc(-c3c4nc(c(-c5ccc(S(=O)(=O)[O-])cc5)c5ccc([nH]5)c(-c5ccc(S(=O)(=O)[O-])cc5)c5nc(c(-c6ccc(S(=O)(=O)[O-])cc6)c6ccc3[nH]6)C=C5)C=C4)cc2)CC[C@H]([NH+]2CC[NH+](C)CC2)C1
REMARK SMILES IDX 8 1 7 2 6 3 4 4 5 5 3 6 72 7 82 8 73 9 74 10 2 11 1 12 75 15
REMARK SMILES IDX 76 16 81 17 77 19 80 20 78 21 79 22 9 24 10 25 11 26 12 27
REMARK SMILES IDX 13 28 71 29 14 30 70 31 15 32 16 33 17 34 64 35 18 36 69 37
REMARK SMILES IDX 63 38 65 39 19 40 68 41 62 42 61 43 20 45 50 46 31 47 49 48
REMARK SMILES IDX 32 49 35 50 48 51 66 52 33 53 34 54 47 56 67 57 36 58 21 59
REMARK SMILES IDX 22 60 30 61 23 62 29 63 24 64 25 65 26 66 27 67 28 68 51 69
REMARK SMILES IDX 52 70 60 71 53 72 59 73 54 74 55 75 56 76 57 77 58 78 37 79
REMARK SMILES IDX 38 80 46 81 39 82 45 83 40 84 41 85 42 86 43 87 44 88
REMARK H PARENT 2 13 2 14 75 18 78 23 65 44 35 55
REMARK Flexibility Score: inf
ROOT
ATOM      1  C   UNL A   1      32.372  28.650  27.562  1.00  0.00     0.275 C 
ENDROOT
BRANCH   1   2
ATOM      2  C   UNL A   1      31.965  27.795  26.363  1.00  0.00     0.274 C 
BRANCH   2   3
ATOM      3  O   UNL A   1      31.423  26.548  26.838  1.00  0.00    -0.457 OA
BRANCH   3   4
ATOM      4  C   UNL A   1      30.739  25.812  25.915  1.00  0.00     0.368 C 
ATOM      5  O   UNL A   1      30.196  26.307  24.934  1.00  0.00    -0.245 OA
BRANCH   4   6
ATOM      6  C   UNL A   1      30.766  24.275  26.256  1.00  0.00     0.200 C 
ATOM      7  C   UNL A   1      32.001  24.016  27.135  1.00  0.00     0.087 C 
ATOM      8  C   UNL A   1      31.067  23.430  25.002  1.00  0.00     0.146 C 
ATOM      9  C   UNL A   1      33.147  24.113  26.131  1.00  0.00     0.072 C 
ATOM     10  C   UNL A   1      32.612  23.402  24.876  1.00  0.00     0.191 C 
BRANCH   6  11
ATOM     11  N   UNL A   1      29.461  23.960  26.874  1.00  0.00    -0.334 N 
ATOM     12  C   UNL A   1      29.225  22.580  27.268  1.00  0.00     0.331 C 
ATOM     13  H   UNL A   1      29.370  24.537  27.711  1.00  0.00     0.347 HD
ATOM     14  H   UNL A   1      28.774  24.144  26.144  1.00  0.00     0.347 HD
ENDBRANCH   6  11
BRANCH  10  15
ATOM     15  N   UNL A   1      33.167  23.723  23.557  1.00  0.00    -0.323 N 
ATOM     16  C   UNL A   1      34.160  24.811  23.564  1.00  0.00     0.324 C 
ATOM     17  C   UNL A   1      32.238  23.937  22.440  1.00  0.00     0.324 C 
ATOM     18  H   UNL A   1      33.619  22.828  23.365  1.00  0.00     0.348 HD
ATOM     19  C   UNL A   1      33.584  26.246  23.463  1.00  0.00     0.324 C 
ATOM     20  C   UNL A   1      31.599  25.337  22.376  1.00  0.00     0.324 C 
ATOM     21  N   UNL A   1      32.582  26.433  22.396  1.00  0.00    -0.328 N 
ATOM     22  C   UNL A   1      31.895  27.714  22.559  1.00  0.00     0.333 C 
ATOM     23  H   UNL A   1      33.080  26.428  21.506  1.00  0.00     0.348 HD
ENDBRANCH  10  15
ENDBRANCH   4   6
ENDBRANCH   3   4
ENDBRANCH   2   3
ENDBRANCH   1   2
BRANCH   1  24
ATOM     24  O   UNL A   1      33.803  28.769  27.549  1.00  0.00    -0.458 OA
BRANCH  24  25
ATOM     25  C   UNL A   1      34.266  30.014  27.800  1.00  0.00     0.338 C 
ATOM     26  O   UNL A   1      33.633  31.050  27.893  1.00  0.00    -0.246 OA
BRANCH  25  27
ATOM     27  C   UNL A   1      35.679  29.894  28.164  1.00  0.00     0.060 A 
ATOM     28  C   UNL A   1      36.629  30.108  27.165  1.00  0.00     0.016 A 
ATOM     29  C   UNL A   1      36.058  29.466  29.432  1.00  0.00     0.016 A 
ATOM     30  C   UNL A   1      37.960  29.780  27.394  1.00  0.00     0.010 A 
ATOM     31  C   UNL A   1      37.412  29.246  29.690  1.00  0.00     0.010 A 
ATOM     32  C   UNL A   1      38.373  29.362  28.664  1.00  0.00    -0.014 A 
BRANCH  32  33
ATOM     33  C   UNL A   1      39.793  29.005  28.925  1.00  0.00     0.031 A 
ATOM     34  C   UNL A   1      40.721  30.036  29.509  1.00  0.00     0.074 A 
ATOM     35  C   UNL A   1      40.259  27.776  28.629  1.00  0.00     0.049 A 
ATOM     36  N   UNL A   1      42.028  30.040  29.555  1.00  0.00    -0.248 NA
ATOM     37  C   UNL A   1      40.096  31.233  30.097  1.00  0.00     0.031 C 
ATOM     38  C   UNL A   1      39.460  26.658  28.120  1.00  0.00     0.029 A 
ATOM     39  N   UNL A   1      41.529  27.259  28.714  1.00  0.00    -0.354 N 
ATOM     40  C   UNL A   1      42.383  31.270  30.097  1.00  0.00     0.074 A 
ATOM     41  C   UNL A   1      41.154  31.979  30.382  1.00  0.00     0.031 C 
ATOM     42  C   UNL A   1      40.249  25.582  27.973  1.00  0.00     0.029 A 
ATOM     43  C   UNL A   1      41.623  25.959  28.280  1.00  0.00     0.049 A 
ATOM     44  H   UNL A   1      42.297  27.772  29.055  1.00  0.00     0.167 HD
ATOM     45  C   UNL A   1      43.624  31.767  30.316  1.00  0.00     0.031 A 
ATOM     46  C   UNL A   1      42.698  25.170  28.093  1.00  0.00     0.031 A 
ATOM     47  C   UNL A   1      44.836  31.027  30.078  1.00  0.00     0.049 A 
ATOM     48  C   UNL A   1      44.064  25.736  28.349  1.00  0.00     0.074 A 
ATOM     49  C   UNL A   1      46.146  31.433  30.257  1.00  0.00     0.029 A 
ATOM     50  N   UNL A   1      44.880  29.712  29.637  1.00  0.00    -0.354 N 
ATOM     51  N   UNL A   1      44.392  26.938  28.758  1.00  0.00    -0.248 NA
ATOM     52  C   UNL A   1      45.207  24.848  28.092  1.00  0.00     0.031 C 
ATOM     53  C   UNL A   1      46.985  30.369  29.902  1.00  0.00     0.029 A 
ATOM     54  C   UNL A   1      46.195  29.290  29.539  1.00  0.00     0.049 A 
ATOM     55  H   UNL A   1      44.094  29.161  29.424  1.00  0.00     0.167 HD
ATOM     56  C   UNL A   1      45.780  26.954  28.806  1.00  0.00     0.074 A 
ATOM     57  C   UNL A   1      46.228  25.633  28.408  1.00  0.00     0.031 C 
ATOM     58  C   UNL A   1      46.611  27.972  29.136  1.00  0.00     0.031 A 
BRANCH  45  59
ATOM     59  C   UNL A   1      43.730  33.193  30.784  1.00  0.00    -0.014 A 
ATOM     60  C   UNL A   1      43.836  34.263  29.879  1.00  0.00     0.010 A 
ATOM     61  C   UNL A   1      43.706  33.464  32.166  1.00  0.00     0.010 A 
ATOM     62  C   UNL A   1      43.957  35.575  30.348  1.00  0.00     0.020 A 
ATOM     63  C   UNL A   1      43.803  34.775  32.638  1.00  0.00     0.020 A 
ATOM     64  C   UNL A   1      43.949  35.822  31.725  1.00  0.00     0.054 A 
BRANCH  64  65
ATOM     65  S   UNL A   1      44.099  37.532  32.313  1.00  0.00     0.124 S 
ATOM     66  O   UNL A   1      45.513  37.603  32.673  1.00  0.00    -0.237 OA
ATOM     67  O   UNL A   1      43.711  38.313  31.141  1.00  0.00    -0.237 OA
ATOM     68  O   UNL A   1      43.166  37.595  33.435  1.00  0.00    -0.744 OA
ENDBRANCH  64  65
ENDBRANCH  45  59
BRANCH  46  69
ATOM     69  C   UNL A   1      42.515  23.786  27.581  1.00  0.00    -0.014 A 
ATOM     70  C   UNL A   1      42.562  23.525  26.201  1.00  0.00     0.010 A 
ATOM     71  C   UNL A   1      42.347  22.713  28.476  1.00  0.00     0.010 A 
ATOM     72  C   UNL A   1      42.451  22.215  25.726  1.00  0.00     0.020 A 
ATOM     73  C   UNL A   1      42.263  21.400  28.006  1.00  0.00     0.020 A 
ATOM     74  C   UNL A   1      42.308  21.159  26.632  1.00  0.00     0.054 A 
BRANCH  74  75
ATOM     75  S   UNL A   1      42.260  19.457  26.007  1.00  0.00     0.124 S 
ATOM     76  O   UNL A   1      40.852  19.305  25.649  1.00  0.00    -0.237 OA
ATOM     77  O   UNL A   1      43.196  19.498  24.887  1.00  0.00    -0.237 OA
ATOM     78  O   UNL A   1      42.707  18.663  27.150  1.00  0.00    -0.744 OA
ENDBRANCH  74  75
ENDBRANCH  46  69
BRANCH  58  79
ATOM     79  C   UNL A   1      48.084  27.684  29.100  1.00  0.00    -0.014 A 
ATOM     80  C   UNL A   1      48.777  27.324  30.268  1.00  0.00     0.010 A 
ATOM     81  C   UNL A   1      48.773  27.740  27.875  1.00  0.00     0.010 A 
ATOM     82  C   UNL A   1      50.146  27.052  30.218  1.00  0.00     0.020 A 
ATOM     83  C   UNL A   1      50.138  27.451  27.818  1.00  0.00     0.020 A 
ATOM     84  C   UNL A   1      50.818  27.123  28.994  1.00  0.00     0.054 A 
BRANCH  84  85
ATOM     85  S   UNL A   1      52.589  26.735  28.942  1.00  0.00     0.124 S 
ATOM     86  O   UNL A   1      52.765  25.959  30.167  1.00  0.00    -0.237 OA
ATOM     87  O   UNL A   1      52.720  25.981  27.698  1.00  0.00    -0.237 OA
ATOM     88  O   UNL A   1      53.230  28.048  28.937  1.00  0.00    -0.744 OA
ENDBRANCH  84  85
ENDBRANCH  58  79
ENDBRANCH  32  33
ENDBRANCH  25  27
ENDBRANCH  24  25
ENDBRANCH   1  24
TORSDOF 16
ENDMDL
MODEL 3
REMARK VINA RESULT:     -10.0      5.745     11.670
REMARK SMILES C[NH2+][C@@]1(C(=O)OCCOC(=O)c2ccc(-c3c4nc(c(-c5ccc(S(=O)(=O)[O-])cc5)c5ccc([nH]5)c(-c5ccc(S(=O)(=O)[O-])cc5)c5nc(c(-c6ccc(S(=O)(=O)[O-])cc6)c6ccc3[nH]6)C=C5)C=C4)cc2)CC[C@H]([NH+]2CC[NH+](C)CC2)C1
REMARK SMILES IDX 8 1 7 2 6 3 4 4 5 5 3 6 72 7 82 8 73 9 74 10 2 11 1 12 75 15
REMARK SMILES IDX 76 16 81 17 77 19 80 20 78 21 79 22 9 24 10 25 11 26 12 27
REMARK SMILES IDX 13 28 71 29 14 30 70 31 15 32 16 33 17 34 64 35 18 36 69 37
REMARK SMILES IDX 63 38 65 39 19 40 68 41 62 42 61 43 20 45 50 46 31 47 49 48
REMARK SMILES IDX 32 49 35 50 48 51 66 52 33 53 34 54 47 56 67 57 36 58 21 59
REMARK SMILES IDX 22 60 30 61 23 62 29 63 24 64 25 65 26 66 27 67 28 68 51 69
REMARK SMILES IDX 52 70 60 71 53 72 59 73 54 74 55 75 56 76 57 77 58 78 37 79
REMARK SMILES IDX 38 80 46 81 39 82 45 83 40 84 41 85 42 86 43 87 44 88
REMARK H PARENT 2 13 2 14 75 18 78 23 65 44 35 55
REMARK Flexibility Score: inf
ROOT
ATOM      1  C   UNL A   1      45.299  26.338  25.252  1.00  0.00     0.275 C 
ENDROOT
BRANCH   1   2
ATOM      2  C   UNL A   1      46.041  25.462  26.259  1.00  0.00     0.274 C 
BRANCH   2   3
ATOM      3  O   UNL A   1      46.327  24.186  25.652  1.00  0.00    -0.457 OA
BRANCH   3   4
ATOM      4  C   UNL A   1      45.683  23.115  26.198  1.00  0.00     0.368 C 
ATOM      5  O   UNL A   1      45.532  22.970  27.406  1.00  0.00    -0.245 OA
BRANCH   4   6
ATOM      6  C   UNL A   1      45.148  22.129  25.094  1.00  0.00     0.200 C 
ATOM      7  C   UNL A   1      44.253  22.940  24.142  1.00  0.00     0.087 C 
ATOM      8  C   UNL A   1      44.159  21.107  25.690  1.00  0.00     0.146 C 
ATOM      9  C   UNL A   1      42.993  23.156  24.977  1.00  0.00     0.072 C 
ATOM     10  C   UNL A   1      42.779  21.810  25.693  1.00  0.00     0.191 C 
BRANCH   6  11
ATOM     11  N   UNL A   1      46.337  21.503  24.479  1.00  0.00    -0.334 N 
ATOM     12  C   UNL A   1      46.399  20.050  24.475  1.00  0.00     0.331 C 
ATOM     13  H   UNL A   1      46.379  21.813  23.507  1.00  0.00     0.347 HD
ATOM     14  H   UNL A   1      47.120  21.797  25.062  1.00  0.00     0.347 HD
ENDBRANCH   6  11
BRANCH  10  15
ATOM     15  N   UNL A   1      42.021  21.758  26.947  1.00  0.00    -0.323 N 
ATOM     16  C   UNL A   1      40.788  20.955  26.880  1.00  0.00     0.324 C 
ATOM     17  C   UNL A   1      41.725  23.019  27.640  1.00  0.00     0.324 C 
ATOM     18  H   UNL A   1      42.720  21.290  27.524  1.00  0.00     0.348 HD
ATOM     19  C   UNL A   1      39.528  21.698  26.368  1.00  0.00     0.324 C 
ATOM     20  C   UNL A   1      40.522  23.806  27.088  1.00  0.00     0.324 C 
ATOM     21  N   UNL A   1      39.288  23.008  27.004  1.00  0.00    -0.328 N 
ATOM     22  C   UNL A   1      38.265  23.753  26.268  1.00  0.00     0.333 C 
ATOM     23  H   UNL A   1      38.960  22.831  27.953  1.00  0.00     0.348 HD
ENDBRANCH  10  15
ENDBRANCH   4   6
ENDBRANCH   3   4
ENDBRANCH   2   3
ENDBRANCH   1   2
BRANCH   1  24
ATOM     24  O   UNL A   1      43.894  26.226  25.527  1.00  0.00    -0.458 OA
BRANCH  24  25
ATOM     25  C   UNL A   1      43.213  27.392  25.456  1.00  0.00     0.338 C 
ATOM     26  O   UNL A   1      42.690  27.902  24.482  1.00  0.00    -0.246 OA
BRANCH  25  27
ATOM     27  C   UNL A   1      43.011  27.870  26.825  1.00  0.00     0.060 A 
ATOM     28  C   UNL A   1      42.373  27.016  27.725  1.00  0.00     0.016 A 
ATOM     29  C   UNL A   1      43.337  29.173  27.183  1.00  0.00     0.016 A 
ATOM     30  C   UNL A   1      41.949  27.501  28.956  1.00  0.00     0.010 A 
ATOM     31  C   UNL A   1      43.009  29.620  28.465  1.00  0.00     0.010 A 
ATOM     32  C   UNL A   1      42.278  28.803  29.351  1.00  0.00    -0.014 A 
BRANCH  32  33
ATOM     33  C   UNL A   1      41.830  29.337  30.665  1.00  0.00     0.031 A 
ATOM     34  C   UNL A   1      40.548  30.122  30.748  1.00  0.00     0.074 A 
ATOM     35  C   UNL A   1      42.567  29.139  31.775  1.00  0.00     0.049 A 
ATOM     36  N   UNL A   1      40.118  30.902  31.705  1.00  0.00    -0.248 NA
ATOM     37  C   UNL A   1      39.643  30.035  29.589  1.00  0.00     0.031 C 
ATOM     38  C   UNL A   1      43.795  28.344  31.857  1.00  0.00     0.029 A 
ATOM     39  N   UNL A   1      42.387  29.597  33.058  1.00  0.00    -0.354 N 
ATOM     40  C   UNL A   1      38.938  31.465  31.231  1.00  0.00     0.074 A 
ATOM     41  C   UNL A   1      38.709  30.920  29.910  1.00  0.00     0.031 C 
ATOM     42  C   UNL A   1      44.237  28.341  33.124  1.00  0.00     0.029 A 
ATOM     43  C   UNL A   1      43.383  29.212  33.923  1.00  0.00     0.049 A 
ATOM     44  H   UNL A   1      41.618  30.146  33.331  1.00  0.00     0.167 HD
ATOM     45  C   UNL A   1      38.132  32.368  31.839  1.00  0.00     0.031 A 
ATOM     46  C   UNL A   1      43.621  29.561  35.202  1.00  0.00     0.031 A 
ATOM     47  C   UNL A   1      38.344  32.857  33.176  1.00  0.00     0.049 A 
ATOM     48  C   UNL A   1      42.713  30.558  35.861  1.00  0.00     0.074 A 
ATOM     49  C   UNL A   1      37.597  33.778  33.888  1.00  0.00     0.029 A 
ATOM     50  N   UNL A   1      39.368  32.438  34.013  1.00  0.00    -0.354 N 
ATOM     51  N   UNL A   1      41.661  31.165  35.365  1.00  0.00    -0.248 NA
ATOM     52  C   UNL A   1      43.038  30.936  37.243  1.00  0.00     0.031 C 
ATOM     53  C   UNL A   1      38.183  33.933  35.151  1.00  0.00     0.029 A 
ATOM     54  C   UNL A   1      39.272  33.080  35.236  1.00  0.00     0.049 A 
ATOM     55  H   UNL A   1      40.061  31.782  33.773  1.00  0.00     0.167 HD
ATOM     56  C   UNL A   1      41.199  32.001  36.372  1.00  0.00     0.074 A 
ATOM     57  C   UNL A   1      42.071  31.802  37.514  1.00  0.00     0.031 C 
ATOM     58  C   UNL A   1      40.156  32.866  36.352  1.00  0.00     0.031 A 
BRANCH  45  59
ATOM     59  C   UNL A   1      36.983  32.924  31.041  1.00  0.00    -0.014 A 
ATOM     60  C   UNL A   1      37.180  33.871  30.022  1.00  0.00     0.010 A 
ATOM     61  C   UNL A   1      35.678  32.470  31.312  1.00  0.00     0.010 A 
ATOM     62  C   UNL A   1      36.088  34.386  29.315  1.00  0.00     0.020 A 
ATOM     63  C   UNL A   1      34.587  32.964  30.593  1.00  0.00     0.020 A 
ATOM     64  C   UNL A   1      34.797  33.935  29.612  1.00  0.00     0.054 A 
BRANCH  64  65
ATOM     65  S   UNL A   1      33.395  34.609  28.678  1.00  0.00     0.124 S 
ATOM     66  O   UNL A   1      32.437  34.897  29.742  1.00  0.00    -0.237 OA
ATOM     67  O   UNL A   1      33.974  35.779  28.023  1.00  0.00    -0.237 OA
ATOM     68  O   UNL A   1      33.021  33.519  27.781  1.00  0.00    -0.744 OA
ENDBRANCH  64  65
ENDBRANCH  45  59
BRANCH  46  69
ATOM     69  C   UNL A   1      44.806  29.006  35.908  1.00  0.00    -0.014 A 
ATOM     70  C   UNL A   1      44.710  27.797  36.618  1.00  0.00     0.010 A 
ATOM     71  C   UNL A   1      46.051  29.658  35.828  1.00  0.00     0.010 A 
ATOM     72  C   UNL A   1      45.841  27.246  37.230  1.00  0.00     0.020 A 
ATOM     73  C   UNL A   1      47.187  29.097  36.416  1.00  0.00     0.020 A 
ATOM     74  C   UNL A   1      47.074  27.897  37.120  1.00  0.00     0.054 A 
BRANCH  74  75
ATOM     75  S   UNL A   1      48.550  27.123  37.838  1.00  0.00     0.124 S 
ATOM     76  O   UNL A   1      47.980  26.339  38.929  1.00  0.00    -0.237 OA
ATOM     77  O   UNL A   1      49.087  26.353  36.719  1.00  0.00    -0.237 OA
ATOM     78  O   UNL A   1      49.367  28.265  38.244  1.00  0.00    -0.744 OA
ENDBRANCH  74  75
ENDBRANCH  46  69
BRANCH  58  79
ATOM     79  C   UNL A   1      39.893  33.641  37.611  1.00  0.00    -0.014 A 
ATOM     80  C   UNL A   1      40.438  34.923  37.794  1.00  0.00     0.010 A 
ATOM     81  C   UNL A   1      39.061  33.093  38.603  1.00  0.00     0.010 A 
ATOM     82  C   UNL A   1      40.179  35.636  38.967  1.00  0.00     0.020 A 
ATOM     83  C   UNL A   1      38.785  33.811  39.769  1.00  0.00     0.020 A 
ATOM     84  C   UNL A   1      39.359  35.072  39.949  1.00  0.00     0.054 A 
BRANCH  84  85
ATOM     85  S   UNL A   1      39.007  36.026  41.451  1.00  0.00     0.124 S 
ATOM     86  O   UNL A   1      37.728  35.463  41.874  1.00  0.00    -0.237 OA
ATOM     87  O   UNL A   1      40.146  35.713  42.309  1.00  0.00    -0.237 OA
ATOM     88  O   UNL A   1      38.954  37.408  40.977  1.00  0.00    -0.744 OA
ENDBRANCH  84  85
ENDBRANCH  58  79
ENDBRANCH  32  33
ENDBRANCH  25  27
ENDBRANCH  24  25
ENDBRANCH   1  24
TORSDOF 16
ENDMDL
