MODEL 1
REMARK VINA RESULT:     -10.3      0.000      0.000
REMARK SMILES O=C(OCCOC(=O)[C@@H]1C[C@@H](O)CN1C(=O)CSc1ccc(F)cc1F)c1ccc(-c2c3nc(c(-c4ccc(S(=O)(=O)[O-])cc4)c4ccc([nH]4)c(-c4ccc(S(=O)(=O)[O-])cc4)c4nc(c(-c5ccc(S(=O)(=O)[O-])cc5)c5ccc2[nH]5)C=C4)C=C3)cc1
REMARK SMILES IDX 5 1 4 2 3 3 2 4 1 5 27 6 28 7 86 8 29 9 85 10 30 11 31 12
REMARK SMILES IDX 32 13 79 14 33 15 84 16 78 17 80 18 34 19 83 20 77 21 76 22
REMARK SMILES IDX 35 24 65 25 46 26 64 27 47 28 50 29 63 30 81 31 48 32 49 33
REMARK SMILES IDX 62 35 82 36 51 37 36 38 37 39 45 40 38 41 44 42 39 43 40 44
REMARK SMILES IDX 41 45 42 46 43 47 66 48 67 49 75 50 68 51 74 52 69 53 70 54
REMARK SMILES IDX 71 55 72 56 73 57 52 58 53 59 61 60 54 61 60 62 55 63 56 64
REMARK SMILES IDX 57 65 58 66 59 67 6 68 7 69 8 70 9 71 10 72 14 73 11 74
REMARK SMILES IDX 13 75 15 76 16 77 17 78 18 79 19 80 20 81 25 82 21 83 24 84
REMARK SMILES IDX 26 85 22 86 23 87 12 88
REMARK H PARENT 80 23 50 34 12 89
REMARK Flexibility Score: inf
ROOT
ATOM      1  C   UNL A   1      35.763  23.687  23.993  1.00  0.00     0.274 C 
ENDROOT
BRANCH   1   2
ATOM      2  C   UNL A   1      36.748  22.564  24.332  1.00  0.00     0.275 C 
BRANCH   2   3
ATOM      3  O   UNL A   1      37.275  22.588  25.674  1.00  0.00    -0.458 OA
BRANCH   3   4
ATOM      4  C   UNL A   1      38.549  22.740  26.113  1.00  0.00     0.338 C 
ATOM      5  O   UNL A   1      39.285  21.753  26.117  1.00  0.00    -0.246 OA
BRANCH   4   6
ATOM      6  C   UNL A   1      39.082  24.004  26.719  1.00  0.00     0.060 A 
ATOM      7  C   UNL A   1      38.905  24.413  28.042  1.00  0.00     0.016 A 
ATOM      8  C   UNL A   1      39.849  24.827  25.872  1.00  0.00     0.016 A 
ATOM      9  C   UNL A   1      39.561  25.544  28.541  1.00  0.00     0.010 A 
ATOM     10  C   UNL A   1      40.530  25.939  26.373  1.00  0.00     0.010 A 
ATOM     11  C   UNL A   1      40.396  26.305  27.721  1.00  0.00    -0.014 A 
BRANCH  11  12
ATOM     12  C   UNL A   1      41.021  27.552  28.219  1.00  0.00     0.031 A 
ATOM     13  C   UNL A   1      42.501  27.562  28.447  1.00  0.00     0.074 A 
ATOM     14  C   UNL A   1      40.318  28.683  28.434  1.00  0.00     0.049 A 
ATOM     15  N   UNL A   1      43.252  28.552  28.845  1.00  0.00    -0.248 NA
ATOM     16  C   UNL A   1      43.242  26.333  28.112  1.00  0.00     0.031 C 
ATOM     17  C   UNL A   1      38.921  28.909  28.080  1.00  0.00     0.029 A 
ATOM     18  N   UNL A   1      40.679  29.852  29.063  1.00  0.00    -0.354 N 
ATOM     19  C   UNL A   1      44.552  28.113  28.670  1.00  0.00     0.074 A 
ATOM     20  C   UNL A   1      44.494  26.717  28.304  1.00  0.00     0.031 C 
ATOM     21  C   UNL A   1      38.502  30.053  28.645  1.00  0.00     0.029 A 
ATOM     22  C   UNL A   1      39.601  30.653  29.371  1.00  0.00     0.049 A 
ATOM     23  H   UNL A   1      41.610  30.092  29.271  1.00  0.00     0.167 HD
ATOM     24  C   UNL A   1      45.686  28.848  28.698  1.00  0.00     0.031 A 
ATOM     25  C   UNL A   1      39.506  31.738  30.161  1.00  0.00     0.031 A 
ATOM     26  C   UNL A   1      45.734  30.223  29.104  1.00  0.00     0.049 A 
ATOM     27  C   UNL A   1      40.785  32.422  30.529  1.00  0.00     0.074 A 
ATOM     28  C   UNL A   1      46.828  31.065  29.173  1.00  0.00     0.029 A 
ATOM     29  N   UNL A   1      44.636  30.954  29.535  1.00  0.00    -0.354 N 
ATOM     30  N   UNL A   1      42.011  32.028  30.289  1.00  0.00    -0.248 NA
ATOM     31  C   UNL A   1      40.674  33.752  31.137  1.00  0.00     0.031 C 
ATOM     32  C   UNL A   1      46.401  32.285  29.711  1.00  0.00     0.029 A 
ATOM     33  C   UNL A   1      45.032  32.223  29.919  1.00  0.00     0.049 A 
ATOM     34  H   UNL A   1      43.711  30.619  29.563  1.00  0.00     0.167 HD
ATOM     35  C   UNL A   1      42.815  33.112  30.603  1.00  0.00     0.074 A 
ATOM     36  C   UNL A   1      41.937  34.154  31.101  1.00  0.00     0.031 C 
ATOM     37  C   UNL A   1      44.153  33.245  30.433  1.00  0.00     0.031 A 
BRANCH  24  38
ATOM     38  C   UNL A   1      46.934  28.163  28.227  1.00  0.00    -0.014 A 
ATOM     39  C   UNL A   1      47.804  27.561  29.158  1.00  0.00     0.010 A 
ATOM     40  C   UNL A   1      47.255  28.130  26.862  1.00  0.00     0.010 A 
ATOM     41  C   UNL A   1      48.995  26.971  28.735  1.00  0.00     0.020 A 
ATOM     42  C   UNL A   1      48.435  27.518  26.432  1.00  0.00     0.020 A 
ATOM     43  C   UNL A   1      49.302  26.955  27.373  1.00  0.00     0.054 A 
BRANCH  43  44
ATOM     44  S   UNL A   1      50.847  26.164  26.847  1.00  0.00     0.124 S 
ATOM     45  O   UNL A   1      50.804  26.354  25.399  1.00  0.00    -0.237 OA
ATOM     46  O   UNL A   1      51.859  26.944  27.553  1.00  0.00    -0.237 OA
ATOM     47  O   UNL A   1      50.700  24.783  27.299  1.00  0.00    -0.744 OA
ENDBRANCH  43  44
ENDBRANCH  24  38
BRANCH  25  48
ATOM     48  C   UNL A   1      38.189  32.278  30.594  1.00  0.00    -0.014 A 
ATOM     49  C   UNL A   1      37.482  33.212  29.821  1.00  0.00     0.010 A 
ATOM     50  C   UNL A   1      37.662  31.889  31.842  1.00  0.00     0.010 A 
ATOM     51  C   UNL A   1      36.292  33.774  30.299  1.00  0.00     0.020 A 
ATOM     52  C   UNL A   1      36.465  32.440  32.319  1.00  0.00     0.020 A 
ATOM     53  C   UNL A   1      35.795  33.389  31.549  1.00  0.00     0.054 A 
BRANCH  53  54
ATOM     54  S   UNL A   1      34.242  34.130  32.134  1.00  0.00     0.124 S 
ATOM     55  O   UNL A   1      33.603  34.526  30.883  1.00  0.00    -0.237 OA
ATOM     56  O   UNL A   1      33.618  33.014  32.841  1.00  0.00    -0.237 OA
ATOM     57  O   UNL A   1      34.687  35.230  32.986  1.00  0.00    -0.744 OA
ENDBRANCH  53  54
ENDBRANCH  25  48
BRANCH  37  58
ATOM     58  C   UNL A   1      44.740  34.589  30.744  1.00  0.00    -0.014 A 
ATOM     59  C   UNL A   1      45.189  34.910  32.036  1.00  0.00     0.010 A 
ATOM     60  C   UNL A   1      44.855  35.543  29.715  1.00  0.00     0.010 A 
ATOM     61  C   UNL A   1      45.704  36.178  32.304  1.00  0.00     0.020 A 
ATOM     62  C   UNL A   1      45.405  36.798  29.971  1.00  0.00     0.020 A 
ATOM     63  C   UNL A   1      45.809  37.113  31.268  1.00  0.00     0.054 A 
BRANCH  63  64
ATOM     64  S   UNL A   1      46.519  38.738  31.637  1.00  0.00     0.124 S 
ATOM     65  O   UNL A   1      47.876  38.390  32.049  1.00  0.00    -0.237 OA
ATOM     66  O   UNL A   1      46.408  39.433  30.357  1.00  0.00    -0.237 OA
ATOM     67  O   UNL A   1      45.659  39.258  32.697  1.00  0.00    -0.744 OA
ENDBRANCH  63  64
ENDBRANCH  37  58
ENDBRANCH  11  12
ENDBRANCH   4   6
ENDBRANCH   3   4
ENDBRANCH   2   3
ENDBRANCH   1   2
BRANCH   1  68
ATOM     68  O   UNL A   1      35.420  24.445  25.155  1.00  0.00    -0.461 OA
BRANCH  68  69
ATOM     69  C   UNL A   1      34.219  25.087  25.168  1.00  0.00     0.329 C 
ATOM     70  O   UNL A   1      33.697  25.557  26.178  1.00  0.00    -0.250 OA
BRANCH  69  71
ATOM     71  C   UNL A   1      33.699  25.282  23.728  1.00  0.00     0.197 C 
ATOM     72  C   UNL A   1      33.683  26.779  23.385  1.00  0.00     0.070 C 
ATOM     73  N   UNL A   1      32.364  24.828  23.310  1.00  0.00    -0.325 N 
ATOM     74  C   UNL A   1      32.775  26.845  22.170  1.00  0.00     0.136 C 
ATOM     75  C   UNL A   1      31.684  25.829  22.499  1.00  0.00     0.152 C 
BRANCH  73  76
ATOM     76  C   UNL A   1      31.959  23.522  23.457  1.00  0.00     0.233 C 
ATOM     77  O   UNL A   1      30.873  23.270  23.974  1.00  0.00    -0.274 OA
BRANCH  76  78
ATOM     78  C   UNL A   1      32.854  22.411  22.920  1.00  0.00     0.175 C 
BRANCH  78  79
ATOM     79  S   UNL A   1      31.888  21.015  22.239  1.00  0.00    -0.113 SA
BRANCH  79  80
ATOM     80  C   UNL A   1      32.339  19.704  23.367  1.00  0.00     0.044 A 
ATOM     81  C   UNL A   1      32.529  19.971  24.727  1.00  0.00     0.021 A 
ATOM     82  C   UNL A   1      32.536  18.394  22.915  1.00  0.00     0.139 A 
ATOM     83  C   UNL A   1      32.814  18.931  25.620  1.00  0.00     0.040 A 
ATOM     84  C   UNL A   1      32.804  17.351  23.794  1.00  0.00     0.079 A 
ATOM     85  F   UNL A   1      32.473  18.112  21.605  1.00  0.00    -0.206 F 
ATOM     86  C   UNL A   1      32.929  17.629  25.145  1.00  0.00     0.126 A 
ATOM     87  F   UNL A   1      33.178  16.628  26.000  1.00  0.00    -0.207 F 
ENDBRANCH  79  80
ENDBRANCH  78  79
ENDBRANCH  76  78
ENDBRANCH  73  76
BRANCH  74  88
ATOM     88  O   UNL A   1      33.500  26.460  20.999  1.00  0.00    -0.391 OA
ATOM     89  H   UNL A   1      34.203  25.838  21.243  1.00  0.00     0.211 HD
ENDBRANCH  74  88
ENDBRANCH  69  71
ENDBRANCH  68  69
ENDBRANCH   1  68
TORSDOF 19
ENDMDL
MODEL 2
REMARK VINA RESULT:     -10.3      2.749      4.208
REMARK SMILES O=C(OCCOC(=O)[C@@H]1C[C@@H](O)CN1C(=O)CSc1ccc(F)cc1F)c1ccc(-c2c3nc(c(-c4ccc(S(=O)(=O)[O-])cc4)c4ccc([nH]4)c(-c4ccc(S(=O)(=O)[O-])cc4)c4nc(c(-c5ccc(S(=O)(=O)[O-])cc5)c5ccc2[nH]5)C=C4)C=C3)cc1
REMARK SMILES IDX 5 1 4 2 3 3 2 4 1 5 27 6 28 7 86 8 29 9 85 10 30 11 31 12
REMARK SMILES IDX 32 13 79 14 33 15 84 16 78 17 80 18 34 19 83 20 77 21 76 22
REMARK SMILES IDX 35 24 65 25 46 26 64 27 47 28 50 29 63 30 81 31 48 32 49 33
REMARK SMILES IDX 62 35 82 36 51 37 36 38 37 39 45 40 38 41 44 42 39 43 40 44
REMARK SMILES IDX 41 45 42 46 43 47 66 48 67 49 75 50 68 51 74 52 69 53 70 54
REMARK SMILES IDX 71 55 72 56 73 57 52 58 53 59 61 60 54 61 60 62 55 63 56 64
REMARK SMILES IDX 57 65 58 66 59 67 6 68 7 69 8 70 9 71 10 72 14 73 11 74
REMARK SMILES IDX 13 75 15 76 16 77 17 78 18 79 19 80 20 81 25 82 21 83 24 84
REMARK SMILES IDX 26 85 22 86 23 87 12 88
REMARK H PARENT 80 23 50 34 12 89
REMARK Flexibility Score: inf
ROOT
ATOM      1  C   UNL A   1      34.686  22.952  25.427  1.00  0.00     0.274 C 
ENDROOT
BRANCH   1   2
ATOM      2  C   UNL A   1      36.023  23.539  25.891  1.00  0.00     0.275 C 
BRANCH   2   3
ATOM      3  O   UNL A   1      37.173  22.692  25.694  1.00  0.00    -0.458 OA
BRANCH   3   4
ATOM      4  C   UNL A   1      38.448  22.827  26.136  1.00  0.00     0.338 C 
ATOM      5  O   UNL A   1      39.176  21.834  26.120  1.00  0.00    -0.246 OA
BRANCH   4   6
ATOM      6  C   UNL A   1      38.990  24.074  26.767  1.00  0.00     0.060 A 
ATOM      7  C   UNL A   1      38.825  24.452  28.101  1.00  0.00     0.016 A 
ATOM      8  C   UNL A   1      39.754  24.914  25.934  1.00  0.00     0.016 A 
ATOM      9  C   UNL A   1      39.489  25.569  28.621  1.00  0.00     0.010 A 
ATOM     10  C   UNL A   1      40.442  26.012  26.455  1.00  0.00     0.010 A 
ATOM     11  C   UNL A   1      40.320  26.346  27.813  1.00  0.00    -0.014 A 
BRANCH  11  12
ATOM     12  C   UNL A   1      40.953  27.579  28.335  1.00  0.00     0.031 A 
ATOM     13  C   UNL A   1      42.420  27.551  28.635  1.00  0.00     0.074 A 
ATOM     14  C   UNL A   1      40.272  28.729  28.510  1.00  0.00     0.049 A 
ATOM     15  N   UNL A   1      43.177  28.523  29.065  1.00  0.00    -0.248 NA
ATOM     16  C   UNL A   1      43.143  26.301  28.342  1.00  0.00     0.031 C 
ATOM     17  C   UNL A   1      38.900  28.991  28.086  1.00  0.00     0.029 A 
ATOM     18  N   UNL A   1      40.633  29.893  29.150  1.00  0.00    -0.354 N 
ATOM     19  C   UNL A   1      44.472  28.048  28.956  1.00  0.00     0.074 A 
ATOM     20  C   UNL A   1      44.394  26.651  28.594  1.00  0.00     0.031 C 
ATOM     21  C   UNL A   1      38.485  30.149  28.625  1.00  0.00     0.029 A 
ATOM     22  C   UNL A   1      39.563  30.724  29.402  1.00  0.00     0.049 A 
ATOM     23  H   UNL A   1      41.559  30.109  29.403  1.00  0.00     0.167 HD
ATOM     24  C   UNL A   1      45.623  28.752  29.037  1.00  0.00     0.031 A 
ATOM     25  C   UNL A   1      39.459  31.816  30.180  1.00  0.00     0.031 A 
ATOM     26  C   UNL A   1      45.688  30.128  29.438  1.00  0.00     0.049 A 
ATOM     27  C   UNL A   1      40.737  32.467  30.608  1.00  0.00     0.074 A 
ATOM     28  C   UNL A   1      46.800  30.941  29.556  1.00  0.00     0.029 A 
ATOM     29  N   UNL A   1      44.590  30.891  29.811  1.00  0.00    -0.354 N 
ATOM     30  N   UNL A   1      41.962  32.039  30.430  1.00  0.00    -0.248 NA
ATOM     31  C   UNL A   1      40.632  33.804  31.203  1.00  0.00     0.031 C 
ATOM     32  C   UNL A   1      46.380  32.175  30.067  1.00  0.00     0.029 A 
ATOM     33  C   UNL A   1      45.001  32.151  30.208  1.00  0.00     0.049 A 
ATOM     34  H   UNL A   1      43.656  30.581  29.795  1.00  0.00     0.167 HD
ATOM     35  C   UNL A   1      42.779  33.103  30.779  1.00  0.00     0.074 A 
ATOM     36  C   UNL A   1      41.905  34.171  31.227  1.00  0.00     0.031 C 
ATOM     37  C   UNL A   1      44.127  33.199  30.673  1.00  0.00     0.031 A 
BRANCH  24  38
ATOM     38  C   UNL A   1      46.873  28.032  28.631  1.00  0.00    -0.014 A 
ATOM     39  C   UNL A   1      47.265  28.003  27.277  1.00  0.00     0.010 A 
ATOM     40  C   UNL A   1      47.654  27.367  29.588  1.00  0.00     0.010 A 
ATOM     41  C   UNL A   1      48.395  27.289  26.882  1.00  0.00     0.020 A 
ATOM     42  C   UNL A   1      48.801  26.670  29.199  1.00  0.00     0.020 A 
ATOM     43  C   UNL A   1      49.156  26.625  27.848  1.00  0.00     0.054 A 
BRANCH  43  44
ATOM     44  S   UNL A   1      50.632  25.720  27.311  1.00  0.00     0.124 S 
ATOM     45  O   UNL A   1      50.274  24.341  27.636  1.00  0.00    -0.237 OA
ATOM     46  O   UNL A   1      50.695  26.033  25.886  1.00  0.00    -0.237 OA
ATOM     47  O   UNL A   1      51.703  26.293  28.121  1.00  0.00    -0.744 OA
ENDBRANCH  43  44
ENDBRANCH  24  38
BRANCH  25  48
ATOM     48  C   UNL A   1      38.138  32.393  30.546  1.00  0.00    -0.014 A 
ATOM     49  C   UNL A   1      37.467  33.297  29.706  1.00  0.00     0.010 A 
ATOM     50  C   UNL A   1      37.567  32.074  31.794  1.00  0.00     0.010 A 
ATOM     51  C   UNL A   1      36.272  33.897  30.120  1.00  0.00     0.020 A 
ATOM     52  C   UNL A   1      36.365  32.662  32.207  1.00  0.00     0.020 A 
ATOM     53  C   UNL A   1      35.732  33.580  31.371  1.00  0.00     0.054 A 
BRANCH  53  54
ATOM     54  S   UNL A   1      34.173  34.370  31.870  1.00  0.00     0.124 S 
ATOM     55  O   UNL A   1      33.484  34.520  30.593  1.00  0.00    -0.237 OA
ATOM     56  O   UNL A   1      33.609  33.379  32.784  1.00  0.00    -0.237 OA
ATOM     57  O   UNL A   1      34.606  35.615  32.500  1.00  0.00    -0.744 OA
ENDBRANCH  53  54
ENDBRANCH  25  48
BRANCH  37  58
ATOM     58  C   UNL A   1      44.734  34.529  31.006  1.00  0.00    -0.014 A 
ATOM     59  C   UNL A   1      44.866  35.536  30.035  1.00  0.00     0.010 A 
ATOM     60  C   UNL A   1      45.168  34.776  32.322  1.00  0.00     0.010 A 
ATOM     61  C   UNL A   1      45.461  36.754  30.366  1.00  0.00     0.020 A 
ATOM     62  C   UNL A   1      45.728  36.006  32.664  1.00  0.00     0.020 A 
ATOM     63  C   UNL A   1      45.886  36.980  31.678  1.00  0.00     0.054 A 
BRANCH  63  64
ATOM     64  S   UNL A   1      46.619  38.585  32.087  1.00  0.00     0.124 S 
ATOM     65  O   UNL A   1      47.257  38.309  33.372  1.00  0.00    -0.237 OA
ATOM     66  O   UNL A   1      47.531  38.814  30.968  1.00  0.00    -0.237 OA
ATOM     67  O   UNL A   1      45.471  39.486  32.140  1.00  0.00    -0.744 OA
ENDBRANCH  63  64
ENDBRANCH  37  58
ENDBRANCH  11  12
ENDBRANCH   4   6
ENDBRANCH   3   4
ENDBRANCH   2   3
ENDBRANCH   1   2
BRANCH   1  68
ATOM     68  O   UNL A   1      34.019  23.833  24.520  1.00  0.00    -0.461 OA
BRANCH  68  69
ATOM     69  C   UNL A   1      32.660  23.774  24.455  1.00  0.00     0.329 C 
ATOM     70  O   UNL A   1      31.961  23.092  25.204  1.00  0.00    -0.250 OA
BRANCH  69  71
ATOM     71  C   UNL A   1      32.127  24.799  23.433  1.00  0.00     0.197 C 
ATOM     72  C   UNL A   1      33.145  24.971  22.296  1.00  0.00     0.070 C 
ATOM     73  N   UNL A   1      31.806  26.184  23.809  1.00  0.00    -0.325 N 
ATOM     74  C   UNL A   1      32.712  26.270  21.639  1.00  0.00     0.136 C 
ATOM     75  C   UNL A   1      32.304  27.138  22.827  1.00  0.00     0.152 C 
BRANCH  73  76
ATOM     76  C   UNL A   1      30.919  26.479  24.818  1.00  0.00     0.233 C 
ATOM     77  O   UNL A   1      29.712  26.334  24.637  1.00  0.00    -0.274 OA
BRANCH  76  78
ATOM     78  C   UNL A   1      31.466  26.929  26.168  1.00  0.00     0.175 C 
BRANCH  78  79
ATOM     79  S   UNL A   1      33.281  27.149  26.139  1.00  0.00    -0.113 SA
BRANCH  79  80
ATOM     80  C   UNL A   1      33.428  28.850  26.669  1.00  0.00     0.044 A 
ATOM     81  C   UNL A   1      32.357  29.738  26.511  1.00  0.00     0.021 A 
ATOM     82  C   UNL A   1      34.616  29.338  27.225  1.00  0.00     0.139 A 
ATOM     83  C   UNL A   1      32.451  31.051  26.988  1.00  0.00     0.040 A 
ATOM     84  C   UNL A   1      34.715  30.634  27.716  1.00  0.00     0.079 A 
ATOM     85  F   UNL A   1      35.703  28.554  27.295  1.00  0.00    -0.206 F 
ATOM     86  C   UNL A   1      33.622  31.478  27.604  1.00  0.00     0.126 A 
ATOM     87  F   UNL A   1      33.706  32.726  28.083  1.00  0.00    -0.207 F 
ENDBRANCH  79  80
ENDBRANCH  78  79
ENDBRANCH  76  78
ENDBRANCH  73  76
BRANCH  74  88
ATOM     88  O   UNL A   1      31.603  26.030  20.771  1.00  0.00    -0.391 OA
ATOM     89  H   UNL A   1      31.642  26.641  20.018  1.00  0.00     0.211 HD
ENDBRANCH  74  88
ENDBRANCH  69  71
ENDBRANCH  68  69
ENDBRANCH   1  68
TORSDOF 19
ENDMDL
MODEL 3
REMARK VINA RESULT:     -10.2      2.066      2.672
REMARK SMILES O=C(OCCOC(=O)[C@@H]1C[C@@H](O)CN1C(=O)CSc1ccc(F)cc1F)c1ccc(-c2c3nc(c(-c4ccc(S(=O)(=O)[O-])cc4)c4ccc([nH]4)c(-c4ccc(S(=O)(=O)[O-])cc4)c4nc(c(-c5ccc(S(=O)(=O)[O-])cc5)c5ccc2[nH]5)C=C4)C=C3)cc1
REMARK SMILES IDX 5 1 4 2 3 3 2 4 1 5 27 6 28 7 86 8 29 9 85 10 30 11 31 12
REMARK SMILES IDX 32 13 79 14 33 15 84 16 78 17 80 18 34 19 83 20 77 21 76 22
REMARK SMILES IDX 35 24 65 25 46 26 64 27 47 28 50 29 63 30 81 31 48 32 49 33
REMARK SMILES IDX 62 35 82 36 51 37 36 38 37 39 45 40 38 41 44 42 39 43 40 44
REMARK SMILES IDX 41 45 42 46 43 47 66 48 67 49 75 50 68 51 74 52 69 53 70 54
REMARK SMILES IDX 71 55 72 56 73 57 52 58 53 59 61 60 54 61 60 62 55 63 56 64
REMARK SMILES IDX 57 65 58 66 59 67 6 68 7 69 8 70 9 71 10 72 14 73 11 74
REMARK SMILES IDX 13 75 15 76 16 77 17 78 18 79 19 80 20 81 25 82 21 83 24 84
REMARK SMILES IDX 26 85 22 86 23 87 12 88
REMARK H PARENT 80 23 50 34 12 89
REMARK Flexibility Score: inf
ROOT
ATOM      1  C   UNL A   1      36.012  22.955  23.924  1.00  0.00     0.274 C 
ENDROOT
BRANCH   1   2
ATOM      2  C   UNL A   1      36.966  22.235  24.883  1.00  0.00     0.275 C 
BRANCH   2   3
ATOM      3  O   UNL A   1      37.555  23.063  25.906  1.00  0.00    -0.458 OA
BRANCH   3   4
ATOM      4  C   UNL A   1      38.852  23.208  26.279  1.00  0.00     0.338 C 
ATOM      5  O   UNL A   1      39.598  22.234  26.176  1.00  0.00    -0.246 OA
BRANCH   4   6
ATOM      6  C   UNL A   1      39.405  24.439  26.930  1.00  0.00     0.060 A 
ATOM      7  C   UNL A   1      40.297  25.341  26.346  1.00  0.00     0.016 A 
ATOM      8  C   UNL A   1      38.957  24.709  28.237  1.00  0.00     0.016 A 
ATOM      9  C   UNL A   1      40.645  26.532  26.994  1.00  0.00     0.010 A 
ATOM     10  C   UNL A   1      39.278  25.910  28.875  1.00  0.00     0.010 A 
ATOM     11  C   UNL A   1      40.124  26.840  28.251  1.00  0.00    -0.014 A 
BRANCH  11  12
ATOM     12  C   UNL A   1      40.559  28.055  28.979  1.00  0.00     0.031 A 
ATOM     13  C   UNL A   1      41.817  27.984  29.789  1.00  0.00     0.074 A 
ATOM     14  C   UNL A   1      39.892  29.224  28.907  1.00  0.00     0.049 A 
ATOM     15  N   UNL A   1      42.393  28.934  30.473  1.00  0.00    -0.248 NA
ATOM     16  C   UNL A   1      42.563  26.714  29.765  1.00  0.00     0.031 C 
ATOM     17  C   UNL A   1      38.774  29.525  28.018  1.00  0.00     0.029 A 
ATOM     18  N   UNL A   1      40.028  30.377  29.645  1.00  0.00    -0.354 N 
ATOM     19  C   UNL A   1      43.626  28.423  30.835  1.00  0.00     0.074 A 
ATOM     20  C   UNL A   1      43.647  27.029  30.455  1.00  0.00     0.031 C 
ATOM     21  C   UNL A   1      38.224  30.695  28.382  1.00  0.00     0.029 A 
ATOM     22  C   UNL A   1      38.963  31.238  29.501  1.00  0.00     0.049 A 
ATOM     23  H   UNL A   1      40.806  30.567  30.218  1.00  0.00     0.167 HD
ATOM     24  C   UNL A   1      44.689  29.094  31.332  1.00  0.00     0.031 A 
ATOM     25  C   UNL A   1      38.614  32.334  30.200  1.00  0.00     0.031 A 
ATOM     26  C   UNL A   1      44.642  30.468  31.743  1.00  0.00     0.049 A 
ATOM     27  C   UNL A   1      39.667  32.948  31.067  1.00  0.00     0.074 A 
ATOM     28  C   UNL A   1      45.657  31.248  32.264  1.00  0.00     0.029 A 
ATOM     29  N   UNL A   1      43.504  31.262  31.701  1.00  0.00    -0.354 N 
ATOM     30  N   UNL A   1      40.862  32.486  31.340  1.00  0.00    -0.248 NA
ATOM     31  C   UNL A   1      39.390  34.288  31.597  1.00  0.00     0.031 C 
ATOM     32  C   UNL A   1      45.114  32.495  32.600  1.00  0.00     0.029 A 
ATOM     33  C   UNL A   1      43.777  32.510  32.233  1.00  0.00     0.049 A 
ATOM     34  H   UNL A   1      42.631  30.978  31.346  1.00  0.00     0.167 HD
ATOM     35  C   UNL A   1      41.525  33.525  31.971  1.00  0.00     0.074 A 
ATOM     36  C   UNL A   1      40.578  34.619  32.084  1.00  0.00     0.031 C 
ATOM     37  C   UNL A   1      42.822  33.583  32.361  1.00  0.00     0.031 A 
BRANCH  24  38
ATOM     38  C   UNL A   1      45.981  28.337  31.399  1.00  0.00    -0.014 A 
ATOM     39  C   UNL A   1      46.896  28.406  30.329  1.00  0.00     0.010 A 
ATOM     40  C   UNL A   1      46.284  27.543  32.514  1.00  0.00     0.010 A 
ATOM     41  C   UNL A   1      48.076  27.662  30.357  1.00  0.00     0.020 A 
ATOM     42  C   UNL A   1      47.476  26.815  32.557  1.00  0.00     0.020 A 
ATOM     43  C   UNL A   1      48.357  26.870  31.473  1.00  0.00     0.054 A 
BRANCH  43  44
ATOM     44  S   UNL A   1      49.906  25.928  31.493  1.00  0.00     0.124 S 
ATOM     45  O   UNL A   1      50.137  25.698  30.070  1.00  0.00    -0.237 OA
ATOM     46  O   UNL A   1      50.832  26.854  32.138  1.00  0.00    -0.237 OA
ATOM     47  O   UNL A   1      49.576  24.737  32.272  1.00  0.00    -0.744 OA
ENDBRANCH  43  44
ENDBRANCH  24  38
BRANCH  25  48
ATOM     48  C   UNL A   1      37.265  32.949  30.069  1.00  0.00    -0.014 A 
ATOM     49  C   UNL A   1      36.838  33.545  28.873  1.00  0.00     0.010 A 
ATOM     50  C   UNL A   1      36.414  32.989  31.191  1.00  0.00     0.010 A 
ATOM     51  C   UNL A   1      35.603  34.200  28.808  1.00  0.00     0.020 A 
ATOM     52  C   UNL A   1      35.171  33.633  31.128  1.00  0.00     0.020 A 
ATOM     53  C   UNL A   1      34.780  34.245  29.938  1.00  0.00     0.054 A 
BRANCH  53  54
ATOM     54  S   UNL A   1      33.178  35.095  29.815  1.00  0.00     0.124 S 
ATOM     55  O   UNL A   1      32.512  34.339  28.760  1.00  0.00    -0.237 OA
ATOM     56  O   UNL A   1      32.635  34.919  31.161  1.00  0.00    -0.237 OA
ATOM     57  O   UNL A   1      33.543  36.466  29.470  1.00  0.00    -0.744 OA
ENDBRANCH  53  54
ENDBRANCH  25  48
BRANCH  37  58
ATOM     58  C   UNL A   1      43.304  34.895  32.904  1.00  0.00    -0.014 A 
ATOM     59  C   UNL A   1      43.808  35.896  32.056  1.00  0.00     0.010 A 
ATOM     60  C   UNL A   1      43.236  35.131  34.290  1.00  0.00     0.010 A 
ATOM     61  C   UNL A   1      44.275  37.096  32.591  1.00  0.00     0.020 A 
ATOM     62  C   UNL A   1      43.667  36.345  34.823  1.00  0.00     0.020 A 
ATOM     63  C   UNL A   1      44.201  37.313  33.971  1.00  0.00     0.054 A 
BRANCH  63  64
ATOM     64  S   UNL A   1      44.779  38.896  34.632  1.00  0.00     0.124 S 
ATOM     65  O   UNL A   1      46.102  39.014  34.024  1.00  0.00    -0.237 OA
ATOM     66  O   UNL A   1      43.774  39.835  34.138  1.00  0.00    -0.237 OA
ATOM     67  O   UNL A   1      44.773  38.690  36.078  1.00  0.00    -0.744 OA
ENDBRANCH  63  64
ENDBRANCH  37  58
ENDBRANCH  11  12
ENDBRANCH   4   6
ENDBRANCH   3   4
ENDBRANCH   2   3
ENDBRANCH   1   2
BRANCH   1  68
ATOM     68  O   UNL A   1      35.640  24.240  24.429  1.00  0.00    -0.461 OA
BRANCH  68  69
ATOM     69  C   UNL A   1      34.461  24.344  25.104  1.00  0.00     0.329 C 
ATOM     70  O   UNL A   1      34.297  23.979  26.267  1.00  0.00    -0.250 OA
BRANCH  69  71
ATOM     71  C   UNL A   1      33.430  25.126  24.264  1.00  0.00     0.197 C 
ATOM     72  C   UNL A   1      32.615  26.050  25.181  1.00  0.00     0.070 C 
ATOM     73  N   UNL A   1      32.397  24.449  23.465  1.00  0.00    -0.325 N 
ATOM     74  C   UNL A   1      31.406  26.400  24.330  1.00  0.00     0.136 C 
ATOM     75  C   UNL A   1      31.096  25.088  23.614  1.00  0.00     0.152 C 
BRANCH  73  76
ATOM     76  C   UNL A   1      32.712  23.512  22.510  1.00  0.00     0.233 C 
ATOM     77  O   UNL A   1      33.489  23.798  21.601  1.00  0.00    -0.274 OA
BRANCH  76  78
ATOM     78  C   UNL A   1      32.126  22.110  22.634  1.00  0.00     0.175 C 
BRANCH  78  79
ATOM     79  S   UNL A   1      32.272  21.449  24.333  1.00  0.00    -0.113 SA
BRANCH  79  80
ATOM     80  C   UNL A   1      32.876  19.799  24.008  1.00  0.00     0.044 A 
ATOM     81  C   UNL A   1      32.209  18.964  23.105  1.00  0.00     0.021 A 
ATOM     82  C   UNL A   1      34.005  19.297  24.664  1.00  0.00     0.139 A 
ATOM     83  C   UNL A   1      32.722  17.697  22.801  1.00  0.00     0.040 A 
ATOM     84  C   UNL A   1      34.532  18.048  24.359  1.00  0.00     0.079 A 
ATOM     85  F   UNL A   1      34.613  20.019  25.618  1.00  0.00    -0.206 F 
ATOM     86  C   UNL A   1      33.889  17.261  23.417  1.00  0.00     0.126 A 
ATOM     87  F   UNL A   1      34.396  16.060  23.110  1.00  0.00    -0.207 F 
ENDBRANCH  79  80
ENDBRANCH  78  79
ENDBRANCH  76  78
ENDBRANCH  73  76
BRANCH  74  88
ATOM     88  O   UNL A   1      31.749  27.428  23.397  1.00  0.00    -0.391 OA
ATOM     89  H   UNL A   1      31.058  27.494  22.719  1.00  0.00     0.211 HD
ENDBRANCH  74  88
ENDBRANCH  69  71
ENDBRANCH  68  69
ENDBRANCH   1  68
TORSDOF 19
ENDMDL
