MODEL 1
REMARK VINA RESULT:      -9.3      0.000      0.000
REMARK SMILES O=C(OCCOC(=O)c1cnc(OCC2CC2)c(Cl)c1)c1ccc(-c2c3nc(c(-c4ccc(S(=O)(=O)[O-])cc4)c4ccc([nH]4)c(-c4ccc(S(=O)(=O)[O-])cc4)c4nc(c(-c5ccc(S(=O)(=O)[O-])cc5)c5ccc2[nH]5)C=C4)C=C3)cc1
REMARK SMILES IDX 4 1 3 2 2 3 1 4 21 5 22 6 80 7 23 8 79 9 24 10 25 11 26 12
REMARK SMILES IDX 73 13 27 14 78 15 72 16 74 17 28 18 77 19 71 20 70 21 29 23
REMARK SMILES IDX 59 24 40 25 58 26 41 27 44 28 57 29 75 30 42 31 43 32 56 34
REMARK SMILES IDX 76 35 45 36 30 37 31 38 39 39 32 40 38 41 33 42 34 43 35 44
REMARK SMILES IDX 36 45 37 46 60 47 61 48 69 49 62 50 68 51 63 52 64 53 65 54
REMARK SMILES IDX 66 55 67 56 46 57 47 58 55 59 48 60 54 61 49 62 50 63 51 64
REMARK SMILES IDX 52 65 53 66 5 67 6 68 7 69 8 70 9 71 10 72 20 73 11 74 18 75
REMARK SMILES IDX 12 76 19 77 13 78 14 79 15 80 16 81 17 82
REMARK H PARENT 74 22 44 33
REMARK Flexibility Score: inf
ROOT
ATOM      1  C   UNL A   1      34.072  32.773  27.702  1.00  0.00     0.275 C 
ENDROOT
BRANCH   1   2
ATOM      2  O   UNL A   1      33.830  31.370  27.907  1.00  0.00    -0.458 OA
BRANCH   2   3
ATOM      3  C   UNL A   1      34.538  30.287  27.505  1.00  0.00     0.338 C 
ATOM      4  O   UNL A   1      33.997  29.481  26.750  1.00  0.00    -0.246 OA
BRANCH   3   5
ATOM      5  C   UNL A   1      35.891  29.940  28.042  1.00  0.00     0.060 A 
ATOM      6  C   UNL A   1      37.096  30.063  27.349  1.00  0.00     0.016 A 
ATOM      7  C   UNL A   1      35.939  29.464  29.365  1.00  0.00     0.016 A 
ATOM      8  C   UNL A   1      38.316  29.819  27.979  1.00  0.00     0.010 A 
ATOM      9  C   UNL A   1      37.158  29.227  30.005  1.00  0.00     0.010 A 
ATOM     10  C   UNL A   1      38.358  29.414  29.311  1.00  0.00    -0.014 A 
BRANCH  10  11
ATOM     11  C   UNL A   1      39.670  29.094  29.911  1.00  0.00     0.031 A 
ATOM     12  C   UNL A   1      40.220  30.002  30.970  1.00  0.00     0.074 A 
ATOM     13  C   UNL A   1      40.330  27.983  29.529  1.00  0.00     0.049 A 
ATOM     14  N   UNL A   1      41.336  29.899  31.639  1.00  0.00    -0.248 NA
ATOM     15  C   UNL A   1      39.396  31.167  31.340  1.00  0.00     0.031 C 
ATOM     16  C   UNL A   1      39.888  27.050  28.487  1.00  0.00     0.029 A 
ATOM     17  N   UNL A   1      41.552  27.490  29.912  1.00  0.00    -0.354 N 
ATOM     18  C   UNL A   1      41.314  30.942  32.555  1.00  0.00     0.074 A 
ATOM     19  C   UNL A   1      40.132  31.728  32.286  1.00  0.00     0.031 C 
ATOM     20  C   UNL A   1      40.865  26.159  28.248  1.00  0.00     0.029 A 
ATOM     21  C   UNL A   1      41.996  26.456  29.118  1.00  0.00     0.049 A 
ATOM     22  H   UNL A   1      42.061  27.841  30.677  1.00  0.00     0.167 HD
ATOM     23  C   UNL A   1      42.173  31.184  33.572  1.00  0.00     0.031 A 
ATOM     24  C   UNL A   1      43.201  25.857  29.069  1.00  0.00     0.031 A 
ATOM     25  C   UNL A   1      43.370  30.422  33.792  1.00  0.00     0.049 A 
ATOM     26  C   UNL A   1      44.230  26.252  30.091  1.00  0.00     0.074 A 
ATOM     27  C   UNL A   1      44.313  30.558  34.792  1.00  0.00     0.029 A 
ATOM     28  N   UNL A   1      43.796  29.384  32.974  1.00  0.00    -0.354 N 
ATOM     29  N   UNL A   1      44.160  27.189  31.008  1.00  0.00    -0.248 NA
ATOM     30  C   UNL A   1      45.476  25.477  30.111  1.00  0.00     0.031 C 
ATOM     31  C   UNL A   1      45.334  29.632  34.553  1.00  0.00     0.029 A 
ATOM     32  C   UNL A   1      44.996  28.879  33.437  1.00  0.00     0.049 A 
ATOM     33  H   UNL A   1      43.314  29.055  32.181  1.00  0.00     0.167 HD
ATOM     34  C   UNL A   1      45.325  27.075  31.756  1.00  0.00     0.074 A 
ATOM     35  C   UNL A   1      46.084  25.983  31.174  1.00  0.00     0.031 C 
ATOM     36  C   UNL A   1      45.724  27.788  32.839  1.00  0.00     0.031 A 
BRANCH  23  37
ATOM     37  C   UNL A   1      41.810  32.289  34.524  1.00  0.00    -0.014 A 
ATOM     38  C   UNL A   1      41.798  33.628  34.083  1.00  0.00     0.010 A 
ATOM     39  C   UNL A   1      41.470  32.007  35.857  1.00  0.00     0.010 A 
ATOM     40  C   UNL A   1      41.490  34.665  34.965  1.00  0.00     0.020 A 
ATOM     41  C   UNL A   1      41.136  33.042  36.739  1.00  0.00     0.020 A 
ATOM     42  C   UNL A   1      41.163  34.364  36.289  1.00  0.00     0.054 A 
BRANCH  42  43
ATOM     43  S   UNL A   1      40.742  35.732  37.405  1.00  0.00     0.124 S 
ATOM     44  O   UNL A   1      40.010  36.632  36.517  1.00  0.00    -0.237 OA
ATOM     45  O   UNL A   1      39.937  35.070  38.429  1.00  0.00    -0.237 OA
ATOM     46  O   UNL A   1      42.041  36.223  37.859  1.00  0.00    -0.744 OA
ENDBRANCH  42  43
ENDBRANCH  23  37
BRANCH  24  47
ATOM     47  C   UNL A   1      43.508  24.849  28.016  1.00  0.00    -0.014 A 
ATOM     48  C   UNL A   1      43.246  23.483  28.218  1.00  0.00     0.010 A 
ATOM     49  C   UNL A   1      44.106  25.257  26.808  1.00  0.00     0.010 A 
ATOM     50  C   UNL A   1      43.612  22.540  27.252  1.00  0.00     0.020 A 
ATOM     51  C   UNL A   1      44.451  24.318  25.829  1.00  0.00     0.020 A 
ATOM     52  C   UNL A   1      44.217  22.963  26.065  1.00  0.00     0.054 A 
BRANCH  52  53
ATOM     53  S   UNL A   1      44.678  21.716  24.829  1.00  0.00     0.124 S 
ATOM     54  O   UNL A   1      46.069  21.441  25.176  1.00  0.00    -0.237 OA
ATOM     55  O   UNL A   1      43.731  20.638  25.105  1.00  0.00    -0.237 OA
ATOM     56  O   UNL A   1      44.475  22.403  23.556  1.00  0.00    -0.744 OA
ENDBRANCH  52  53
ENDBRANCH  24  47
BRANCH  36  57
ATOM     57  C   UNL A   1      47.001  27.356  33.504  1.00  0.00    -0.014 A 
ATOM     58  C   UNL A   1      48.208  28.047  33.299  1.00  0.00     0.010 A 
ATOM     59  C   UNL A   1      46.977  26.250  34.373  1.00  0.00     0.010 A 
ATOM     60  C   UNL A   1      49.379  27.610  33.919  1.00  0.00     0.020 A 
ATOM     61  C   UNL A   1      48.138  25.832  35.022  1.00  0.00     0.020 A 
ATOM     62  C   UNL A   1      49.337  26.504  34.776  1.00  0.00     0.054 A 
BRANCH  62  63
ATOM     63  S   UNL A   1      50.866  25.973  35.591  1.00  0.00     0.124 S 
ATOM     64  O   UNL A   1      51.888  26.541  34.716  1.00  0.00    -0.237 OA
ATOM     65  O   UNL A   1      50.755  26.588  36.912  1.00  0.00    -0.237 OA
ATOM     66  O   UNL A   1      50.776  24.515  35.580  1.00  0.00    -0.744 OA
ENDBRANCH  62  63
ENDBRANCH  36  57
ENDBRANCH  10  11
ENDBRANCH   3   5
ENDBRANCH   2   3
ENDBRANCH   1   2
BRANCH   1  67
ATOM     67  C   UNL A   1      32.831  33.672  27.757  1.00  0.00     0.275 C 
BRANCH  67  68
ATOM     68  O   UNL A   1      32.458  34.093  29.079  1.00  0.00    -0.458 OA
BRANCH  68  69
ATOM     69  C   UNL A   1      32.809  35.365  29.398  1.00  0.00     0.339 C 
ATOM     70  O   UNL A   1      32.451  36.387  28.837  1.00  0.00    -0.246 OA
BRANCH  69  71
ATOM     71  C   UNL A   1      33.587  35.362  30.643  1.00  0.00     0.080 A 
ATOM     72  C   UNL A   1      34.582  34.417  30.789  1.00  0.00     0.131 A 
ATOM     73  C   UNL A   1      33.384  36.263  31.680  1.00  0.00     0.043 A 
ATOM     74  N   UNL A   1      35.439  34.398  31.836  1.00  0.00    -0.220 NA
ATOM     75  C   UNL A   1      34.220  36.225  32.812  1.00  0.00     0.104 A 
ATOM     76  C   UNL A   1      35.286  35.316  32.831  1.00  0.00     0.232 A 
ATOM     77  Cl  UNL A   1      33.812  37.334  34.066  1.00  0.00    -0.078 Cl
BRANCH  76  78
ATOM     78  O   UNL A   1      36.347  35.241  33.675  1.00  0.00    -0.476 OA
BRANCH  78  79
ATOM     79  C   UNL A   1      37.221  34.123  33.732  1.00  0.00     0.235 C 
BRANCH  79  80
ATOM     80  C   UNL A   1      36.895  33.167  34.845  1.00  0.00     0.027 C 
ATOM     81  C   UNL A   1      37.841  32.052  35.242  1.00  0.00     0.007 C 
ATOM     82  C   UNL A   1      37.594  33.194  36.175  1.00  0.00     0.007 C 
ENDBRANCH  79  80
ENDBRANCH  78  79
ENDBRANCH  76  78
ENDBRANCH  69  71
ENDBRANCH  68  69
ENDBRANCH  67  68
ENDBRANCH   1  67
TORSDOF 17
ENDMDL
MODEL 2
REMARK VINA RESULT:      -9.3      3.707     11.700
REMARK SMILES O=C(OCCOC(=O)c1cnc(OCC2CC2)c(Cl)c1)c1ccc(-c2c3nc(c(-c4ccc(S(=O)(=O)[O-])cc4)c4ccc([nH]4)c(-c4ccc(S(=O)(=O)[O-])cc4)c4nc(c(-c5ccc(S(=O)(=O)[O-])cc5)c5ccc2[nH]5)C=C4)C=C3)cc1
REMARK SMILES IDX 4 1 3 2 2 3 1 4 21 5 22 6 80 7 23 8 79 9 24 10 25 11 26 12
REMARK SMILES IDX 73 13 27 14 78 15 72 16 74 17 28 18 77 19 71 20 70 21 29 23
REMARK SMILES IDX 59 24 40 25 58 26 41 27 44 28 57 29 75 30 42 31 43 32 56 34
REMARK SMILES IDX 76 35 45 36 30 37 31 38 39 39 32 40 38 41 33 42 34 43 35 44
REMARK SMILES IDX 36 45 37 46 60 47 61 48 69 49 62 50 68 51 63 52 64 53 65 54
REMARK SMILES IDX 66 55 67 56 46 57 47 58 55 59 48 60 54 61 49 62 50 63 51 64
REMARK SMILES IDX 52 65 53 66 5 67 6 68 7 69 8 70 9 71 10 72 20 73 11 74 18 75
REMARK SMILES IDX 12 76 19 77 13 78 14 79 15 80 16 81 17 82
REMARK H PARENT 74 22 44 33
REMARK Flexibility Score: inf
ROOT
ATOM      1  C   UNL A   1      40.411  21.264  26.950  1.00  0.00     0.275 C 
ENDROOT
BRANCH   1   2
ATOM      2  O   UNL A   1      39.358  21.765  26.107  1.00  0.00    -0.458 OA
BRANCH   2   3
ATOM      3  C   UNL A   1      38.720  22.959  26.112  1.00  0.00     0.338 C 
ATOM      4  O   UNL A   1      37.686  23.074  25.456  1.00  0.00    -0.246 OA
BRANCH   3   5
ATOM      5  C   UNL A   1      39.277  24.190  26.755  1.00  0.00     0.060 A 
ATOM      6  C   UNL A   1      40.134  25.108  26.148  1.00  0.00     0.016 A 
ATOM      7  C   UNL A   1      38.882  24.438  28.083  1.00  0.00     0.016 A 
ATOM      8  C   UNL A   1      40.506  26.284  26.797  1.00  0.00     0.010 A 
ATOM      9  C   UNL A   1      39.244  25.619  28.737  1.00  0.00     0.010 A 
ATOM     10  C   UNL A   1      40.056  26.555  28.087  1.00  0.00    -0.014 A 
BRANCH  10  11
ATOM     11  C   UNL A   1      40.540  27.776  28.763  1.00  0.00     0.031 A 
ATOM     12  C   UNL A   1      41.875  27.742  29.445  1.00  0.00     0.074 A 
ATOM     13  C   UNL A   1      39.799  28.901  28.730  1.00  0.00     0.049 A 
ATOM     14  N   UNL A   1      42.496  28.700  30.078  1.00  0.00    -0.248 NA
ATOM     15  C   UNL A   1      42.618  26.472  29.387  1.00  0.00     0.031 C 
ATOM     16  C   UNL A   1      38.474  29.026  28.113  1.00  0.00     0.029 A 
ATOM     17  N   UNL A   1      40.015  30.134  29.292  1.00  0.00    -0.354 N 
ATOM     18  C   UNL A   1      43.729  28.169  30.431  1.00  0.00     0.074 A 
ATOM     19  C   UNL A   1      43.728  26.778  30.040  1.00  0.00     0.031 C 
ATOM     20  C   UNL A   1      37.957  30.229  28.415  1.00  0.00     0.029 A 
ATOM     21  C   UNL A   1      38.912  30.958  29.239  1.00  0.00     0.049 A 
ATOM     22  H   UNL A   1      40.872  30.403  29.694  1.00  0.00     0.167 HD
ATOM     23  C   UNL A   1      44.792  28.804  30.976  1.00  0.00     0.031 A 
ATOM     24  C   UNL A   1      38.687  32.143  29.838  1.00  0.00     0.031 A 
ATOM     25  C   UNL A   1      44.757  30.174  31.405  1.00  0.00     0.049 A 
ATOM     26  C   UNL A   1      39.817  32.776  30.602  1.00  0.00     0.074 A 
ATOM     27  C   UNL A   1      45.768  30.936  31.958  1.00  0.00     0.029 A 
ATOM     28  N   UNL A   1      43.630  30.983  31.343  1.00  0.00    -0.354 N 
ATOM     29  N   UNL A   1      41.010  32.292  30.856  1.00  0.00    -0.248 NA
ATOM     30  C   UNL A   1      39.593  34.134  31.113  1.00  0.00     0.031 C 
ATOM     31  C   UNL A   1      45.240  32.192  32.273  1.00  0.00     0.029 A 
ATOM     32  C   UNL A   1      43.915  32.233  31.861  1.00  0.00     0.049 A 
ATOM     33  H   UNL A   1      42.756  30.708  30.982  1.00  0.00     0.167 HD
ATOM     34  C   UNL A   1      41.702  33.310  31.501  1.00  0.00     0.074 A 
ATOM     35  C   UNL A   1      40.786  34.431  31.604  1.00  0.00     0.031 C 
ATOM     36  C   UNL A   1      42.984  33.328  31.946  1.00  0.00     0.031 A 
BRANCH  23  37
ATOM     37  C   UNL A   1      46.070  28.022  31.092  1.00  0.00    -0.014 A 
ATOM     38  C   UNL A   1      47.077  28.163  30.115  1.00  0.00     0.010 A 
ATOM     39  C   UNL A   1      46.286  27.152  32.173  1.00  0.00     0.010 A 
ATOM     40  C   UNL A   1      48.256  27.421  30.197  1.00  0.00     0.020 A 
ATOM     41  C   UNL A   1      47.478  26.425  32.273  1.00  0.00     0.020 A 
ATOM     42  C   UNL A   1      48.448  26.554  31.276  1.00  0.00     0.054 A 
BRANCH  42  43
ATOM     43  S   UNL A   1      50.002  25.623  31.368  1.00  0.00     0.124 S 
ATOM     44  O   UNL A   1      49.705  24.640  32.408  1.00  0.00    -0.237 OA
ATOM     45  O   UNL A   1      50.130  25.084  30.015  1.00  0.00    -0.237 OA
ATOM     46  O   UNL A   1      50.993  26.633  31.730  1.00  0.00    -0.744 OA
ENDBRANCH  42  43
ENDBRANCH  23  37
BRANCH  24  47
ATOM     47  C   UNL A   1      37.349  32.793  29.762  1.00  0.00    -0.014 A 
ATOM     48  C   UNL A   1      36.975  33.556  28.642  1.00  0.00     0.010 A 
ATOM     49  C   UNL A   1      36.450  32.677  30.839  1.00  0.00     0.010 A 
ATOM     50  C   UNL A   1      35.746  34.225  28.618  1.00  0.00     0.020 A 
ATOM     51  C   UNL A   1      35.210  33.325  30.808  1.00  0.00     0.020 A 
ATOM     52  C   UNL A   1      34.873  34.109  29.705  1.00  0.00     0.054 A 
BRANCH  52  53
ATOM     53  S   UNL A   1      33.284  34.986  29.643  1.00  0.00     0.124 S 
ATOM     54  O   UNL A   1      33.679  36.298  29.138  1.00  0.00    -0.237 OA
ATOM     55  O   UNL A   1      32.507  34.160  28.722  1.00  0.00    -0.237 OA
ATOM     56  O   UNL A   1      32.825  34.961  31.030  1.00  0.00    -0.744 OA
ENDBRANCH  52  53
ENDBRANCH  24  47
BRANCH  36  57
ATOM     57  C   UNL A   1      43.486  34.626  32.514  1.00  0.00    -0.014 A 
ATOM     58  C   UNL A   1      44.043  35.622  31.694  1.00  0.00     0.010 A 
ATOM     59  C   UNL A   1      43.367  34.857  33.896  1.00  0.00     0.010 A 
ATOM     60  C   UNL A   1      44.515  36.810  32.255  1.00  0.00     0.020 A 
ATOM     61  C   UNL A   1      43.804  36.057  34.456  1.00  0.00     0.020 A 
ATOM     62  C   UNL A   1      44.393  37.019  33.634  1.00  0.00     0.054 A 
BRANCH  62  63
ATOM     63  S   UNL A   1      44.987  38.581  34.336  1.00  0.00     0.124 S 
ATOM     64  O   UNL A   1      46.436  38.405  34.280  1.00  0.00    -0.237 OA
ATOM     65  O   UNL A   1      44.436  39.575  33.417  1.00  0.00    -0.237 OA
ATOM     66  O   UNL A   1      44.413  38.597  35.679  1.00  0.00    -0.744 OA
ENDBRANCH  62  63
ENDBRANCH  36  57
ENDBRANCH  10  11
ENDBRANCH   3   5
ENDBRANCH   2   3
ENDBRANCH   1   2
BRANCH   1  67
ATOM     67  C   UNL A   1      41.659  20.757  26.218  1.00  0.00     0.275 C 
BRANCH  67  68
ATOM     68  O   UNL A   1      42.304  21.737  25.390  1.00  0.00    -0.458 OA
BRANCH  68  69
ATOM     69  C   UNL A   1      43.661  21.729  25.438  1.00  0.00     0.339 C 
ATOM     70  O   UNL A   1      44.402  20.843  25.047  1.00  0.00    -0.246 OA
BRANCH  69  71
ATOM     71  C   UNL A   1      44.143  23.034  25.906  1.00  0.00     0.080 A 
ATOM     72  C   UNL A   1      45.099  23.060  26.900  1.00  0.00     0.131 A 
ATOM     73  C   UNL A   1      43.697  24.247  25.396  1.00  0.00     0.043 A 
ATOM     74  N   UNL A   1      45.701  24.197  27.321  1.00  0.00    -0.220 NA
ATOM     75  C   UNL A   1      44.261  25.450  25.861  1.00  0.00     0.104 A 
ATOM     76  C   UNL A   1      45.313  25.387  26.785  1.00  0.00     0.232 A 
ATOM     77  Cl  UNL A   1      43.564  26.888  25.217  1.00  0.00    -0.078 Cl
BRANCH  76  78
ATOM     78  O   UNL A   1      46.161  26.362  27.200  1.00  0.00    -0.476 OA
BRANCH  78  79
ATOM     79  C   UNL A   1      47.490  26.500  26.716  1.00  0.00     0.235 C 
BRANCH  79  80
ATOM     80  C   UNL A   1      47.564  26.722  25.232  1.00  0.00     0.027 C 
ATOM     81  C   UNL A   1      48.854  27.128  24.549  1.00  0.00     0.007 C 
ATOM     82  C   UNL A   1      48.266  25.776  24.299  1.00  0.00     0.007 C 
ENDBRANCH  79  80
ENDBRANCH  78  79
ENDBRANCH  76  78
ENDBRANCH  69  71
ENDBRANCH  68  69
ENDBRANCH  67  68
ENDBRANCH   1  67
TORSDOF 17
ENDMDL
MODEL 3
REMARK VINA RESULT:      -9.2      4.099     10.498
REMARK SMILES O=C(OCCOC(=O)c1cnc(OCC2CC2)c(Cl)c1)c1ccc(-c2c3nc(c(-c4ccc(S(=O)(=O)[O-])cc4)c4ccc([nH]4)c(-c4ccc(S(=O)(=O)[O-])cc4)c4nc(c(-c5ccc(S(=O)(=O)[O-])cc5)c5ccc2[nH]5)C=C4)C=C3)cc1
REMARK SMILES IDX 4 1 3 2 2 3 1 4 21 5 22 6 80 7 23 8 79 9 24 10 25 11 26 12
REMARK SMILES IDX 73 13 27 14 78 15 72 16 74 17 28 18 77 19 71 20 70 21 29 23
REMARK SMILES IDX 59 24 40 25 58 26 41 27 44 28 57 29 75 30 42 31 43 32 56 34
REMARK SMILES IDX 76 35 45 36 30 37 31 38 39 39 32 40 38 41 33 42 34 43 35 44
REMARK SMILES IDX 36 45 37 46 60 47 61 48 69 49 62 50 68 51 63 52 64 53 65 54
REMARK SMILES IDX 66 55 67 56 46 57 47 58 55 59 48 60 54 61 49 62 50 63 51 64
REMARK SMILES IDX 52 65 53 66 5 67 6 68 7 69 8 70 9 71 10 72 20 73 11 74 18 75
REMARK SMILES IDX 12 76 19 77 13 78 14 79 15 80 16 81 17 82
REMARK H PARENT 74 22 44 33
REMARK Flexibility Score: inf
ROOT
ATOM      1  C   UNL A   1      36.962  23.641  24.690  1.00  0.00     0.275 C 
ENDROOT
BRANCH   1   2
ATOM      2  O   UNL A   1      37.767  22.768  25.502  1.00  0.00    -0.458 OA
BRANCH   2   3
ATOM      3  C   UNL A   1      38.952  22.987  26.120  1.00  0.00     0.338 C 
ATOM      4  O   UNL A   1      39.762  22.063  26.179  1.00  0.00    -0.246 OA
BRANCH   3   5
ATOM      5  C   UNL A   1      39.277  24.246  26.861  1.00  0.00     0.060 A 
ATOM      6  C   UNL A   1      38.841  24.568  28.146  1.00  0.00     0.016 A 
ATOM      7  C   UNL A   1      40.106  25.169  26.197  1.00  0.00     0.016 A 
ATOM      8  C   UNL A   1      39.293  25.717  28.792  1.00  0.00     0.010 A 
ATOM      9  C   UNL A   1      40.570  26.319  26.842  1.00  0.00     0.010 A 
ATOM     10  C   UNL A   1      40.169  26.593  28.153  1.00  0.00    -0.014 A 
BRANCH  10  11
ATOM     11  C   UNL A   1      40.558  27.836  28.849  1.00  0.00     0.031 A 
ATOM     12  C   UNL A   1      41.831  27.851  29.643  1.00  0.00     0.074 A 
ATOM     13  C   UNL A   1      39.792  28.939  28.734  1.00  0.00     0.049 A 
ATOM     14  N   UNL A   1      42.368  28.835  30.312  1.00  0.00    -0.248 NA
ATOM     15  C   UNL A   1      42.612  26.602  29.669  1.00  0.00     0.031 C 
ATOM     16  C   UNL A   1      38.522  29.016  28.005  1.00  0.00     0.029 A 
ATOM     17  N   UNL A   1      39.924  30.185  29.293  1.00  0.00    -0.354 N 
ATOM     18  C   UNL A   1      43.580  28.345  30.778  1.00  0.00     0.074 A 
ATOM     19  C   UNL A   1      43.652  26.950  30.410  1.00  0.00     0.031 C 
ATOM     20  C   UNL A   1      37.948  30.208  28.242  1.00  0.00     0.029 A 
ATOM     21  C   UNL A   1      38.807  30.975  29.134  1.00  0.00     0.049 A 
ATOM     22  H   UNL A   1      40.736  30.484  29.763  1.00  0.00     0.167 HD
ATOM     23  C   UNL A   1      44.574  29.018  31.401  1.00  0.00     0.031 A 
ATOM     24  C   UNL A   1      38.499  32.161  29.692  1.00  0.00     0.031 A 
ATOM     25  C   UNL A   1      44.464  30.392  31.804  1.00  0.00     0.049 A 
ATOM     26  C   UNL A   1      39.540  32.837  30.540  1.00  0.00     0.074 A 
ATOM     27  C   UNL A   1      45.402  31.190  32.430  1.00  0.00     0.029 A 
ATOM     28  N   UNL A   1      43.324  31.167  31.633  1.00  0.00    -0.354 N 
ATOM     29  N   UNL A   1      40.720  32.391  30.903  1.00  0.00    -0.248 NA
ATOM     30  C   UNL A   1      39.235  34.194  31.008  1.00  0.00     0.031 C 
ATOM     31  C   UNL A   1      44.814  32.435  32.679  1.00  0.00     0.029 A 
ATOM     32  C   UNL A   1      43.529  32.431  32.154  1.00  0.00     0.049 A 
ATOM     33  H   UNL A   1      42.493  30.862  31.203  1.00  0.00     0.167 HD
ATOM     34  C   UNL A   1      41.325  33.438  31.588  1.00  0.00     0.074 A 
ATOM     35  C   UNL A   1      40.373  34.533  31.596  1.00  0.00     0.031 C 
ATOM     36  C   UNL A   1      42.563  33.500  32.141  1.00  0.00     0.031 A 
BRANCH  23  37
ATOM     37  C   UNL A   1      45.859  28.275  31.638  1.00  0.00    -0.014 A 
ATOM     38  C   UNL A   1      46.052  27.560  32.838  1.00  0.00     0.010 A 
ATOM     39  C   UNL A   1      46.878  28.273  30.671  1.00  0.00     0.010 A 
ATOM     40  C   UNL A   1      47.252  26.890  33.081  1.00  0.00     0.020 A 
ATOM     41  C   UNL A   1      48.072  27.581  30.900  1.00  0.00     0.020 A 
ATOM     42  C   UNL A   1      48.256  26.907  32.110  1.00  0.00     0.054 A 
BRANCH  42  43
ATOM     43  S   UNL A   1      49.794  26.005  32.445  1.00  0.00     0.124 S 
ATOM     44  O   UNL A   1      50.452  26.878  33.415  1.00  0.00    -0.237 OA
ATOM     45  O   UNL A   1      49.308  24.733  32.976  1.00  0.00    -0.237 OA
ATOM     46  O   UNL A   1      50.442  25.925  31.139  1.00  0.00    -0.744 OA
ENDBRANCH  42  43
ENDBRANCH  23  37
BRANCH  24  47
ATOM     47  C   UNL A   1      37.154  32.770  29.491  1.00  0.00    -0.014 A 
ATOM     48  C   UNL A   1      36.902  33.636  28.413  1.00  0.00     0.010 A 
ATOM     49  C   UNL A   1      36.121  32.511  30.412  1.00  0.00     0.010 A 
ATOM     50  C   UNL A   1      35.658  34.262  28.281  1.00  0.00     0.020 A 
ATOM     51  C   UNL A   1      34.868  33.116  30.270  1.00  0.00     0.020 A 
ATOM     52  C   UNL A   1      34.650  34.002  29.214  1.00  0.00     0.054 A 
BRANCH  52  53
ATOM     53  S   UNL A   1      33.045  34.826  29.015  1.00  0.00     0.124 S 
ATOM     54  O   UNL A   1      33.433  36.121  28.462  1.00  0.00    -0.237 OA
ATOM     55  O   UNL A   1      32.345  33.930  28.098  1.00  0.00    -0.237 OA
ATOM     56  O   UNL A   1      32.506  34.862  30.373  1.00  0.00    -0.744 OA
ENDBRANCH  52  53
ENDBRANCH  24  47
BRANCH  36  57
ATOM     57  C   UNL A   1      42.977  34.819  32.730  1.00  0.00    -0.014 A 
ATOM     58  C   UNL A   1      43.694  35.768  31.979  1.00  0.00     0.010 A 
ATOM     59  C   UNL A   1      42.613  35.120  34.055  1.00  0.00     0.010 A 
ATOM     60  C   UNL A   1      44.078  36.977  32.561  1.00  0.00     0.020 A 
ATOM     61  C   UNL A   1      42.964  36.342  34.628  1.00  0.00     0.020 A 
ATOM     62  C   UNL A   1      43.710  37.255  33.883  1.00  0.00     0.054 A 
BRANCH  62  63
ATOM     63  S   UNL A   1      44.196  38.844  34.607  1.00  0.00     0.124 S 
ATOM     64  O   UNL A   1      43.151  39.735  34.110  1.00  0.00    -0.237 OA
ATOM     65  O   UNL A   1      44.160  38.568  36.041  1.00  0.00    -0.237 OA
ATOM     66  O   UNL A   1      45.530  39.081  34.057  1.00  0.00    -0.744 OA
ENDBRANCH  62  63
ENDBRANCH  36  57
ENDBRANCH  10  11
ENDBRANCH   3   5
ENDBRANCH   2   3
ENDBRANCH   1   2
BRANCH   1  67
ATOM     67  C   UNL A   1      36.134  22.950  23.599  1.00  0.00     0.275 C 
BRANCH  67  68
ATOM     68  O   UNL A   1      34.714  22.984  23.817  1.00  0.00    -0.458 OA
BRANCH  68  69
ATOM     69  C   UNL A   1      34.009  23.704  22.907  1.00  0.00     0.339 C 
ATOM     70  O   UNL A   1      33.751  23.382  21.760  1.00  0.00    -0.246 OA
BRANCH  69  71
ATOM     71  C   UNL A   1      33.455  24.901  23.551  1.00  0.00     0.080 A 
ATOM     72  C   UNL A   1      32.707  24.739  24.699  1.00  0.00     0.131 A 
ATOM     73  C   UNL A   1      33.649  26.192  23.074  1.00  0.00     0.043 A 
ATOM     74  N   UNL A   1      32.252  25.775  25.441  1.00  0.00    -0.220 NA
ATOM     75  C   UNL A   1      33.131  27.286  23.792  1.00  0.00     0.104 A 
ATOM     76  C   UNL A   1      32.488  27.047  25.013  1.00  0.00     0.232 A 
ATOM     77  Cl  UNL A   1      33.362  28.826  23.053  1.00  0.00    -0.078 Cl
BRANCH  76  78
ATOM     78  O   UNL A   1      32.119  27.920  25.985  1.00  0.00    -0.476 OA
BRANCH  78  79
ATOM     79  C   UNL A   1      32.976  28.313  27.048  1.00  0.00     0.235 C 
BRANCH  79  80
ATOM     80  C   UNL A   1      33.816  29.516  26.725  1.00  0.00     0.027 C 
ATOM     81  C   UNL A   1      33.647  30.828  27.463  1.00  0.00     0.007 C 
ATOM     82  C   UNL A   1      34.897  30.025  27.637  1.00  0.00     0.007 C 
ENDBRANCH  79  80
ENDBRANCH  78  79
ENDBRANCH  76  78
ENDBRANCH  69  71
ENDBRANCH  68  69
ENDBRANCH  67  68
ENDBRANCH   1  67
TORSDOF 17
ENDMDL
