MODEL 1
REMARK VINA RESULT:      -9.5      0.000      0.000
REMARK SMILES C/C=C/c1cncc(-c2ccc([C@@H](C)C(=O)OCCOC(=O)c3ccc(-c4c5nc(c(-c6ccc(S(=O)(=O)[O-])cc6)c6ccc([nH]6)c(-c6ccc(S(=O)(=O)[O-])cc6)c6nc(c(-c7ccc(S(=O)(=O)[O-])cc7)c7ccc4[nH]7)C=C6)C=C5)cc3)cc2)c1
REMARK SMILES IDX 18 1 17 2 15 3 16 4 13 5 14 6 12 7 9 8 10 9 84 10 11 11
REMARK SMILES IDX 83 12 8 13 4 14 5 15 85 16 6 17 7 18 3 19 1 20 2 21 19 22
REMARK SMILES IDX 20 23 21 24 22 25 23 26 24 27 82 28 25 29 81 30 26 31 27 32
REMARK SMILES IDX 28 33 75 34 29 35 80 36 74 37 76 38 30 39 79 40 73 41 72 42
REMARK SMILES IDX 31 44 61 45 42 46 60 47 43 48 46 49 59 50 77 51 44 52 45 53
REMARK SMILES IDX 58 55 78 56 47 57 32 58 33 59 41 60 34 61 40 62 35 63 36 64
REMARK SMILES IDX 37 65 38 66 39 67 62 68 63 69 71 70 64 71 70 72 65 73 66 74
REMARK SMILES IDX 67 75 68 76 69 77 48 78 49 79 57 80 50 81 56 82 51 83 52 84
REMARK SMILES IDX 53 85 54 86 55 87
REMARK H PARENT 76 43 46 54
REMARK Flexibility Score: inf
ROOT
ATOM      1  C   UNL A   1      41.907  20.749  26.450  1.00  0.00     0.274 C 
ENDROOT
BRANCH   1   2
ATOM      2  O   UNL A   1      42.617  21.516  25.459  1.00  0.00    -0.462 OA
BRANCH   2   3
ATOM      3  C   UNL A   1      43.093  22.728  25.849  1.00  0.00     0.313 C 
ATOM      4  O   UNL A   1      43.013  23.163  26.993  1.00  0.00    -0.252 OA
BRANCH   3   5
ATOM      5  C   UNL A   1      43.693  23.547  24.711  1.00  0.00     0.126 C 
ATOM      6  C   UNL A   1      44.777  22.733  24.008  1.00  0.00     0.025 C 
BRANCH   5   7
ATOM      7  C   UNL A   1      44.160  24.948  25.077  1.00  0.00    -0.034 A 
ATOM      8  C   UNL A   1      45.074  27.545  25.789  1.00  0.00    -0.017 A 
ATOM      9  C   UNL A   1      43.763  27.334  25.335  1.00  0.00     0.009 A 
ATOM     10  C   UNL A   1      45.926  26.436  25.868  1.00  0.00     0.009 A 
ATOM     11  C   UNL A   1      43.311  26.058  24.987  1.00  0.00     0.005 A 
ATOM     12  C   UNL A   1      45.475  25.157  25.522  1.00  0.00     0.005 A 
BRANCH   8  13
ATOM     13  C   UNL A   1      45.521  28.885  26.188  1.00  0.00     0.001 A 
ATOM     14  C   UNL A   1      45.115  31.106  27.095  1.00  0.00    -0.007 A 
ATOM     15  C   UNL A   1      46.473  31.358  26.919  1.00  0.00     0.119 A 
ATOM     16  C   UNL A   1      44.642  29.847  26.704  1.00  0.00     0.020 A 
ATOM     17  N   UNL A   1      47.363  30.469  26.424  1.00  0.00    -0.263 NA
ATOM     18  C   UNL A   1      46.861  29.261  26.072  1.00  0.00     0.119 A 
BRANCH  14  19
ATOM     19  C   UNL A   1      44.247  32.160  27.631  1.00  0.00     0.005 C 
ATOM     20  C   UNL A   1      43.692  34.526  28.221  1.00  0.00     0.035 C 
ATOM     21  C   UNL A   1      44.597  33.455  27.703  1.00  0.00    -0.030 C 
ENDBRANCH  14  19
ENDBRANCH   8  13
ENDBRANCH   5   7
ENDBRANCH   3   5
ENDBRANCH   2   3
ENDBRANCH   1   2
BRANCH   1  22
ATOM     22  C   UNL A   1      40.393  20.868  26.265  1.00  0.00     0.275 C 
BRANCH  22  23
ATOM     23  O   UNL A   1      39.850  21.908  27.095  1.00  0.00    -0.458 OA
BRANCH  23  24
ATOM     24  C   UNL A   1      39.091  22.823  26.447  1.00  0.00     0.338 C 
ATOM     25  O   UNL A   1      38.253  22.618  25.588  1.00  0.00    -0.246 OA
BRANCH  24  26
ATOM     26  C   UNL A   1      39.348  24.153  27.015  1.00  0.00     0.060 A 
ATOM     27  C   UNL A   1      40.046  25.080  26.239  1.00  0.00     0.016 A 
ATOM     28  C   UNL A   1      38.982  24.455  28.328  1.00  0.00     0.016 A 
ATOM     29  C   UNL A   1      40.400  26.314  26.776  1.00  0.00     0.010 A 
ATOM     30  C   UNL A   1      39.327  25.699  28.863  1.00  0.00     0.010 A 
ATOM     31  C   UNL A   1      40.052  26.629  28.095  1.00  0.00    -0.014 A 
BRANCH  31  32
ATOM     32  C   UNL A   1      40.495  27.914  28.684  1.00  0.00     0.031 A 
ATOM     33  C   UNL A   1      41.921  28.081  29.127  1.00  0.00     0.074 A 
ATOM     34  C   UNL A   1      39.625  28.934  28.797  1.00  0.00     0.049 A 
ATOM     35  N   UNL A   1      42.493  29.110  29.696  1.00  0.00    -0.248 NA
ATOM     36  C   UNL A   1      42.820  26.940  28.897  1.00  0.00     0.031 C 
ATOM     37  C   UNL A   1      38.231  28.909  28.353  1.00  0.00     0.029 A 
ATOM     38  N   UNL A   1      39.792  30.194  29.312  1.00  0.00    -0.354 N 
ATOM     39  C   UNL A   1      43.812  28.736  29.917  1.00  0.00     0.074 A 
ATOM     40  C   UNL A   1      43.952  27.379  29.429  1.00  0.00     0.031 C 
ATOM     41  C   UNL A   1      37.675  30.107  28.596  1.00  0.00     0.029 A 
ATOM     42  C   UNL A   1      38.657  30.966  29.254  1.00  0.00     0.049 A 
ATOM     43  H   UNL A   1      40.644  30.516  29.687  1.00  0.00     0.167 HD
ATOM     44  C   UNL A   1      44.816  29.455  30.476  1.00  0.00     0.031 A 
ATOM     45  C   UNL A   1      38.430  32.218  29.695  1.00  0.00     0.031 A 
ATOM     46  C   UNL A   1      44.672  30.800  30.962  1.00  0.00     0.049 A 
ATOM     47  C   UNL A   1      39.539  32.970  30.376  1.00  0.00     0.074 A 
ATOM     48  C   UNL A   1      45.632  31.619  31.532  1.00  0.00     0.029 A 
ATOM     49  N   UNL A   1      43.489  31.526  30.943  1.00  0.00    -0.354 N 
ATOM     50  N   UNL A   1      40.780  32.600  30.580  1.00  0.00    -0.248 NA
ATOM     51  C   UNL A   1      39.212  34.306  30.892  1.00  0.00     0.031 C 
ATOM     52  C   UNL A   1      45.019  32.823  31.898  1.00  0.00     0.029 A 
ATOM     53  C   UNL A   1      43.687  32.772  31.515  1.00  0.00     0.049 A 
ATOM     54  H   UNL A   1      42.635  31.202  30.577  1.00  0.00     0.167 HD
ATOM     55  C   UNL A   1      41.389  33.666  31.232  1.00  0.00     0.074 A 
ATOM     56  C   UNL A   1      40.381  34.697  31.381  1.00  0.00     0.031 C 
ATOM     57  C   UNL A   1      42.669  33.780  31.667  1.00  0.00     0.031 A 
BRANCH  44  58
ATOM     58  C   UNL A   1      46.142  28.763  30.635  1.00  0.00    -0.014 A 
ATOM     59  C   UNL A   1      47.084  28.735  29.591  1.00  0.00     0.010 A 
ATOM     60  C   UNL A   1      46.442  28.117  31.847  1.00  0.00     0.010 A 
ATOM     61  C   UNL A   1      48.278  28.022  29.736  1.00  0.00     0.020 A 
ATOM     62  C   UNL A   1      47.645  27.423  32.005  1.00  0.00     0.020 A 
ATOM     63  C   UNL A   1      48.543  27.357  30.938  1.00  0.00     0.054 A 
BRANCH  63  64
ATOM     64  S   UNL A   1      50.084  26.414  31.097  1.00  0.00     0.124 S 
ATOM     65  O   UNL A   1      50.984  27.408  31.677  1.00  0.00    -0.237 OA
ATOM     66  O   UNL A   1      49.706  25.317  31.985  1.00  0.00    -0.237 OA
ATOM     67  O   UNL A   1      50.392  26.021  29.724  1.00  0.00    -0.744 OA
ENDBRANCH  63  64
ENDBRANCH  44  58
BRANCH  45  68
ATOM     68  C   UNL A   1      37.089  32.832  29.507  1.00  0.00    -0.014 A 
ATOM     69  C   UNL A   1      36.245  33.039  30.611  1.00  0.00     0.010 A 
ATOM     70  C   UNL A   1      36.666  33.245  28.231  1.00  0.00     0.010 A 
ATOM     71  C   UNL A   1      35.000  33.653  30.443  1.00  0.00     0.020 A 
ATOM     72  C   UNL A   1      35.431  33.878  28.063  1.00  0.00     0.020 A 
ATOM     73  C   UNL A   1      34.604  34.074  29.170  1.00  0.00     0.054 A 
BRANCH  73  74
ATOM     74  S   UNL A   1      33.019  34.941  28.987  1.00  0.00     0.124 S 
ATOM     75  O   UNL A   1      32.346  34.131  27.976  1.00  0.00    -0.237 OA
ATOM     76  O   UNL A   1      32.459  34.865  30.334  1.00  0.00    -0.237 OA
ATOM     77  O   UNL A   1      33.413  36.281  28.559  1.00  0.00    -0.744 OA
ENDBRANCH  73  74
ENDBRANCH  45  68
BRANCH  57  78
ATOM     78  C   UNL A   1      43.055  35.076  32.325  1.00  0.00    -0.014 A 
ATOM     79  C   UNL A   1      43.654  36.113  31.588  1.00  0.00     0.010 A 
ATOM     80  C   UNL A   1      42.780  35.271  33.690  1.00  0.00     0.010 A 
ATOM     81  C   UNL A   1      43.997  37.315  32.213  1.00  0.00     0.020 A 
ATOM     82  C   UNL A   1      43.103  36.479  34.313  1.00  0.00     0.020 A 
ATOM     83  C   UNL A   1      43.723  37.489  33.574  1.00  0.00     0.054 A 
BRANCH  83  84
ATOM     84  S   UNL A   1      44.140  39.070  34.359  1.00  0.00     0.124 S 
ATOM     85  O   UNL A   1      44.131  38.717  35.776  1.00  0.00    -0.237 OA
ATOM     86  O   UNL A   1      45.453  39.375  33.796  1.00  0.00    -0.237 OA
ATOM     87  O   UNL A   1      43.065  39.962  33.930  1.00  0.00    -0.744 OA
ENDBRANCH  83  84
ENDBRANCH  57  78
ENDBRANCH  31  32
ENDBRANCH  24  26
ENDBRANCH  23  24
ENDBRANCH  22  23
ENDBRANCH   1  22
TORSDOF 17
ENDMDL
MODEL 2
REMARK VINA RESULT:      -9.0      3.035     10.872
REMARK SMILES C/C=C/c1cncc(-c2ccc([C@@H](C)C(=O)OCCOC(=O)c3ccc(-c4c5nc(c(-c6ccc(S(=O)(=O)[O-])cc6)c6ccc([nH]6)c(-c6ccc(S(=O)(=O)[O-])cc6)c6nc(c(-c7ccc(S(=O)(=O)[O-])cc7)c7ccc4[nH]7)C=C6)C=C5)cc3)cc2)c1
REMARK SMILES IDX 18 1 17 2 15 3 16 4 13 5 14 6 12 7 9 8 10 9 84 10 11 11
REMARK SMILES IDX 83 12 8 13 4 14 5 15 85 16 6 17 7 18 3 19 1 20 2 21 19 22
REMARK SMILES IDX 20 23 21 24 22 25 23 26 24 27 82 28 25 29 81 30 26 31 27 32
REMARK SMILES IDX 28 33 75 34 29 35 80 36 74 37 76 38 30 39 79 40 73 41 72 42
REMARK SMILES IDX 31 44 61 45 42 46 60 47 43 48 46 49 59 50 77 51 44 52 45 53
REMARK SMILES IDX 58 55 78 56 47 57 32 58 33 59 41 60 34 61 40 62 35 63 36 64
REMARK SMILES IDX 37 65 38 66 39 67 62 68 63 69 71 70 64 71 70 72 65 73 66 74
REMARK SMILES IDX 67 75 68 76 69 77 48 78 49 79 57 80 50 81 56 82 51 83 52 84
REMARK SMILES IDX 53 85 54 86 55 87
REMARK H PARENT 76 43 46 54
REMARK Flexibility Score: inf
ROOT
ATOM      1  C   UNL A   1      34.724  33.947  29.574  1.00  0.00     0.274 C 
ENDROOT
BRANCH   1   2
ATOM      2  O   UNL A   1      35.614  33.270  30.481  1.00  0.00    -0.462 OA
BRANCH   2   3
ATOM      3  C   UNL A   1      35.121  32.971  31.712  1.00  0.00     0.313 C 
ATOM      4  O   UNL A   1      34.093  32.329  31.905  1.00  0.00    -0.252 OA
BRANCH   3   5
ATOM      5  C   UNL A   1      35.932  33.564  32.859  1.00  0.00     0.126 C 
ATOM      6  C   UNL A   1      36.372  34.982  32.499  1.00  0.00     0.025 C 
BRANCH   5   7
ATOM      7  C   UNL A   1      37.082  32.708  33.371  1.00  0.00    -0.034 A 
ATOM      8  C   UNL A   1      39.200  31.067  34.323  1.00  0.00    -0.017 A 
ATOM      9  C   UNL A   1      39.206  32.455  34.529  1.00  0.00     0.009 A 
ATOM     10  C   UNL A   1      38.122  30.514  33.619  1.00  0.00     0.009 A 
ATOM     11  C   UNL A   1      38.165  33.263  34.064  1.00  0.00     0.005 A 
ATOM     12  C   UNL A   1      37.077  31.322  33.154  1.00  0.00     0.005 A 
BRANCH   8  13
ATOM     13  C   UNL A   1      40.281  30.227  34.851  1.00  0.00     0.001 A 
ATOM     14  C   UNL A   1      41.771  28.307  34.725  1.00  0.00    -0.007 A 
ATOM     15  C   UNL A   1      42.330  28.741  35.925  1.00  0.00     0.119 A 
ATOM     16  C   UNL A   1      40.718  29.066  34.198  1.00  0.00     0.020 A 
ATOM     17  N   UNL A   1      41.944  29.849  36.597  1.00  0.00    -0.263 NA
ATOM     18  C   UNL A   1      40.932  30.557  36.041  1.00  0.00     0.119 A 
BRANCH  14  19
ATOM     19  C   UNL A   1      42.268  27.078  34.098  1.00  0.00     0.005 C 
ATOM     20  C   UNL A   1      44.037  25.403  33.536  1.00  0.00     0.035 C 
ATOM     21  C   UNL A   1      43.548  26.674  34.151  1.00  0.00    -0.030 C 
ENDBRANCH  14  19
ENDBRANCH   8  13
ENDBRANCH   5   7
ENDBRANCH   3   5
ENDBRANCH   2   3
ENDBRANCH   1   2
BRANCH   1  22
ATOM     22  C   UNL A   1      34.314  33.035  28.415  1.00  0.00     0.275 C 
BRANCH  22  23
ATOM     23  O   UNL A   1      34.232  31.664  28.839  1.00  0.00    -0.458 OA
BRANCH  23  24
ATOM     24  C   UNL A   1      34.545  30.749  27.892  1.00  0.00     0.338 C 
ATOM     25  O   UNL A   1      33.919  30.481  26.884  1.00  0.00    -0.246 OA
BRANCH  24  26
ATOM     26  C   UNL A   1      35.857  30.165  28.201  1.00  0.00     0.060 A 
ATOM     27  C   UNL A   1      36.087  29.704  29.499  1.00  0.00     0.016 A 
ATOM     28  C   UNL A   1      36.877  30.150  27.248  1.00  0.00     0.016 A 
ATOM     29  C   UNL A   1      37.347  29.238  29.860  1.00  0.00     0.010 A 
ATOM     30  C   UNL A   1      38.140  29.671  27.609  1.00  0.00     0.010 A 
ATOM     31  C   UNL A   1      38.386  29.227  28.921  1.00  0.00    -0.014 A 
BRANCH  31  32
ATOM     32  C   UNL A   1      39.743  28.799  29.332  1.00  0.00     0.031 A 
ATOM     33  C   UNL A   1      40.590  29.708  30.177  1.00  0.00     0.074 A 
ATOM     34  C   UNL A   1      40.202  27.587  28.970  1.00  0.00     0.049 A 
ATOM     35  N   UNL A   1      41.812  29.532  30.608  1.00  0.00    -0.248 NA
ATOM     36  C   UNL A   1      39.980  30.981  30.589  1.00  0.00     0.031 C 
ATOM     37  C   UNL A   1      39.452  26.596  28.198  1.00  0.00     0.029 A 
ATOM     38  N   UNL A   1      41.408  26.982  29.214  1.00  0.00    -0.354 N 
ATOM     39  C   UNL A   1      42.129  30.681  31.323  1.00  0.00     0.074 A 
ATOM     40  C   UNL A   1      40.974  31.551  31.256  1.00  0.00     0.031 C 
ATOM     41  C   UNL A   1      40.208  25.496  28.049  1.00  0.00     0.029 A 
ATOM     42  C   UNL A   1      41.509  25.722  28.673  1.00  0.00     0.049 A 
ATOM     43  H   UNL A   1      42.131  27.407  29.728  1.00  0.00     0.167 HD
ATOM     44  C   UNL A   1      43.279  30.984  31.974  1.00  0.00     0.031 A 
ATOM     45  C   UNL A   1      42.540  24.856  28.668  1.00  0.00     0.031 A 
ATOM     46  C   UNL A   1      44.426  30.118  32.034  1.00  0.00     0.049 A 
ATOM     47  C   UNL A   1      43.830  25.243  29.335  1.00  0.00     0.074 A 
ATOM     48  C   UNL A   1      45.632  30.328  32.680  1.00  0.00     0.029 A 
ATOM     49  N   UNL A   1      44.513  28.877  31.420  1.00  0.00    -0.354 N 
ATOM     50  N   UNL A   1      44.115  26.336  30.004  1.00  0.00    -0.248 NA
ATOM     51  C   UNL A   1      44.938  24.284  29.241  1.00  0.00     0.031 C 
ATOM     52  C   UNL A   1      46.464  29.233  32.419  1.00  0.00     0.029 A 
ATOM     53  C   UNL A   1      45.760  28.321  31.648  1.00  0.00     0.049 A 
ATOM     54  H   UNL A   1      43.793  28.454  30.899  1.00  0.00     0.167 HD
ATOM     55  C   UNL A   1      45.431  26.186  30.426  1.00  0.00     0.074 A 
ATOM     56  C   UNL A   1      45.882  24.895  29.944  1.00  0.00     0.031 C 
ATOM     57  C   UNL A   1      46.196  27.041  31.150  1.00  0.00     0.031 A 
BRANCH  44  58
ATOM     58  C   UNL A   1      43.357  32.339  32.622  1.00  0.00    -0.014 A 
ATOM     59  C   UNL A   1      43.076  32.514  33.990  1.00  0.00     0.010 A 
ATOM     60  C   UNL A   1      43.703  33.458  31.844  1.00  0.00     0.010 A 
ATOM     61  C   UNL A   1      43.083  33.794  34.553  1.00  0.00     0.020 A 
ATOM     62  C   UNL A   1      43.732  34.736  32.409  1.00  0.00     0.020 A 
ATOM     63  C   UNL A   1      43.395  34.898  33.754  1.00  0.00     0.054 A 
BRANCH  63  64
ATOM     64  S   UNL A   1      43.369  36.553  34.496  1.00  0.00     0.124 S 
ATOM     65  O   UNL A   1      44.527  36.500  35.386  1.00  0.00    -0.237 OA
ATOM     66  O   UNL A   1      43.509  37.433  33.338  1.00  0.00    -0.237 OA
ATOM     67  O   UNL A   1      42.073  36.611  35.165  1.00  0.00    -0.744 OA
ENDBRANCH  63  64
ENDBRANCH  44  58
BRANCH  45  68
ATOM     68  C   UNL A   1      42.389  23.538  27.999  1.00  0.00    -0.014 A 
ATOM     69  C   UNL A   1      43.010  23.295  26.763  1.00  0.00     0.010 A 
ATOM     70  C   UNL A   1      41.655  22.506  28.612  1.00  0.00     0.010 A 
ATOM     71  C   UNL A   1      42.903  22.043  26.151  1.00  0.00     0.020 A 
ATOM     72  C   UNL A   1      41.563  21.246  28.014  1.00  0.00     0.020 A 
ATOM     73  C   UNL A   1      42.184  21.024  26.784  1.00  0.00     0.054 A 
BRANCH  73  74
ATOM     74  S   UNL A   1      42.124  19.383  26.012  1.00  0.00     0.124 S 
ATOM     75  O   UNL A   1      42.656  18.529  27.070  1.00  0.00    -0.237 OA
ATOM     76  O   UNL A   1      40.701  19.220  25.722  1.00  0.00    -0.237 OA
ATOM     77  O   UNL A   1      42.978  19.529  24.835  1.00  0.00    -0.744 OA
ENDBRANCH  73  74
ENDBRANCH  45  68
BRANCH  57  78
ATOM     78  C   UNL A   1      47.594  26.595  31.483  1.00  0.00    -0.014 A 
ATOM     79  C   UNL A   1      48.675  26.916  30.644  1.00  0.00     0.010 A 
ATOM     80  C   UNL A   1      47.831  25.879  32.669  1.00  0.00     0.010 A 
ATOM     81  C   UNL A   1      49.969  26.503  30.973  1.00  0.00     0.020 A 
ATOM     82  C   UNL A   1      49.126  25.483  33.012  1.00  0.00     0.020 A 
ATOM     83  C   UNL A   1      50.185  25.785  32.154  1.00  0.00     0.054 A 
BRANCH  83  84
ATOM     84  S   UNL A   1      51.878  25.291  32.583  1.00  0.00     0.124 S 
ATOM     85  O   UNL A   1      52.609  25.624  31.364  1.00  0.00    -0.237 OA
ATOM     86  O   UNL A   1      52.176  26.128  33.743  1.00  0.00    -0.237 OA
ATOM     87  O   UNL A   1      51.758  23.864  32.870  1.00  0.00    -0.744 OA
ENDBRANCH  83  84
ENDBRANCH  57  78
ENDBRANCH  31  32
ENDBRANCH  24  26
ENDBRANCH  23  24
ENDBRANCH  22  23
ENDBRANCH   1  22
TORSDOF 17
ENDMDL
MODEL 3
REMARK VINA RESULT:      -8.7      3.981     11.219
REMARK SMILES C/C=C/c1cncc(-c2ccc([C@@H](C)C(=O)OCCOC(=O)c3ccc(-c4c5nc(c(-c6ccc(S(=O)(=O)[O-])cc6)c6ccc([nH]6)c(-c6ccc(S(=O)(=O)[O-])cc6)c6nc(c(-c7ccc(S(=O)(=O)[O-])cc7)c7ccc4[nH]7)C=C6)C=C5)cc3)cc2)c1
REMARK SMILES IDX 18 1 17 2 15 3 16 4 13 5 14 6 12 7 9 8 10 9 84 10 11 11
REMARK SMILES IDX 83 12 8 13 4 14 5 15 85 16 6 17 7 18 3 19 1 20 2 21 19 22
REMARK SMILES IDX 20 23 21 24 22 25 23 26 24 27 82 28 25 29 81 30 26 31 27 32
REMARK SMILES IDX 28 33 75 34 29 35 80 36 74 37 76 38 30 39 79 40 73 41 72 42
REMARK SMILES IDX 31 44 61 45 42 46 60 47 43 48 46 49 59 50 77 51 44 52 45 53
REMARK SMILES IDX 58 55 78 56 47 57 32 58 33 59 41 60 34 61 40 62 35 63 36 64
REMARK SMILES IDX 37 65 38 66 39 67 62 68 63 69 71 70 64 71 70 72 65 73 66 74
REMARK SMILES IDX 67 75 68 76 69 77 48 78 49 79 57 80 50 81 56 82 51 83 52 84
REMARK SMILES IDX 53 85 54 86 55 87
REMARK H PARENT 76 43 46 54
REMARK Flexibility Score: inf
ROOT
ATOM      1  C   UNL A   1      31.908  29.471  25.727  1.00  0.00     0.274 C 
ENDROOT
BRANCH   1   2
ATOM      2  O   UNL A   1      31.161  28.425  25.078  1.00  0.00    -0.462 OA
BRANCH   2   3
ATOM      3  C   UNL A   1      31.616  28.009  23.867  1.00  0.00     0.313 C 
ATOM      4  O   UNL A   1      30.889  27.725  22.919  1.00  0.00    -0.252 OA
BRANCH   3   5
ATOM      5  C   UNL A   1      33.132  27.861  23.797  1.00  0.00     0.126 C 
ATOM      6  C   UNL A   1      33.650  28.483  22.501  1.00  0.00     0.025 C 
BRANCH   5   7
ATOM      7  C   UNL A   1      33.673  26.457  24.028  1.00  0.00    -0.034 A 
ATOM      8  C   UNL A   1      34.663  23.819  24.411  1.00  0.00    -0.017 A 
ATOM      9  C   UNL A   1      34.510  24.704  25.491  1.00  0.00     0.009 A 
ATOM     10  C   UNL A   1      34.325  24.282  23.134  1.00  0.00     0.009 A 
ATOM     11  C   UNL A   1      34.021  26.000  25.304  1.00  0.00     0.005 A 
ATOM     12  C   UNL A   1      33.833  25.579  22.944  1.00  0.00     0.005 A 
BRANCH   8  13
ATOM     13  C   UNL A   1      35.141  22.449  24.630  1.00  0.00     0.001 A 
ATOM     14  C   UNL A   1      34.819  20.037  24.649  1.00  0.00    -0.007 A 
ATOM     15  C   UNL A   1      36.149  19.926  25.049  1.00  0.00     0.119 A 
ATOM     16  C   UNL A   1      34.316  21.329  24.454  1.00  0.00     0.020 A 
ATOM     17  N   UNL A   1      36.986  20.972  25.236  1.00  0.00    -0.263 NA
ATOM     18  C   UNL A   1      36.457  22.199  25.022  1.00  0.00     0.119 A 
BRANCH  14  19
ATOM     19  C   UNL A   1      34.008  18.825  24.493  1.00  0.00     0.005 C 
ATOM     20  C   UNL A   1      33.673  16.352  24.349  1.00  0.00     0.035 C 
ATOM     21  C   UNL A   1      34.513  17.581  24.476  1.00  0.00    -0.030 C 
ENDBRANCH  14  19
ENDBRANCH   8  13
ENDBRANCH   5   7
ENDBRANCH   3   5
ENDBRANCH   2   3
ENDBRANCH   1   2
BRANCH   1  22
ATOM     22  C   UNL A   1      32.380  29.036  27.116  1.00  0.00     0.275 C 
BRANCH  22  23
ATOM     23  O   UNL A   1      33.815  29.067  27.209  1.00  0.00    -0.458 OA
BRANCH  23  24
ATOM     24  C   UNL A   1      34.336  30.227  27.673  1.00  0.00     0.338 C 
ATOM     25  O   UNL A   1      33.778  31.304  27.773  1.00  0.00    -0.246 OA
BRANCH  24  26
ATOM     26  C   UNL A   1      35.701  29.983  28.159  1.00  0.00     0.060 A 
ATOM     27  C   UNL A   1      36.754  30.078  27.247  1.00  0.00     0.016 A 
ATOM     28  C   UNL A   1      35.932  29.582  29.475  1.00  0.00     0.016 A 
ATOM     29  C   UNL A   1      38.049  29.756  27.642  1.00  0.00     0.010 A 
ATOM     30  C   UNL A   1      37.234  29.268  29.874  1.00  0.00     0.010 A 
ATOM     31  C   UNL A   1      38.297  29.338  28.955  1.00  0.00    -0.014 A 
BRANCH  31  32
ATOM     32  C   UNL A   1      39.665  28.926  29.349  1.00  0.00     0.031 A 
ATOM     33  C   UNL A   1      40.514  29.849  30.176  1.00  0.00     0.074 A 
ATOM     34  C   UNL A   1      40.131  27.718  28.986  1.00  0.00     0.049 A 
ATOM     35  N   UNL A   1      41.744  29.689  30.591  1.00  0.00    -0.248 NA
ATOM     36  C   UNL A   1      39.896  31.117  30.592  1.00  0.00     0.031 C 
ATOM     37  C   UNL A   1      39.381  26.715  28.229  1.00  0.00     0.029 A 
ATOM     38  N   UNL A   1      41.347  27.127  29.215  1.00  0.00    -0.354 N 
ATOM     39  C   UNL A   1      42.059  30.844  31.295  1.00  0.00     0.074 A 
ATOM     40  C   UNL A   1      40.893  31.701  31.241  1.00  0.00     0.031 C 
ATOM     41  C   UNL A   1      40.147  25.623  28.074  1.00  0.00     0.029 A 
ATOM     42  C   UNL A   1      41.455  25.866  28.679  1.00  0.00     0.049 A 
ATOM     43  H   UNL A   1      42.074  27.563  29.716  1.00  0.00     0.167 HD
ATOM     44  C   UNL A   1      43.214  31.162  31.928  1.00  0.00     0.031 A 
ATOM     45  C   UNL A   1      42.495  25.011  28.662  1.00  0.00     0.031 A 
ATOM     46  C   UNL A   1      44.371  30.310  31.977  1.00  0.00     0.049 A 
ATOM     47  C   UNL A   1      43.790  25.416  29.310  1.00  0.00     0.074 A 
ATOM     48  C   UNL A   1      45.584  30.536  32.604  1.00  0.00     0.029 A 
ATOM     49  N   UNL A   1      44.463  29.067  31.367  1.00  0.00    -0.354 N 
ATOM     50  N   UNL A   1      44.073  26.514  29.969  1.00  0.00    -0.248 NA
ATOM     51  C   UNL A   1      44.907  24.468  29.204  1.00  0.00     0.031 C 
ATOM     52  C   UNL A   1      46.425  29.449  32.336  1.00  0.00     0.029 A 
ATOM     53  C   UNL A   1      45.720  28.525  31.580  1.00  0.00     0.049 A 
ATOM     54  H   UNL A   1      43.740  28.634  30.858  1.00  0.00     0.167 HD
ATOM     55  C   UNL A   1      45.396  26.381  30.373  1.00  0.00     0.074 A 
ATOM     56  C   UNL A   1      45.854  25.093  29.890  1.00  0.00     0.031 C 
ATOM     57  C   UNL A   1      46.162  27.247  31.082  1.00  0.00     0.031 A 
BRANCH  44  58
ATOM     58  C   UNL A   1      43.287  32.522  32.569  1.00  0.00    -0.014 A 
ATOM     59  C   UNL A   1      42.896  32.724  33.906  1.00  0.00     0.010 A 
ATOM     60  C   UNL A   1      43.740  33.618  31.814  1.00  0.00     0.010 A 
ATOM     61  C   UNL A   1      42.901  34.009  34.456  1.00  0.00     0.020 A 
ATOM     62  C   UNL A   1      43.769  34.900  32.368  1.00  0.00     0.020 A 
ATOM     63  C   UNL A   1      43.323  35.091  33.678  1.00  0.00     0.054 A 
BRANCH  63  64
ATOM     64  S   UNL A   1      43.295  36.755  34.400  1.00  0.00     0.124 S 
ATOM     65  O   UNL A   1      44.497  36.740  35.230  1.00  0.00    -0.237 OA
ATOM     66  O   UNL A   1      43.354  37.622  33.226  1.00  0.00    -0.237 OA
ATOM     67  O   UNL A   1      42.033  36.792  35.133  1.00  0.00    -0.744 OA
ENDBRANCH  63  64
ENDBRANCH  44  58
BRANCH  45  68
ATOM     68  C   UNL A   1      42.349  23.688  28.002  1.00  0.00    -0.014 A 
ATOM     69  C   UNL A   1      42.826  23.492  26.695  1.00  0.00     0.010 A 
ATOM     70  C   UNL A   1      41.766  22.608  28.690  1.00  0.00     0.010 A 
ATOM     71  C   UNL A   1      42.726  22.237  26.087  1.00  0.00     0.020 A 
ATOM     72  C   UNL A   1      41.683  21.346  28.093  1.00  0.00     0.020 A 
ATOM     73  C   UNL A   1      42.160  21.171  26.792  1.00  0.00     0.054 A 
BRANCH  73  74
ATOM     74  S   UNL A   1      42.113  19.531  26.014  1.00  0.00     0.124 S 
ATOM     75  O   UNL A   1      42.610  18.672  27.085  1.00  0.00    -0.237 OA
ATOM     76  O   UNL A   1      40.697  19.377  25.686  1.00  0.00    -0.237 OA
ATOM     77  O   UNL A   1      42.999  19.677  24.862  1.00  0.00    -0.744 OA
ENDBRANCH  73  74
ENDBRANCH  45  68
BRANCH  57  78
ATOM     78  C   UNL A   1      47.569  26.819  31.396  1.00  0.00    -0.014 A 
ATOM     79  C   UNL A   1      47.869  26.134  32.587  1.00  0.00     0.010 A 
ATOM     80  C   UNL A   1      48.596  27.071  30.470  1.00  0.00     0.010 A 
ATOM     81  C   UNL A   1      49.179  25.733  32.859  1.00  0.00     0.020 A 
ATOM     82  C   UNL A   1      49.903  26.653  30.728  1.00  0.00     0.020 A 
ATOM     83  C   UNL A   1      50.190  26.000  31.928  1.00  0.00     0.054 A 
BRANCH  83  84
ATOM     84  S   UNL A   1      51.879  25.437  32.282  1.00  0.00     0.124 S 
ATOM     85  O   UNL A   1      51.783  24.004  32.017  1.00  0.00    -0.237 OA
ATOM     86  O   UNL A   1      52.681  26.200  31.328  1.00  0.00    -0.237 OA
ATOM     87  O   UNL A   1      52.077  25.802  33.682  1.00  0.00    -0.744 OA
ENDBRANCH  83  84
ENDBRANCH  57  78
ENDBRANCH  31  32
ENDBRANCH  24  26
ENDBRANCH  23  24
ENDBRANCH  22  23
ENDBRANCH   1  22
TORSDOF 17
ENDMDL
