MODEL 1
REMARK VINA RESULT:     -11.4      0.000      0.000
REMARK SMILES Cc1cc(C)cc(S(=O)(=O)N2CSC[C@H]2C(=O)OCCOC(=O)c2ccc(-c3c4nc(c(-c5ccc(S(=O)(=O)[O-])cc5)c5ccc([nH]5)c(-c5ccc(S(=O)(=O)[O-])cc5)c5nc(c(-c6ccc(S(=O)(=O)[O-])cc6)c6ccc3[nH]6)C=C5)C=C4)cc2)c1
REMARK SMILES IDX 20 1 19 2 18 3 16 4 17 5 15 6 11 7 12 8 13 9 14 10 8 11 9 12
REMARK SMILES IDX 10 13 7 14 1 15 2 16 3 17 84 18 4 19 5 20 6 21 21 22 22 23
REMARK SMILES IDX 23 24 24 25 25 26 83 27 26 28 82 29 27 30 28 31 29 32 76 33
REMARK SMILES IDX 30 34 81 35 75 36 77 37 31 38 80 39 74 40 73 41 32 43 62 44
REMARK SMILES IDX 43 45 61 46 44 47 47 48 60 49 78 50 45 51 46 52 59 54 79 55
REMARK SMILES IDX 48 56 33 57 34 58 42 59 35 60 41 61 36 62 37 63 38 64 39 65
REMARK SMILES IDX 40 66 63 67 64 68 72 69 65 70 71 71 66 72 67 73 68 74 69 75
REMARK SMILES IDX 70 76 49 77 50 78 58 79 51 80 57 81 52 82 53 83 54 84 55 85
REMARK SMILES IDX 56 86
REMARK H PARENT 77 42 47 53
REMARK Flexibility Score: inf
ROOT
ATOM      1  C   UNL A   1      44.299  25.810  25.969  1.00  0.00     0.275 C 
ENDROOT
BRANCH   1   2
ATOM      2  C   UNL A   1      44.798  24.462  25.457  1.00  0.00     0.274 C 
BRANCH   2   3
ATOM      3  O   UNL A   1      43.754  23.713  24.801  1.00  0.00    -0.461 OA
BRANCH   3   4
ATOM      4  C   UNL A   1      44.114  22.486  24.339  1.00  0.00     0.325 C 
ATOM      5  O   UNL A   1      44.178  22.185  23.149  1.00  0.00    -0.250 OA
BRANCH   4   6
ATOM      6  C   UNL A   1      44.293  21.449  25.429  1.00  0.00     0.194 C 
ATOM      7  N   UNL A   1      43.489  20.218  25.338  1.00  0.00    -0.173 NA
ATOM      8  C   UNL A   1      44.141  19.094  24.693  1.00  0.00     0.172 C 
ATOM      9  S   UNL A   1      45.890  19.515  24.494  1.00  0.00    -0.143 SA
ATOM     10  C   UNL A   1      45.771  21.059  25.433  1.00  0.00     0.103 C 
BRANCH   7  11
ATOM     11  S   UNL A   1      42.138  19.945  26.281  1.00  0.00     0.244 S 
ATOM     12  O   UNL A   1      42.539  19.123  27.399  1.00  0.00    -0.207 OA
ATOM     13  O   UNL A   1      41.067  19.566  25.388  1.00  0.00    -0.207 OA
BRANCH  11  14
ATOM     14  C   UNL A   1      41.642  21.516  26.964  1.00  0.00     0.083 A 
ATOM     15  C   UNL A   1      42.963  24.322  29.160  1.00  0.00     0.044 C 
ATOM     16  C   UNL A   1      42.071  23.515  28.262  1.00  0.00    -0.050 A 
ATOM     17  C   UNL A   1      40.856  24.051  27.817  1.00  0.00     0.007 A 
ATOM     18  C   UNL A   1      42.439  22.226  27.860  1.00  0.00     0.025 A 
ATOM     19  C   UNL A   1      40.023  23.328  26.952  1.00  0.00    -0.050 A 
ATOM     20  C   UNL A   1      38.718  23.921  26.508  1.00  0.00     0.044 C 
ATOM     21  C   UNL A   1      40.433  22.064  26.510  1.00  0.00     0.025 A 
ENDBRANCH  11  14
ENDBRANCH   7  11
ENDBRANCH   4   6
ENDBRANCH   3   4
ENDBRANCH   2   3
ENDBRANCH   1   2
BRANCH   1  22
ATOM     22  O   UNL A   1      42.908  25.989  25.658  1.00  0.00    -0.458 OA
BRANCH  22  23
ATOM     23  C   UNL A   1      42.547  27.267  25.393  1.00  0.00     0.338 C 
ATOM     24  O   UNL A   1      42.569  27.828  24.313  1.00  0.00    -0.246 OA
BRANCH  23  25
ATOM     25  C   UNL A   1      42.073  27.892  26.636  1.00  0.00     0.060 A 
ATOM     26  C   UNL A   1      42.621  29.112  27.030  1.00  0.00     0.016 A 
ATOM     27  C   UNL A   1      41.159  27.230  27.453  1.00  0.00     0.016 A 
ATOM     28  C   UNL A   1      42.311  29.650  28.274  1.00  0.00     0.010 A 
ATOM     29  C   UNL A   1      40.801  27.800  28.677  1.00  0.00     0.010 A 
ATOM     30  C   UNL A   1      41.389  29.003  29.104  1.00  0.00    -0.014 A 
BRANCH  30  31
ATOM     31  C   UNL A   1      41.052  29.588  30.423  1.00  0.00     0.031 A 
ATOM     32  C   UNL A   1      39.882  30.520  30.557  1.00  0.00     0.074 A 
ATOM     33  C   UNL A   1      41.797  29.271  31.499  1.00  0.00     0.049 A 
ATOM     34  N   UNL A   1      39.515  31.235  31.590  1.00  0.00    -0.248 NA
ATOM     35  C   UNL A   1      39.014  30.672  29.379  1.00  0.00     0.031 C 
ATOM     36  C   UNL A   1      42.920  28.331  31.504  1.00  0.00     0.029 A 
ATOM     37  N   UNL A   1      41.724  29.709  32.797  1.00  0.00    -0.354 N 
ATOM     38  C   UNL A   1      38.397  31.950  31.176  1.00  0.00     0.074 A 
ATOM     39  C   UNL A   1      38.147  31.584  29.798  1.00  0.00     0.031 C 
ATOM     40  C   UNL A   1      43.424  28.255  32.745  1.00  0.00     0.029 A 
ATOM     41  C   UNL A   1      42.707  29.191  33.604  1.00  0.00     0.049 A 
ATOM     42  H   UNL A   1      41.034  30.333  33.119  1.00  0.00     0.167 HD
ATOM     43  C   UNL A   1      37.653  32.834  31.883  1.00  0.00     0.031 A 
ATOM     44  C   UNL A   1      43.027  29.470  34.883  1.00  0.00     0.031 A 
ATOM     45  C   UNL A   1      37.904  33.181  33.258  1.00  0.00     0.049 A 
ATOM     46  C   UNL A   1      42.234  30.507  35.623  1.00  0.00     0.074 A 
ATOM     47  C   UNL A   1      37.201  34.056  34.068  1.00  0.00     0.029 A 
ATOM     48  N   UNL A   1      38.940  32.669  34.026  1.00  0.00    -0.354 N 
ATOM     49  N   UNL A   1      41.196  31.194  35.211  1.00  0.00    -0.248 NA
ATOM     50  C   UNL A   1      42.663  30.818  36.992  1.00  0.00     0.031 C 
ATOM     51  C   UNL A   1      37.840  34.108  35.311  1.00  0.00     0.029 A 
ATOM     52  C   UNL A   1      38.912  33.230  35.291  1.00  0.00     0.049 A 
ATOM     53  H   UNL A   1      39.599  32.006  33.716  1.00  0.00     0.167 HD
ATOM     54  C   UNL A   1      40.844  32.018  36.273  1.00  0.00     0.074 A 
ATOM     55  C   UNL A   1      41.767  31.728  37.352  1.00  0.00     0.031 C 
ATOM     56  C   UNL A   1      39.849  32.936  36.347  1.00  0.00     0.031 A 
BRANCH  43  57
ATOM     57  C   UNL A   1      36.525  33.524  31.165  1.00  0.00    -0.014 A 
ATOM     58  C   UNL A   1      36.599  33.816  29.792  1.00  0.00     0.010 A 
ATOM     59  C   UNL A   1      35.357  33.857  31.875  1.00  0.00     0.010 A 
ATOM     60  C   UNL A   1      35.538  34.461  29.149  1.00  0.00     0.020 A 
ATOM     61  C   UNL A   1      34.285  34.482  31.232  1.00  0.00     0.020 A 
ATOM     62  C   UNL A   1      34.390  34.796  29.875  1.00  0.00     0.054 A 
BRANCH  62  63
ATOM     63  S   UNL A   1      33.020  35.619  29.016  1.00  0.00     0.124 S 
ATOM     64  O   UNL A   1      32.494  34.538  28.185  1.00  0.00    -0.237 OA
ATOM     65  O   UNL A   1      32.156  36.041  30.116  1.00  0.00    -0.237 OA
ATOM     66  O   UNL A   1      33.669  36.705  28.286  1.00  0.00    -0.744 OA
ENDBRANCH  62  63
ENDBRANCH  43  57
BRANCH  44  67
ATOM     67  C   UNL A   1      44.191  28.791  35.513  1.00  0.00    -0.014 A 
ATOM     68  C   UNL A   1      45.461  29.391  35.506  1.00  0.00     0.010 A 
ATOM     69  C   UNL A   1      44.020  27.552  36.160  1.00  0.00     0.010 A 
ATOM     70  C   UNL A   1      46.540  28.764  36.135  1.00  0.00     0.020 A 
ATOM     71  C   UNL A   1      45.091  26.936  36.812  1.00  0.00     0.020 A 
ATOM     72  C   UNL A   1      46.347  27.543  36.788  1.00  0.00     0.054 A 
BRANCH  72  73
ATOM     73  S   UNL A   1      47.743  26.784  37.666  1.00  0.00     0.124 S 
ATOM     74  O   UNL A   1      47.826  27.606  38.869  1.00  0.00    -0.237 OA
ATOM     75  O   UNL A   1      47.286  25.411  37.867  1.00  0.00    -0.237 OA
ATOM     76  O   UNL A   1      48.854  26.929  36.728  1.00  0.00    -0.744 OA
ENDBRANCH  72  73
ENDBRANCH  44  67
BRANCH  56  77
ATOM     77  C   UNL A   1      39.701  33.685  37.641  1.00  0.00    -0.014 A 
ATOM     78  C   UNL A   1      40.367  34.906  37.847  1.00  0.00     0.010 A 
ATOM     79  C   UNL A   1      38.846  33.188  38.641  1.00  0.00     0.010 A 
ATOM     80  C   UNL A   1      40.195  35.609  39.041  1.00  0.00     0.020 A 
ATOM     81  C   UNL A   1      38.656  33.900  39.828  1.00  0.00     0.020 A 
ATOM     82  C   UNL A   1      39.341  35.101  40.025  1.00  0.00     0.054 A 
BRANCH  82  83
ATOM     83  S   UNL A   1      39.092  36.056  41.546  1.00  0.00     0.124 S 
ATOM     84  O   UNL A   1      40.301  35.743  42.303  1.00  0.00    -0.237 OA
ATOM     85  O   UNL A   1      38.996  37.429  41.055  1.00  0.00    -0.237 OA
ATOM     86  O   UNL A   1      37.852  35.512  42.098  1.00  0.00    -0.744 OA
ENDBRANCH  82  83
ENDBRANCH  56  77
ENDBRANCH  30  31
ENDBRANCH  23  25
ENDBRANCH  22  23
ENDBRANCH   1  22
TORSDOF 16
ENDMDL
MODEL 2
REMARK VINA RESULT:     -11.2      6.761     12.572
REMARK SMILES Cc1cc(C)cc(S(=O)(=O)N2CSC[C@H]2C(=O)OCCOC(=O)c2ccc(-c3c4nc(c(-c5ccc(S(=O)(=O)[O-])cc5)c5ccc([nH]5)c(-c5ccc(S(=O)(=O)[O-])cc5)c5nc(c(-c6ccc(S(=O)(=O)[O-])cc6)c6ccc3[nH]6)C=C5)C=C4)cc2)c1
REMARK SMILES IDX 20 1 19 2 18 3 16 4 17 5 15 6 11 7 12 8 13 9 14 10 8 11 9 12
REMARK SMILES IDX 10 13 7 14 1 15 2 16 3 17 84 18 4 19 5 20 6 21 21 22 22 23
REMARK SMILES IDX 23 24 24 25 25 26 83 27 26 28 82 29 27 30 28 31 29 32 76 33
REMARK SMILES IDX 30 34 81 35 75 36 77 37 31 38 80 39 74 40 73 41 32 43 62 44
REMARK SMILES IDX 43 45 61 46 44 47 47 48 60 49 78 50 45 51 46 52 59 54 79 55
REMARK SMILES IDX 48 56 33 57 34 58 42 59 35 60 41 61 36 62 37 63 38 64 39 65
REMARK SMILES IDX 40 66 63 67 64 68 72 69 65 70 71 71 66 72 67 73 68 74 69 75
REMARK SMILES IDX 70 76 49 77 50 78 58 79 51 80 57 81 52 82 53 83 54 84 55 85
REMARK SMILES IDX 56 86
REMARK H PARENT 77 42 47 53
REMARK Flexibility Score: inf
ROOT
ATOM      1  C   UNL A   1      34.169  30.698  27.709  1.00  0.00     0.275 C 
ENDROOT
BRANCH   1   2
ATOM      2  C   UNL A   1      33.082  29.825  27.087  1.00  0.00     0.274 C 
BRANCH   2   3
ATOM      3  O   UNL A   1      33.364  29.513  25.707  1.00  0.00    -0.461 OA
BRANCH   3   4
ATOM      4  C   UNL A   1      33.506  28.191  25.422  1.00  0.00     0.325 C 
ATOM      5  O   UNL A   1      33.903  27.349  26.223  1.00  0.00    -0.250 OA
BRANCH   4   6
ATOM      6  C   UNL A   1      33.272  27.850  23.964  1.00  0.00     0.194 C 
ATOM      7  N   UNL A   1      32.412  26.693  23.664  1.00  0.00    -0.173 NA
ATOM      8  C   UNL A   1      31.015  27.001  23.419  1.00  0.00     0.172 C 
ATOM      9  S   UNL A   1      30.871  28.797  23.256  1.00  0.00    -0.143 SA
ATOM     10  C   UNL A   1      32.657  29.088  23.312  1.00  0.00     0.103 C 
BRANCH   7  11
ATOM     11  S   UNL A   1      33.018  25.214  23.178  1.00  0.00     0.244 S 
ATOM     12  O   UNL A   1      34.070  25.461  22.219  1.00  0.00    -0.207 OA
ATOM     13  O   UNL A   1      31.885  24.367  22.882  1.00  0.00    -0.207 OA
BRANCH  11  14
ATOM     14  C   UNL A   1      33.798  24.469  24.598  1.00  0.00     0.083 A 
ATOM     15  C   UNL A   1      32.936  22.558  27.767  1.00  0.00     0.044 C 
ATOM     16  C   UNL A   1      33.718  23.225  26.676  1.00  0.00    -0.050 A 
ATOM     17  C   UNL A   1      35.117  23.158  26.674  1.00  0.00     0.007 A 
ATOM     18  C   UNL A   1      33.067  23.919  25.650  1.00  0.00     0.025 A 
ATOM     19  C   UNL A   1      35.867  23.746  25.647  1.00  0.00    -0.050 A 
ATOM     20  C   UNL A   1      37.366  23.673  25.684  1.00  0.00     0.044 C 
ATOM     21  C   UNL A   1      35.198  24.385  24.596  1.00  0.00     0.025 A 
ENDBRANCH  11  14
ENDBRANCH   7  11
ENDBRANCH   4   6
ENDBRANCH   3   4
ENDBRANCH   2   3
ENDBRANCH   1   2
BRANCH   1  22
ATOM     22  O   UNL A   1      35.395  29.964  27.843  1.00  0.00    -0.458 OA
BRANCH  22  23
ATOM     23  C   UNL A   1      36.178  30.353  28.878  1.00  0.00     0.338 C 
ATOM     24  O   UNL A   1      35.846  31.018  29.842  1.00  0.00    -0.246 OA
BRANCH  23  25
ATOM     25  C   UNL A   1      37.528  29.806  28.681  1.00  0.00     0.060 A 
ATOM     26  C   UNL A   1      38.290  29.471  29.800  1.00  0.00     0.016 A 
ATOM     27  C   UNL A   1      38.071  29.714  27.402  1.00  0.00     0.016 A 
ATOM     28  C   UNL A   1      39.622  29.103  29.655  1.00  0.00     0.010 A 
ATOM     29  C   UNL A   1      39.392  29.285  27.251  1.00  0.00     0.010 A 
ATOM     30  C   UNL A   1      40.182  28.996  28.377  1.00  0.00    -0.014 A 
BRANCH  30  31
ATOM     31  C   UNL A   1      41.599  28.589  28.227  1.00  0.00     0.031 A 
ATOM     32  C   UNL A   1      42.694  29.610  28.347  1.00  0.00     0.074 A 
ATOM     33  C   UNL A   1      41.897  27.297  27.990  1.00  0.00     0.049 A 
ATOM     34  N   UNL A   1      43.974  29.474  28.113  1.00  0.00    -0.248 NA
ATOM     35  C   UNL A   1      42.300  30.958  28.786  1.00  0.00     0.031 C 
ATOM     36  C   UNL A   1      40.923  26.205  27.913  1.00  0.00     0.029 A 
ATOM     37  N   UNL A   1      43.102  26.683  27.767  1.00  0.00    -0.354 N 
ATOM     38  C   UNL A   1      44.534  30.726  28.337  1.00  0.00     0.074 A 
ATOM     39  C   UNL A   1      43.454  31.609  28.724  1.00  0.00     0.031 C 
ATOM     40  C   UNL A   1      41.571  25.055  27.670  1.00  0.00     0.029 A 
ATOM     41  C   UNL A   1      42.992  25.339  27.505  1.00  0.00     0.049 A 
ATOM     42  H   UNL A   1      43.964  27.159  27.792  1.00  0.00     0.167 HD
ATOM     43  C   UNL A   1      45.829  31.102  28.222  1.00  0.00     0.031 A 
ATOM     44  C   UNL A   1      43.923  24.442  27.129  1.00  0.00     0.031 A 
ATOM     45  C   UNL A   1      46.897  30.212  27.847  1.00  0.00     0.049 A 
ATOM     46  C   UNL A   1      45.340  24.898  26.938  1.00  0.00     0.074 A 
ATOM     47  C   UNL A   1      48.246  30.492  27.716  1.00  0.00     0.029 A 
ATOM     48  N   UNL A   1      46.736  28.868  27.543  1.00  0.00    -0.354 N 
ATOM     49  N   UNL A   1      45.851  26.091  27.128  1.00  0.00    -0.248 NA
ATOM     50  C   UNL A   1      46.303  23.893  26.468  1.00  0.00     0.031 C 
ATOM     51  C   UNL A   1      48.894  29.328  27.288  1.00  0.00     0.029 A 
ATOM     52  C   UNL A   1      47.955  28.312  27.198  1.00  0.00     0.049 A 
ATOM     53  H   UNL A   1      45.880  28.382  27.568  1.00  0.00     0.167 HD
ATOM     54  C   UNL A   1      47.198  25.980  26.803  1.00  0.00     0.074 A 
ATOM     55  C   UNL A   1      47.425  24.600  26.425  1.00  0.00     0.031 C 
ATOM     56  C   UNL A   1      48.158  26.937  26.813  1.00  0.00     0.031 A 
BRANCH  43  57
ATOM     57  C   UNL A   1      46.157  32.552  28.460  1.00  0.00    -0.014 A 
ATOM     58  C   UNL A   1      46.106  33.495  27.420  1.00  0.00     0.010 A 
ATOM     59  C   UNL A   1      46.491  32.980  29.758  1.00  0.00     0.010 A 
ATOM     60  C   UNL A   1      46.418  34.836  27.666  1.00  0.00     0.020 A 
ATOM     61  C   UNL A   1      46.782  34.323  30.013  1.00  0.00     0.020 A 
ATOM     62  C   UNL A   1      46.761  35.240  28.960  1.00  0.00     0.054 A 
BRANCH  62  63
ATOM     63  S   UNL A   1      47.146  36.987  29.259  1.00  0.00     0.124 S 
ATOM     64  O   UNL A   1      46.415  37.646  28.179  1.00  0.00    -0.237 OA
ATOM     65  O   UNL A   1      46.616  37.210  30.602  1.00  0.00    -0.237 OA
ATOM     66  O   UNL A   1      48.602  37.046  29.151  1.00  0.00    -0.744 OA
ENDBRANCH  62  63
ENDBRANCH  43  57
BRANCH  44  67
ATOM     67  C   UNL A   1      43.520  23.036  26.856  1.00  0.00    -0.014 A 
ATOM     68  C   UNL A   1      43.800  22.439  25.616  1.00  0.00     0.010 A 
ATOM     69  C   UNL A   1      42.885  22.276  27.857  1.00  0.00     0.010 A 
ATOM     70  C   UNL A   1      43.453  21.105  25.381  1.00  0.00     0.020 A 
ATOM     71  C   UNL A   1      42.560  20.936  27.634  1.00  0.00     0.020 A 
ATOM     72  C   UNL A   1      42.839  20.361  26.394  1.00  0.00     0.054 A 
BRANCH  72  73
ATOM     73  S   UNL A   1      42.469  18.609  26.096  1.00  0.00     0.124 S 
ATOM     74  O   UNL A   1      41.054  18.656  25.740  1.00  0.00    -0.237 OA
ATOM     75  O   UNL A   1      43.384  18.270  25.009  1.00  0.00    -0.237 OA
ATOM     76  O   UNL A   1      42.774  17.975  27.376  1.00  0.00    -0.744 OA
ENDBRANCH  72  73
ENDBRANCH  44  67
BRANCH  56  77
ATOM     77  C   UNL A   1      49.545  26.520  26.413  1.00  0.00    -0.014 A 
ATOM     78  C   UNL A   1      50.033  26.787  25.121  1.00  0.00     0.010 A 
ATOM     79  C   UNL A   1      50.387  25.902  27.355  1.00  0.00     0.010 A 
ATOM     80  C   UNL A   1      51.336  26.425  24.773  1.00  0.00     0.020 A 
ATOM     81  C   UNL A   1      51.697  25.558  27.014  1.00  0.00     0.020 A 
ATOM     82  C   UNL A   1      52.160  25.812  25.721  1.00  0.00     0.054 A 
BRANCH  82  83
ATOM     83  S   UNL A   1      53.865  25.397  25.263  1.00  0.00     0.124 S 
ATOM     84  O   UNL A   1      53.881  23.946  25.433  1.00  0.00    -0.237 OA
ATOM     85  O   UNL A   1      53.953  25.868  23.883  1.00  0.00    -0.237 OA
ATOM     86  O   UNL A   1      54.673  26.147  26.222  1.00  0.00    -0.744 OA
ENDBRANCH  82  83
ENDBRANCH  56  77
ENDBRANCH  30  31
ENDBRANCH  23  25
ENDBRANCH  22  23
ENDBRANCH   1  22
TORSDOF 16
ENDMDL
MODEL 3
REMARK VINA RESULT:     -11.1      5.915     11.193
REMARK SMILES Cc1cc(C)cc(S(=O)(=O)N2CSC[C@H]2C(=O)OCCOC(=O)c2ccc(-c3c4nc(c(-c5ccc(S(=O)(=O)[O-])cc5)c5ccc([nH]5)c(-c5ccc(S(=O)(=O)[O-])cc5)c5nc(c(-c6ccc(S(=O)(=O)[O-])cc6)c6ccc3[nH]6)C=C5)C=C4)cc2)c1
REMARK SMILES IDX 20 1 19 2 18 3 16 4 17 5 15 6 11 7 12 8 13 9 14 10 8 11 9 12
REMARK SMILES IDX 10 13 7 14 1 15 2 16 3 17 84 18 4 19 5 20 6 21 21 22 22 23
REMARK SMILES IDX 23 24 24 25 25 26 83 27 26 28 82 29 27 30 28 31 29 32 76 33
REMARK SMILES IDX 30 34 81 35 75 36 77 37 31 38 80 39 74 40 73 41 32 43 62 44
REMARK SMILES IDX 43 45 61 46 44 47 47 48 60 49 78 50 45 51 46 52 59 54 79 55
REMARK SMILES IDX 48 56 33 57 34 58 42 59 35 60 41 61 36 62 37 63 38 64 39 65
REMARK SMILES IDX 40 66 63 67 64 68 72 69 65 70 71 71 66 72 67 73 68 74 69 75
REMARK SMILES IDX 70 76 49 77 50 78 58 79 51 80 57 81 52 82 53 83 54 84 55 85
REMARK SMILES IDX 56 86
REMARK H PARENT 77 42 47 53
REMARK Flexibility Score: inf
ROOT
ATOM      1  C   UNL A   1      32.372  28.935  27.282  1.00  0.00     0.275 C 
ENDROOT
BRANCH   1   2
ATOM      2  C   UNL A   1      31.995  27.954  26.175  1.00  0.00     0.274 C 
BRANCH   2   3
ATOM      3  O   UNL A   1      32.739  26.722  26.270  1.00  0.00    -0.461 OA
BRANCH   3   4
ATOM      4  C   UNL A   1      33.128  26.179  25.085  1.00  0.00     0.325 C 
ATOM      5  O   UNL A   1      33.992  26.658  24.355  1.00  0.00    -0.250 OA
BRANCH   4   6
ATOM      6  C   UNL A   1      32.293  24.991  24.652  1.00  0.00     0.194 C 
ATOM      7  N   UNL A   1      31.217  24.548  25.555  1.00  0.00    -0.173 NA
ATOM      8  C   UNL A   1      29.901  25.090  25.270  1.00  0.00     0.172 C 
ATOM      9  S   UNL A   1      29.983  25.907  23.658  1.00  0.00    -0.143 SA
ATOM     10  C   UNL A   1      31.670  25.354  23.304  1.00  0.00     0.103 C 
BRANCH   7  11
ATOM     11  S   UNL A   1      31.349  23.198  26.530  1.00  0.00     0.244 S 
ATOM     12  O   UNL A   1      30.089  22.493  26.480  1.00  0.00    -0.207 OA
ATOM     13  O   UNL A   1      31.945  23.631  27.774  1.00  0.00    -0.207 OA
BRANCH  11  14
ATOM     14  C   UNL A   1      32.559  22.121  25.783  1.00  0.00     0.083 A 
ATOM     15  C   UNL A   1      36.307  21.502  25.714  1.00  0.00     0.044 C 
ATOM     16  C   UNL A   1      34.835  21.358  25.463  1.00  0.00    -0.050 A 
ATOM     17  C   UNL A   1      34.352  20.265  24.731  1.00  0.00     0.007 A 
ATOM     18  C   UNL A   1      33.930  22.305  25.954  1.00  0.00     0.025 A 
ATOM     19  C   UNL A   1      32.979  20.094  24.513  1.00  0.00    -0.050 A 
ATOM     20  C   UNL A   1      32.494  18.922  23.708  1.00  0.00     0.044 C 
ATOM     21  C   UNL A   1      32.081  21.017  25.062  1.00  0.00     0.025 A 
ENDBRANCH  11  14
ENDBRANCH   7  11
ENDBRANCH   4   6
ENDBRANCH   3   4
ENDBRANCH   2   3
ENDBRANCH   1   2
BRANCH   1  22
ATOM     22  O   UNL A   1      33.790  28.926  27.508  1.00  0.00    -0.458 OA
BRANCH  22  23
ATOM     23  C   UNL A   1      34.311  30.118  27.888  1.00  0.00     0.338 C 
ATOM     24  O   UNL A   1      33.723  31.179  27.987  1.00  0.00    -0.246 OA
BRANCH  23  25
ATOM     25  C   UNL A   1      35.732  29.931  28.211  1.00  0.00     0.060 A 
ATOM     26  C   UNL A   1      36.682  30.109  27.206  1.00  0.00     0.016 A 
ATOM     27  C   UNL A   1      36.115  29.492  29.476  1.00  0.00     0.016 A 
ATOM     28  C   UNL A   1      38.014  29.787  27.436  1.00  0.00     0.010 A 
ATOM     29  C   UNL A   1      37.464  29.226  29.726  1.00  0.00     0.010 A 
ATOM     30  C   UNL A   1      38.419  29.353  28.703  1.00  0.00    -0.014 A 
BRANCH  30  31
ATOM     31  C   UNL A   1      39.843  29.025  28.947  1.00  0.00     0.031 A 
ATOM     32  C   UNL A   1      40.773  30.066  29.501  1.00  0.00     0.074 A 
ATOM     33  C   UNL A   1      40.294  27.785  28.676  1.00  0.00     0.049 A 
ATOM     34  N   UNL A   1      42.071  30.013  29.652  1.00  0.00    -0.248 NA
ATOM     35  C   UNL A   1      40.166  31.333  29.939  1.00  0.00     0.031 C 
ATOM     36  C   UNL A   1      39.473  26.673  28.192  1.00  0.00     0.029 A 
ATOM     37  N   UNL A   1      41.555  27.253  28.766  1.00  0.00    -0.354 N 
ATOM     38  C   UNL A   1      42.443  31.249  30.167  1.00  0.00     0.074 A 
ATOM     39  C   UNL A   1      41.233  32.033  30.299  1.00  0.00     0.031 C 
ATOM     40  C   UNL A   1      40.249  25.589  28.037  1.00  0.00     0.029 A 
ATOM     41  C   UNL A   1      41.629  25.948  28.342  1.00  0.00     0.049 A 
ATOM     42  H   UNL A   1      42.331  27.757  29.101  1.00  0.00     0.167 HD
ATOM     43  C   UNL A   1      43.682  31.688  30.491  1.00  0.00     0.031 A 
ATOM     44  C   UNL A   1      42.695  25.143  28.173  1.00  0.00     0.031 A 
ATOM     45  C   UNL A   1      44.877  30.895  30.365  1.00  0.00     0.049 A 
ATOM     46  C   UNL A   1      44.066  25.676  28.470  1.00  0.00     0.074 A 
ATOM     47  C   UNL A   1      46.179  31.243  30.680  1.00  0.00     0.029 A 
ATOM     48  N   UNL A   1      44.916  29.593  29.886  1.00  0.00    -0.354 N 
ATOM     49  N   UNL A   1      44.406  26.856  28.931  1.00  0.00    -0.248 NA
ATOM     50  C   UNL A   1      45.198  24.777  28.210  1.00  0.00     0.031 C 
ATOM     51  C   UNL A   1      47.011  30.168  30.347  1.00  0.00     0.029 A 
ATOM     52  C   UNL A   1      46.221  29.134  29.870  1.00  0.00     0.049 A 
ATOM     53  H   UNL A   1      44.130  29.074  29.599  1.00  0.00     0.167 HD
ATOM     54  C   UNL A   1      45.793  26.840  29.020  1.00  0.00     0.074 A 
ATOM     55  C   UNL A   1      46.226  25.528  28.586  1.00  0.00     0.031 C 
ATOM     56  C   UNL A   1      46.632  27.826  29.422  1.00  0.00     0.031 A 
BRANCH  43  57
ATOM     57  C   UNL A   1      43.814  33.109  30.969  1.00  0.00    -0.014 A 
ATOM     58  C   UNL A   1      43.703  33.438  32.331  1.00  0.00     0.010 A 
ATOM     59  C   UNL A   1      44.085  34.128  30.038  1.00  0.00     0.010 A 
ATOM     60  C   UNL A   1      43.827  34.766  32.750  1.00  0.00     0.020 A 
ATOM     61  C   UNL A   1      44.232  35.454  30.455  1.00  0.00     0.020 A 
ATOM     62  C   UNL A   1      44.083  35.767  31.808  1.00  0.00     0.054 A 
BRANCH  62  63
ATOM     63  S   UNL A   1      44.256  37.482  32.376  1.00  0.00     0.124 S 
ATOM     64  O   UNL A   1      45.661  37.528  32.771  1.00  0.00    -0.237 OA
ATOM     65  O   UNL A   1      43.913  38.253  31.184  1.00  0.00    -0.237 OA
ATOM     66  O   UNL A   1      43.297  37.581  33.474  1.00  0.00    -0.744 OA
ENDBRANCH  62  63
ENDBRANCH  43  57
BRANCH  44  67
ATOM     67  C   UNL A   1      42.498  23.767  27.643  1.00  0.00    -0.014 A 
ATOM     68  C   UNL A   1      42.611  23.506  26.268  1.00  0.00     0.010 A 
ATOM     69  C   UNL A   1      42.234  22.701  28.525  1.00  0.00     0.010 A 
ATOM     70  C   UNL A   1      42.464  22.203  25.783  1.00  0.00     0.020 A 
ATOM     71  C   UNL A   1      42.112  21.395  28.047  1.00  0.00     0.020 A 
ATOM     72  C   UNL A   1      42.220  21.155  26.676  1.00  0.00     0.054 A 
BRANCH  72  73
ATOM     73  S   UNL A   1      42.111  19.461  26.035  1.00  0.00     0.124 S 
ATOM     74  O   UNL A   1      40.686  19.338  25.744  1.00  0.00    -0.237 OA
ATOM     75  O   UNL A   1      42.993  19.502  24.871  1.00  0.00    -0.237 OA
ATOM     76  O   UNL A   1      42.598  18.645  27.145  1.00  0.00    -0.744 OA
ENDBRANCH  72  73
ENDBRANCH  44  67
BRANCH  56  77
ATOM     77  C   UNL A   1      48.102  27.518  29.419  1.00  0.00    -0.014 A 
ATOM     78  C   UNL A   1      48.919  27.913  28.345  1.00  0.00     0.010 A 
ATOM     79  C   UNL A   1      48.683  26.874  30.527  1.00  0.00     0.010 A 
ATOM     80  C   UNL A   1      50.291  27.651  28.370  1.00  0.00     0.020 A 
ATOM     81  C   UNL A   1      50.057  26.630  30.564  1.00  0.00     0.020 A 
ATOM     82  C   UNL A   1      50.851  27.010  29.479  1.00  0.00     0.054 A 
BRANCH  82  83
ATOM     83  S   UNL A   1      52.642  26.726  29.514  1.00  0.00     0.124 S 
ATOM     84  O   UNL A   1      53.165  28.089  29.565  1.00  0.00    -0.237 OA
ATOM     85  O   UNL A   1      52.822  25.938  30.731  1.00  0.00    -0.237 OA
ATOM     86  O   UNL A   1      52.902  26.004  28.270  1.00  0.00    -0.744 OA
ENDBRANCH  82  83
ENDBRANCH  56  77
ENDBRANCH  30  31
ENDBRANCH  23  25
ENDBRANCH  22  23
ENDBRANCH   1  22
TORSDOF 16
ENDMDL
