MODEL 1
REMARK VINA RESULT:      -8.8      0.000      0.000
REMARK SMILES CN(C)c1ccc(CNc2cc(C(=O)OCCOC(=O)c3ccc(-c4c5nc(c(-c6ccc(S(=O)(=O)[O-])cc6)c6ccc([nH]6)c(-c6ccc(S(=O)(=O)[O-])cc6)c6nc(c(-c7ccc(S(=O)(=O)[O-])cc7)c7ccc4[nH]7)C=C6)C=C5)cc3)[nH]n2)cc1
REMARK SMILES IDX 16 1 15 2 13 3 14 4 12 5 10 6 11 7 82 8 81 9 9 11 8 13 7 14
REMARK SMILES IDX 4 15 5 16 84 17 6 18 83 19 2 20 1 21 3 22 17 23 18 24 19 25
REMARK SMILES IDX 20 26 21 27 22 28 80 29 23 30 79 31 24 32 25 33 26 34 73 35
REMARK SMILES IDX 27 36 78 37 72 38 74 39 28 40 77 41 71 42 70 43 29 45 59 46
REMARK SMILES IDX 40 47 58 48 41 49 44 50 57 51 75 52 42 53 43 54 56 56 76 57
REMARK SMILES IDX 45 58 30 59 31 60 39 61 32 62 38 63 33 64 34 65 35 66 36 67
REMARK SMILES IDX 37 68 60 69 61 70 69 71 62 72 68 73 63 74 64 75 65 76 66 77
REMARK SMILES IDX 67 78 46 79 47 80 55 81 48 82 54 83 49 84 50 85 51 86 52 87
REMARK SMILES IDX 53 88
REMARK H PARENT 81 10 9 12 74 44 44 55
REMARK Flexibility Score: inf
ROOT
ATOM      1  C   UNL A   1      33.618  33.822  28.087  1.00  0.00     0.275 C 
ENDROOT
BRANCH   1   2
ATOM      2  O   UNL A   1      34.333  34.640  29.034  1.00  0.00    -0.457 OA
BRANCH   2   3
ATOM      3  C   UNL A   1      33.882  34.575  30.317  1.00  0.00     0.356 C 
ATOM      4  O   UNL A   1      32.792  34.969  30.702  1.00  0.00    -0.244 OA
BRANCH   3   5
ATOM      5  C   UNL A   1      34.829  33.905  31.158  1.00  0.00     0.145 A 
ATOM      6  C   UNL A   1      36.138  32.574  32.352  1.00  0.00     0.148 A 
ATOM      7  C   UNL A   1      34.979  32.590  31.547  1.00  0.00     0.084 A 
ATOM      8  N   UNL A   1      36.625  33.793  32.545  1.00  0.00    -0.157 NA
ATOM      9  N   UNL A   1      35.877  34.560  31.747  1.00  0.00    -0.269 N 
ATOM     10  H   UNL A   1      36.062  35.516  31.597  1.00  0.00     0.190 HD
BRANCH   6  11
ATOM     11  N   UNL A   1      36.746  31.482  32.839  1.00  0.00    -0.365 N 
ATOM     12  H   UNL A   1      36.615  30.611  32.401  1.00  0.00     0.162 HD
BRANCH  11  13
ATOM     13  C   UNL A   1      37.597  31.583  34.007  1.00  0.00     0.150 C 
BRANCH  13  14
ATOM     14  C   UNL A   1      38.921  30.892  33.767  1.00  0.00    -0.029 A 
ATOM     15  C   UNL A   1      41.432  29.582  33.390  1.00  0.00     0.036 A 
ATOM     16  C   UNL A   1      40.224  28.968  33.034  1.00  0.00     0.026 A 
ATOM     17  C   UNL A   1      41.345  30.870  33.940  1.00  0.00     0.026 A 
ATOM     18  C   UNL A   1      38.989  29.600  33.231  1.00  0.00     0.008 A 
ATOM     19  C   UNL A   1      40.117  31.521  34.118  1.00  0.00     0.008 A 
BRANCH  15  20
ATOM     20  N   UNL A   1      42.652  28.946  33.214  1.00  0.00    -0.378 N 
ATOM     21  C   UNL A   1      43.852  29.462  33.849  1.00  0.00     0.143 C 
ATOM     22  C   UNL A   1      42.760  27.821  32.298  1.00  0.00     0.143 C 
ENDBRANCH  15  20
ENDBRANCH  13  14
ENDBRANCH  11  13
ENDBRANCH   6  11
ENDBRANCH   3   5
ENDBRANCH   2   3
ENDBRANCH   1   2
BRANCH   1  23
ATOM     23  C   UNL A   1      34.403  32.560  27.719  1.00  0.00     0.275 C 
BRANCH  23  24
ATOM     24  O   UNL A   1      33.871  31.400  28.388  1.00  0.00    -0.458 OA
BRANCH  24  25
ATOM     25  C   UNL A   1      34.299  30.206  27.916  1.00  0.00     0.338 C 
ATOM     26  O   UNL A   1      33.683  29.425  27.211  1.00  0.00    -0.246 OA
BRANCH  25  27
ATOM     27  C   UNL A   1      35.711  30.005  28.284  1.00  0.00     0.060 A 
ATOM     28  C   UNL A   1      36.656  30.052  27.265  1.00  0.00     0.016 A 
ATOM     29  C   UNL A   1      36.094  29.654  29.574  1.00  0.00     0.016 A 
ATOM     30  C   UNL A   1      37.980  29.706  27.504  1.00  0.00     0.010 A 
ATOM     31  C   UNL A   1      37.446  29.379  29.835  1.00  0.00     0.010 A 
ATOM     32  C   UNL A   1      38.399  29.392  28.801  1.00  0.00    -0.014 A 
BRANCH  32  33
ATOM     33  C   UNL A   1      39.835  29.090  29.050  1.00  0.00     0.031 A 
ATOM     34  C   UNL A   1      40.745  30.134  29.641  1.00  0.00     0.074 A 
ATOM     35  C   UNL A   1      40.317  27.861  28.770  1.00  0.00     0.049 A 
ATOM     36  N   UNL A   1      42.040  30.093  29.816  1.00  0.00    -0.248 NA
ATOM     37  C   UNL A   1      40.118  31.389  30.084  1.00  0.00     0.031 C 
ATOM     38  C   UNL A   1      39.528  26.740  28.249  1.00  0.00     0.029 A 
ATOM     39  N   UNL A   1      41.582  27.342  28.893  1.00  0.00    -0.354 N 
ATOM     40  C   UNL A   1      42.392  31.327  30.352  1.00  0.00     0.074 A 
ATOM     41  C   UNL A   1      41.172  32.098  30.464  1.00  0.00     0.031 C 
ATOM     42  C   UNL A   1      40.317  25.662  28.129  1.00  0.00     0.029 A 
ATOM     43  C   UNL A   1      41.683  26.035  28.475  1.00  0.00     0.049 A 
ATOM     44  H   UNL A   1      42.344  27.856  29.245  1.00  0.00     0.167 HD
ATOM     45  C   UNL A   1      43.619  31.774  30.714  1.00  0.00     0.031 A 
ATOM     46  C   UNL A   1      42.758  25.234  28.338  1.00  0.00     0.031 A 
ATOM     47  C   UNL A   1      44.825  30.990  30.614  1.00  0.00     0.049 A 
ATOM     48  C   UNL A   1      44.117  25.778  28.674  1.00  0.00     0.074 A 
ATOM     49  C   UNL A   1      46.115  31.349  30.964  1.00  0.00     0.029 A 
ATOM     50  N   UNL A   1      44.890  29.691  30.132  1.00  0.00    -0.354 N 
ATOM     51  N   UNL A   1      44.434  26.959  29.151  1.00  0.00    -0.248 NA
ATOM     52  C   UNL A   1      45.263  24.892  28.437  1.00  0.00     0.031 C 
ATOM     53  C   UNL A   1      46.968  30.289  30.638  1.00  0.00     0.029 A 
ATOM     54  C   UNL A   1      46.201  29.245  30.145  1.00  0.00     0.049 A 
ATOM     55  H   UNL A   1      44.117  29.163  29.826  1.00  0.00     0.167 HD
ATOM     56  C   UNL A   1      45.817  26.952  29.281  1.00  0.00     0.074 A 
ATOM     57  C   UNL A   1      46.272  25.642  28.857  1.00  0.00     0.031 C 
ATOM     58  C   UNL A   1      46.638  27.943  29.708  1.00  0.00     0.031 A 
BRANCH  45  59
ATOM     59  C   UNL A   1      43.731  33.195  31.205  1.00  0.00    -0.014 A 
ATOM     60  C   UNL A   1      43.671  33.510  32.573  1.00  0.00     0.010 A 
ATOM     61  C   UNL A   1      43.943  34.231  30.275  1.00  0.00     0.010 A 
ATOM     62  C   UNL A   1      43.783  34.838  33.000  1.00  0.00     0.020 A 
ATOM     63  C   UNL A   1      44.083  35.555  30.699  1.00  0.00     0.020 A 
ATOM     64  C   UNL A   1      43.985  35.853  32.058  1.00  0.00     0.054 A 
BRANCH  64  65
ATOM     65  S   UNL A   1      44.146  37.564  32.640  1.00  0.00     0.124 S 
ATOM     66  O   UNL A   1      43.106  37.633  33.663  1.00  0.00    -0.237 OA
ATOM     67  O   UNL A   1      45.519  37.606  33.138  1.00  0.00    -0.237 OA
ATOM     68  O   UNL A   1      43.895  38.364  31.444  1.00  0.00    -0.744 OA
ENDBRANCH  64  65
ENDBRANCH  45  59
BRANCH  46  69
ATOM     69  C   UNL A   1      42.592  23.855  27.801  1.00  0.00    -0.014 A 
ATOM     70  C   UNL A   1      42.347  22.771  28.662  1.00  0.00     0.010 A 
ATOM     71  C   UNL A   1      42.659  23.622  26.413  1.00  0.00     0.010 A 
ATOM     72  C   UNL A   1      42.181  21.482  28.146  1.00  0.00     0.020 A 
ATOM     73  C   UNL A   1      42.461  22.342  25.892  1.00  0.00     0.020 A 
ATOM     74  C   UNL A   1      42.234  21.276  26.763  1.00  0.00     0.054 A 
BRANCH  74  75
ATOM     75  S   UNL A   1      41.956  19.605  26.113  1.00  0.00     0.124 S 
ATOM     76  O   UNL A   1      42.360  18.770  27.239  1.00  0.00    -0.237 OA
ATOM     77  O   UNL A   1      40.526  19.617  25.813  1.00  0.00    -0.237 OA
ATOM     78  O   UNL A   1      42.829  19.545  24.942  1.00  0.00    -0.744 OA
ENDBRANCH  74  75
ENDBRANCH  46  69
BRANCH  58  79
ATOM     79  C   UNL A   1      48.112  27.642  29.754  1.00  0.00    -0.014 A 
ATOM     80  C   UNL A   1      48.963  28.023  28.701  1.00  0.00     0.010 A 
ATOM     81  C   UNL A   1      48.659  27.009  30.884  1.00  0.00     0.010 A 
ATOM     82  C   UNL A   1      50.331  27.747  28.765  1.00  0.00     0.020 A 
ATOM     83  C   UNL A   1      50.031  26.758  30.965  1.00  0.00     0.020 A 
ATOM     84  C   UNL A   1      50.857  27.117  29.897  1.00  0.00     0.054 A 
BRANCH  84  85
ATOM     85  S   UNL A   1      52.643  26.812  29.975  1.00  0.00     0.124 S 
ATOM     86  O   UNL A   1      52.749  25.919  31.125  1.00  0.00    -0.237 OA
ATOM     87  O   UNL A   1      52.919  26.201  28.677  1.00  0.00    -0.237 OA
ATOM     88  O   UNL A   1      53.214  28.143  30.164  1.00  0.00    -0.744 OA
ENDBRANCH  84  85
ENDBRANCH  58  79
ENDBRANCH  32  33
ENDBRANCH  25  27
ENDBRANCH  24  25
ENDBRANCH  23  24
ENDBRANCH   1  23
TORSDOF 18
ENDMDL
MODEL 2
REMARK VINA RESULT:      -8.4      3.250      5.468
REMARK SMILES CN(C)c1ccc(CNc2cc(C(=O)OCCOC(=O)c3ccc(-c4c5nc(c(-c6ccc(S(=O)(=O)[O-])cc6)c6ccc([nH]6)c(-c6ccc(S(=O)(=O)[O-])cc6)c6nc(c(-c7ccc(S(=O)(=O)[O-])cc7)c7ccc4[nH]7)C=C6)C=C5)cc3)[nH]n2)cc1
REMARK SMILES IDX 16 1 15 2 13 3 14 4 12 5 10 6 11 7 82 8 81 9 9 11 8 13 7 14
REMARK SMILES IDX 4 15 5 16 84 17 6 18 83 19 2 20 1 21 3 22 17 23 18 24 19 25
REMARK SMILES IDX 20 26 21 27 22 28 80 29 23 30 79 31 24 32 25 33 26 34 73 35
REMARK SMILES IDX 27 36 78 37 72 38 74 39 28 40 77 41 71 42 70 43 29 45 59 46
REMARK SMILES IDX 40 47 58 48 41 49 44 50 57 51 75 52 42 53 43 54 56 56 76 57
REMARK SMILES IDX 45 58 30 59 31 60 39 61 32 62 38 63 33 64 34 65 35 66 36 67
REMARK SMILES IDX 37 68 60 69 61 70 69 71 62 72 68 73 63 74 64 75 65 76 66 77
REMARK SMILES IDX 67 78 46 79 47 80 55 81 48 82 54 83 49 84 50 85 51 86 52 87
REMARK SMILES IDX 53 88
REMARK H PARENT 81 10 9 12 74 44 44 55
REMARK Flexibility Score: inf
ROOT
ATOM      1  C   UNL A   1      35.362  34.316  31.936  1.00  0.00     0.275 C 
ENDROOT
BRANCH   1   2
ATOM      2  O   UNL A   1      34.022  34.135  31.437  1.00  0.00    -0.457 OA
BRANCH   2   3
ATOM      3  C   UNL A   1      33.820  34.537  30.152  1.00  0.00     0.356 C 
ATOM      4  O   UNL A   1      33.247  35.561  29.815  1.00  0.00    -0.244 OA
BRANCH   3   5
ATOM      5  C   UNL A   1      34.443  33.633  29.232  1.00  0.00     0.145 A 
ATOM      6  C   UNL A   1      35.158  32.009  27.905  1.00  0.00     0.148 A 
ATOM      7  C   UNL A   1      34.247  32.298  28.943  1.00  0.00     0.084 A 
ATOM      8  N   UNL A   1      35.940  33.044  27.627  1.00  0.00    -0.157 NA
ATOM      9  N   UNL A   1      35.431  34.030  28.372  1.00  0.00    -0.269 N 
ATOM     10  H   UNL A   1      35.742  34.962  28.309  1.00  0.00     0.190 HD
BRANCH   6  11
ATOM     11  N   UNL A   1      35.226  30.862  27.212  1.00  0.00    -0.365 N 
ATOM     12  H   UNL A   1      35.618  30.857  26.309  1.00  0.00     0.162 HD
BRANCH  11  13
ATOM     13  C   UNL A   1      34.724  29.631  27.789  1.00  0.00     0.150 C 
BRANCH  13  14
ATOM     14  C   UNL A   1      33.683  29.004  26.889  1.00  0.00    -0.029 A 
ATOM     15  C   UNL A   1      31.670  27.882  25.199  1.00  0.00     0.036 A 
ATOM     16  C   UNL A   1      32.915  28.278  24.693  1.00  0.00     0.026 A 
ATOM     17  C   UNL A   1      31.464  28.064  26.575  1.00  0.00     0.026 A 
ATOM     18  C   UNL A   1      33.900  28.844  25.514  1.00  0.00     0.008 A 
ATOM     19  C   UNL A   1      32.450  28.604  27.410  1.00  0.00     0.008 A 
BRANCH  15  20
ATOM     20  N   UNL A   1      30.689  27.343  24.380  1.00  0.00    -0.378 N 
ATOM     21  C   UNL A   1      30.507  25.904  24.296  1.00  0.00     0.143 C 
ATOM     22  C   UNL A   1      29.909  28.210  23.511  1.00  0.00     0.143 C 
ENDBRANCH  15  20
ENDBRANCH  13  14
ENDBRANCH  11  13
ENDBRANCH   6  11
ENDBRANCH   3   5
ENDBRANCH   2   3
ENDBRANCH   1   2
BRANCH   1  23
ATOM     23  C   UNL A   1      35.988  32.989  32.376  1.00  0.00     0.275 C 
BRANCH  23  24
ATOM     24  O   UNL A   1      36.776  32.407  31.318  1.00  0.00    -0.458 OA
BRANCH  24  25
ATOM     25  C   UNL A   1      36.754  31.055  31.250  1.00  0.00     0.338 C 
ATOM     26  O   UNL A   1      35.825  30.316  31.528  1.00  0.00    -0.246 OA
BRANCH  25  27
ATOM     27  C   UNL A   1      38.012  30.568  30.662  1.00  0.00     0.060 A 
ATOM     28  C   UNL A   1      39.003  30.125  31.532  1.00  0.00     0.016 A 
ATOM     29  C   UNL A   1      38.272  30.655  29.298  1.00  0.00     0.016 A 
ATOM     30  C   UNL A   1      40.273  29.811  31.067  1.00  0.00     0.010 A 
ATOM     31  C   UNL A   1      39.530  30.265  28.814  1.00  0.00     0.010 A 
ATOM     32  C   UNL A   1      40.546  29.849  29.695  1.00  0.00    -0.014 A 
BRANCH  32  33
ATOM     33  C   UNL A   1      41.893  29.443  29.208  1.00  0.00     0.031 A 
ATOM     34  C   UNL A   1      43.024  30.435  29.173  1.00  0.00     0.074 A 
ATOM     35  C   UNL A   1      42.105  28.168  28.821  1.00  0.00     0.049 A 
ATOM     36  N   UNL A   1      44.224  30.296  28.672  1.00  0.00    -0.248 NA
ATOM     37  C   UNL A   1      42.771  31.755  29.771  1.00  0.00     0.031 C 
ATOM     38  C   UNL A   1      41.109  27.093  28.862  1.00  0.00     0.029 A 
ATOM     39  N   UNL A   1      43.230  27.554  28.328  1.00  0.00    -0.354 N 
ATOM     40  C   UNL A   1      44.859  31.520  28.857  1.00  0.00     0.074 A 
ATOM     41  C   UNL A   1      43.904  32.393  29.508  1.00  0.00     0.031 C 
ATOM     42  C   UNL A   1      41.674  25.950  28.445  1.00  0.00     0.029 A 
ATOM     43  C   UNL A   1      43.042  26.226  28.023  1.00  0.00     0.049 A 
ATOM     44  H   UNL A   1      44.089  28.019  28.205  1.00  0.00     0.167 HD
ATOM     45  C   UNL A   1      46.118  31.882  28.511  1.00  0.00     0.031 A 
ATOM     46  C   UNL A   1      43.857  25.335  27.425  1.00  0.00     0.031 A 
ATOM     47  C   UNL A   1      47.066  30.999  27.879  1.00  0.00     0.049 A 
ATOM     48  C   UNL A   1      45.221  25.781  26.984  1.00  0.00     0.074 A 
ATOM     49  C   UNL A   1      48.370  31.267  27.498  1.00  0.00     0.029 A 
ATOM     50  N   UNL A   1      46.814  29.679  27.535  1.00  0.00    -0.354 N 
ATOM     51  N   UNL A   1      45.793  26.952  27.140  1.00  0.00    -0.248 NA
ATOM     52  C   UNL A   1      46.043  24.795  26.271  1.00  0.00     0.031 C 
ATOM     53  C   UNL A   1      48.886  30.128  26.872  1.00  0.00     0.029 A 
ATOM     54  C   UNL A   1      47.926  29.129  26.918  1.00  0.00     0.049 A 
ATOM     55  H   UNL A   1      45.969  29.202  27.705  1.00  0.00     0.167 HD
ATOM     56  C   UNL A   1      47.048  26.838  26.553  1.00  0.00     0.074 A 
ATOM     57  C   UNL A   1      47.160  25.479  26.062  1.00  0.00     0.031 C 
ATOM     58  C   UNL A   1      48.017  27.777  26.426  1.00  0.00     0.031 A 
BRANCH  45  59
ATOM     59  C   UNL A   1      46.532  33.309  28.764  1.00  0.00    -0.014 A 
ATOM     60  C   UNL A   1      47.177  33.692  29.953  1.00  0.00     0.010 A 
ATOM     61  C   UNL A   1      46.307  34.279  27.768  1.00  0.00     0.010 A 
ATOM     62  C   UNL A   1      47.554  35.024  30.157  1.00  0.00     0.020 A 
ATOM     63  C   UNL A   1      46.707  35.605  27.956  1.00  0.00     0.020 A 
ATOM     64  C   UNL A   1      47.313  35.972  29.158  1.00  0.00     0.054 A 
BRANCH  64  65
ATOM     65  S   UNL A   1      47.830  37.689  29.441  1.00  0.00     0.124 S 
ATOM     66  O   UNL A   1      48.092  37.691  30.878  1.00  0.00    -0.237 OA
ATOM     67  O   UNL A   1      49.008  37.815  28.588  1.00  0.00    -0.237 OA
ATOM     68  O   UNL A   1      46.672  38.475  29.020  1.00  0.00    -0.744 OA
ENDBRANCH  64  65
ENDBRANCH  45  59
BRANCH  46  69
ATOM     69  C   UNL A   1      43.375  23.951  27.157  1.00  0.00    -0.014 A 
ATOM     70  C   UNL A   1      43.402  22.971  28.164  1.00  0.00     0.010 A 
ATOM     71  C   UNL A   1      42.865  23.612  25.888  1.00  0.00     0.010 A 
ATOM     72  C   UNL A   1      42.936  21.678  27.905  1.00  0.00     0.020 A 
ATOM     73  C   UNL A   1      42.369  22.331  25.636  1.00  0.00     0.020 A 
ATOM     74  C   UNL A   1      42.417  21.368  26.643  1.00  0.00     0.054 A 
BRANCH  74  75
ATOM     75  S   UNL A   1      41.763  19.701  26.349  1.00  0.00     0.124 S 
ATOM     76  O   UNL A   1      42.092  19.022  27.598  1.00  0.00    -0.237 OA
ATOM     77  O   UNL A   1      40.343  19.955  26.120  1.00  0.00    -0.237 OA
ATOM     78  O   UNL A   1      42.504  19.247  25.174  1.00  0.00    -0.744 OA
ENDBRANCH  74  75
ENDBRANCH  46  69
BRANCH  58  79
ATOM     79  C   UNL A   1      49.292  27.360  25.744  1.00  0.00    -0.014 A 
ATOM     80  C   UNL A   1      49.437  27.466  24.348  1.00  0.00     0.010 A 
ATOM     81  C   UNL A   1      50.375  26.898  26.513  1.00  0.00     0.010 A 
ATOM     82  C   UNL A   1      50.632  27.086  23.733  1.00  0.00     0.020 A 
ATOM     83  C   UNL A   1      51.581  26.545  25.904  1.00  0.00     0.020 A 
ATOM     84  C   UNL A   1      51.698  26.628  24.514  1.00  0.00     0.054 A 
BRANCH  84  85
ATOM     85  S   UNL A   1      53.253  26.185  23.695  1.00  0.00     0.124 S 
ATOM     86  O   UNL A   1      53.536  24.873  24.269  1.00  0.00    -0.237 OA
ATOM     87  O   UNL A   1      52.882  26.186  22.282  1.00  0.00    -0.237 OA
ATOM     88  O   UNL A   1      54.170  27.250  24.092  1.00  0.00    -0.744 OA
ENDBRANCH  84  85
ENDBRANCH  58  79
ENDBRANCH  32  33
ENDBRANCH  25  27
ENDBRANCH  24  25
ENDBRANCH  23  24
ENDBRANCH   1  23
TORSDOF 18
ENDMDL
MODEL 3
REMARK VINA RESULT:      -8.3      4.294      6.341
REMARK SMILES CN(C)c1ccc(CNc2cc(C(=O)OCCOC(=O)c3ccc(-c4c5nc(c(-c6ccc(S(=O)(=O)[O-])cc6)c6ccc([nH]6)c(-c6ccc(S(=O)(=O)[O-])cc6)c6nc(c(-c7ccc(S(=O)(=O)[O-])cc7)c7ccc4[nH]7)C=C6)C=C5)cc3)[nH]n2)cc1
REMARK SMILES IDX 16 1 15 2 13 3 14 4 12 5 10 6 11 7 82 8 81 9 9 11 8 13 7 14
REMARK SMILES IDX 4 15 5 16 84 17 6 18 83 19 2 20 1 21 3 22 17 23 18 24 19 25
REMARK SMILES IDX 20 26 21 27 22 28 80 29 23 30 79 31 24 32 25 33 26 34 73 35
REMARK SMILES IDX 27 36 78 37 72 38 74 39 28 40 77 41 71 42 70 43 29 45 59 46
REMARK SMILES IDX 40 47 58 48 41 49 44 50 57 51 75 52 42 53 43 54 56 56 76 57
REMARK SMILES IDX 45 58 30 59 31 60 39 61 32 62 38 63 33 64 34 65 35 66 36 67
REMARK SMILES IDX 37 68 60 69 61 70 69 71 62 72 68 73 63 74 64 75 65 76 66 77
REMARK SMILES IDX 67 78 46 79 47 80 55 81 48 82 54 83 49 84 50 85 51 86 52 87
REMARK SMILES IDX 53 88
REMARK H PARENT 81 10 9 12 74 44 44 55
REMARK Flexibility Score: inf
ROOT
ATOM      1  C   UNL A   1      33.594  34.208  28.353  1.00  0.00     0.275 C 
ENDROOT
BRANCH   1   2
ATOM      2  O   UNL A   1      32.568  34.991  28.993  1.00  0.00    -0.457 OA
BRANCH   2   3
ATOM      3  C   UNL A   1      32.919  36.270  29.301  1.00  0.00     0.356 C 
ATOM      4  O   UNL A   1      32.824  37.228  28.550  1.00  0.00    -0.244 OA
BRANCH   3   5
ATOM      5  C   UNL A   1      33.347  36.368  30.665  1.00  0.00     0.145 A 
ATOM      6  C   UNL A   1      33.980  36.170  32.779  1.00  0.00     0.148 A 
ATOM      7  C   UNL A   1      33.450  35.448  31.688  1.00  0.00     0.084 A 
ATOM      8  N   UNL A   1      34.104  37.462  32.506  1.00  0.00    -0.157 NA
ATOM      9  N   UNL A   1      33.805  37.539  31.206  1.00  0.00    -0.269 N 
ATOM     10  H   UNL A   1      33.902  38.367  30.683  1.00  0.00     0.190 HD
BRANCH   6  11
ATOM     11  N   UNL A   1      34.378  35.651  33.950  1.00  0.00    -0.365 N 
ATOM     12  H   UNL A   1      34.263  36.167  34.780  1.00  0.00     0.162 HD
BRANCH  11  13
ATOM     13  C   UNL A   1      34.976  34.332  33.996  1.00  0.00     0.150 C 
BRANCH  13  14
ATOM     14  C   UNL A   1      36.423  34.384  33.558  1.00  0.00    -0.029 A 
ATOM     15  C   UNL A   1      39.168  34.414  32.764  1.00  0.00     0.036 A 
ATOM     16  C   UNL A   1      38.134  34.295  31.826  1.00  0.00     0.026 A 
ATOM     17  C   UNL A   1      38.785  34.518  34.111  1.00  0.00     0.026 A 
ATOM     18  C   UNL A   1      36.787  34.264  32.211  1.00  0.00     0.008 A 
ATOM     19  C   UNL A   1      37.441  34.513  34.504  1.00  0.00     0.008 A 
BRANCH  15  20
ATOM     20  N   UNL A   1      40.501  34.422  32.383  1.00  0.00    -0.378 N 
ATOM     21  C   UNL A   1      40.867  34.402  30.977  1.00  0.00     0.143 C 
ATOM     22  C   UNL A   1      41.546  34.337  33.391  1.00  0.00     0.143 C 
ENDBRANCH  15  20
ENDBRANCH  13  14
ENDBRANCH  11  13
ENDBRANCH   6  11
ENDBRANCH   3   5
ENDBRANCH   2   3
ENDBRANCH   1   2
BRANCH   1  23
ATOM     23  C   UNL A   1      33.002  33.055  27.536  1.00  0.00     0.275 C 
BRANCH  23  24
ATOM     24  O   UNL A   1      33.284  31.782  28.151  1.00  0.00    -0.458 OA
BRANCH  24  25
ATOM     25  C   UNL A   1      34.108  30.966  27.453  1.00  0.00     0.338 C 
ATOM     26  O   UNL A   1      33.899  30.462  26.363  1.00  0.00    -0.246 OA
BRANCH  25  27
ATOM     27  C   UNL A   1      35.397  30.846  28.153  1.00  0.00     0.060 A 
ATOM     28  C   UNL A   1      35.690  29.632  28.764  1.00  0.00     0.016 A 
ATOM     29  C   UNL A   1      36.251  31.933  28.318  1.00  0.00     0.016 A 
ATOM     30  C   UNL A   1      36.804  29.495  29.583  1.00  0.00     0.010 A 
ATOM     31  C   UNL A   1      37.418  31.776  29.082  1.00  0.00     0.010 A 
ATOM     32  C   UNL A   1      37.700  30.559  29.730  1.00  0.00    -0.014 A 
BRANCH  32  33
ATOM     33  C   UNL A   1      38.924  30.372  30.556  1.00  0.00     0.031 A 
ATOM     34  C   UNL A   1      38.878  30.574  32.047  1.00  0.00     0.074 A 
ATOM     35  C   UNL A   1      40.075  29.992  29.965  1.00  0.00     0.049 A 
ATOM     36  N   UNL A   1      39.863  30.574  32.907  1.00  0.00    -0.248 NA
ATOM     37  C   UNL A   1      37.556  30.815  32.646  1.00  0.00     0.031 C 
ATOM     38  C   UNL A   1      40.240  29.706  28.536  1.00  0.00     0.029 A 
ATOM     39  N   UNL A   1      41.324  29.770  30.490  1.00  0.00    -0.354 N 
ATOM     40  C   UNL A   1      39.290  30.853  34.144  1.00  0.00     0.074 A 
ATOM     41  C   UNL A   1      37.870  31.027  33.917  1.00  0.00     0.031 C 
ATOM     42  C   UNL A   1      41.503  29.316  28.306  1.00  0.00     0.029 A 
ATOM     43  C   UNL A   1      42.260  29.411  29.548  1.00  0.00     0.049 A 
ATOM     44  H   UNL A   1      41.531  29.859  31.448  1.00  0.00     0.167 HD
ATOM     45  C   UNL A   1      39.893  30.958  35.352  1.00  0.00     0.031 A 
ATOM     46  C   UNL A   1      43.591  29.224  29.654  1.00  0.00     0.031 A 
ATOM     47  C   UNL A   1      41.305  30.766  35.569  1.00  0.00     0.049 A 
ATOM     48  C   UNL A   1      44.248  29.420  30.990  1.00  0.00     0.074 A 
ATOM     49  C   UNL A   1      42.012  30.841  36.757  1.00  0.00     0.029 A 
ATOM     50  N   UNL A   1      42.226  30.461  34.577  1.00  0.00    -0.354 N 
ATOM     51  N   UNL A   1      43.693  29.714  32.143  1.00  0.00    -0.248 NA
ATOM     52  C   UNL A   1      45.708  29.277  31.038  1.00  0.00     0.031 C 
ATOM     53  C   UNL A   1      43.366  30.639  36.474  1.00  0.00     0.029 A 
ATOM     54  C   UNL A   1      43.498  30.375  35.120  1.00  0.00     0.049 A 
ATOM     55  H   UNL A   1      42.007  30.324  33.626  1.00  0.00     0.167 HD
ATOM     56  C   UNL A   1      44.739  29.781  33.056  1.00  0.00     0.074 A 
ATOM     57  C   UNL A   1      45.953  29.472  32.327  1.00  0.00     0.031 C 
ATOM     58  C   UNL A   1      44.697  30.078  34.378  1.00  0.00     0.031 A 
BRANCH  45  59
ATOM     59  C   UNL A   1      39.038  31.346  36.532  1.00  0.00    -0.014 A 
ATOM     60  C   UNL A   1      39.170  32.595  37.162  1.00  0.00     0.010 A 
ATOM     61  C   UNL A   1      38.051  30.452  36.990  1.00  0.00     0.010 A 
ATOM     62  C   UNL A   1      38.358  32.928  38.252  1.00  0.00     0.020 A 
ATOM     63  C   UNL A   1      37.219  30.792  38.061  1.00  0.00     0.020 A 
ATOM     64  C   UNL A   1      37.390  32.022  38.696  1.00  0.00     0.054 A 
BRANCH  64  65
ATOM     65  S   UNL A   1      36.338  32.487  40.100  1.00  0.00     0.124 S 
ATOM     66  O   UNL A   1      36.948  33.743  40.530  1.00  0.00    -0.237 OA
ATOM     67  O   UNL A   1      35.018  32.608  39.486  1.00  0.00    -0.237 OA
ATOM     68  O   UNL A   1      36.488  31.373  41.033  1.00  0.00    -0.744 OA
ENDBRANCH  64  65
ENDBRANCH  45  59
BRANCH  46  69
ATOM     69  C   UNL A   1      44.392  28.890  28.443  1.00  0.00    -0.014 A 
ATOM     70  C   UNL A   1      44.921  29.905  27.628  1.00  0.00     0.010 A 
ATOM     71  C   UNL A   1      44.647  27.545  28.111  1.00  0.00     0.010 A 
ATOM     72  C   UNL A   1      45.682  29.582  26.500  1.00  0.00     0.020 A 
ATOM     73  C   UNL A   1      45.434  27.219  27.004  1.00  0.00     0.020 A 
ATOM     74  C   UNL A   1      45.939  28.240  26.198  1.00  0.00     0.054 A 
BRANCH  74  75
ATOM     75  S   UNL A   1      46.979  27.846  24.765  1.00  0.00     0.124 S 
ATOM     76  O   UNL A   1      46.725  28.982  23.885  1.00  0.00    -0.237 OA
ATOM     77  O   UNL A   1      48.315  27.784  25.351  1.00  0.00    -0.237 OA
ATOM     78  O   UNL A   1      46.451  26.564  24.302  1.00  0.00    -0.744 OA
ENDBRANCH  74  75
ENDBRANCH  46  69
BRANCH  58  79
ATOM     79  C   UNL A   1      46.003  30.066  35.125  1.00  0.00    -0.014 A 
ATOM     80  C   UNL A   1      46.769  31.237  35.268  1.00  0.00     0.010 A 
ATOM     81  C   UNL A   1      46.448  28.877  35.731  1.00  0.00     0.010 A 
ATOM     82  C   UNL A   1      47.973  31.211  35.976  1.00  0.00     0.020 A 
ATOM     83  C   UNL A   1      47.636  28.854  36.465  1.00  0.00     0.020 A 
ATOM     84  C   UNL A   1      48.399  30.019  36.571  1.00  0.00     0.054 A 
BRANCH  84  85
ATOM     85  S   UNL A   1      49.943  30.024  37.523  1.00  0.00     0.124 S 
ATOM     86  O   UNL A   1      49.924  31.353  38.126  1.00  0.00    -0.237 OA
ATOM     87  O   UNL A   1      49.750  28.910  38.449  1.00  0.00    -0.237 OA
ATOM     88  O   UNL A   1      50.975  29.813  36.511  1.00  0.00    -0.744 OA
ENDBRANCH  84  85
ENDBRANCH  58  79
ENDBRANCH  32  33
ENDBRANCH  25  27
ENDBRANCH  24  25
ENDBRANCH  23  24
ENDBRANCH   1  23
TORSDOF 18
ENDMDL
