MODEL 1
REMARK VINA RESULT:     -11.0      0.000      0.000
REMARK SMILES Cc1cccc(C[N@H+]2CC[C@@](C)(C(=O)OCCOC(=O)c3ccc(-c4c5nc(c(-c6ccc(S(=O)(=O)[O-])cc6)c6ccc([nH]6)c(-c6ccc(S(=O)(=O)[O-])cc6)c6nc(c(-c7ccc(S(=O)(=O)[O-])cc7)c7ccc4[nH]7)C=C6)C=C5)cc3)C2)n1
REMARK SMILES IDX 17 1 16 2 15 3 13 4 14 5 11 6 8 7 9 8 81 9 10 11 12 12 7 13
REMARK SMILES IDX 6 14 1 15 2 16 3 17 82 18 4 19 5 20 18 21 19 22 20 23 21 24
REMARK SMILES IDX 22 25 80 26 23 27 79 28 24 29 25 30 26 31 73 32 27 33 78 34
REMARK SMILES IDX 72 35 74 36 28 37 77 38 71 39 70 40 29 42 59 43 40 44 58 45
REMARK SMILES IDX 41 46 44 47 57 48 75 49 42 50 43 51 56 53 76 54 45 55 30 56
REMARK SMILES IDX 31 57 39 58 32 59 38 60 33 61 34 62 35 63 36 64 37 65 60 66
REMARK SMILES IDX 61 67 69 68 62 69 68 70 63 71 64 72 65 73 66 74 67 75 46 76
REMARK SMILES IDX 47 77 55 78 48 79 54 80 49 81 50 82 51 83 52 84 53 85
REMARK H PARENT 8 10 74 41 44 52
REMARK Flexibility Score: inf
ROOT
ATOM      1  C   UNL A   1      39.049  22.608  26.157  1.00  0.00     0.275 C 
ENDROOT
BRANCH   1   2
ATOM      2  C   UNL A   1      37.663  22.275  25.612  1.00  0.00     0.274 C 
BRANCH   2   3
ATOM      3  O   UNL A   1      37.097  23.416  24.934  1.00  0.00    -0.461 OA
BRANCH   3   4
ATOM      4  C   UNL A   1      36.274  23.169  23.883  1.00  0.00     0.317 C 
ATOM      5  O   UNL A   1      36.677  22.915  22.751  1.00  0.00    -0.251 OA
BRANCH   4   6
ATOM      6  C   UNL A   1      34.777  23.276  24.212  1.00  0.00     0.119 C 
ATOM      7  N   UNL A   1      33.468  25.252  23.860  1.00  0.00    -0.329 N 
ATOM      8  C   UNL A   1      33.818  24.709  22.554  1.00  0.00     0.263 C 
ATOM      9  C   UNL A   1      34.335  24.602  24.856  1.00  0.00     0.281 C 
ATOM     10  H   UNL A   1      32.490  25.031  24.051  1.00  0.00     0.348 HD
ATOM     11  C   UNL A   1      34.013  23.240  22.878  1.00  0.00     0.086 C 
ATOM     12  C   UNL A   1      34.370  22.098  25.102  1.00  0.00     0.030 C 
BRANCH   7  13
ATOM     13  C   UNL A   1      33.442  26.719  23.949  1.00  0.00     0.319 C 
BRANCH  13  14
ATOM     14  C   UNL A   1      33.105  27.305  25.310  1.00  0.00     0.095 A 
ATOM     15  C   UNL A   1      34.820  29.592  27.623  1.00  0.00     0.067 C 
ATOM     16  C   UNL A   1      33.749  28.722  27.043  1.00  0.00     0.038 A 
ATOM     17  C   UNL A   1      32.500  28.620  27.641  1.00  0.00     0.023 A 
ATOM     18  N   UNL A   1      34.065  28.049  25.917  1.00  0.00    -0.252 NA
ATOM     19  C   UNL A   1      31.532  27.822  27.038  1.00  0.00     0.004 A 
ATOM     20  C   UNL A   1      31.833  27.159  25.853  1.00  0.00     0.030 A 
ENDBRANCH  13  14
ENDBRANCH   7  13
ENDBRANCH   4   6
ENDBRANCH   3   4
ENDBRANCH   2   3
ENDBRANCH   1   2
BRANCH   1  21
ATOM     21  O   UNL A   1      39.047  23.965  26.623  1.00  0.00    -0.458 OA
BRANCH  21  22
ATOM     22  C   UNL A   1      40.248  24.576  26.686  1.00  0.00     0.338 C 
ATOM     23  O   UNL A   1      41.261  24.295  26.059  1.00  0.00    -0.246 OA
BRANCH  22  24
ATOM     24  C   UNL A   1      40.168  25.684  27.649  1.00  0.00     0.060 A 
ATOM     25  C   UNL A   1      40.998  26.794  27.494  1.00  0.00     0.016 A 
ATOM     26  C   UNL A   1      39.325  25.589  28.755  1.00  0.00     0.016 A 
ATOM     27  C   UNL A   1      41.055  27.769  28.484  1.00  0.00     0.010 A 
ATOM     28  C   UNL A   1      39.303  26.627  29.692  1.00  0.00     0.010 A 
ATOM     29  C   UNL A   1      40.187  27.717  29.581  1.00  0.00    -0.014 A 
BRANCH  29  30
ATOM     30  C   UNL A   1      40.210  28.787  30.617  1.00  0.00     0.031 A 
ATOM     31  C   UNL A   1      41.223  28.736  31.731  1.00  0.00     0.074 A 
ATOM     32  C   UNL A   1      39.325  29.804  30.563  1.00  0.00     0.049 A 
ATOM     33  N   UNL A   1      41.271  29.437  32.834  1.00  0.00    -0.248 NA
ATOM     34  C   UNL A   1      42.315  27.757  31.595  1.00  0.00     0.031 C 
ATOM     35  C   UNL A   1      38.322  30.008  29.513  1.00  0.00     0.029 A 
ATOM     36  N   UNL A   1      39.131  30.867  31.410  1.00  0.00    -0.354 N 
ATOM     37  C   UNL A   1      42.355  28.942  33.552  1.00  0.00     0.074 A 
ATOM     38  C   UNL A   1      42.942  27.885  32.755  1.00  0.00     0.031 C 
ATOM     39  C   UNL A   1      37.656  31.148  29.753  1.00  0.00     0.029 A 
ATOM     40  C   UNL A   1      38.112  31.704  31.020  1.00  0.00     0.049 A 
ATOM     41  H   UNL A   1      39.671  31.017  32.220  1.00  0.00     0.167 HD
ATOM     42  C   UNL A   1      42.812  29.329  34.767  1.00  0.00     0.031 A 
ATOM     43  C   UNL A   1      37.569  32.774  31.632  1.00  0.00     0.031 A 
ATOM     44  C   UNL A   1      42.248  30.411  35.531  1.00  0.00     0.049 A 
ATOM     45  C   UNL A   1      38.083  33.175  32.984  1.00  0.00     0.074 A 
ATOM     46  C   UNL A   1      42.623  30.871  36.782  1.00  0.00     0.029 A 
ATOM     47  N   UNL A   1      41.206  31.219  35.103  1.00  0.00    -0.354 N 
ATOM     48  N   UNL A   1      39.048  32.636  33.691  1.00  0.00    -0.248 NA
ATOM     49  C   UNL A   1      37.420  34.314  33.633  1.00  0.00     0.031 C 
ATOM     50  C   UNL A   1      41.790  31.944  37.120  1.00  0.00     0.029 A 
ATOM     51  C   UNL A   1      40.926  32.176  36.063  1.00  0.00     0.049 A 
ATOM     52  H   UNL A   1      40.735  31.126  34.244  1.00  0.00     0.167 HD
ATOM     53  C   UNL A   1      39.110  33.372  34.866  1.00  0.00     0.074 A 
ATOM     54  C   UNL A   1      38.103  34.410  34.766  1.00  0.00     0.031 C 
ATOM     55  C   UNL A   1      39.920  33.199  35.939  1.00  0.00     0.031 A 
BRANCH  42  56
ATOM     56  C   UNL A   1      43.952  28.550  35.366  1.00  0.00    -0.014 A 
ATOM     57  C   UNL A   1      45.290  28.934  35.166  1.00  0.00     0.010 A 
ATOM     58  C   UNL A   1      43.675  27.435  36.179  1.00  0.00     0.010 A 
ATOM     59  C   UNL A   1      46.330  28.198  35.741  1.00  0.00     0.020 A 
ATOM     60  C   UNL A   1      44.711  26.710  36.775  1.00  0.00     0.020 A 
ATOM     61  C   UNL A   1      46.035  27.087  36.538  1.00  0.00     0.054 A 
BRANCH  61  62
ATOM     62  S   UNL A   1      47.400  26.162  37.296  1.00  0.00     0.124 S 
ATOM     63  O   UNL A   1      47.483  26.779  38.617  1.00  0.00    -0.237 OA
ATOM     64  O   UNL A   1      46.909  24.786  37.275  1.00  0.00    -0.237 OA
ATOM     65  O   UNL A   1      48.532  26.428  36.411  1.00  0.00    -0.744 OA
ENDBRANCH  61  62
ENDBRANCH  42  56
BRANCH  43  66
ATOM     66  C   UNL A   1      36.438  33.502  30.995  1.00  0.00    -0.014 A 
ATOM     67  C   UNL A   1      35.304  33.859  31.743  1.00  0.00     0.010 A 
ATOM     68  C   UNL A   1      36.499  33.859  29.634  1.00  0.00     0.010 A 
ATOM     69  C   UNL A   1      34.246  34.548  31.142  1.00  0.00     0.020 A 
ATOM     70  C   UNL A   1      35.457  34.572  29.037  1.00  0.00     0.020 A 
ATOM     71  C   UNL A   1      34.331  34.902  29.792  1.00  0.00     0.054 A 
BRANCH  71  72
ATOM     72  S   UNL A   1      32.978  35.849  29.039  1.00  0.00     0.124 S 
ATOM     73  O   UNL A   1      32.187  36.225  30.205  1.00  0.00    -0.237 OA
ATOM     74  O   UNL A   1      33.683  36.941  28.372  1.00  0.00    -0.237 OA
ATOM     75  O   UNL A   1      32.350  34.885  28.137  1.00  0.00    -0.744 OA
ENDBRANCH  71  72
ENDBRANCH  43  66
BRANCH  55  76
ATOM     76  C   UNL A   1      39.765  34.173  37.072  1.00  0.00    -0.014 A 
ATOM     77  C   UNL A   1      40.411  35.421  37.046  1.00  0.00     0.010 A 
ATOM     78  C   UNL A   1      38.936  33.845  38.159  1.00  0.00     0.010 A 
ATOM     79  C   UNL A   1      40.254  36.315  38.107  1.00  0.00     0.020 A 
ATOM     80  C   UNL A   1      38.762  34.745  39.212  1.00  0.00     0.020 A 
ATOM     81  C   UNL A   1      39.434  35.969  39.186  1.00  0.00     0.054 A 
BRANCH  81  82
ATOM     82  S   UNL A   1      39.219  37.157  40.540  1.00  0.00     0.124 S 
ATOM     83  O   UNL A   1      38.275  38.109  39.961  1.00  0.00    -0.237 OA
ATOM     84  O   UNL A   1      38.691  36.326  41.620  1.00  0.00    -0.237 OA
ATOM     85  O   UNL A   1      40.568  37.673  40.763  1.00  0.00    -0.744 OA
ENDBRANCH  81  82
ENDBRANCH  55  76
ENDBRANCH  29  30
ENDBRANCH  22  24
ENDBRANCH  21  22
ENDBRANCH   1  21
TORSDOF 16
ENDMDL
MODEL 2
REMARK VINA RESULT:     -10.8      2.003      3.827
REMARK SMILES Cc1cccc(C[N@H+]2CC[C@@](C)(C(=O)OCCOC(=O)c3ccc(-c4c5nc(c(-c6ccc(S(=O)(=O)[O-])cc6)c6ccc([nH]6)c(-c6ccc(S(=O)(=O)[O-])cc6)c6nc(c(-c7ccc(S(=O)(=O)[O-])cc7)c7ccc4[nH]7)C=C6)C=C5)cc3)C2)n1
REMARK SMILES IDX 17 1 16 2 15 3 13 4 14 5 11 6 8 7 9 8 81 9 10 11 12 12 7 13
REMARK SMILES IDX 6 14 1 15 2 16 3 17 82 18 4 19 5 20 18 21 19 22 20 23 21 24
REMARK SMILES IDX 22 25 80 26 23 27 79 28 24 29 25 30 26 31 73 32 27 33 78 34
REMARK SMILES IDX 72 35 74 36 28 37 77 38 71 39 70 40 29 42 59 43 40 44 58 45
REMARK SMILES IDX 41 46 44 47 57 48 75 49 42 50 43 51 56 53 76 54 45 55 30 56
REMARK SMILES IDX 31 57 39 58 32 59 38 60 33 61 34 62 35 63 36 64 37 65 60 66
REMARK SMILES IDX 61 67 69 68 62 69 68 70 63 71 64 72 65 73 66 74 67 75 46 76
REMARK SMILES IDX 47 77 55 78 48 79 54 80 49 81 50 82 51 83 52 84 53 85
REMARK H PARENT 8 10 74 41 44 52
REMARK Flexibility Score: inf
ROOT
ATOM      1  C   UNL A   1      37.781  23.298  25.655  1.00  0.00     0.275 C 
ENDROOT
BRANCH   1   2
ATOM      2  C   UNL A   1      36.431  23.641  25.032  1.00  0.00     0.274 C 
BRANCH   2   3
ATOM      3  O   UNL A   1      35.392  23.630  26.033  1.00  0.00    -0.461 OA
BRANCH   3   4
ATOM      4  C   UNL A   1      34.150  24.016  25.644  1.00  0.00     0.317 C 
ATOM      5  O   UNL A   1      33.941  24.946  24.870  1.00  0.00    -0.251 OA
BRANCH   4   6
ATOM      6  C   UNL A   1      33.007  23.217  26.289  1.00  0.00     0.119 C 
ATOM      7  N   UNL A   1      32.486  20.945  25.735  1.00  0.00    -0.329 N 
ATOM      8  C   UNL A   1      33.763  20.952  26.437  1.00  0.00     0.263 C 
ATOM      9  C   UNL A   1      32.197  22.329  25.327  1.00  0.00     0.281 C 
ATOM     10  H   UNL A   1      31.766  20.612  26.376  1.00  0.00     0.348 HD
ATOM     11  C   UNL A   1      33.646  22.217  27.266  1.00  0.00     0.086 C 
ATOM     12  C   UNL A   1      32.073  24.179  27.029  1.00  0.00     0.030 C 
BRANCH   7  13
ATOM     13  C   UNL A   1      32.367  19.960  24.650  1.00  0.00     0.319 C 
BRANCH  13  14
ATOM     14  C   UNL A   1      33.084  18.636  24.861  1.00  0.00     0.095 A 
ATOM     15  C   UNL A   1      32.049  15.303  26.019  1.00  0.00     0.067 C 
ATOM     16  C   UNL A   1      32.914  16.395  25.470  1.00  0.00     0.038 A 
ATOM     17  C   UNL A   1      34.209  16.140  25.038  1.00  0.00     0.023 A 
ATOM     18  N   UNL A   1      32.368  17.628  25.420  1.00  0.00    -0.252 NA
ATOM     19  C   UNL A   1      34.955  17.187  24.505  1.00  0.00     0.004 A 
ATOM     20  C   UNL A   1      34.387  18.453  24.408  1.00  0.00     0.030 A 
ENDBRANCH  13  14
ENDBRANCH   7  13
ENDBRANCH   4   6
ENDBRANCH   3   4
ENDBRANCH   2   3
ENDBRANCH   1   2
BRANCH   1  21
ATOM     21  O   UNL A   1      38.183  24.381  26.506  1.00  0.00    -0.458 OA
BRANCH  21  22
ATOM     22  C   UNL A   1      39.491  24.426  26.836  1.00  0.00     0.338 C 
ATOM     23  O   UNL A   1      40.398  23.743  26.381  1.00  0.00    -0.246 OA
BRANCH  22  24
ATOM     24  C   UNL A   1      39.687  25.466  27.857  1.00  0.00     0.060 A 
ATOM     25  C   UNL A   1      38.947  25.421  29.038  1.00  0.00     0.016 A 
ATOM     26  C   UNL A   1      40.548  26.534  27.612  1.00  0.00     0.016 A 
ATOM     27  C   UNL A   1      38.996  26.481  29.937  1.00  0.00     0.010 A 
ATOM     28  C   UNL A   1      40.679  27.544  28.570  1.00  0.00     0.010 A 
ATOM     29  C   UNL A   1      39.885  27.543  29.732  1.00  0.00    -0.014 A 
BRANCH  29  30
ATOM     30  C   UNL A   1      39.977  28.655  30.718  1.00  0.00     0.031 A 
ATOM     31  C   UNL A   1      41.012  28.610  31.811  1.00  0.00     0.074 A 
ATOM     32  C   UNL A   1      39.134  29.706  30.637  1.00  0.00     0.049 A 
ATOM     33  N   UNL A   1      41.115  29.356  32.881  1.00  0.00    -0.248 NA
ATOM     34  C   UNL A   1      42.059  27.579  31.696  1.00  0.00     0.031 C 
ATOM     35  C   UNL A   1      38.117  29.907  29.601  1.00  0.00     0.029 A 
ATOM     36  N   UNL A   1      39.005  30.813  31.440  1.00  0.00    -0.354 N 
ATOM     37  C   UNL A   1      42.194  28.846  33.597  1.00  0.00     0.074 A 
ATOM     38  C   UNL A   1      42.717  27.732  32.836  1.00  0.00     0.031 C 
ATOM     39  C   UNL A   1      37.505  31.083  29.803  1.00  0.00     0.029 A 
ATOM     40  C   UNL A   1      38.013  31.674  31.035  1.00  0.00     0.049 A 
ATOM     41  H   UNL A   1      39.569  30.974  32.230  1.00  0.00     0.167 HD
ATOM     42  C   UNL A   1      42.694  29.266  34.783  1.00  0.00     0.031 A 
ATOM     43  C   UNL A   1      37.530  32.793  31.609  1.00  0.00     0.031 A 
ATOM     44  C   UNL A   1      42.195  30.404  35.510  1.00  0.00     0.049 A 
ATOM     45  C   UNL A   1      38.091  33.230  32.931  1.00  0.00     0.074 A 
ATOM     46  C   UNL A   1      42.617  30.902  36.730  1.00  0.00     0.029 A 
ATOM     47  N   UNL A   1      41.178  31.237  35.069  1.00  0.00    -0.354 N 
ATOM     48  N   UNL A   1      39.049  32.682  33.640  1.00  0.00    -0.248 NA
ATOM     49  C   UNL A   1      37.491  34.424  33.542  1.00  0.00     0.031 C 
ATOM     50  C   UNL A   1      41.838  32.024  37.038  1.00  0.00     0.029 A 
ATOM     51  C   UNL A   1      40.961  32.246  35.990  1.00  0.00     0.049 A 
ATOM     52  H   UNL A   1      40.684  31.126  34.225  1.00  0.00     0.167 HD
ATOM     53  C   UNL A   1      39.169  33.465  34.780  1.00  0.00     0.074 A 
ATOM     54  C   UNL A   1      38.205  34.540  34.655  1.00  0.00     0.031 C 
ATOM     55  C   UNL A   1      39.996  33.305  35.842  1.00  0.00     0.031 A 
BRANCH  42  56
ATOM     56  C   UNL A   1      43.815  28.466  35.393  1.00  0.00    -0.014 A 
ATOM     57  C   UNL A   1      45.162  28.778  35.141  1.00  0.00     0.010 A 
ATOM     58  C   UNL A   1      43.510  27.406  36.266  1.00  0.00     0.010 A 
ATOM     59  C   UNL A   1      46.184  28.024  35.726  1.00  0.00     0.020 A 
ATOM     60  C   UNL A   1      44.528  26.664  36.871  1.00  0.00     0.020 A 
ATOM     61  C   UNL A   1      45.861  26.968  36.584  1.00  0.00     0.054 A 
BRANCH  61  62
ATOM     62  S   UNL A   1      47.203  26.020  37.354  1.00  0.00     0.124 S 
ATOM     63  O   UNL A   1      48.143  27.075  37.723  1.00  0.00    -0.237 OA
ATOM     64  O   UNL A   1      46.533  25.358  38.470  1.00  0.00    -0.237 OA
ATOM     65  O   UNL A   1      47.654  25.129  36.287  1.00  0.00    -0.744 OA
ENDBRANCH  61  62
ENDBRANCH  42  56
BRANCH  43  66
ATOM     66  C   UNL A   1      36.416  33.540  30.964  1.00  0.00    -0.014 A 
ATOM     67  C   UNL A   1      36.534  34.000  29.641  1.00  0.00     0.010 A 
ATOM     68  C   UNL A   1      35.221  33.780  31.667  1.00  0.00     0.010 A 
ATOM     69  C   UNL A   1      35.483  34.697  29.038  1.00  0.00     0.020 A 
ATOM     70  C   UNL A   1      34.157  34.451  31.058  1.00  0.00     0.020 A 
ATOM     71  C   UNL A   1      34.300  34.916  29.750  1.00  0.00     0.054 A 
BRANCH  71  72
ATOM     72  S   UNL A   1      32.921  35.769  28.934  1.00  0.00     0.124 S 
ATOM     73  O   UNL A   1      32.362  34.710  28.100  1.00  0.00    -0.237 OA
ATOM     74  O   UNL A   1      32.092  36.191  30.062  1.00  0.00    -0.237 OA
ATOM     75  O   UNL A   1      33.574  36.859  28.213  1.00  0.00    -0.744 OA
ENDBRANCH  71  72
ENDBRANCH  43  66
BRANCH  55  76
ATOM     76  C   UNL A   1      39.908  34.333  36.933  1.00  0.00    -0.014 A 
ATOM     77  C   UNL A   1      40.617  35.544  36.845  1.00  0.00     0.010 A 
ATOM     78  C   UNL A   1      39.079  34.096  38.043  1.00  0.00     0.010 A 
ATOM     79  C   UNL A   1      40.522  36.490  37.867  1.00  0.00     0.020 A 
ATOM     80  C   UNL A   1      38.968  35.049  39.059  1.00  0.00     0.020 A 
ATOM     81  C   UNL A   1      39.702  36.233  38.971  1.00  0.00     0.054 A 
BRANCH  81  82
ATOM     82  S   UNL A   1      39.568  37.488  40.274  1.00  0.00     0.124 S 
ATOM     83  O   UNL A   1      38.677  38.469  39.660  1.00  0.00    -0.237 OA
ATOM     84  O   UNL A   1      39.001  36.736  41.391  1.00  0.00    -0.237 OA
ATOM     85  O   UNL A   1      40.947  37.932  40.468  1.00  0.00    -0.744 OA
ENDBRANCH  81  82
ENDBRANCH  55  76
ENDBRANCH  29  30
ENDBRANCH  22  24
ENDBRANCH  21  22
ENDBRANCH   1  21
TORSDOF 16
ENDMDL
MODEL 3
REMARK VINA RESULT:     -10.8      6.891     12.606
REMARK SMILES Cc1cccc(C[N@H+]2CC[C@@](C)(C(=O)OCCOC(=O)c3ccc(-c4c5nc(c(-c6ccc(S(=O)(=O)[O-])cc6)c6ccc([nH]6)c(-c6ccc(S(=O)(=O)[O-])cc6)c6nc(c(-c7ccc(S(=O)(=O)[O-])cc7)c7ccc4[nH]7)C=C6)C=C5)cc3)C2)n1
REMARK SMILES IDX 17 1 16 2 15 3 13 4 14 5 11 6 8 7 9 8 81 9 10 11 12 12 7 13
REMARK SMILES IDX 6 14 1 15 2 16 3 17 82 18 4 19 5 20 18 21 19 22 20 23 21 24
REMARK SMILES IDX 22 25 80 26 23 27 79 28 24 29 25 30 26 31 73 32 27 33 78 34
REMARK SMILES IDX 72 35 74 36 28 37 77 38 71 39 70 40 29 42 59 43 40 44 58 45
REMARK SMILES IDX 41 46 44 47 57 48 75 49 42 50 43 51 56 53 76 54 45 55 30 56
REMARK SMILES IDX 31 57 39 58 32 59 38 60 33 61 34 62 35 63 36 64 37 65 60 66
REMARK SMILES IDX 61 67 69 68 62 69 68 70 63 71 64 72 65 73 66 74 67 75 46 76
REMARK SMILES IDX 47 77 55 78 48 79 54 80 49 81 50 82 51 83 52 84 53 85
REMARK H PARENT 8 10 74 41 44 52
REMARK Flexibility Score: inf
ROOT
ATOM      1  C   UNL A   1      35.564  31.931  29.588  1.00  0.00     0.275 C 
ENDROOT
BRANCH   1   2
ATOM      2  C   UNL A   1      36.501  33.004  29.040  1.00  0.00     0.274 C 
BRANCH   2   3
ATOM      3  O   UNL A   1      37.046  33.799  30.114  1.00  0.00    -0.461 OA
BRANCH   3   4
ATOM      4  C   UNL A   1      38.122  33.299  30.774  1.00  0.00     0.317 C 
ATOM      5  O   UNL A   1      39.029  32.683  30.222  1.00  0.00    -0.251 OA
BRANCH   4   6
ATOM      6  C   UNL A   1      38.096  33.528  32.293  1.00  0.00     0.119 C 
ATOM      7  N   UNL A   1      36.095  33.523  33.612  1.00  0.00    -0.329 N 
ATOM      8  C   UNL A   1      36.333  32.161  33.156  1.00  0.00     0.263 C 
ATOM      9  C   UNL A   1      36.947  34.414  32.808  1.00  0.00     0.281 C 
ATOM     10  H   UNL A   1      36.356  33.586  34.597  1.00  0.00     0.348 HD
ATOM     11  C   UNL A   1      37.837  32.165  32.956  1.00  0.00     0.086 C 
ATOM     12  C   UNL A   1      39.443  34.102  32.741  1.00  0.00     0.030 C 
BRANCH   7  13
ATOM     13  C   UNL A   1      34.685  33.932  33.674  1.00  0.00     0.319 C 
BRANCH  13  14
ATOM     14  C   UNL A   1      34.247  34.993  32.678  1.00  0.00     0.095 A 
ATOM     15  C   UNL A   1      33.044  34.925  29.204  1.00  0.00     0.067 C 
ATOM     16  C   UNL A   1      33.414  35.457  30.553  1.00  0.00     0.038 A 
ATOM     17  C   UNL A   1      33.198  36.788  30.887  1.00  0.00     0.023 A 
ATOM     18  N   UNL A   1      33.963  34.579  31.418  1.00  0.00    -0.252 NA
ATOM     19  C   UNL A   1      33.530  37.219  32.168  1.00  0.00     0.004 A 
ATOM     20  C   UNL A   1      34.057  36.312  33.081  1.00  0.00     0.030 A 
ENDBRANCH  13  14
ENDBRANCH   7  13
ENDBRANCH   4   6
ENDBRANCH   3   4
ENDBRANCH   2   3
ENDBRANCH   1   2
BRANCH   1  21
ATOM     21  O   UNL A   1      36.001  30.651  29.110  1.00  0.00    -0.458 OA
BRANCH  21  22
ATOM     22  C   UNL A   1      36.589  29.845  30.017  1.00  0.00     0.338 C 
ATOM     23  O   UNL A   1      36.124  29.453  31.079  1.00  0.00    -0.246 OA
BRANCH  22  24
ATOM     24  C   UNL A   1      37.926  29.474  29.527  1.00  0.00     0.060 A 
ATOM     25  C   UNL A   1      38.886  29.012  30.427  1.00  0.00     0.016 A 
ATOM     26  C   UNL A   1      38.256  29.662  28.187  1.00  0.00     0.016 A 
ATOM     27  C   UNL A   1      40.199  28.819  30.012  1.00  0.00     0.010 A 
ATOM     28  C   UNL A   1      39.549  29.358  27.749  1.00  0.00     0.010 A 
ATOM     29  C   UNL A   1      40.543  28.958  28.662  1.00  0.00    -0.014 A 
BRANCH  29  30
ATOM     30  C   UNL A   1      41.937  28.702  28.205  1.00  0.00     0.031 A 
ATOM     31  C   UNL A   1      42.337  27.327  27.739  1.00  0.00     0.074 A 
ATOM     32  C   UNL A   1      42.847  29.699  28.207  1.00  0.00     0.049 A 
ATOM     33  N   UNL A   1      43.533  26.849  27.511  1.00  0.00    -0.248 NA
ATOM     34  C   UNL A   1      41.252  26.356  27.517  1.00  0.00     0.031 C 
ATOM     35  C   UNL A   1      42.586  31.092  28.583  1.00  0.00     0.029 A 
ATOM     36  N   UNL A   1      44.178  29.696  27.872  1.00  0.00    -0.354 N 
ATOM     37  C   UNL A   1      43.351  25.509  27.183  1.00  0.00     0.074 A 
ATOM     38  C   UNL A   1      41.928  25.252  27.234  1.00  0.00     0.031 C 
ATOM     39  C   UNL A   1      43.704  31.814  28.412  1.00  0.00     0.029 A 
ATOM     40  C   UNL A   1      44.785  30.922  28.011  1.00  0.00     0.049 A 
ATOM     41  H   UNL A   1      44.654  28.892  27.561  1.00  0.00     0.167 HD
ATOM     42  C   UNL A   1      44.287  24.580  26.876  1.00  0.00     0.031 A 
ATOM     43  C   UNL A   1      46.074  31.287  27.877  1.00  0.00     0.031 A 
ATOM     44  C   UNL A   1      45.696  24.857  26.785  1.00  0.00     0.049 A 
ATOM     45  C   UNL A   1      47.095  30.236  27.550  1.00  0.00     0.074 A 
ATOM     46  C   UNL A   1      46.732  23.983  26.501  1.00  0.00     0.029 A 
ATOM     47  N   UNL A   1      46.266  26.110  26.950  1.00  0.00    -0.354 N 
ATOM     48  N   UNL A   1      46.917  28.954  27.336  1.00  0.00    -0.248 NA
ATOM     49  C   UNL A   1      48.495  30.675  27.471  1.00  0.00     0.031 C 
ATOM     50  C   UNL A   1      47.931  24.704  26.518  1.00  0.00     0.029 A 
ATOM     51  C   UNL A   1      47.636  26.034  26.772  1.00  0.00     0.049 A 
ATOM     52  H   UNL A   1      45.769  26.932  27.163  1.00  0.00     0.167 HD
ATOM     53  C   UNL A   1      48.180  28.434  27.092  1.00  0.00     0.074 A 
ATOM     54  C   UNL A   1      49.112  29.542  27.161  1.00  0.00     0.031 C 
ATOM     55  C   UNL A   1      48.542  27.151  26.844  1.00  0.00     0.031 A 
BRANCH  42  56
ATOM     56  C   UNL A   1      43.822  23.164  26.659  1.00  0.00    -0.014 A 
ATOM     57  C   UNL A   1      44.148  22.456  25.489  1.00  0.00     0.010 A 
ATOM     58  C   UNL A   1      43.079  22.520  27.664  1.00  0.00     0.010 A 
ATOM     59  C   UNL A   1      43.711  21.139  25.316  1.00  0.00     0.020 A 
ATOM     60  C   UNL A   1      42.659  21.196  27.505  1.00  0.00     0.020 A 
ATOM     61  C   UNL A   1      42.965  20.519  26.322  1.00  0.00     0.054 A 
BRANCH  61  62
ATOM     62  S   UNL A   1      42.430  18.800  26.087  1.00  0.00     0.124 S 
ATOM     63  O   UNL A   1      41.030  18.970  25.709  1.00  0.00    -0.237 OA
ATOM     64  O   UNL A   1      43.314  18.329  25.024  1.00  0.00    -0.237 OA
ATOM     65  O   UNL A   1      42.653  18.186  27.394  1.00  0.00    -0.744 OA
ENDBRANCH  61  62
ENDBRANCH  42  56
BRANCH  43  66
ATOM     66  C   UNL A   1      46.477  32.701  28.111  1.00  0.00    -0.014 A 
ATOM     67  C   UNL A   1      46.849  33.136  29.394  1.00  0.00     0.010 A 
ATOM     68  C   UNL A   1      46.508  33.617  27.043  1.00  0.00     0.010 A 
ATOM     69  C   UNL A   1      47.232  34.464  29.609  1.00  0.00     0.020 A 
ATOM     70  C   UNL A   1      46.917  34.937  27.247  1.00  0.00     0.020 A 
ATOM     71  C   UNL A   1      47.266  35.355  28.533  1.00  0.00     0.054 A 
BRANCH  71  72
ATOM     72  S   UNL A   1      47.823  37.059  28.813  1.00  0.00     0.124 S 
ATOM     73  O   UNL A   1      48.147  37.497  27.459  1.00  0.00    -0.237 OA
ATOM     74  O   UNL A   1      46.649  37.686  29.417  1.00  0.00    -0.237 OA
ATOM     75  O   UNL A   1      48.964  36.900  29.712  1.00  0.00    -0.744 OA
ENDBRANCH  71  72
ENDBRANCH  43  66
BRANCH  55  76
ATOM     76  C   UNL A   1      50.001  26.890  26.602  1.00  0.00    -0.014 A 
ATOM     77  C   UNL A   1      50.875  26.622  27.670  1.00  0.00     0.010 A 
ATOM     78  C   UNL A   1      50.494  26.881  25.285  1.00  0.00     0.010 A 
ATOM     79  C   UNL A   1      52.228  26.380  27.426  1.00  0.00     0.020 A 
ATOM     80  C   UNL A   1      51.843  26.621  25.037  1.00  0.00     0.020 A 
ATOM     81  C   UNL A   1      52.704  26.386  26.111  1.00  0.00     0.054 A 
BRANCH  81  82
ATOM     82  S   UNL A   1      54.460  26.038  25.813  1.00  0.00     0.124 S 
ATOM     83  O   UNL A   1      54.395  25.054  24.737  1.00  0.00    -0.237 OA
ATOM     84  O   UNL A   1      54.990  27.347  25.437  1.00  0.00    -0.237 OA
ATOM     85  O   UNL A   1      54.933  25.528  27.098  1.00  0.00    -0.744 OA
ENDBRANCH  81  82
ENDBRANCH  55  76
ENDBRANCH  29  30
ENDBRANCH  22  24
ENDBRANCH  21  22
ENDBRANCH   1  21
TORSDOF 16
ENDMDL
