MODEL 1
REMARK VINA RESULT:     -13.8      0.000      0.000
REMARK SMILES Cc1cc(C(=O)OCCOC(=O)c2ccc(-c3c4nc(c(-c5ccc(S(=O)(=O)[O-])cc5)c5ccc([nH]5)c(-c5ccc(S(=O)(=O)[O-])cc5)c5nc(c(-c6ccc(S(=O)(=O)[O-])cc6)c6ccc3[nH]6)C=C5)C=C4)cc2)ccc1NS(=O)(=O)c1ccc2c(c1)CCC2
REMARK SMILES IDX 8 1 7 2 5 3 6 4 4 5 1 6 2 7 3 8 75 9 74 10 73 11 76 12 77 14
REMARK SMILES IDX 78 15 79 16 80 17 81 18 85 19 82 20 84 21 83 22 86 23 88 24
REMARK SMILES IDX 87 25 9 26 10 27 11 28 12 29 13 30 14 31 72 32 15 33 71 34
REMARK SMILES IDX 16 35 17 36 18 37 65 38 19 39 70 40 64 41 66 42 20 43 69 44
REMARK SMILES IDX 63 45 62 46 21 48 51 49 32 50 50 51 33 52 36 53 49 54 67 55
REMARK SMILES IDX 34 56 35 57 48 59 68 60 37 61 22 62 23 63 31 64 24 65 30 66
REMARK SMILES IDX 25 67 26 68 27 69 28 70 29 71 52 72 53 73 61 74 54 75 60 76
REMARK SMILES IDX 55 77 56 78 57 79 58 80 59 81 38 82 39 83 47 84 40 85 46 86
REMARK SMILES IDX 41 87 42 88 43 89 44 90 45 91
REMARK H PARENT 76 13 66 47 36 58
REMARK Flexibility Score: inf
ROOT
ATOM      1  C   UNL A   1      33.663  29.526  26.580  1.00  0.00     0.275 C 
ENDROOT
BRANCH   1   2
ATOM      2  O   UNL A   1      32.391  29.651  27.267  1.00  0.00    -0.458 OA
BRANCH   2   3
ATOM      3  C   UNL A   1      31.589  28.573  27.055  1.00  0.00     0.338 C 
ATOM      4  O   UNL A   1      31.230  27.822  27.958  1.00  0.00    -0.246 OA
BRANCH   3   5
ATOM      5  C   UNL A   1      31.248  28.236  25.637  1.00  0.00     0.060 A 
ATOM      6  C   UNL A   1      30.498  29.525  22.131  1.00  0.00     0.046 C 
ATOM      7  C   UNL A   1      30.959  28.595  23.227  1.00  0.00    -0.026 A 
ATOM      8  C   UNL A   1      31.133  29.110  24.547  1.00  0.00     0.021 A 
ATOM      9  C   UNL A   1      30.997  27.201  23.030  1.00  0.00     0.052 A 
ATOM     10  C   UNL A   1      30.873  26.362  24.127  1.00  0.00     0.028 A 
ATOM     11  C   UNL A   1      31.002  26.873  25.412  1.00  0.00     0.018 A 
BRANCH   9  12
ATOM     12  N   UNL A   1      31.307  26.555  21.779  1.00  0.00    -0.279 N 
ATOM     13  H   UNL A   1      30.603  26.357  21.119  1.00  0.00     0.180 HD
BRANCH  12  14
ATOM     14  S   UNL A   1      32.963  26.139  21.476  1.00  0.00     0.261 S 
ATOM     15  O   UNL A   1      32.967  25.547  20.135  1.00  0.00    -0.201 OA
ATOM     16  O   UNL A   1      33.771  27.291  21.744  1.00  0.00    -0.201 OA
BRANCH  14  17
ATOM     17  C   UNL A   1      33.462  24.846  22.613  1.00  0.00     0.088 A 
ATOM     18  C   UNL A   1      32.901  23.565  22.454  1.00  0.00     0.022 A 
ATOM     19  C   UNL A   1      34.353  25.091  23.667  1.00  0.00     0.026 A 
ATOM     20  C   UNL A   1      33.440  22.467  23.132  1.00  0.00     0.005 A 
ATOM     21  C   UNL A   1      34.797  24.003  24.411  1.00  0.00    -0.043 A 
ATOM     22  C   UNL A   1      34.430  22.698  24.067  1.00  0.00    -0.045 A 
ATOM     23  C   UNL A   1      35.625  23.975  25.658  1.00  0.00     0.036 C 
ATOM     24  C   UNL A   1      35.214  21.684  24.842  1.00  0.00     0.036 C 
ATOM     25  C   UNL A   1      36.232  22.568  25.584  1.00  0.00     0.010 C 
ENDBRANCH  14  17
ENDBRANCH  12  14
ENDBRANCH   9  12
ENDBRANCH   3   5
ENDBRANCH   2   3
ENDBRANCH   1   2
BRANCH   1  26
ATOM     26  C   UNL A   1      34.888  29.317  27.495  1.00  0.00     0.275 C 
BRANCH  26  27
ATOM     27  O   UNL A   1      35.807  30.417  27.621  1.00  0.00    -0.458 OA
BRANCH  27  28
ATOM     28  C   UNL A   1      36.452  30.486  28.816  1.00  0.00     0.338 C 
ATOM     29  O   UNL A   1      35.942  30.925  29.836  1.00  0.00    -0.246 OA
BRANCH  28  30
ATOM     30  C   UNL A   1      37.625  29.567  28.733  1.00  0.00     0.060 A 
ATOM     31  C   UNL A   1      38.484  29.648  27.629  1.00  0.00     0.016 A 
ATOM     32  C   UNL A   1      38.040  28.910  29.900  1.00  0.00     0.016 A 
ATOM     33  C   UNL A   1      39.786  29.156  27.721  1.00  0.00     0.010 A 
ATOM     34  C   UNL A   1      39.354  28.535  30.035  1.00  0.00     0.010 A 
ATOM     35  C   UNL A   1      40.222  28.633  28.943  1.00  0.00    -0.014 A 
BRANCH  35  36
ATOM     36  C   UNL A   1      41.419  27.820  29.092  1.00  0.00     0.031 A 
ATOM     37  C   UNL A   1      41.513  26.417  28.645  1.00  0.00     0.074 A 
ATOM     38  C   UNL A   1      42.451  28.540  29.590  1.00  0.00     0.049 A 
ATOM     39  N   UNL A   1      42.383  25.574  29.083  1.00  0.00    -0.248 NA
ATOM     40  C   UNL A   1      40.606  25.816  27.670  1.00  0.00     0.031 C 
ATOM     41  C   UNL A   1      43.851  28.196  29.736  1.00  0.00     0.029 A 
ATOM     42  N   UNL A   1      42.332  29.754  30.293  1.00  0.00    -0.354 N 
ATOM     43  C   UNL A   1      42.348  24.458  28.265  1.00  0.00     0.074 A 
ATOM     44  C   UNL A   1      41.151  24.607  27.480  1.00  0.00     0.031 C 
ATOM     45  C   UNL A   1      44.351  28.938  30.746  1.00  0.00     0.029 A 
ATOM     46  C   UNL A   1      43.227  29.657  31.349  1.00  0.00     0.049 A 
ATOM     47  H   UNL A   1      41.740  30.511  30.080  1.00  0.00     0.167 HD
ATOM     48  C   UNL A   1      43.430  23.625  28.234  1.00  0.00     0.031 A 
ATOM     49  C   UNL A   1      42.769  29.502  32.628  1.00  0.00     0.031 A 
ATOM     50  C   UNL A   1      44.406  24.054  29.232  1.00  0.00     0.049 A 
ATOM     51  C   UNL A   1      43.273  28.191  33.180  1.00  0.00     0.074 A 
ATOM     52  C   UNL A   1      45.515  24.875  29.133  1.00  0.00     0.029 A 
ATOM     53  N   UNL A   1      44.077  23.977  30.579  1.00  0.00    -0.354 N 
ATOM     54  N   UNL A   1      43.421  27.099  32.474  1.00  0.00    -0.248 NA
ATOM     55  C   UNL A   1      43.749  28.059  34.551  1.00  0.00     0.031 C 
ATOM     56  C   UNL A   1      45.752  25.423  30.422  1.00  0.00     0.029 A 
ATOM     57  C   UNL A   1      44.815  24.897  31.299  1.00  0.00     0.049 A 
ATOM     58  H   UNL A   1      43.415  23.359  30.965  1.00  0.00     0.167 HD
ATOM     59  C   UNL A   1      44.128  26.191  33.220  1.00  0.00     0.074 A 
ATOM     60  C   UNL A   1      44.264  26.819  34.526  1.00  0.00     0.031 C 
ATOM     61  C   UNL A   1      44.637  25.022  32.735  1.00  0.00     0.031 A 
BRANCH  48  62
ATOM     62  C   UNL A   1      43.766  22.642  27.126  1.00  0.00    -0.014 A 
ATOM     63  C   UNL A   1      42.838  21.617  26.825  1.00  0.00     0.010 A 
ATOM     64  C   UNL A   1      44.968  22.613  26.394  1.00  0.00     0.010 A 
ATOM     65  C   UNL A   1      43.121  20.581  25.921  1.00  0.00     0.020 A 
ATOM     66  C   UNL A   1      45.271  21.573  25.491  1.00  0.00     0.020 A 
ATOM     67  C   UNL A   1      44.350  20.552  25.273  1.00  0.00     0.054 A 
BRANCH  67  68
ATOM     68  S   UNL A   1      44.720  19.170  24.155  1.00  0.00     0.124 S 
ATOM     69  O   UNL A   1      43.812  18.129  24.632  1.00  0.00    -0.237 OA
ATOM     70  O   UNL A   1      44.401  19.728  22.844  1.00  0.00    -0.237 OA
ATOM     71  O   UNL A   1      46.139  18.905  24.387  1.00  0.00    -0.744 OA
ENDBRANCH  67  68
ENDBRANCH  48  62
BRANCH  49  72
ATOM     72  C   UNL A   1      41.449  30.137  32.971  1.00  0.00    -0.014 A 
ATOM     73  C   UNL A   1      40.489  29.355  33.657  1.00  0.00     0.010 A 
ATOM     74  C   UNL A   1      41.201  31.518  32.858  1.00  0.00     0.010 A 
ATOM     75  C   UNL A   1      39.387  29.935  34.299  1.00  0.00     0.020 A 
ATOM     76  C   UNL A   1      40.081  32.104  33.485  1.00  0.00     0.020 A 
ATOM     77  C   UNL A   1      39.199  31.313  34.228  1.00  0.00     0.054 A 
BRANCH  77  78
ATOM     78  S   UNL A   1      37.923  32.070  35.289  1.00  0.00     0.124 S 
ATOM     79  O   UNL A   1      38.543  33.338  35.662  1.00  0.00    -0.237 OA
ATOM     80  O   UNL A   1      36.787  32.169  34.374  1.00  0.00    -0.237 OA
ATOM     81  O   UNL A   1      37.773  31.097  36.369  1.00  0.00    -0.744 OA
ENDBRANCH  77  78
ENDBRANCH  49  72
BRANCH  61  82
ATOM     82  C   UNL A   1      45.150  23.903  33.598  1.00  0.00    -0.014 A 
ATOM     83  C   UNL A   1      46.478  23.832  34.042  1.00  0.00     0.010 A 
ATOM     84  C   UNL A   1      44.235  22.962  34.127  1.00  0.00     0.010 A 
ATOM     85  C   UNL A   1      46.897  22.814  34.901  1.00  0.00     0.020 A 
ATOM     86  C   UNL A   1      44.631  21.977  35.031  1.00  0.00     0.020 A 
ATOM     87  C   UNL A   1      45.971  21.890  35.385  1.00  0.00     0.054 A 
BRANCH  87  88
ATOM     88  S   UNL A   1      46.517  20.605  36.532  1.00  0.00     0.124 S 
ATOM     89  O   UNL A   1      47.961  20.817  36.547  1.00  0.00    -0.237 OA
ATOM     90  O   UNL A   1      45.820  20.953  37.769  1.00  0.00    -0.237 OA
ATOM     91  O   UNL A   1      46.067  19.369  35.899  1.00  0.00    -0.744 OA
ENDBRANCH  87  88
ENDBRANCH  61  82
ENDBRANCH  35  36
ENDBRANCH  28  30
ENDBRANCH  27  28
ENDBRANCH  26  27
ENDBRANCH   1  26
TORSDOF 17
ENDMDL
MODEL 2
REMARK VINA RESULT:     -13.6      1.448      2.665
REMARK SMILES Cc1cc(C(=O)OCCOC(=O)c2ccc(-c3c4nc(c(-c5ccc(S(=O)(=O)[O-])cc5)c5ccc([nH]5)c(-c5ccc(S(=O)(=O)[O-])cc5)c5nc(c(-c6ccc(S(=O)(=O)[O-])cc6)c6ccc3[nH]6)C=C5)C=C4)cc2)ccc1NS(=O)(=O)c1ccc2c(c1)CCC2
REMARK SMILES IDX 8 1 7 2 5 3 6 4 4 5 1 6 2 7 3 8 75 9 74 10 73 11 76 12 77 14
REMARK SMILES IDX 78 15 79 16 80 17 81 18 85 19 82 20 84 21 83 22 86 23 88 24
REMARK SMILES IDX 87 25 9 26 10 27 11 28 12 29 13 30 14 31 72 32 15 33 71 34
REMARK SMILES IDX 16 35 17 36 18 37 65 38 19 39 70 40 64 41 66 42 20 43 69 44
REMARK SMILES IDX 63 45 62 46 21 48 51 49 32 50 50 51 33 52 36 53 49 54 67 55
REMARK SMILES IDX 34 56 35 57 48 59 68 60 37 61 22 62 23 63 31 64 24 65 30 66
REMARK SMILES IDX 25 67 26 68 27 69 28 70 29 71 52 72 53 73 61 74 54 75 60 76
REMARK SMILES IDX 55 77 56 78 57 79 58 80 59 81 38 82 39 83 47 84 40 85 46 86
REMARK SMILES IDX 41 87 42 88 43 89 44 90 45 91
REMARK H PARENT 76 13 66 47 36 58
REMARK Flexibility Score: inf
ROOT
ATOM      1  C   UNL A   1      32.881  29.481  27.254  1.00  0.00     0.275 C 
ENDROOT
BRANCH   1   2
ATOM      2  O   UNL A   1      32.480  28.481  26.283  1.00  0.00    -0.458 OA
BRANCH   2   3
ATOM      3  C   UNL A   1      31.729  27.496  26.846  1.00  0.00     0.338 C 
ATOM      4  O   UNL A   1      30.857  27.719  27.682  1.00  0.00    -0.246 OA
BRANCH   3   5
ATOM      5  C   UNL A   1      32.084  26.081  26.510  1.00  0.00     0.060 A 
ATOM      6  C   UNL A   1      30.883  22.488  26.104  1.00  0.00     0.046 C 
ATOM      7  C   UNL A   1      31.713  23.733  25.903  1.00  0.00    -0.026 A 
ATOM      8  C   UNL A   1      31.223  24.982  26.392  1.00  0.00     0.021 A 
ATOM      9  C   UNL A   1      33.046  23.653  25.457  1.00  0.00     0.052 A 
ATOM     10  C   UNL A   1      33.933  24.664  25.798  1.00  0.00     0.028 A 
ATOM     11  C   UNL A   1      33.455  25.864  26.312  1.00  0.00     0.018 A 
BRANCH   9  12
ATOM     12  N   UNL A   1      33.548  22.666  24.534  1.00  0.00    -0.279 N 
ATOM     13  H   UNL A   1      33.886  21.797  24.852  1.00  0.00     0.180 HD
BRANCH  12  14
ATOM     14  S   UNL A   1      33.534  23.061  22.846  1.00  0.00     0.261 S 
ATOM     15  O   UNL A   1      34.944  23.071  22.447  1.00  0.00    -0.201 OA
ATOM     16  O   UNL A   1      32.618  22.179  22.186  1.00  0.00    -0.201 OA
BRANCH  14  17
ATOM     17  C   UNL A   1      32.926  24.734  22.639  1.00  0.00     0.088 A 
ATOM     18  C   UNL A   1      31.537  24.932  22.526  1.00  0.00     0.022 A 
ATOM     19  C   UNL A   1      33.796  25.830  22.548  1.00  0.00     0.026 A 
ATOM     20  C   UNL A   1      30.994  26.216  22.628  1.00  0.00     0.005 A 
ATOM     21  C   UNL A   1      33.239  27.104  22.534  1.00  0.00    -0.043 A 
ATOM     22  C   UNL A   1      31.861  27.289  22.689  1.00  0.00    -0.045 A 
ATOM     23  C   UNL A   1      33.897  28.431  22.308  1.00  0.00     0.036 C 
ATOM     24  C   UNL A   1      31.519  28.734  22.893  1.00  0.00     0.036 C 
ATOM     25  C   UNL A   1      32.912  29.377  23.007  1.00  0.00     0.010 C 
ENDBRANCH  14  17
ENDBRANCH  12  14
ENDBRANCH   9  12
ENDBRANCH   3   5
ENDBRANCH   2   3
ENDBRANCH   1   2
BRANCH   1  26
ATOM     26  C   UNL A   1      34.373  29.878  27.214  1.00  0.00     0.275 C 
BRANCH  26  27
ATOM     27  O   UNL A   1      35.203  29.414  28.294  1.00  0.00    -0.458 OA
BRANCH  27  28
ATOM     28  C   UNL A   1      36.258  30.221  28.586  1.00  0.00     0.338 C 
ATOM     29  O   UNL A   1      36.149  31.299  29.149  1.00  0.00    -0.246 OA
BRANCH  28  30
ATOM     30  C   UNL A   1      37.487  29.377  28.511  1.00  0.00     0.060 A 
ATOM     31  C   UNL A   1      38.445  29.646  27.524  1.00  0.00     0.016 A 
ATOM     32  C   UNL A   1      37.822  28.589  29.620  1.00  0.00     0.016 A 
ATOM     33  C   UNL A   1      39.759  29.208  27.691  1.00  0.00     0.010 A 
ATOM     34  C   UNL A   1      39.137  28.261  29.846  1.00  0.00     0.010 A 
ATOM     35  C   UNL A   1      40.101  28.546  28.874  1.00  0.00    -0.014 A 
BRANCH  35  36
ATOM     36  C   UNL A   1      41.325  27.777  29.044  1.00  0.00     0.031 A 
ATOM     37  C   UNL A   1      41.486  26.386  28.577  1.00  0.00     0.074 A 
ATOM     38  C   UNL A   1      42.314  28.527  29.583  1.00  0.00     0.049 A 
ATOM     39  N   UNL A   1      42.376  25.570  29.025  1.00  0.00    -0.248 NA
ATOM     40  C   UNL A   1      40.631  25.768  27.567  1.00  0.00     0.031 C 
ATOM     41  C   UNL A   1      43.722  28.235  29.764  1.00  0.00     0.029 A 
ATOM     42  N   UNL A   1      42.128  29.723  30.303  1.00  0.00    -0.354 N 
ATOM     43  C   UNL A   1      42.407  24.469  28.188  1.00  0.00     0.074 A 
ATOM     44  C   UNL A   1      41.227  24.585  27.372  1.00  0.00     0.031 C 
ATOM     45  C   UNL A   1      44.164  28.978  30.800  1.00  0.00     0.029 A 
ATOM     46  C   UNL A   1      42.996  29.642  31.382  1.00  0.00     0.049 A 
ATOM     47  H   UNL A   1      41.513  30.461  30.086  1.00  0.00     0.167 HD
ATOM     48  C   UNL A   1      43.521  23.678  28.175  1.00  0.00     0.031 A 
ATOM     49  C   UNL A   1      42.509  29.447  32.645  1.00  0.00     0.031 A 
ATOM     50  C   UNL A   1      44.451  24.127  29.207  1.00  0.00     0.049 A 
ATOM     51  C   UNL A   1      43.048  28.146  33.190  1.00  0.00     0.074 A 
ATOM     52  C   UNL A   1      45.530  24.992  29.154  1.00  0.00     0.029 A 
ATOM     53  N   UNL A   1      44.087  24.014  30.543  1.00  0.00    -0.354 N 
ATOM     54  N   UNL A   1      43.257  27.074  32.470  1.00  0.00    -0.248 NA
ATOM     55  C   UNL A   1      43.490  28.009  34.571  1.00  0.00     0.031 C 
ATOM     56  C   UNL A   1      45.709  25.525  30.458  1.00  0.00     0.029 A 
ATOM     57  C   UNL A   1      44.769  24.948  31.299  1.00  0.00     0.049 A 
ATOM     58  H   UNL A   1      43.440  23.363  30.899  1.00  0.00     0.167 HD
ATOM     59  C   UNL A   1      43.978  26.181  33.221  1.00  0.00     0.074 A 
ATOM     60  C   UNL A   1      44.053  26.790  34.540  1.00  0.00     0.031 C 
ATOM     61  C   UNL A   1      44.546  25.040  32.730  1.00  0.00     0.031 A 
BRANCH  48  62
ATOM     62  C   UNL A   1      43.926  22.728  27.060  1.00  0.00    -0.014 A 
ATOM     63  C   UNL A   1      43.026  21.703  26.684  1.00  0.00     0.010 A 
ATOM     64  C   UNL A   1      45.166  22.730  26.394  1.00  0.00     0.010 A 
ATOM     65  C   UNL A   1      43.368  20.695  25.769  1.00  0.00     0.020 A 
ATOM     66  C   UNL A   1      45.527  21.718  25.481  1.00  0.00     0.020 A 
ATOM     67  C   UNL A   1      44.629  20.694  25.187  1.00  0.00     0.054 A 
BRANCH  67  68
ATOM     68  S   UNL A   1      45.073  19.347  24.054  1.00  0.00     0.124 S 
ATOM     69  O   UNL A   1      46.533  19.365  24.101  1.00  0.00    -0.237 OA
ATOM     70  O   UNL A   1      44.439  18.188  24.675  1.00  0.00    -0.237 OA
ATOM     71  O   UNL A   1      44.492  19.761  22.777  1.00  0.00    -0.744 OA
ENDBRANCH  67  68
ENDBRANCH  48  62
BRANCH  49  72
ATOM     72  C   UNL A   1      41.156  30.024  32.961  1.00  0.00    -0.014 A 
ATOM     73  C   UNL A   1      40.945  31.403  32.719  1.00  0.00     0.010 A 
ATOM     74  C   UNL A   1      40.029  29.238  33.262  1.00  0.00     0.010 A 
ATOM     75  C   UNL A   1      39.658  31.955  32.669  1.00  0.00     0.020 A 
ATOM     76  C   UNL A   1      38.732  29.793  33.233  1.00  0.00     0.020 A 
ATOM     77  C   UNL A   1      38.553  31.141  32.905  1.00  0.00     0.054 A 
BRANCH  77  78
ATOM     78  S   UNL A   1      36.892  31.814  32.568  1.00  0.00     0.124 S 
ATOM     79  O   UNL A   1      36.171  30.637  32.094  1.00  0.00    -0.237 OA
ATOM     80  O   UNL A   1      36.493  32.310  33.884  1.00  0.00    -0.237 OA
ATOM     81  O   UNL A   1      37.151  32.843  31.565  1.00  0.00    -0.744 OA
ENDBRANCH  77  78
ENDBRANCH  49  72
BRANCH  61  82
ATOM     82  C   UNL A   1      45.078  23.927  33.590  1.00  0.00    -0.014 A 
ATOM     83  C   UNL A   1      46.423  23.841  33.978  1.00  0.00     0.010 A 
ATOM     84  C   UNL A   1      44.171  23.010  34.172  1.00  0.00     0.010 A 
ATOM     85  C   UNL A   1      46.862  22.831  34.835  1.00  0.00     0.020 A 
ATOM     86  C   UNL A   1      44.591  22.033  35.074  1.00  0.00     0.020 A 
ATOM     87  C   UNL A   1      45.943  21.929  35.373  1.00  0.00     0.054 A 
BRANCH  87  88
ATOM     88  S   UNL A   1      46.517  20.654  36.517  1.00  0.00     0.124 S 
ATOM     89  O   UNL A   1      46.262  19.436  35.754  1.00  0.00    -0.237 OA
ATOM     90  O   UNL A   1      47.927  20.992  36.704  1.00  0.00    -0.237 OA
ATOM     91  O   UNL A   1      45.675  20.848  37.694  1.00  0.00    -0.744 OA
ENDBRANCH  87  88
ENDBRANCH  61  82
ENDBRANCH  35  36
ENDBRANCH  28  30
ENDBRANCH  27  28
ENDBRANCH  26  27
ENDBRANCH   1  26
TORSDOF 17
ENDMDL
MODEL 3
REMARK VINA RESULT:     -13.6      1.431      2.012
REMARK SMILES Cc1cc(C(=O)OCCOC(=O)c2ccc(-c3c4nc(c(-c5ccc(S(=O)(=O)[O-])cc5)c5ccc([nH]5)c(-c5ccc(S(=O)(=O)[O-])cc5)c5nc(c(-c6ccc(S(=O)(=O)[O-])cc6)c6ccc3[nH]6)C=C5)C=C4)cc2)ccc1NS(=O)(=O)c1ccc2c(c1)CCC2
REMARK SMILES IDX 8 1 7 2 5 3 6 4 4 5 1 6 2 7 3 8 75 9 74 10 73 11 76 12 77 14
REMARK SMILES IDX 78 15 79 16 80 17 81 18 85 19 82 20 84 21 83 22 86 23 88 24
REMARK SMILES IDX 87 25 9 26 10 27 11 28 12 29 13 30 14 31 72 32 15 33 71 34
REMARK SMILES IDX 16 35 17 36 18 37 65 38 19 39 70 40 64 41 66 42 20 43 69 44
REMARK SMILES IDX 63 45 62 46 21 48 51 49 32 50 50 51 33 52 36 53 49 54 67 55
REMARK SMILES IDX 34 56 35 57 48 59 68 60 37 61 22 62 23 63 31 64 24 65 30 66
REMARK SMILES IDX 25 67 26 68 27 69 28 70 29 71 52 72 53 73 61 74 54 75 60 76
REMARK SMILES IDX 55 77 56 78 57 79 58 80 59 81 38 82 39 83 47 84 40 85 46 86
REMARK SMILES IDX 41 87 42 88 43 89 44 90 45 91
REMARK H PARENT 76 13 66 47 36 58
REMARK Flexibility Score: inf
ROOT
ATOM      1  C   UNL A   1      32.947  29.681  27.181  1.00  0.00     0.275 C 
ENDROOT
BRANCH   1   2
ATOM      2  O   UNL A   1      31.933  28.775  26.676  1.00  0.00    -0.458 OA
BRANCH   2   3
ATOM      3  C   UNL A   1      31.545  29.096  25.413  1.00  0.00     0.338 C 
ATOM      4  O   UNL A   1      31.162  30.219  25.098  1.00  0.00    -0.246 OA
BRANCH   3   5
ATOM      5  C   UNL A   1      31.471  27.985  24.412  1.00  0.00     0.060 A 
ATOM      6  C   UNL A   1      33.191  26.109  21.576  1.00  0.00     0.046 C 
ATOM      7  C   UNL A   1      32.282  26.369  22.753  1.00  0.00    -0.026 A 
ATOM      8  C   UNL A   1      32.469  27.553  23.528  1.00  0.00     0.021 A 
ATOM      9  C   UNL A   1      31.123  25.597  22.960  1.00  0.00     0.052 A 
ATOM     10  C   UNL A   1      30.056  26.154  23.650  1.00  0.00     0.028 A 
ATOM     11  C   UNL A   1      30.232  27.330  24.370  1.00  0.00     0.018 A 
BRANCH   9  12
ATOM     12  N   UNL A   1      30.998  24.197  22.640  1.00  0.00    -0.279 N 
ATOM     13  H   UNL A   1      30.627  23.903  21.776  1.00  0.00     0.180 HD
BRANCH  12  14
ATOM     14  S   UNL A   1      31.526  23.048  23.827  1.00  0.00     0.261 S 
ATOM     15  O   UNL A   1      30.679  23.297  24.998  1.00  0.00    -0.201 OA
ATOM     16  O   UNL A   1      31.535  21.750  23.223  1.00  0.00    -0.201 OA
BRANCH  14  17
ATOM     17  C   UNL A   1      33.207  23.437  24.314  1.00  0.00     0.088 A 
ATOM     18  C   UNL A   1      33.402  24.345  25.372  1.00  0.00     0.022 A 
ATOM     19  C   UNL A   1      34.313  22.896  23.646  1.00  0.00     0.026 A 
ATOM     20  C   UNL A   1      34.662  24.482  25.962  1.00  0.00     0.005 A 
ATOM     21  C   UNL A   1      35.576  23.135  24.178  1.00  0.00    -0.043 A 
ATOM     22  C   UNL A   1      35.730  23.823  25.386  1.00  0.00    -0.045 A 
ATOM     23  C   UNL A   1      36.925  22.808  23.615  1.00  0.00     0.036 C 
ATOM     24  C   UNL A   1      37.140  23.745  25.887  1.00  0.00     0.036 C 
ATOM     25  C   UNL A   1      37.779  22.764  24.889  1.00  0.00     0.010 C 
ENDBRANCH  14  17
ENDBRANCH  12  14
ENDBRANCH   9  12
ENDBRANCH   3   5
ENDBRANCH   2   3
ENDBRANCH   1   2
BRANCH   1  26
ATOM     26  C   UNL A   1      34.380  29.107  27.226  1.00  0.00     0.275 C 
BRANCH  26  27
ATOM     27  O   UNL A   1      35.177  29.427  28.380  1.00  0.00    -0.458 OA
BRANCH  27  28
ATOM     28  C   UNL A   1      36.228  30.255  28.133  1.00  0.00     0.338 C 
ATOM     29  O   UNL A   1      36.186  31.466  28.285  1.00  0.00    -0.246 OA
BRANCH  28  30
ATOM     30  C   UNL A   1      37.454  29.405  28.101  1.00  0.00     0.060 A 
ATOM     31  C   UNL A   1      38.437  29.654  27.133  1.00  0.00     0.016 A 
ATOM     32  C   UNL A   1      37.760  28.634  29.231  1.00  0.00     0.016 A 
ATOM     33  C   UNL A   1      39.745  29.213  27.338  1.00  0.00     0.010 A 
ATOM     34  C   UNL A   1      39.067  28.305  29.493  1.00  0.00     0.010 A 
ATOM     35  C   UNL A   1      40.056  28.570  28.540  1.00  0.00    -0.014 A 
BRANCH  35  36
ATOM     36  C   UNL A   1      41.272  27.799  28.751  1.00  0.00     0.031 A 
ATOM     37  C   UNL A   1      41.435  26.397  28.319  1.00  0.00     0.074 A 
ATOM     38  C   UNL A   1      42.254  28.557  29.293  1.00  0.00     0.049 A 
ATOM     39  N   UNL A   1      42.311  25.588  28.803  1.00  0.00    -0.248 NA
ATOM     40  C   UNL A   1      40.597  25.761  27.306  1.00  0.00     0.031 C 
ATOM     41  C   UNL A   1      43.656  28.262  29.509  1.00  0.00     0.029 A 
ATOM     42  N   UNL A   1      42.060  29.769  29.982  1.00  0.00    -0.354 N 
ATOM     43  C   UNL A   1      42.354  24.467  27.992  1.00  0.00     0.074 A 
ATOM     44  C   UNL A   1      41.191  24.571  27.150  1.00  0.00     0.031 C 
ATOM     45  C   UNL A   1      44.082  29.026  30.537  1.00  0.00     0.029 A 
ATOM     46  C   UNL A   1      42.906  29.708  31.080  1.00  0.00     0.049 A 
ATOM     47  H   UNL A   1      41.453  30.505  29.736  1.00  0.00     0.167 HD
ATOM     48  C   UNL A   1      43.463  23.671  28.019  1.00  0.00     0.031 A 
ATOM     49  C   UNL A   1      42.393  29.544  32.336  1.00  0.00     0.031 A 
ATOM     50  C   UNL A   1      44.375  24.138  29.059  1.00  0.00     0.049 A 
ATOM     51  C   UNL A   1      42.914  28.254  32.921  1.00  0.00     0.074 A 
ATOM     52  C   UNL A   1      45.459  24.997  29.008  1.00  0.00     0.029 A 
ATOM     53  N   UNL A   1      43.984  24.057  30.390  1.00  0.00    -0.354 N 
ATOM     54  N   UNL A   1      43.132  27.164  32.230  1.00  0.00    -0.248 NA
ATOM     55  C   UNL A   1      43.328  28.146  34.314  1.00  0.00     0.031 C 
ATOM     56  C   UNL A   1      45.615  25.559  30.303  1.00  0.00     0.029 A 
ATOM     57  C   UNL A   1      44.656  25.005  31.138  1.00  0.00     0.049 A 
ATOM     58  H   UNL A   1      43.327  23.418  30.747  1.00  0.00     0.167 HD
ATOM     59  C   UNL A   1      43.833  26.285  33.015  1.00  0.00     0.074 A 
ATOM     60  C   UNL A   1      43.886  26.924  34.322  1.00  0.00     0.031 C 
ATOM     61  C   UNL A   1      44.405  25.131  32.562  1.00  0.00     0.031 A 
BRANCH  48  62
ATOM     62  C   UNL A   1      43.885  22.694  26.934  1.00  0.00    -0.014 A 
ATOM     63  C   UNL A   1      43.015  21.629  26.606  1.00  0.00     0.010 A 
ATOM     64  C   UNL A   1      45.117  22.711  26.253  1.00  0.00     0.010 A 
ATOM     65  C   UNL A   1      43.377  20.599  25.724  1.00  0.00     0.020 A 
ATOM     66  C   UNL A   1      45.499  21.678  25.373  1.00  0.00     0.020 A 
ATOM     67  C   UNL A   1      44.632  20.617  25.126  1.00  0.00     0.054 A 
BRANCH  67  68
ATOM     68  S   UNL A   1      45.104  19.243  24.037  1.00  0.00     0.124 S 
ATOM     69  O   UNL A   1      46.563  19.275  24.108  1.00  0.00    -0.237 OA
ATOM     70  O   UNL A   1      44.470  18.096  24.679  1.00  0.00    -0.237 OA
ATOM     71  O   UNL A   1      44.541  19.618  22.741  1.00  0.00    -0.744 OA
ENDBRANCH  67  68
ENDBRANCH  48  62
BRANCH  49  72
ATOM     72  C   UNL A   1      41.037  30.135  32.612  1.00  0.00    -0.014 A 
ATOM     73  C   UNL A   1      40.782  31.456  32.173  1.00  0.00     0.010 A 
ATOM     74  C   UNL A   1      39.942  29.381  33.072  1.00  0.00     0.010 A 
ATOM     75  C   UNL A   1      39.480  31.968  32.088  1.00  0.00     0.020 A 
ATOM     76  C   UNL A   1      38.630  29.898  33.008  1.00  0.00     0.020 A 
ATOM     77  C   UNL A   1      38.405  31.176  32.487  1.00  0.00     0.054 A 
BRANCH  77  78
ATOM     78  S   UNL A   1      36.717  31.756  32.115  1.00  0.00     0.124 S 
ATOM     79  O   UNL A   1      36.961  32.815  31.140  1.00  0.00    -0.237 OA
ATOM     80  O   UNL A   1      36.090  30.546  31.587  1.00  0.00    -0.237 OA
ATOM     81  O   UNL A   1      36.225  32.197  33.418  1.00  0.00    -0.744 OA
ENDBRANCH  77  78
ENDBRANCH  49  72
BRANCH  61  82
ATOM     82  C   UNL A   1      44.914  24.035  33.457  1.00  0.00    -0.014 A 
ATOM     83  C   UNL A   1      46.176  24.075  34.067  1.00  0.00     0.010 A 
ATOM     84  C   UNL A   1      44.037  22.991  33.839  1.00  0.00     0.010 A 
ATOM     85  C   UNL A   1      46.582  23.071  34.948  1.00  0.00     0.020 A 
ATOM     86  C   UNL A   1      44.413  22.016  34.761  1.00  0.00     0.020 A 
ATOM     87  C   UNL A   1      45.700  22.044  35.284  1.00  0.00     0.054 A 
BRANCH  87  88
ATOM     88  S   UNL A   1      46.221  20.776  36.460  1.00  0.00     0.124 S 
ATOM     89  O   UNL A   1      45.456  19.619  36.005  1.00  0.00    -0.237 OA
ATOM     90  O   UNL A   1      47.664  20.698  36.239  1.00  0.00    -0.237 OA
ATOM     91  O   UNL A   1      45.824  21.325  37.753  1.00  0.00    -0.744 OA
ENDBRANCH  87  88
ENDBRANCH  61  82
ENDBRANCH  35  36
ENDBRANCH  28  30
ENDBRANCH  27  28
ENDBRANCH  26  27
ENDBRANCH   1  26
TORSDOF 17
ENDMDL
