MODEL 1
REMARK VINA RESULT:     -13.2      0.000      0.000
REMARK SMILES COc1cc2ccccc2cc1C(=O)Nc1cc(C(=O)OCCOC(=O)c2ccc(-c3c4nc(c(-c5ccc(S(=O)(=O)[O-])cc5)c5ccc([nH]5)c(-c5ccc(S(=O)(=O)[O-])cc5)c5nc(c(-c6ccc(S(=O)(=O)[O-])cc6)c6ccc3[nH]6)C=C5)C=C4)cc2)ccc1C
REMARK SMILES IDX 22 1 21 2 19 3 20 4 18 5 16 6 17 7 89 8 88 9 90 10 87 11
REMARK SMILES IDX 15 12 13 13 14 14 12 16 3 17 4 18 5 19 11 20 6 21 10 22 7 23
REMARK SMILES IDX 9 24 8 25 2 26 1 27 23 28 24 29 25 30 26 31 27 32 28 33
REMARK SMILES IDX 86 34 29 35 85 36 30 37 31 38 32 39 79 40 33 41 84 42 78 43
REMARK SMILES IDX 80 44 34 45 83 46 77 47 76 48 35 50 65 51 46 52 64 53 47 54
REMARK SMILES IDX 50 55 63 56 81 57 48 58 49 59 62 61 82 62 51 63 36 64 37 65
REMARK SMILES IDX 45 66 38 67 44 68 39 69 40 70 41 71 42 72 43 73 66 74 67 75
REMARK SMILES IDX 75 76 68 77 74 78 69 79 70 80 71 81 72 82 73 83 52 84 53 85
REMARK SMILES IDX 61 86 54 87 60 88 55 89 56 90 57 91 58 92 59 93
REMARK H PARENT 15 15 80 49 50 60
REMARK Flexibility Score: inf
ROOT
ATOM      1  C   UNL A   1      35.931  21.116  25.287  1.00  0.00     0.275 C 
ENDROOT
BRANCH   1   2
ATOM      2  O   UNL A   1      35.537  22.308  26.001  1.00  0.00    -0.458 OA
BRANCH   2   3
ATOM      3  C   UNL A   1      34.360  22.212  26.644  1.00  0.00     0.338 C 
ATOM      4  O   UNL A   1      34.133  21.503  27.630  1.00  0.00    -0.246 OA
BRANCH   3   5
ATOM      5  C   UNL A   1      33.284  22.947  25.971  1.00  0.00     0.062 A 
ATOM      6  C   UNL A   1      32.796  24.427  24.113  1.00  0.00     0.045 A 
ATOM      7  C   UNL A   1      33.685  23.935  25.070  1.00  0.00     0.042 A 
ATOM      8  C   UNL A   1      31.436  24.062  24.174  1.00  0.00    -0.027 A 
ATOM      9  C   UNL A   1      31.033  23.108  25.131  1.00  0.00     0.006 A 
ATOM     10  C   UNL A   1      30.435  24.471  23.125  1.00  0.00     0.046 C 
ATOM     11  C   UNL A   1      31.955  22.531  26.012  1.00  0.00     0.016 A 
BRANCH   6  12
ATOM     12  N   UNL A   1      33.272  25.195  23.029  1.00  0.00    -0.322 N 
ATOM     13  C   UNL A   1      33.245  26.566  22.825  1.00  0.00     0.259 C 
ATOM     14  O   UNL A   1      33.532  26.999  21.706  1.00  0.00    -0.269 OA
ATOM     15  H   UNL A   1      33.689  24.676  22.304  1.00  0.00     0.170 HD
BRANCH  13  16
ATOM     16  C   UNL A   1      32.950  27.543  23.915  1.00  0.00     0.082 A 
ATOM     17  C   UNL A   1      31.724  28.193  24.068  1.00  0.00     0.132 A 
ATOM     18  C   UNL A   1      31.642  29.312  24.890  1.00  0.00     0.056 A 
ATOM     19  C   UNL A   1      32.678  29.654  25.762  1.00  0.00    -0.015 A 
ATOM     20  C   UNL A   1      33.982  27.838  24.827  1.00  0.00     0.026 A 
ATOM     21  C   UNL A   1      32.554  30.743  26.636  1.00  0.00     0.009 A 
ATOM     22  C   UNL A   1      33.837  28.858  25.793  1.00  0.00    -0.017 A 
ATOM     23  C   UNL A   1      33.505  30.975  27.624  1.00  0.00     0.001 A 
ATOM     24  C   UNL A   1      34.802  29.119  26.783  1.00  0.00     0.009 A 
ATOM     25  C   UNL A   1      34.619  30.151  27.710  1.00  0.00     0.001 A 
BRANCH  17  26
ATOM     26  O   UNL A   1      30.575  27.884  23.387  1.00  0.00    -0.496 OA
ATOM     27  C   UNL A   1      30.279  28.846  22.378  1.00  0.00     0.278 C 
ENDBRANCH  17  26
ENDBRANCH  13  16
ENDBRANCH   6  12
ENDBRANCH   3   5
ENDBRANCH   2   3
ENDBRANCH   1   2
BRANCH   1  28
ATOM     28  C   UNL A   1      37.336  21.283  24.696  1.00  0.00     0.275 C 
BRANCH  28  29
ATOM     29  O   UNL A   1      38.105  22.282  25.398  1.00  0.00    -0.458 OA
BRANCH  29  30
ATOM     30  C   UNL A   1      39.128  21.820  26.146  1.00  0.00     0.338 C 
ATOM     31  O   UNL A   1      39.671  20.720  25.989  1.00  0.00    -0.246 OA
BRANCH  30  32
ATOM     32  C   UNL A   1      39.702  22.962  26.905  1.00  0.00     0.060 A 
ATOM     33  C   UNL A   1      41.068  23.011  27.235  1.00  0.00     0.016 A 
ATOM     34  C   UNL A   1      38.908  24.101  27.109  1.00  0.00     0.016 A 
ATOM     35  C   UNL A   1      41.628  24.187  27.751  1.00  0.00     0.010 A 
ATOM     36  C   UNL A   1      39.476  25.275  27.560  1.00  0.00     0.010 A 
ATOM     37  C   UNL A   1      40.830  25.326  27.909  1.00  0.00    -0.014 A 
BRANCH  37  38
ATOM     38  C   UNL A   1      41.189  26.548  28.641  1.00  0.00     0.031 A 
ATOM     39  C   UNL A   1      40.384  27.782  28.638  1.00  0.00     0.074 A 
ATOM     40  C   UNL A   1      42.309  26.449  29.386  1.00  0.00     0.049 A 
ATOM     41  N   UNL A   1      39.898  28.383  29.680  1.00  0.00    -0.248 NA
ATOM     42  C   UNL A   1      40.084  28.443  27.362  1.00  0.00     0.031 C 
ATOM     43  C   UNL A   1      42.840  27.393  30.354  1.00  0.00     0.029 A 
ATOM     44  N   UNL A   1      43.369  25.568  29.136  1.00  0.00    -0.354 N 
ATOM     45  C   UNL A   1      39.249  29.533  29.232  1.00  0.00     0.074 A 
ATOM     46  C   UNL A   1      39.352  29.480  27.773  1.00  0.00     0.031 C 
ATOM     47  C   UNL A   1      44.179  27.277  30.341  1.00  0.00     0.029 A 
ATOM     48  C   UNL A   1      44.518  26.348  29.258  1.00  0.00     0.049 A 
ATOM     49  H   UNL A   1      43.315  24.608  28.922  1.00  0.00     0.167 HD
ATOM     50  C   UNL A   1      39.490  30.742  29.813  1.00  0.00     0.031 A 
ATOM     51  C   UNL A   1      45.286  26.654  28.167  1.00  0.00     0.031 A 
ATOM     52  C   UNL A   1      40.885  30.964  30.099  1.00  0.00     0.049 A 
ATOM     53  C   UNL A   1      45.338  28.143  27.945  1.00  0.00     0.074 A 
ATOM     54  C   UNL A   1      41.677  30.800  31.218  1.00  0.00     0.029 A 
ATOM     55  N   UNL A   1      41.733  31.226  29.037  1.00  0.00    -0.354 N 
ATOM     56  N   UNL A   1      44.378  28.966  28.266  1.00  0.00    -0.248 NA
ATOM     57  C   UNL A   1      46.488  28.815  27.350  1.00  0.00     0.031 C 
ATOM     58  C   UNL A   1      43.030  30.863  30.795  1.00  0.00     0.029 A 
ATOM     59  C   UNL A   1      43.045  31.100  29.431  1.00  0.00     0.049 A 
ATOM     60  H   UNL A   1      41.440  31.468  28.129  1.00  0.00     0.167 HD
ATOM     61  C   UNL A   1      44.816  30.250  28.068  1.00  0.00     0.074 A 
ATOM     62  C   UNL A   1      46.117  30.103  27.441  1.00  0.00     0.031 C 
ATOM     63  C   UNL A   1      44.116  31.342  28.483  1.00  0.00     0.031 A 
BRANCH  50  64
ATOM     64  C   UNL A   1      38.312  31.354  30.522  1.00  0.00    -0.014 A 
ATOM     65  C   UNL A   1      37.931  32.688  30.290  1.00  0.00     0.010 A 
ATOM     66  C   UNL A   1      37.553  30.619  31.461  1.00  0.00     0.010 A 
ATOM     67  C   UNL A   1      36.884  33.285  31.009  1.00  0.00     0.020 A 
ATOM     68  C   UNL A   1      36.499  31.205  32.177  1.00  0.00     0.020 A 
ATOM     69  C   UNL A   1      36.181  32.544  31.959  1.00  0.00     0.054 A 
BRANCH  69  70
ATOM     70  S   UNL A   1      34.885  33.365  32.928  1.00  0.00     0.124 S 
ATOM     71  O   UNL A   1      35.288  33.078  34.304  1.00  0.00    -0.237 OA
ATOM     72  O   UNL A   1      35.014  34.759  32.516  1.00  0.00    -0.237 OA
ATOM     73  O   UNL A   1      33.654  32.703  32.500  1.00  0.00    -0.744 OA
ENDBRANCH  69  70
ENDBRANCH  50  64
BRANCH  51  74
ATOM     74  C   UNL A   1      45.298  25.646  27.061  1.00  0.00    -0.014 A 
ATOM     75  C   UNL A   1      46.006  24.439  27.259  1.00  0.00     0.010 A 
ATOM     76  C   UNL A   1      44.430  25.737  25.961  1.00  0.00     0.010 A 
ATOM     77  C   UNL A   1      45.776  23.323  26.449  1.00  0.00     0.020 A 
ATOM     78  C   UNL A   1      44.208  24.623  25.133  1.00  0.00     0.020 A 
ATOM     79  C   UNL A   1      44.856  23.415  25.404  1.00  0.00     0.054 A 
BRANCH  79  80
ATOM     80  S   UNL A   1      44.398  21.891  24.524  1.00  0.00     0.124 S 
ATOM     81  O   UNL A   1      44.485  22.306  23.128  1.00  0.00    -0.237 OA
ATOM     82  O   UNL A   1      45.430  20.958  24.974  1.00  0.00    -0.237 OA
ATOM     83  O   UNL A   1      43.051  21.611  25.016  1.00  0.00    -0.744 OA
ENDBRANCH  79  80
ENDBRANCH  51  74
BRANCH  63  84
ATOM     84  C   UNL A   1      44.440  32.767  28.129  1.00  0.00    -0.014 A 
ATOM     85  C   UNL A   1      44.392  33.263  26.818  1.00  0.00     0.010 A 
ATOM     86  C   UNL A   1      44.651  33.701  29.171  1.00  0.00     0.010 A 
ATOM     87  C   UNL A   1      44.608  34.619  26.550  1.00  0.00     0.020 A 
ATOM     88  C   UNL A   1      44.829  35.062  28.918  1.00  0.00     0.020 A 
ATOM     89  C   UNL A   1      44.829  35.511  27.602  1.00  0.00     0.054 A 
BRANCH  89  90
ATOM     90  S   UNL A   1      45.034  37.275  27.262  1.00  0.00     0.124 S 
ATOM     91  O   UNL A   1      43.680  37.664  26.874  1.00  0.00    -0.237 OA
ATOM     92  O   UNL A   1      45.495  37.808  28.542  1.00  0.00    -0.237 OA
ATOM     93  O   UNL A   1      46.028  37.298  26.192  1.00  0.00    -0.744 OA
ENDBRANCH  89  90
ENDBRANCH  63  84
ENDBRANCH  37  38
ENDBRANCH  30  32
ENDBRANCH  29  30
ENDBRANCH  28  29
ENDBRANCH   1  28
TORSDOF 17
ENDMDL
MODEL 2
REMARK VINA RESULT:     -13.1      3.523     10.042
REMARK SMILES COc1cc2ccccc2cc1C(=O)Nc1cc(C(=O)OCCOC(=O)c2ccc(-c3c4nc(c(-c5ccc(S(=O)(=O)[O-])cc5)c5ccc([nH]5)c(-c5ccc(S(=O)(=O)[O-])cc5)c5nc(c(-c6ccc(S(=O)(=O)[O-])cc6)c6ccc3[nH]6)C=C5)C=C4)cc2)ccc1C
REMARK SMILES IDX 22 1 21 2 19 3 20 4 18 5 16 6 17 7 89 8 88 9 90 10 87 11
REMARK SMILES IDX 15 12 13 13 14 14 12 16 3 17 4 18 5 19 11 20 6 21 10 22 7 23
REMARK SMILES IDX 9 24 8 25 2 26 1 27 23 28 24 29 25 30 26 31 27 32 28 33
REMARK SMILES IDX 86 34 29 35 85 36 30 37 31 38 32 39 79 40 33 41 84 42 78 43
REMARK SMILES IDX 80 44 34 45 83 46 77 47 76 48 35 50 65 51 46 52 64 53 47 54
REMARK SMILES IDX 50 55 63 56 81 57 48 58 49 59 62 61 82 62 51 63 36 64 37 65
REMARK SMILES IDX 45 66 38 67 44 68 39 69 40 70 41 71 42 72 43 73 66 74 67 75
REMARK SMILES IDX 75 76 68 77 74 78 69 79 70 80 71 81 72 82 73 83 52 84 53 85
REMARK SMILES IDX 61 86 54 87 60 88 55 89 56 90 57 91 58 92 59 93
REMARK H PARENT 15 15 80 49 50 60
REMARK Flexibility Score: inf
ROOT
ATOM      1  C   UNL A   1      31.934  29.711  25.390  1.00  0.00     0.275 C 
ENDROOT
BRANCH   1   2
ATOM      2  O   UNL A   1      33.226  29.111  25.156  1.00  0.00    -0.458 OA
BRANCH   2   3
ATOM      3  C   UNL A   1      33.436  28.707  23.891  1.00  0.00     0.338 C 
ATOM      4  O   UNL A   1      33.891  29.404  22.978  1.00  0.00    -0.246 OA
BRANCH   3   5
ATOM      5  C   UNL A   1      32.933  27.353  23.637  1.00  0.00     0.062 A 
ATOM      6  C   UNL A   1      32.033  25.372  24.708  1.00  0.00     0.045 A 
ATOM      7  C   UNL A   1      32.830  26.518  24.751  1.00  0.00     0.042 A 
ATOM      8  C   UNL A   1      31.479  24.955  23.480  1.00  0.00    -0.027 A 
ATOM      9  C   UNL A   1      31.644  25.780  22.348  1.00  0.00     0.006 A 
ATOM     10  C   UNL A   1      30.532  23.790  23.369  1.00  0.00     0.046 C 
ATOM     11  C   UNL A   1      32.347  26.988  22.427  1.00  0.00     0.016 A 
BRANCH   6  12
ATOM     12  N   UNL A   1      31.694  24.697  25.900  1.00  0.00    -0.322 N 
ATOM     13  C   UNL A   1      32.199  23.523  26.437  1.00  0.00     0.259 C 
ATOM     14  O   UNL A   1      31.604  23.008  27.388  1.00  0.00    -0.269 OA
ATOM     15  H   UNL A   1      30.989  25.129  26.434  1.00  0.00     0.170 HD
BRANCH  13  16
ATOM     16  C   UNL A   1      33.465  22.891  25.960  1.00  0.00     0.082 A 
ATOM     17  C   UNL A   1      33.516  21.690  25.250  1.00  0.00     0.132 A 
ATOM     18  C   UNL A   1      34.727  21.015  25.137  1.00  0.00     0.056 A 
ATOM     19  C   UNL A   1      35.936  21.621  25.488  1.00  0.00    -0.015 A 
ATOM     20  C   UNL A   1      34.676  23.540  26.267  1.00  0.00     0.026 A 
ATOM     21  C   UNL A   1      37.155  20.955  25.303  1.00  0.00     0.009 A 
ATOM     22  C   UNL A   1      35.922  22.937  25.985  1.00  0.00    -0.017 A 
ATOM     23  C   UNL A   1      38.364  21.620  25.483  1.00  0.00     0.001 A 
ATOM     24  C   UNL A   1      37.152  23.589  26.186  1.00  0.00     0.009 A 
ATOM     25  C   UNL A   1      38.362  22.944  25.905  1.00  0.00     0.001 A 
BRANCH  17  26
ATOM     26  O   UNL A   1      32.434  21.038  24.718  1.00  0.00    -0.496 OA
ATOM     27  C   UNL A   1      32.587  19.623  24.768  1.00  0.00     0.278 C 
ENDBRANCH  17  26
ENDBRANCH  13  16
ENDBRANCH   6  12
ENDBRANCH   3   5
ENDBRANCH   2   3
ENDBRANCH   1   2
BRANCH   1  28
ATOM     28  C   UNL A   1      31.994  30.666  26.587  1.00  0.00     0.275 C 
BRANCH  28  29
ATOM     29  O   UNL A   1      33.264  30.606  27.268  1.00  0.00    -0.458 OA
BRANCH  29  30
ATOM     30  C   UNL A   1      33.837  31.794  27.553  1.00  0.00     0.338 C 
ATOM     31  O   UNL A   1      33.215  32.848  27.736  1.00  0.00    -0.246 OA
BRANCH  30  32
ATOM     32  C   UNL A   1      35.246  31.546  27.958  1.00  0.00     0.060 A 
ATOM     33  C   UNL A   1      35.987  32.510  28.664  1.00  0.00     0.016 A 
ATOM     34  C   UNL A   1      35.768  30.251  27.816  1.00  0.00     0.016 A 
ATOM     35  C   UNL A   1      37.226  32.175  29.226  1.00  0.00     0.010 A 
ATOM     36  C   UNL A   1      36.960  29.910  28.422  1.00  0.00     0.010 A 
ATOM     37  C   UNL A   1      37.713  30.868  29.109  1.00  0.00    -0.014 A 
BRANCH  37  38
ATOM     38  C   UNL A   1      39.072  30.412  29.427  1.00  0.00     0.031 A 
ATOM     39  C   UNL A   1      39.547  29.029  29.241  1.00  0.00     0.074 A 
ATOM     40  C   UNL A   1      39.904  31.382  29.860  1.00  0.00     0.049 A 
ATOM     41  N   UNL A   1      40.561  28.657  28.525  1.00  0.00    -0.248 NA
ATOM     42  C   UNL A   1      38.847  27.932  29.920  1.00  0.00     0.031 C 
ATOM     43  C   UNL A   1      41.337  31.311  30.087  1.00  0.00     0.029 A 
ATOM     44  N   UNL A   1      39.504  32.561  30.500  1.00  0.00    -0.354 N 
ATOM     45  C   UNL A   1      40.686  27.276  28.666  1.00  0.00     0.074 A 
ATOM     46  C   UNL A   1      39.551  26.878  29.501  1.00  0.00     0.031 C 
ATOM     47  C   UNL A   1      41.632  32.161  31.085  1.00  0.00     0.029 A 
ATOM     48  C   UNL A   1      40.358  32.681  31.596  1.00  0.00     0.049 A 
ATOM     49  H   UNL A   1      38.779  33.173  30.235  1.00  0.00     0.167 HD
ATOM     50  C   UNL A   1      41.888  26.710  28.967  1.00  0.00     0.031 A 
ATOM     51  C   UNL A   1      39.897  32.522  32.874  1.00  0.00     0.031 A 
ATOM     52  C   UNL A   1      42.622  27.441  29.969  1.00  0.00     0.049 A 
ATOM     53  C   UNL A   1      40.583  31.367  33.556  1.00  0.00     0.074 A 
ATOM     54  C   UNL A   1      43.617  28.398  29.929  1.00  0.00     0.029 A 
ATOM     55  N   UNL A   1      42.181  27.372  31.280  1.00  0.00    -0.354 N 
ATOM     56  N   UNL A   1      41.033  30.311  32.934  1.00  0.00    -0.248 NA
ATOM     57  C   UNL A   1      40.820  31.323  34.995  1.00  0.00     0.031 C 
ATOM     58  C   UNL A   1      43.698  28.984  31.218  1.00  0.00     0.029 A 
ATOM     59  C   UNL A   1      42.778  28.352  32.037  1.00  0.00     0.049 A 
ATOM     60  H   UNL A   1      41.532  26.715  31.621  1.00  0.00     0.167 HD
ATOM     61  C   UNL A   1      41.728  29.539  33.829  1.00  0.00     0.074 A 
ATOM     62  C   UNL A   1      41.518  30.181  35.113  1.00  0.00     0.031 C 
ATOM     63  C   UNL A   1      42.475  28.464  33.452  1.00  0.00     0.031 A 
BRANCH  50  64
ATOM     64  C   UNL A   1      42.460  25.819  27.898  1.00  0.00    -0.014 A 
ATOM     65  C   UNL A   1      42.433  24.417  28.022  1.00  0.00     0.010 A 
ATOM     66  C   UNL A   1      43.060  26.354  26.736  1.00  0.00     0.010 A 
ATOM     67  C   UNL A   1      43.037  23.587  27.065  1.00  0.00     0.020 A 
ATOM     68  C   UNL A   1      43.658  25.531  25.769  1.00  0.00     0.020 A 
ATOM     69  C   UNL A   1      43.659  24.149  25.949  1.00  0.00     0.054 A 
BRANCH  69  70
ATOM     70  S   UNL A   1      44.499  23.055  24.770  1.00  0.00     0.124 S 
ATOM     71  O   UNL A   1      45.008  21.991  25.633  1.00  0.00    -0.237 OA
ATOM     72  O   UNL A   1      43.417  22.668  23.869  1.00  0.00    -0.237 OA
ATOM     73  O   UNL A   1      45.527  23.906  24.174  1.00  0.00    -0.744 OA
ENDBRANCH  69  70
ENDBRANCH  50  64
BRANCH  51  74
ATOM     74  C   UNL A   1      38.471  32.905  33.118  1.00  0.00    -0.014 A 
ATOM     75  C   UNL A   1      38.114  34.269  33.021  1.00  0.00     0.010 A 
ATOM     76  C   UNL A   1      37.443  31.949  33.173  1.00  0.00     0.010 A 
ATOM     77  C   UNL A   1      36.780  34.660  32.876  1.00  0.00     0.020 A 
ATOM     78  C   UNL A   1      36.099  32.340  33.047  1.00  0.00     0.020 A 
ATOM     79  C   UNL A   1      35.780  33.688  32.864  1.00  0.00     0.054 A 
BRANCH  79  80
ATOM     80  S   UNL A   1      34.088  34.199  32.435  1.00  0.00     0.124 S 
ATOM     81  O   UNL A   1      34.067  35.588  32.881  1.00  0.00    -0.237 OA
ATOM     82  O   UNL A   1      34.067  33.997  30.988  1.00  0.00    -0.237 OA
ATOM     83  O   UNL A   1      33.255  33.277  33.204  1.00  0.00    -0.744 OA
ENDBRANCH  79  80
ENDBRANCH  51  74
BRANCH  63  84
ATOM     84  C   UNL A   1      43.097  27.467  34.390  1.00  0.00    -0.014 A 
ATOM     85  C   UNL A   1      42.354  26.514  35.101  1.00  0.00     0.010 A 
ATOM     86  C   UNL A   1      44.507  27.370  34.450  1.00  0.00     0.010 A 
ATOM     87  C   UNL A   1      42.987  25.545  35.889  1.00  0.00     0.020 A 
ATOM     88  C   UNL A   1      45.149  26.384  35.201  1.00  0.00     0.020 A 
ATOM     89  C   UNL A   1      44.381  25.488  35.936  1.00  0.00     0.054 A 
BRANCH  89  90
ATOM     90  S   UNL A   1      45.198  24.189  36.894  1.00  0.00     0.124 S 
ATOM     91  O   UNL A   1      46.603  24.571  36.776  1.00  0.00    -0.237 OA
ATOM     92  O   UNL A   1      44.617  24.345  38.226  1.00  0.00    -0.237 OA
ATOM     93  O   UNL A   1      44.816  22.965  36.195  1.00  0.00    -0.744 OA
ENDBRANCH  89  90
ENDBRANCH  63  84
ENDBRANCH  37  38
ENDBRANCH  30  32
ENDBRANCH  29  30
ENDBRANCH  28  29
ENDBRANCH   1  28
TORSDOF 17
ENDMDL
MODEL 3
REMARK VINA RESULT:     -12.4      3.629     10.138
REMARK SMILES COc1cc2ccccc2cc1C(=O)Nc1cc(C(=O)OCCOC(=O)c2ccc(-c3c4nc(c(-c5ccc(S(=O)(=O)[O-])cc5)c5ccc([nH]5)c(-c5ccc(S(=O)(=O)[O-])cc5)c5nc(c(-c6ccc(S(=O)(=O)[O-])cc6)c6ccc3[nH]6)C=C5)C=C4)cc2)ccc1C
REMARK SMILES IDX 22 1 21 2 19 3 20 4 18 5 16 6 17 7 89 8 88 9 90 10 87 11
REMARK SMILES IDX 15 12 13 13 14 14 12 16 3 17 4 18 5 19 11 20 6 21 10 22 7 23
REMARK SMILES IDX 9 24 8 25 2 26 1 27 23 28 24 29 25 30 26 31 27 32 28 33
REMARK SMILES IDX 86 34 29 35 85 36 30 37 31 38 32 39 79 40 33 41 84 42 78 43
REMARK SMILES IDX 80 44 34 45 83 46 77 47 76 48 35 50 65 51 46 52 64 53 47 54
REMARK SMILES IDX 50 55 63 56 81 57 48 58 49 59 62 61 82 62 51 63 36 64 37 65
REMARK SMILES IDX 45 66 38 67 44 68 39 69 40 70 41 71 42 72 43 73 66 74 67 75
REMARK SMILES IDX 75 76 68 77 74 78 69 79 70 80 71 81 72 82 73 83 52 84 53 85
REMARK SMILES IDX 61 86 54 87 60 88 55 89 56 90 57 91 58 92 59 93
REMARK H PARENT 15 15 80 49 50 60
REMARK Flexibility Score: inf
ROOT
ATOM      1  C   UNL A   1      31.553  29.166  26.226  1.00  0.00     0.275 C 
ENDROOT
BRANCH   1   2
ATOM      2  O   UNL A   1      31.737  28.902  24.819  1.00  0.00    -0.458 OA
BRANCH   2   3
ATOM      3  C   UNL A   1      30.852  28.041  24.289  1.00  0.00     0.338 C 
ATOM      4  O   UNL A   1      29.935  28.334  23.515  1.00  0.00    -0.246 OA
BRANCH   3   5
ATOM      5  C   UNL A   1      30.983  26.685  24.834  1.00  0.00     0.062 A 
ATOM      6  C   UNL A   1      32.574  25.083  25.720  1.00  0.00     0.045 A 
ATOM      7  C   UNL A   1      32.281  26.172  24.897  1.00  0.00     0.042 A 
ATOM      8  C   UNL A   1      31.524  24.381  26.346  1.00  0.00    -0.027 A 
ATOM      9  C   UNL A   1      30.210  24.876  26.223  1.00  0.00     0.006 A 
ATOM     10  C   UNL A   1      31.764  23.260  27.323  1.00  0.00     0.046 C 
ATOM     11  C   UNL A   1      29.938  26.038  25.491  1.00  0.00     0.016 A 
BRANCH   6  12
ATOM     12  N   UNL A   1      33.915  24.753  26.009  1.00  0.00    -0.322 N 
ATOM     13  C   UNL A   1      34.629  23.595  25.744  1.00  0.00     0.259 C 
ATOM     14  O   UNL A   1      35.732  23.449  26.277  1.00  0.00    -0.269 OA
ATOM     15  H   UNL A   1      34.424  25.457  26.473  1.00  0.00     0.170 HD
BRANCH  13  16
ATOM     16  C   UNL A   1      34.152  22.549  24.790  1.00  0.00     0.082 A 
ATOM     17  C   UNL A   1      33.803  22.807  23.463  1.00  0.00     0.132 A 
ATOM     18  C   UNL A   1      33.068  21.861  22.755  1.00  0.00     0.056 A 
ATOM     19  C   UNL A   1      32.887  20.564  23.241  1.00  0.00    -0.015 A 
ATOM     20  C   UNL A   1      34.030  21.232  25.271  1.00  0.00     0.026 A 
ATOM     21  C   UNL A   1      32.204  19.601  22.486  1.00  0.00     0.009 A 
ATOM     22  C   UNL A   1      33.447  20.215  24.483  1.00  0.00    -0.017 A 
ATOM     23  C   UNL A   1      32.179  18.269  22.885  1.00  0.00     0.001 A 
ATOM     24  C   UNL A   1      33.393  18.868  24.885  1.00  0.00     0.009 A 
ATOM     25  C   UNL A   1      32.791  17.899  24.076  1.00  0.00     0.001 A 
BRANCH  17  26
ATOM     26  O   UNL A   1      34.037  23.981  22.797  1.00  0.00    -0.496 OA
ATOM     27  C   UNL A   1      33.033  24.250  21.823  1.00  0.00     0.278 C 
ENDBRANCH  17  26
ENDBRANCH  13  16
ENDBRANCH   6  12
ENDBRANCH   3   5
ENDBRANCH   2   3
ENDBRANCH   1   2
BRANCH   1  28
ATOM     28  C   UNL A   1      32.096  30.552  26.589  1.00  0.00     0.275 C 
BRANCH  28  29
ATOM     29  O   UNL A   1      33.463  30.497  27.048  1.00  0.00    -0.458 OA
BRANCH  29  30
ATOM     30  C   UNL A   1      33.986  31.662  27.485  1.00  0.00     0.338 C 
ATOM     31  O   UNL A   1      33.322  32.667  27.765  1.00  0.00    -0.246 OA
BRANCH  30  32
ATOM     32  C   UNL A   1      35.389  31.412  27.908  1.00  0.00     0.060 A 
ATOM     33  C   UNL A   1      36.089  32.334  28.706  1.00  0.00     0.016 A 
ATOM     34  C   UNL A   1      35.945  30.144  27.679  1.00  0.00     0.016 A 
ATOM     35  C   UNL A   1      37.322  31.982  29.273  1.00  0.00     0.010 A 
ATOM     36  C   UNL A   1      37.129  29.782  28.288  1.00  0.00     0.010 A 
ATOM     37  C   UNL A   1      37.842  30.699  29.068  1.00  0.00    -0.014 A 
BRANCH  37  38
ATOM     38  C   UNL A   1      39.203  30.249  29.386  1.00  0.00     0.031 A 
ATOM     39  C   UNL A   1      39.690  28.873  29.177  1.00  0.00     0.074 A 
ATOM     40  C   UNL A   1      40.024  31.217  29.841  1.00  0.00     0.049 A 
ATOM     41  N   UNL A   1      40.712  28.523  28.460  1.00  0.00    -0.248 NA
ATOM     42  C   UNL A   1      38.996  27.757  29.832  1.00  0.00     0.031 C 
ATOM     43  C   UNL A   1      41.456  31.154  30.076  1.00  0.00     0.029 A 
ATOM     44  N   UNL A   1      39.610  32.381  30.501  1.00  0.00    -0.354 N 
ATOM     45  C   UNL A   1      40.847  27.140  28.577  1.00  0.00     0.074 A 
ATOM     46  C   UNL A   1      39.711  26.718  29.398  1.00  0.00     0.031 C 
ATOM     47  C   UNL A   1      41.738  31.988  31.091  1.00  0.00     0.029 A 
ATOM     48  C   UNL A   1      40.457  32.488  31.603  1.00  0.00     0.049 A 
ATOM     49  H   UNL A   1      38.882  32.991  30.243  1.00  0.00     0.167 HD
ATOM     50  C   UNL A   1      42.053  26.579  28.875  1.00  0.00     0.031 A 
ATOM     51  C   UNL A   1      39.990  32.301  32.876  1.00  0.00     0.031 A 
ATOM     52  C   UNL A   1      42.774  27.298  29.895  1.00  0.00     0.049 A 
ATOM     53  C   UNL A   1      40.681  31.139  33.541  1.00  0.00     0.074 A 
ATOM     54  C   UNL A   1      43.762  28.264  29.878  1.00  0.00     0.029 A 
ATOM     55  N   UNL A   1      42.326  27.201  31.201  1.00  0.00    -0.354 N 
ATOM     56  N   UNL A   1      41.144  30.099  32.902  1.00  0.00    -0.248 NA
ATOM     57  C   UNL A   1      40.910  31.072  34.980  1.00  0.00     0.031 C 
ATOM     58  C   UNL A   1      43.830  28.826  31.178  1.00  0.00     0.029 A 
ATOM     59  C   UNL A   1      42.910  28.172  31.980  1.00  0.00     0.049 A 
ATOM     60  H   UNL A   1      41.681  26.532  31.526  1.00  0.00     0.167 HD
ATOM     61  C   UNL A   1      41.840  29.317  33.786  1.00  0.00     0.074 A 
ATOM     62  C   UNL A   1      41.617  29.933  35.081  1.00  0.00     0.031 C 
ATOM     63  C   UNL A   1      42.599  28.255  33.394  1.00  0.00     0.031 A 
BRANCH  50  64
ATOM     64  C   UNL A   1      42.638  25.712  27.793  1.00  0.00    -0.014 A 
ATOM     65  C   UNL A   1      42.334  24.341  27.709  1.00  0.00     0.010 A 
ATOM     66  C   UNL A   1      43.529  26.237  26.830  1.00  0.00     0.010 A 
ATOM     67  C   UNL A   1      42.940  23.515  26.751  1.00  0.00     0.020 A 
ATOM     68  C   UNL A   1      44.134  25.420  25.862  1.00  0.00     0.020 A 
ATOM     69  C   UNL A   1      43.848  24.056  25.839  1.00  0.00     0.054 A 
BRANCH  69  70
ATOM     70  S   UNL A   1      44.676  22.950  24.664  1.00  0.00     0.124 S 
ATOM     71  O   UNL A   1      45.716  23.808  24.099  1.00  0.00    -0.237 OA
ATOM     72  O   UNL A   1      45.154  21.871  25.524  1.00  0.00    -0.237 OA
ATOM     73  O   UNL A   1      43.617  22.574  23.730  1.00  0.00    -0.744 OA
ENDBRANCH  69  70
ENDBRANCH  50  64
BRANCH  51  74
ATOM     74  C   UNL A   1      38.559  32.668  33.118  1.00  0.00    -0.014 A 
ATOM     75  C   UNL A   1      38.213  34.037  33.159  1.00  0.00     0.010 A 
ATOM     76  C   UNL A   1      37.525  31.721  33.039  1.00  0.00     0.010 A 
ATOM     77  C   UNL A   1      36.886  34.453  33.020  1.00  0.00     0.020 A 
ATOM     78  C   UNL A   1      36.187  32.134  32.916  1.00  0.00     0.020 A 
ATOM     79  C   UNL A   1      35.881  33.497  32.872  1.00  0.00     0.054 A 
BRANCH  79  80
ATOM     80  S   UNL A   1      34.206  34.066  32.452  1.00  0.00     0.124 S 
ATOM     81  O   UNL A   1      34.249  35.468  32.855  1.00  0.00    -0.237 OA
ATOM     82  O   UNL A   1      34.153  33.822  31.012  1.00  0.00    -0.237 OA
ATOM     83  O   UNL A   1      33.347  33.204  33.260  1.00  0.00    -0.744 OA
ENDBRANCH  79  80
ENDBRANCH  51  74
BRANCH  63  84
ATOM     84  C   UNL A   1      43.224  27.247  34.318  1.00  0.00    -0.014 A 
ATOM     85  C   UNL A   1      42.491  26.243  34.968  1.00  0.00     0.010 A 
ATOM     86  C   UNL A   1      44.633  27.195  34.424  1.00  0.00     0.010 A 
ATOM     87  C   UNL A   1      43.130  25.268  35.743  1.00  0.00     0.020 A 
ATOM     88  C   UNL A   1      45.283  26.205  35.161  1.00  0.00     0.020 A 
ATOM     89  C   UNL A   1      44.523  25.257  35.837  1.00  0.00     0.054 A 
BRANCH  89  90
ATOM     90  S   UNL A   1      45.353  23.952  36.776  1.00  0.00     0.124 S 
ATOM     91  O   UNL A   1      44.940  22.753  36.053  1.00  0.00    -0.237 OA
ATOM     92  O   UNL A   1      46.767  24.303  36.650  1.00  0.00    -0.237 OA
ATOM     93  O   UNL A   1      44.800  24.102  38.120  1.00  0.00    -0.744 OA
ENDBRANCH  89  90
ENDBRANCH  63  84
ENDBRANCH  37  38
ENDBRANCH  30  32
ENDBRANCH  29  30
ENDBRANCH  28  29
ENDBRANCH   1  28
TORSDOF 17
ENDMDL
