MODEL 1
REMARK VINA RESULT:     -14.3      0.000      0.000
REMARK SMILES Cc1ccc(N2C(=O)N=C(OCCOC(=O)c3ccc(-c4c5nc(c(-c6ccc(S(=O)(=O)[O-])cc6)c6ccc([nH]6)c(-c6ccc(S(=O)(=O)[O-])cc6)c6nc(c(-c7ccc(S(=O)(=O)[O-])cc7)c7ccc4[nH]7)C=C6)C=C5)cc3)/C(=C\c3ccccc3OCc3cccc(C(=O)[O-])c3)C2=O)cc1
REMARK SMILES IDX 12 1 11 2 10 3 6 4 7 5 96 6 8 7 9 8 77 9 97 10 78 11 5 12
REMARK SMILES IDX 1 13 2 14 3 15 99 16 4 17 98 18 79 19 80 20 84 21 81 22
REMARK SMILES IDX 83 23 82 24 85 25 86 26 87 27 88 28 95 29 89 30 91 31 90 32
REMARK SMILES IDX 92 33 93 34 94 35 13 36 14 37 15 38 16 39 17 40 18 41 76 42
REMARK SMILES IDX 19 43 75 44 20 45 21 46 22 47 69 48 23 49 74 50 68 51 70 52
REMARK SMILES IDX 24 53 73 54 67 55 66 56 25 58 55 59 36 60 54 61 37 62 40 63
REMARK SMILES IDX 53 64 71 65 38 66 39 67 52 69 72 70 41 71 26 72 27 73 35 74
REMARK SMILES IDX 28 75 34 76 29 77 30 78 31 79 32 80 33 81 56 82 57 83 65 84
REMARK SMILES IDX 58 85 64 86 59 87 60 88 61 89 62 90 63 91 42 92 43 93 51 94
REMARK SMILES IDX 44 95 50 96 45 97 46 98 47 99 48 100 49 101
REMARK H PARENT 70 57 40 68
REMARK Flexibility Score: inf
ROOT
ATOM      1  C   UNL A   1      37.634  19.956  24.559  1.00  0.00     0.273 C 
ENDROOT
BRANCH   1   2
ATOM      2  O   UNL A   1      36.322  19.790  25.009  1.00  0.00    -0.473 OA
BRANCH   2   3
ATOM      3  C   UNL A   1      35.630  20.920  25.077  1.00  0.00     0.231 C 
ATOM      4  N   UNL A   1      34.238  24.169  25.677  1.00  0.00    -0.226 N 
ATOM      5  C   UNL A   1      35.136  23.799  24.142  1.00  0.00     0.358 C 
ATOM      6  C   UNL A   1      33.929  22.969  26.902  1.00  0.00     0.272 C 
ATOM      7  O   UNL A   1      35.227  24.760  23.334  1.00  0.00    -0.245 OA
ATOM      8  N   UNL A   1      35.910  21.983  24.100  1.00  0.00    -0.156 NA
ATOM      9  C   UNL A   1      34.437  21.181  26.527  1.00  0.00     0.103 C 
ATOM     10  O   UNL A   1      33.125  23.071  27.823  1.00  0.00    -0.268 OA
ATOM     11  C   UNL A   1      33.269  20.460  26.615  1.00  0.00     0.031 C 
BRANCH   4  12
ATOM     12  C   UNL A   1      33.496  25.460  25.878  1.00  0.00     0.054 A 
ATOM     13  C   UNL A   1      31.803  29.447  26.779  1.00  0.00     0.044 C 
ATOM     14  C   UNL A   1      32.337  28.079  26.458  1.00  0.00    -0.051 A 
ATOM     15  C   UNL A   1      31.579  26.903  26.525  1.00  0.00     0.005 A 
ATOM     16  C   UNL A   1      33.659  27.942  26.085  1.00  0.00     0.005 A 
ATOM     17  C   UNL A   1      32.145  25.614  26.237  1.00  0.00     0.027 A 
ATOM     18  C   UNL A   1      34.192  26.679  25.777  1.00  0.00     0.027 A 
ENDBRANCH   4  12
BRANCH  11  19
ATOM     19  C   UNL A   1      32.769  19.589  25.530  1.00  0.00     0.018 A 
ATOM     20  C   UNL A   1      32.892  18.194  25.776  1.00  0.00     0.012 A 
ATOM     21  C   UNL A   1      32.441  20.063  24.241  1.00  0.00     0.127 A 
ATOM     22  C   UNL A   1      33.049  17.268  24.747  1.00  0.00     0.001 A 
ATOM     23  C   UNL A   1      32.680  19.067  23.227  1.00  0.00     0.047 A 
ATOM     24  C   UNL A   1      33.080  17.740  23.461  1.00  0.00     0.004 A 
BRANCH  21  25
ATOM     25  O   UNL A   1      31.823  21.373  23.980  1.00  0.00    -0.488 OA
BRANCH  25  26
ATOM     26  C   UNL A   1      31.754  22.782  22.914  1.00  0.00     0.265 C 
BRANCH  26  27
ATOM     27  C   UNL A   1      31.495  24.475  22.861  1.00  0.00    -0.010 A 
ATOM     28  C   UNL A   1      32.468  25.371  22.435  1.00  0.00     0.007 A 
ATOM     29  C   UNL A   1      30.269  25.189  23.016  1.00  0.00     0.017 A 
ATOM     30  C   UNL A   1      32.156  26.771  22.318  1.00  0.00     0.001 A 
ATOM     31  C   UNL A   1      29.906  26.549  23.261  1.00  0.00    -0.002 A 
ATOM     32  C   UNL A   1      30.917  27.356  22.760  1.00  0.00     0.010 A 
BRANCH  31  33
ATOM     33  C   UNL A   1      28.286  27.173  23.704  1.00  0.00     0.071 C 
ATOM     34  O   UNL A   1      27.763  26.229  24.382  1.00  0.00    -0.545 OA
ATOM     35  O   UNL A   1      27.373  28.870  23.174  1.00  0.00    -0.545 OA
ENDBRANCH  31  33
ENDBRANCH  26  27
ENDBRANCH  25  26
ENDBRANCH  21  25
ENDBRANCH  11  19
ENDBRANCH   2   3
ENDBRANCH   1   2
BRANCH   1  36
ATOM     36  C   UNL A   1      38.717  19.904  25.660  1.00  0.00     0.274 C 
BRANCH  36  37
ATOM     37  O   UNL A   1      39.471  21.151  26.053  1.00  0.00    -0.458 OA
BRANCH  37  38
ATOM     38  C   UNL A   1      40.197  21.660  27.113  1.00  0.00     0.338 C 
ATOM     39  O   UNL A   1      40.734  20.908  27.920  1.00  0.00    -0.246 OA
BRANCH  38  40
ATOM     40  C   UNL A   1      40.668  23.127  27.161  1.00  0.00     0.060 A 
ATOM     41  C   UNL A   1      39.280  24.301  26.976  1.00  0.00     0.016 A 
ATOM     42  C   UNL A   1      42.251  23.998  27.982  1.00  0.00     0.016 A 
ATOM     43  C   UNL A   1      39.482  25.949  27.736  1.00  0.00     0.010 A 
ATOM     44  C   UNL A   1      42.113  25.525  28.732  1.00  0.00     0.010 A 
ATOM     45  C   UNL A   1      40.895  26.445  28.707  1.00  0.00    -0.014 A 
BRANCH  45  46
ATOM     46  C   UNL A   1      41.610  27.588  29.650  1.00  0.00     0.031 A 
ATOM     47  C   UNL A   1      40.744  28.731  29.768  1.00  0.00     0.074 A 
ATOM     48  C   UNL A   1      42.944  28.137  29.729  1.00  0.00     0.049 A 
ATOM     49  N   UNL A   1      41.257  30.276  30.136  1.00  0.00    -0.248 NA
ATOM     50  C   UNL A   1      38.720  28.683  29.829  1.00  0.00     0.031 C 
ATOM     51  C   UNL A   1      43.607  29.042  30.699  1.00  0.00     0.029 A 
ATOM     52  N   UNL A   1      44.052  28.022  28.867  1.00  0.00    -0.354 N 
ATOM     53  C   UNL A   1      39.828  31.312  30.721  1.00  0.00     0.074 A 
ATOM     54  C   UNL A   1      38.235  30.179  30.435  1.00  0.00     0.031 C 
ATOM     55  C   UNL A   1      44.852  29.407  30.274  1.00  0.00     0.029 A 
ATOM     56  C   UNL A   1      45.150  28.850  28.952  1.00  0.00     0.049 A 
ATOM     57  H   UNL A   1      44.041  27.323  28.174  1.00  0.00     0.167 HD
ATOM     58  C   UNL A   1      40.245  32.010  31.845  1.00  0.00     0.031 A 
ATOM     59  C   UNL A   1      46.023  29.256  27.937  1.00  0.00     0.031 A 
ATOM     60  C   UNL A   1      41.677  32.317  31.686  1.00  0.00     0.049 A 
ATOM     61  C   UNL A   1      45.842  30.768  27.878  1.00  0.00     0.074 A 
ATOM     62  C   UNL A   1      42.835  31.983  32.375  1.00  0.00     0.029 A 
ATOM     63  N   UNL A   1      42.106  32.814  30.460  1.00  0.00    -0.354 N 
ATOM     64  N   UNL A   1      44.950  31.349  28.630  1.00  0.00    -0.248 NA
ATOM     65  C   UNL A   1      46.548  31.746  27.052  1.00  0.00     0.031 C 
ATOM     66  C   UNL A   1      43.955  32.321  31.560  1.00  0.00     0.029 A 
ATOM     67  C   UNL A   1      43.482  32.840  30.369  1.00  0.00     0.049 A 
ATOM     68  H   UNL A   1      41.502  33.112  29.743  1.00  0.00     0.167 HD
ATOM     69  C   UNL A   1      44.953  32.690  28.465  1.00  0.00     0.074 A 
ATOM     70  C   UNL A   1      45.964  32.901  27.445  1.00  0.00     0.031 C 
ATOM     71  C   UNL A   1      44.102  33.463  29.199  1.00  0.00     0.031 A 
BRANCH  58  72
ATOM     72  C   UNL A   1      39.564  31.987  33.214  1.00  0.00    -0.014 A 
ATOM     73  C   UNL A   1      40.243  31.416  34.318  1.00  0.00     0.010 A 
ATOM     74  C   UNL A   1      38.255  32.430  33.483  1.00  0.00     0.010 A 
ATOM     75  C   UNL A   1      39.677  31.321  35.601  1.00  0.00     0.020 A 
ATOM     76  C   UNL A   1      37.670  32.343  34.765  1.00  0.00     0.020 A 
ATOM     77  C   UNL A   1      38.399  31.816  35.825  1.00  0.00     0.054 A 
BRANCH  77  78
ATOM     78  S   UNL A   1      37.760  31.866  37.522  1.00  0.00     0.124 S 
ATOM     79  O   UNL A   1      38.942  32.226  38.301  1.00  0.00    -0.237 OA
ATOM     80  O   UNL A   1      36.728  32.894  37.433  1.00  0.00    -0.237 OA
ATOM     81  O   UNL A   1      37.264  30.509  37.745  1.00  0.00    -0.744 OA
ENDBRANCH  77  78
ENDBRANCH  58  72
BRANCH  59  82
ATOM     82  C   UNL A   1      46.628  28.363  26.760  1.00  0.00    -0.014 A 
ATOM     83  C   UNL A   1      45.852  28.240  25.583  1.00  0.00     0.010 A 
ATOM     84  C   UNL A   1      47.969  27.871  26.604  1.00  0.00     0.010 A 
ATOM     85  C   UNL A   1      46.396  27.882  24.313  1.00  0.00     0.020 A 
ATOM     86  C   UNL A   1      48.553  27.608  25.301  1.00  0.00     0.020 A 
ATOM     87  C   UNL A   1      47.756  27.624  24.156  1.00  0.00     0.054 A 
BRANCH  87  88
ATOM     88  S   UNL A   1      48.424  27.402  22.448  1.00  0.00     0.124 S 
ATOM     89  O   UNL A   1      47.389  28.020  21.625  1.00  0.00    -0.237 OA
ATOM     90  O   UNL A   1      49.691  28.134  22.490  1.00  0.00    -0.237 OA
ATOM     91  O   UNL A   1      48.542  25.956  22.298  1.00  0.00    -0.744 OA
ENDBRANCH  87  88
ENDBRANCH  59  82
BRANCH  71  92
ATOM     92  C   UNL A   1      43.773  34.905  28.946  1.00  0.00    -0.014 A 
ATOM     93  C   UNL A   1      44.482  35.979  29.489  1.00  0.00     0.010 A 
ATOM     94  C   UNL A   1      42.768  35.207  27.990  1.00  0.00     0.010 A 
ATOM     95  C   UNL A   1      44.147  37.293  29.153  1.00  0.00     0.020 A 
ATOM     96  C   UNL A   1      42.487  36.502  27.582  1.00  0.00     0.020 A 
ATOM     97  C   UNL A   1      43.152  37.543  28.204  1.00  0.00     0.054 A 
BRANCH  97  98
ATOM     98  S   UNL A   1      42.727  39.245  27.797  1.00  0.00     0.124 S 
ATOM     99  O   UNL A   1      41.443  39.396  28.476  1.00  0.00    -0.237 OA
ATOM    100  O   UNL A   1      43.838  39.997  28.376  1.00  0.00    -0.237 OA
ATOM    101  O   UNL A   1      42.669  39.250  26.338  1.00  0.00    -0.744 OA
ENDBRANCH  97  98
ENDBRANCH  71  92
ENDBRANCH  45  46
ENDBRANCH  38  40
ENDBRANCH  37  38
ENDBRANCH  36  37
ENDBRANCH   1  36
TORSDOF 19
ENDMDL
MODEL 2
REMARK VINA RESULT:     -13.8      6.043     10.656
REMARK SMILES Cc1ccc(N2C(=O)N=C(OCCOC(=O)c3ccc(-c4c5nc(c(-c6ccc(S(=O)(=O)[O-])cc6)c6ccc([nH]6)c(-c6ccc(S(=O)(=O)[O-])cc6)c6nc(c(-c7ccc(S(=O)(=O)[O-])cc7)c7ccc4[nH]7)C=C6)C=C5)cc3)/C(=C\c3ccccc3OCc3cccc(C(=O)[O-])c3)C2=O)cc1
REMARK SMILES IDX 12 1 11 2 10 3 6 4 7 5 96 6 8 7 9 8 77 9 97 10 78 11 5 12
REMARK SMILES IDX 1 13 2 14 3 15 99 16 4 17 98 18 79 19 80 20 84 21 81 22
REMARK SMILES IDX 83 23 82 24 85 25 86 26 87 27 88 28 95 29 89 30 91 31 90 32
REMARK SMILES IDX 92 33 93 34 94 35 13 36 14 37 15 38 16 39 17 40 18 41 76 42
REMARK SMILES IDX 19 43 75 44 20 45 21 46 22 47 69 48 23 49 74 50 68 51 70 52
REMARK SMILES IDX 24 53 73 54 67 55 66 56 25 58 55 59 36 60 54 61 37 62 40 63
REMARK SMILES IDX 53 64 71 65 38 66 39 67 52 69 72 70 41 71 26 72 27 73 35 74
REMARK SMILES IDX 28 75 34 76 29 77 30 78 31 79 32 80 33 81 56 82 57 83 65 84
REMARK SMILES IDX 58 85 64 86 59 87 60 88 61 89 62 90 63 91 42 92 43 93 51 94
REMARK SMILES IDX 44 95 50 96 45 97 46 98 47 99 48 100 49 101
REMARK H PARENT 70 57 40 68
REMARK Flexibility Score: inf
ROOT
ATOM      1  C   UNL A   1      44.119  23.844  24.887  1.00  0.00     0.273 C 
ENDROOT
BRANCH   1   2
ATOM      2  O   UNL A   1      44.951  23.604  25.984  1.00  0.00    -0.473 OA
BRANCH   2   3
ATOM      3  C   UNL A   1      46.038  24.364  26.010  1.00  0.00     0.231 C 
ATOM      4  N   UNL A   1      49.302  25.846  25.976  1.00  0.00    -0.226 N 
ATOM      5  C   UNL A   1      48.194  25.978  24.543  1.00  0.00     0.358 C 
ATOM      6  C   UNL A   1      48.831  25.074  27.465  1.00  0.00     0.272 C 
ATOM      7  O   UNL A   1      48.664  26.614  23.564  1.00  0.00    -0.245 OA
ATOM      8  N   UNL A   1      46.505  24.978  24.758  1.00  0.00    -0.156 NA
ATOM      9  C   UNL A   1      47.035  24.483  27.618  1.00  0.00     0.103 C 
ATOM     10  O   UNL A   1      49.412  25.170  28.542  1.00  0.00    -0.268 OA
ATOM     11  C   UNL A   1      46.536  25.159  28.706  1.00  0.00     0.031 C 
BRANCH   4  12
ATOM     12  C   UNL A   1      50.597  26.603  26.058  1.00  0.00     0.054 A 
ATOM     13  C   UNL A   1      54.664  28.300  26.459  1.00  0.00     0.044 C 
ATOM     14  C   UNL A   1      53.266  27.766  26.319  1.00  0.00    -0.051 A 
ATOM     15  C   UNL A   1      52.120  28.434  26.769  1.00  0.00     0.005 A 
ATOM     16  C   UNL A   1      53.070  26.534  25.728  1.00  0.00     0.005 A 
ATOM     17  C   UNL A   1      50.805  27.866  26.638  1.00  0.00     0.027 A 
ATOM     18  C   UNL A   1      51.778  26.004  25.580  1.00  0.00     0.027 A 
ENDBRANCH   4  12
BRANCH  11  19
ATOM     19  C   UNL A   1      45.308  25.982  28.658  1.00  0.00     0.018 A 
ATOM     20  C   UNL A   1      45.502  27.323  28.228  1.00  0.00     0.012 A 
ATOM     21  C   UNL A   1      44.083  25.584  29.237  1.00  0.00     0.127 A 
ATOM     22  C   UNL A   1      44.681  28.366  28.653  1.00  0.00     0.001 A 
ATOM     23  C   UNL A   1      43.317  26.714  29.698  1.00  0.00     0.047 A 
ATOM     24  C   UNL A   1      43.657  28.066  29.513  1.00  0.00     0.004 A 
BRANCH  21  25
ATOM     25  O   UNL A   1      43.599  24.194  29.260  1.00  0.00    -0.488 OA
BRANCH  25  26
ATOM     26  C   UNL A   1      42.242  23.104  28.949  1.00  0.00     0.265 C 
BRANCH  26  27
ATOM     27  C   UNL A   1      41.646  21.891  27.895  1.00  0.00    -0.010 A 
ATOM     28  C   UNL A   1      40.351  21.902  27.393  1.00  0.00     0.007 A 
ATOM     29  C   UNL A   1      42.376  20.865  27.223  1.00  0.00     0.017 A 
ATOM     30  C   UNL A   1      39.941  20.911  26.434  1.00  0.00     0.001 A 
ATOM     31  C   UNL A   1      42.039  19.651  26.548  1.00  0.00    -0.002 A 
ATOM     32  C   UNL A   1      40.752  19.784  26.049  1.00  0.00     0.010 A 
BRANCH  31  33
ATOM     33  C   UNL A   1      43.164  18.360  26.019  1.00  0.00     0.071 C 
ATOM     34  O   UNL A   1      42.992  17.429  26.872  1.00  0.00    -0.545 OA
ATOM     35  O   UNL A   1      44.514  18.355  24.546  1.00  0.00    -0.545 OA
ENDBRANCH  31  33
ENDBRANCH  26  27
ENDBRANCH  25  26
ENDBRANCH  21  25
ENDBRANCH  11  19
ENDBRANCH   2   3
ENDBRANCH   1   2
BRANCH   1  36
ATOM     36  C   UNL A   1      42.606  23.860  25.200  1.00  0.00     0.274 C 
BRANCH  36  37
ATOM     37  O   UNL A   1      42.005  24.978  26.015  1.00  0.00    -0.458 OA
BRANCH  37  38
ATOM     38  C   UNL A   1      41.815  26.346  25.959  1.00  0.00     0.338 C 
ATOM     39  O   UNL A   1      42.282  27.004  25.036  1.00  0.00    -0.246 OA
BRANCH  38  40
ATOM     40  C   UNL A   1      40.754  27.067  26.815  1.00  0.00     0.060 A 
ATOM     41  C   UNL A   1      39.679  25.892  27.712  1.00  0.00     0.016 A 
ATOM     42  C   UNL A   1      40.699  28.873  27.635  1.00  0.00     0.016 A 
ATOM     43  C   UNL A   1      38.932  26.478  29.271  1.00  0.00     0.010 A 
ATOM     44  C   UNL A   1      40.020  29.105  29.184  1.00  0.00     0.010 A 
ATOM     45  C   UNL A   1      39.250  28.073  30.006  1.00  0.00    -0.014 A 
BRANCH  45  46
ATOM     46  C   UNL A   1      39.028  29.096  31.274  1.00  0.00     0.031 A 
ATOM     47  C   UNL A   1      38.933  30.449  30.795  1.00  0.00     0.074 A 
ATOM     48  C   UNL A   1      39.623  29.219  32.584  1.00  0.00     0.049 A 
ATOM     49  N   UNL A   1      39.256  31.805  31.713  1.00  0.00    -0.248 NA
ATOM     50  C   UNL A   1      38.100  31.030  29.043  1.00  0.00     0.031 C 
ATOM     51  C   UNL A   1      39.288  30.040  33.774  1.00  0.00     0.029 A 
ATOM     52  N   UNL A   1      40.766  28.618  33.149  1.00  0.00    -0.354 N 
ATOM     53  C   UNL A   1      38.506  33.315  30.926  1.00  0.00     0.074 A 
ATOM     54  C   UNL A   1      37.823  32.687  29.182  1.00  0.00     0.031 C 
ATOM     55  C   UNL A   1      40.239  29.927  34.746  1.00  0.00     0.029 A 
ATOM     56  C   UNL A   1      41.349  29.075  34.311  1.00  0.00     0.049 A 
ATOM     57  H   UNL A   1      41.165  27.842  32.695  1.00  0.00     0.167 HD
ATOM     58  C   UNL A   1      37.882  34.046  31.927  1.00  0.00     0.031 A 
ATOM     59  C   UNL A   1      42.689  29.004  34.706  1.00  0.00     0.031 A 
ATOM     60  C   UNL A   1      38.653  33.869  33.169  1.00  0.00     0.049 A 
ATOM     61  C   UNL A   1      43.116  30.463  34.821  1.00  0.00     0.074 A 
ATOM     62  C   UNL A   1      38.387  33.330  34.422  1.00  0.00     0.029 A 
ATOM     63  N   UNL A   1      40.037  33.981  33.101  1.00  0.00    -0.354 N 
ATOM     64  N   UNL A   1      42.289  31.414  34.489  1.00  0.00    -0.248 NA
ATOM     65  C   UNL A   1      44.395  31.014  35.267  1.00  0.00     0.031 C 
ATOM     66  C   UNL A   1      39.626  33.157  35.107  1.00  0.00     0.029 A 
ATOM     67  C   UNL A   1      40.645  33.571  34.270  1.00  0.00     0.049 A 
ATOM     68  H   UNL A   1      40.526  34.312  32.314  1.00  0.00     0.167 HD
ATOM     69  C   UNL A   1      42.828  32.637  34.683  1.00  0.00     0.074 A 
ATOM     70  C   UNL A   1      44.168  32.342  35.159  1.00  0.00     0.031 C 
ATOM     71  C   UNL A   1      42.089  33.752  34.418  1.00  0.00     0.031 A 
BRANCH  58  72
ATOM     72  C   UNL A   1      36.415  34.480  31.932  1.00  0.00    -0.014 A 
ATOM     73  C   UNL A   1      35.926  35.260  33.009  1.00  0.00     0.010 A 
ATOM     74  C   UNL A   1      35.450  34.111  30.976  1.00  0.00     0.010 A 
ATOM     75  C   UNL A   1      34.586  35.670  33.112  1.00  0.00     0.020 A 
ATOM     76  C   UNL A   1      34.100  34.513  31.063  1.00  0.00     0.020 A 
ATOM     77  C   UNL A   1      33.683  35.319  32.116  1.00  0.00     0.054 A 
BRANCH  77  78
ATOM     78  S   UNL A   1      32.010  36.019  32.160  1.00  0.00     0.124 S 
ATOM     79  O   UNL A   1      32.167  37.176  33.038  1.00  0.00    -0.237 OA
ATOM     80  O   UNL A   1      31.767  36.325  30.754  1.00  0.00    -0.237 OA
ATOM     81  O   UNL A   1      31.196  34.934  32.708  1.00  0.00    -0.744 OA
ENDBRANCH  77  78
ENDBRANCH  58  72
BRANCH  59  82
ATOM     82  C   UNL A   1      43.690  27.772  34.538  1.00  0.00    -0.014 A 
ATOM     83  C   UNL A   1      43.647  26.769  35.536  1.00  0.00     0.010 A 
ATOM     84  C   UNL A   1      44.454  27.387  33.384  1.00  0.00     0.010 A 
ATOM     85  C   UNL A   1      44.112  25.435  35.333  1.00  0.00     0.020 A 
ATOM     86  C   UNL A   1      44.836  26.009  33.130  1.00  0.00     0.020 A 
ATOM     87  C   UNL A   1      44.651  25.035  34.112  1.00  0.00     0.054 A 
BRANCH  87  88
ATOM     88  S   UNL A   1      45.011  23.242  33.847  1.00  0.00     0.124 S 
ATOM     89  O   UNL A   1      44.592  23.042  32.463  1.00  0.00    -0.237 OA
ATOM     90  O   UNL A   1      46.456  23.158  34.068  1.00  0.00    -0.237 OA
ATOM     91  O   UNL A   1      44.186  22.564  34.840  1.00  0.00    -0.744 OA
ENDBRANCH  87  88
ENDBRANCH  59  82
BRANCH  71  92
ATOM     92  C   UNL A   1      42.610  35.154  34.303  1.00  0.00    -0.014 A 
ATOM     93  C   UNL A   1      42.655  36.064  35.362  1.00  0.00     0.010 A 
ATOM     94  C   UNL A   1      43.222  35.547  33.084  1.00  0.00     0.010 A 
ATOM     95  C   UNL A   1      43.213  37.333  35.185  1.00  0.00     0.020 A 
ATOM     96  C   UNL A   1      43.858  36.768  32.924  1.00  0.00     0.020 A 
ATOM     97  C   UNL A   1      43.808  37.674  33.967  1.00  0.00     0.054 A 
BRANCH  97  98
ATOM     98  S   UNL A   1      44.508  39.320  33.757  1.00  0.00     0.124 S 
ATOM     99  O   UNL A   1      45.936  39.024  33.696  1.00  0.00    -0.237 OA
ATOM    100  O   UNL A   1      43.903  39.766  32.504  1.00  0.00    -0.237 OA
ATOM    101  O   UNL A   1      44.068  40.041  34.948  1.00  0.00    -0.744 OA
ENDBRANCH  97  98
ENDBRANCH  71  92
ENDBRANCH  45  46
ENDBRANCH  38  40
ENDBRANCH  37  38
ENDBRANCH  36  37
ENDBRANCH   1  36
TORSDOF 19
ENDMDL
MODEL 3
REMARK VINA RESULT:     -13.6      2.958      4.808
REMARK SMILES Cc1ccc(N2C(=O)N=C(OCCOC(=O)c3ccc(-c4c5nc(c(-c6ccc(S(=O)(=O)[O-])cc6)c6ccc([nH]6)c(-c6ccc(S(=O)(=O)[O-])cc6)c6nc(c(-c7ccc(S(=O)(=O)[O-])cc7)c7ccc4[nH]7)C=C6)C=C5)cc3)/C(=C\c3ccccc3OCc3cccc(C(=O)[O-])c3)C2=O)cc1
REMARK SMILES IDX 12 1 11 2 10 3 6 4 7 5 96 6 8 7 9 8 77 9 97 10 78 11 5 12
REMARK SMILES IDX 1 13 2 14 3 15 99 16 4 17 98 18 79 19 80 20 84 21 81 22
REMARK SMILES IDX 83 23 82 24 85 25 86 26 87 27 88 28 95 29 89 30 91 31 90 32
REMARK SMILES IDX 92 33 93 34 94 35 13 36 14 37 15 38 16 39 17 40 18 41 76 42
REMARK SMILES IDX 19 43 75 44 20 45 21 46 22 47 69 48 23 49 74 50 68 51 70 52
REMARK SMILES IDX 24 53 73 54 67 55 66 56 25 58 55 59 36 60 54 61 37 62 40 63
REMARK SMILES IDX 53 64 71 65 38 66 39 67 52 69 72 70 41 71 26 72 27 73 35 74
REMARK SMILES IDX 28 75 34 76 29 77 30 78 31 79 32 80 33 81 56 82 57 83 65 84
REMARK SMILES IDX 58 85 64 86 59 87 60 88 61 89 62 90 63 91 42 92 43 93 51 94
REMARK SMILES IDX 44 95 50 96 45 97 46 98 47 99 48 100 49 101
REMARK H PARENT 70 57 40 68
REMARK Flexibility Score: inf
ROOT
ATOM      1  C   UNL A   1      33.969  22.107  24.979  1.00  0.00     0.273 C 
ENDROOT
BRANCH   1   2
ATOM      2  O   UNL A   1      33.071  22.653  25.900  1.00  0.00    -0.473 OA
BRANCH   2   3
ATOM      3  C   UNL A   1      32.980  23.976  25.842  1.00  0.00     0.231 C 
ATOM      4  N   UNL A   1      32.594  27.505  26.333  1.00  0.00    -0.226 N 
ATOM      5  C   UNL A   1      34.240  26.749  26.196  1.00  0.00     0.358 C 
ATOM      6  C   UNL A   1      31.119  26.595  26.157  1.00  0.00     0.272 C 
ATOM      7  O   UNL A   1      35.204  27.552  26.291  1.00  0.00    -0.245 OA
ATOM      8  N   UNL A   1      34.193  24.780  26.052  1.00  0.00    -0.156 NA
ATOM      9  C   UNL A   1      31.268  24.770  25.662  1.00  0.00     0.103 C 
ATOM     10  O   UNL A   1      30.000  27.064  25.981  1.00  0.00    -0.268 OA
ATOM     11  C   UNL A   1      30.566  24.669  24.484  1.00  0.00     0.031 C 
BRANCH   4  12
ATOM     12  C   UNL A   1      32.399  28.995  26.362  1.00  0.00     0.054 A 
ATOM     13  C   UNL A   1      31.863  33.333  27.052  1.00  0.00     0.044 C 
ATOM     14  C   UNL A   1      32.033  31.865  26.773  1.00  0.00    -0.051 A 
ATOM     15  C   UNL A   1      31.287  31.153  25.826  1.00  0.00     0.005 A 
ATOM     16  C   UNL A   1      32.966  31.146  27.494  1.00  0.00     0.005 A 
ATOM     17  C   UNL A   1      31.468  29.741  25.618  1.00  0.00     0.027 A 
ATOM     18  C   UNL A   1      33.153  29.773  27.260  1.00  0.00     0.027 A 
ENDBRANCH   4  12
BRANCH  11  19
ATOM     19  C   UNL A   1      31.143  24.116  23.240  1.00  0.00     0.018 A 
ATOM     20  C   UNL A   1      30.929  22.724  23.047  1.00  0.00     0.012 A 
ATOM     21  C   UNL A   1      32.060  24.820  22.429  1.00  0.00     0.127 A 
ATOM     22  C   UNL A   1      31.819  21.927  22.331  1.00  0.00     0.001 A 
ATOM     23  C   UNL A   1      32.979  23.931  21.764  1.00  0.00     0.047 A 
ATOM     24  C   UNL A   1      32.933  22.526  21.802  1.00  0.00     0.004 A 
BRANCH  21  25
ATOM     25  O   UNL A   1      32.008  26.273  22.201  1.00  0.00    -0.488 OA
BRANCH  25  26
ATOM     26  C   UNL A   1      31.258  27.808  22.656  1.00  0.00     0.265 C 
BRANCH  26  27
ATOM     27  C   UNL A   1      29.773  28.661  22.737  1.00  0.00    -0.010 A 
ATOM     28  C   UNL A   1      28.565  28.041  23.023  1.00  0.00     0.007 A 
ATOM     29  C   UNL A   1      29.563  30.073  22.745  1.00  0.00     0.017 A 
ATOM     30  C   UNL A   1      27.369  28.826  23.175  1.00  0.00     0.001 A 
ATOM     31  C   UNL A   1      28.442  30.937  22.545  1.00  0.00    -0.002 A 
ATOM     32  C   UNL A   1      27.298  30.239  22.901  1.00  0.00     0.010 A 
BRANCH  31  33
ATOM     33  C   UNL A   1      28.473  32.714  22.321  1.00  0.00     0.071 C 
ATOM     34  O   UNL A   1      27.803  32.905  21.253  1.00  0.00    -0.545 OA
ATOM     35  O   UNL A   1      29.433  34.124  23.361  1.00  0.00    -0.545 OA
ENDBRANCH  31  33
ENDBRANCH  26  27
ENDBRANCH  25  26
ENDBRANCH  21  25
ENDBRANCH  11  19
ENDBRANCH   2   3
ENDBRANCH   1   2
BRANCH   1  36
ATOM     36  C   UNL A   1      34.659  20.800  25.430  1.00  0.00     0.274 C 
BRANCH  36  37
ATOM     37  O   UNL A   1      36.008  20.415  24.874  1.00  0.00    -0.458 OA
BRANCH  37  38
ATOM     38  C   UNL A   1      37.335  20.364  25.256  1.00  0.00     0.338 C 
ATOM     39  O   UNL A   1      37.962  19.311  25.198  1.00  0.00    -0.246 OA
BRANCH  38  40
ATOM     40  C   UNL A   1      38.191  21.635  25.434  1.00  0.00     0.060 A 
ATOM     41  C   UNL A   1      37.164  23.131  25.647  1.00  0.00     0.016 A 
ATOM     42  C   UNL A   1      40.038  21.920  26.101  1.00  0.00     0.016 A 
ATOM     43  C   UNL A   1      37.897  24.512  26.590  1.00  0.00     0.010 A 
ATOM     44  C   UNL A   1      40.413  23.273  27.072  1.00  0.00     0.010 A 
ATOM     45  C   UNL A   1      39.498  24.457  27.378  1.00  0.00    -0.014 A 
BRANCH  45  46
ATOM     46  C   UNL A   1      40.606  25.196  28.344  1.00  0.00     0.031 A 
ATOM     47  C   UNL A   1      40.348  26.611  28.381  1.00  0.00     0.074 A 
ATOM     48  C   UNL A   1      42.037  25.086  28.500  1.00  0.00     0.049 A 
ATOM     49  N   UNL A   1      41.487  27.773  28.753  1.00  0.00    -0.248 NA
ATOM     50  C   UNL A   1      38.523  27.486  28.310  1.00  0.00     0.031 C 
ATOM     51  C   UNL A   1      42.990  25.638  29.494  1.00  0.00     0.029 A 
ATOM     52  N   UNL A   1      43.014  24.443  27.715  1.00  0.00    -0.354 N 
ATOM     53  C   UNL A   1      40.657  29.370  29.222  1.00  0.00     0.074 A 
ATOM     54  C   UNL A   1      38.739  29.066  28.853  1.00  0.00     0.031 C 
ATOM     55  C   UNL A   1      44.284  25.381  29.145  1.00  0.00     0.029 A 
ATOM     56  C   UNL A   1      44.362  24.688  27.857  1.00  0.00     0.049 A 
ATOM     57  H   UNL A   1      42.722  23.792  27.037  1.00  0.00     0.167 HD
ATOM     58  C   UNL A   1      41.288  29.856  30.358  1.00  0.00     0.031 A 
ATOM     59  C   UNL A   1      45.375  24.607  26.894  1.00  0.00     0.031 A 
ATOM     60  C   UNL A   1      42.709  29.475  30.287  1.00  0.00     0.049 A 
ATOM     61  C   UNL A   1      45.903  26.033  26.794  1.00  0.00     0.074 A 
ATOM     62  C   UNL A   1      43.554  28.687  31.058  1.00  0.00     0.029 A 
ATOM     63  N   UNL A   1      43.379  29.666  29.083  1.00  0.00    -0.354 N 
ATOM     64  N   UNL A   1      45.336  26.989  27.474  1.00  0.00    -0.248 NA
ATOM     65  C   UNL A   1      47.016  26.547  25.998  1.00  0.00     0.031 C 
ATOM     66  C   UNL A   1      44.744  28.442  30.312  1.00  0.00     0.029 A 
ATOM     67  C   UNL A   1      44.619  29.063  29.083  1.00  0.00     0.049 A 
ATOM     68  H   UNL A   1      43.012  30.171  28.322  1.00  0.00     0.167 HD
ATOM     69  C   UNL A   1      45.955  28.175  27.284  1.00  0.00     0.074 A 
ATOM     70  C   UNL A   1      47.002  27.858  26.329  1.00  0.00     0.031 C 
ATOM     71  C   UNL A   1      45.512  29.282  27.945  1.00  0.00     0.031 A 
BRANCH  58  72
ATOM     72  C   UNL A   1      40.603  30.208  31.679  1.00  0.00    -0.014 A 
ATOM     73  C   UNL A   1      40.699  31.529  32.180  1.00  0.00     0.010 A 
ATOM     74  C   UNL A   1      39.921  29.301  32.512  1.00  0.00     0.010 A 
ATOM     75  C   UNL A   1      40.131  31.929  33.403  1.00  0.00     0.020 A 
ATOM     76  C   UNL A   1      39.345  29.684  33.743  1.00  0.00     0.020 A 
ATOM     77  C   UNL A   1      39.427  31.006  34.166  1.00  0.00     0.054 A 
BRANCH  77  78
ATOM     78  S   UNL A   1      38.536  31.580  35.638  1.00  0.00     0.124 S 
ATOM     79  O   UNL A   1      37.279  32.074  35.081  1.00  0.00    -0.237 OA
ATOM     80  O   UNL A   1      38.436  30.359  36.432  1.00  0.00    -0.237 OA
ATOM     81  O   UNL A   1      39.413  32.610  36.193  1.00  0.00    -0.744 OA
ENDBRANCH  77  78
ENDBRANCH  58  72
BRANCH  59  82
ATOM     82  C   UNL A   1      45.567  23.483  25.777  1.00  0.00    -0.014 A 
ATOM     83  C   UNL A   1      46.063  22.229  26.206  1.00  0.00     0.010 A 
ATOM     84  C   UNL A   1      45.067  23.460  24.430  1.00  0.00     0.010 A 
ATOM     85  C   UNL A   1      45.879  21.016  25.475  1.00  0.00     0.020 A 
ATOM     86  C   UNL A   1      44.783  22.221  23.728  1.00  0.00     0.020 A 
ATOM     87  C   UNL A   1      45.188  20.999  24.266  1.00  0.00     0.054 A 
BRANCH  87  88
ATOM     88  S   UNL A   1      44.785  19.366  23.499  1.00  0.00     0.124 S 
ATOM     89  O   UNL A   1      43.685  18.893  24.333  1.00  0.00    -0.237 OA
ATOM     90  O   UNL A   1      44.406  19.728  22.133  1.00  0.00    -0.237 OA
ATOM     91  O   UNL A   1      46.021  18.602  23.623  1.00  0.00    -0.744 OA
ENDBRANCH  87  88
ENDBRANCH  59  82
BRANCH  71  92
ATOM     92  C   UNL A   1      45.887  30.703  27.642  1.00  0.00    -0.014 A 
ATOM     93  C   UNL A   1      46.935  31.388  28.262  1.00  0.00     0.010 A 
ATOM     94  C   UNL A   1      45.229  31.357  26.568  1.00  0.00     0.010 A 
ATOM     95  C   UNL A   1      47.256  32.692  27.878  1.00  0.00     0.020 A 
ATOM     96  C   UNL A   1      45.599  32.616  26.118  1.00  0.00     0.020 A 
ATOM     97  C   UNL A   1      46.585  33.295  26.811  1.00  0.00     0.054 A 
BRANCH  97  98
ATOM     98  S   UNL A   1      47.006  34.982  26.343  1.00  0.00     0.124 S 
ATOM     99  O   UNL A   1      47.872  35.385  27.447  1.00  0.00    -0.237 OA
ATOM    100  O   UNL A   1      47.671  34.798  25.055  1.00  0.00    -0.237 OA
ATOM    101  O   UNL A   1      45.714  35.660  26.280  1.00  0.00    -0.744 OA
ENDBRANCH  97  98
ENDBRANCH  71  92
ENDBRANCH  45  46
ENDBRANCH  38  40
ENDBRANCH  37  38
ENDBRANCH  36  37
ENDBRANCH   1  36
TORSDOF 19
ENDMDL
