MODEL 1
REMARK VINA RESULT:     -12.2      0.000      0.000
REMARK SMILES Cc1ccc(OCC(=O)NNC(=O)[C@H]2CCCC[C@@H]2C(=O)OCCOC(=O)c2ccc(-c3c4nc(c(-c5ccc(S(=O)(=O)[O-])cc5)c5ccc([nH]5)c(-c5ccc(S(=O)(=O)[O-])cc5)c5nc(c(-c6ccc(S(=O)(=O)[O-])cc6)c6ccc3[nH]6)C=C5)C=C4)cc2)cc1
REMARK SMILES IDX 23 1 22 2 20 3 21 4 19 5 14 6 15 7 16 8 18 9 17 10 12 11
REMARK SMILES IDX 11 12 13 14 10 15 8 16 9 17 7 19 6 20 5 21 1 22 2 23 3 24
REMARK SMILES IDX 89 25 4 26 88 27 24 28 25 29 26 30 27 31 28 32 29 33 87 34
REMARK SMILES IDX 30 35 86 36 31 37 32 38 33 39 80 40 34 41 85 42 79 43 81 44
REMARK SMILES IDX 35 45 84 46 78 47 77 48 36 50 66 51 47 52 65 53 48 54 51 55
REMARK SMILES IDX 64 56 82 57 49 58 50 59 63 61 83 62 52 63 37 64 38 65 46 66
REMARK SMILES IDX 39 67 45 68 40 69 41 70 42 71 43 72 44 73 67 74 68 75 76 76
REMARK SMILES IDX 69 77 75 78 70 79 71 80 72 81 73 82 74 83 53 84 54 85 62 86
REMARK SMILES IDX 55 87 61 88 56 89 57 90 58 91 59 92 60 93
REMARK H PARENT 11 13 10 18 81 49 51 60
REMARK Flexibility Score: inf
ROOT
ATOM      1  C   UNL A   1      32.787  30.230  27.283  1.00  0.00     0.274 C 
ENDROOT
BRANCH   1   2
ATOM      2  O   UNL A   1      32.143  29.250  26.444  1.00  0.00    -0.462 OA
BRANCH   2   3
ATOM      3  C   UNL A   1      31.418  29.773  25.414  1.00  0.00     0.309 C 
ATOM      4  O   UNL A   1      31.118  30.959  25.342  1.00  0.00    -0.252 OA
BRANCH   3   5
ATOM      5  C   UNL A   1      30.908  28.700  24.450  1.00  0.00     0.111 C 
ATOM      6  C   UNL A   1      31.059  27.269  25.008  1.00  0.00     0.094 C 
ATOM      7  C   UNL A   1      32.539  26.832  25.111  1.00  0.00     0.014 C 
ATOM      8  C   UNL A   1      33.380  27.113  23.862  1.00  0.00     0.001 C 
ATOM      9  C   UNL A   1      31.683  28.877  23.135  1.00  0.00     0.016 C 
ATOM     10  C   UNL A   1      33.160  28.492  23.253  1.00  0.00     0.001 C 
BRANCH   6  11
ATOM     11  C   UNL A   1      30.310  26.232  24.166  1.00  0.00     0.242 C 
ATOM     12  N   UNL A   1      30.022  24.986  24.644  1.00  0.00    -0.267 N 
ATOM     13  H   UNL A   1      29.849  24.290  23.969  1.00  0.00     0.191 HD
ATOM     14  O   UNL A   1      29.970  26.463  23.000  1.00  0.00    -0.273 OA
BRANCH  12  15
ATOM     15  N   UNL A   1      29.944  24.585  25.977  1.00  0.00    -0.265 N 
ATOM     16  C   UNL A   1      30.573  23.433  26.415  1.00  0.00     0.276 C 
ATOM     17  O   UNL A   1      30.580  23.082  27.595  1.00  0.00    -0.269 OA
ATOM     18  H   UNL A   1      29.435  25.131  26.617  1.00  0.00     0.191 HD
BRANCH  16  19
ATOM     19  C   UNL A   1      31.346  22.596  25.381  1.00  0.00     0.331 C 
BRANCH  19  20
ATOM     20  O   UNL A   1      32.257  23.264  24.526  1.00  0.00    -0.484 OA
BRANCH  20  21
ATOM     21  C   UNL A   1      33.584  23.201  24.851  1.00  0.00     0.120 A 
ATOM     22  C   UNL A   1      37.836  22.828  25.472  1.00  0.00     0.044 C 
ATOM     23  C   UNL A   1      36.358  22.960  25.257  1.00  0.00    -0.051 A 
ATOM     24  C   UNL A   1      35.796  22.654  24.015  1.00  0.00     0.007 A 
ATOM     25  C   UNL A   1      35.524  23.396  26.289  1.00  0.00     0.007 A 
ATOM     26  C   UNL A   1      34.417  22.770  23.817  1.00  0.00     0.047 A 
ATOM     27  C   UNL A   1      34.146  23.519  26.087  1.00  0.00     0.047 A 
ENDBRANCH  20  21
ENDBRANCH  19  20
ENDBRANCH  16  19
ENDBRANCH  12  15
ENDBRANCH   6  11
ENDBRANCH   3   5
ENDBRANCH   2   3
ENDBRANCH   1   2
BRANCH   1  28
ATOM     28  C   UNL A   1      34.299  29.966  27.404  1.00  0.00     0.275 C 
BRANCH  28  29
ATOM     29  O   UNL A   1      35.136  31.120  27.628  1.00  0.00    -0.458 OA
BRANCH  29  30
ATOM     30  C   UNL A   1      35.937  31.061  28.729  1.00  0.00     0.338 C 
ATOM     31  O   UNL A   1      35.665  31.578  29.795  1.00  0.00    -0.246 OA
BRANCH  30  32
ATOM     32  C   UNL A   1      36.916  29.963  28.482  1.00  0.00     0.060 A 
ATOM     33  C   UNL A   1      37.628  29.982  27.282  1.00  0.00     0.016 A 
ATOM     34  C   UNL A   1      37.367  29.185  29.555  1.00  0.00     0.016 A 
ATOM     35  C   UNL A   1      38.882  29.377  27.210  1.00  0.00     0.010 A 
ATOM     36  C   UNL A   1      38.628  28.622  29.501  1.00  0.00     0.010 A 
ATOM     37  C   UNL A   1      39.413  28.767  28.349  1.00  0.00    -0.014 A 
BRANCH  37  38
ATOM     38  C   UNL A   1      40.693  28.070  28.341  1.00  0.00     0.031 A 
ATOM     39  C   UNL A   1      40.839  26.616  28.087  1.00  0.00     0.074 A 
ATOM     40  C   UNL A   1      41.744  28.818  28.730  1.00  0.00     0.049 A 
ATOM     41  N   UNL A   1      41.682  25.864  28.719  1.00  0.00    -0.248 NA
ATOM     42  C   UNL A   1      40.022  25.873  27.127  1.00  0.00     0.031 C 
ATOM     43  C   UNL A   1      43.154  28.475  28.751  1.00  0.00     0.029 A 
ATOM     44  N   UNL A   1      41.659  30.004  29.470  1.00  0.00    -0.354 N 
ATOM     45  C   UNL A   1      41.691  24.634  28.095  1.00  0.00     0.074 A 
ATOM     46  C   UNL A   1      40.569  24.650  27.186  1.00  0.00     0.031 C 
ATOM     47  C   UNL A   1      43.748  29.230  29.694  1.00  0.00     0.029 A 
ATOM     48  C   UNL A   1      42.687  29.943  30.404  1.00  0.00     0.049 A 
ATOM     49  H   UNL A   1      41.006  30.732  29.353  1.00  0.00     0.167 HD
ATOM     50  C   UNL A   1      42.741  23.780  28.255  1.00  0.00     0.031 A 
ATOM     51  C   UNL A   1      42.473  29.923  31.750  1.00  0.00     0.031 A 
ATOM     52  C   UNL A   1      43.798  24.385  29.052  1.00  0.00     0.049 A 
ATOM     53  C   UNL A   1      43.211  28.794  32.415  1.00  0.00     0.074 A 
ATOM     54  C   UNL A   1      44.913  25.111  28.670  1.00  0.00     0.029 A 
ATOM     55  N   UNL A   1      43.638  24.577  30.415  1.00  0.00    -0.354 N 
ATOM     56  N   UNL A   1      43.459  27.648  31.852  1.00  0.00    -0.248 NA
ATOM     57  C   UNL A   1      43.669  28.865  33.794  1.00  0.00     0.031 C 
ATOM     58  C   UNL A   1      45.427  25.760  29.814  1.00  0.00     0.029 A 
ATOM     59  C   UNL A   1      44.637  25.406  30.892  1.00  0.00     0.049 A 
ATOM     60  H   UNL A   1      42.921  24.183  30.961  1.00  0.00     0.167 HD
ATOM     61  C   UNL A   1      44.204  26.879  32.712  1.00  0.00     0.074 A 
ATOM     62  C   UNL A   1      44.236  27.655  33.940  1.00  0.00     0.031 C 
ATOM     63  C   UNL A   1      44.754  25.693  32.315  1.00  0.00     0.031 A 
BRANCH  50  64
ATOM     64  C   UNL A   1      42.966  22.571  27.375  1.00  0.00    -0.014 A 
ATOM     65  C   UNL A   1      42.171  21.422  27.574  1.00  0.00     0.010 A 
ATOM     66  C   UNL A   1      43.948  22.492  26.369  1.00  0.00     0.010 A 
ATOM     67  C   UNL A   1      42.405  20.223  26.894  1.00  0.00     0.020 A 
ATOM     68  C   UNL A   1      44.200  21.287  25.682  1.00  0.00     0.020 A 
ATOM     69  C   UNL A   1      43.441  20.151  25.970  1.00  0.00     0.054 A 
BRANCH  69  70
ATOM     70  S   UNL A   1      43.792  18.547  25.198  1.00  0.00     0.124 S 
ATOM     71  O   UNL A   1      45.080  18.190  25.789  1.00  0.00    -0.237 OA
ATOM     72  O   UNL A   1      42.659  17.731  25.627  1.00  0.00    -0.237 OA
ATOM     73  O   UNL A   1      43.834  18.849  23.768  1.00  0.00    -0.744 OA
ENDBRANCH  69  70
ENDBRANCH  50  64
BRANCH  51  74
ATOM     74  C   UNL A   1      41.146  30.402  32.244  1.00  0.00    -0.014 A 
ATOM     75  C   UNL A   1      40.268  29.507  32.892  1.00  0.00     0.010 A 
ATOM     76  C   UNL A   1      40.871  31.778  32.312  1.00  0.00     0.010 A 
ATOM     77  C   UNL A   1      39.209  29.982  33.677  1.00  0.00     0.020 A 
ATOM     78  C   UNL A   1      39.800  32.257  33.076  1.00  0.00     0.020 A 
ATOM     79  C   UNL A   1      38.999  31.358  33.783  1.00  0.00     0.054 A 
BRANCH  79  80
ATOM     80  S   UNL A   1      37.817  31.986  35.015  1.00  0.00     0.124 S 
ATOM     81  O   UNL A   1      37.826  30.919  36.009  1.00  0.00    -0.237 OA
ATOM     82  O   UNL A   1      38.437  33.245  35.419  1.00  0.00    -0.237 OA
ATOM     83  O   UNL A   1      36.585  32.124  34.231  1.00  0.00    -0.744 OA
ENDBRANCH  79  80
ENDBRANCH  51  74
BRANCH  63  84
ATOM     84  C   UNL A   1      45.553  24.707  33.142  1.00  0.00    -0.014 A 
ATOM     85  C   UNL A   1      46.915  24.812  33.447  1.00  0.00     0.010 A 
ATOM     86  C   UNL A   1      44.887  23.555  33.640  1.00  0.00     0.010 A 
ATOM     87  C   UNL A   1      47.562  23.863  34.251  1.00  0.00     0.020 A 
ATOM     88  C   UNL A   1      45.521  22.594  34.429  1.00  0.00     0.020 A 
ATOM     89  C   UNL A   1      46.859  22.764  34.743  1.00  0.00     0.054 A 
BRANCH  89  90
ATOM     90  S   UNL A   1      47.719  21.581  35.803  1.00  0.00     0.124 S 
ATOM     91  O   UNL A   1      46.636  21.076  36.641  1.00  0.00    -0.237 OA
ATOM     92  O   UNL A   1      48.256  20.630  34.832  1.00  0.00    -0.237 OA
ATOM     93  O   UNL A   1      48.719  22.390  36.495  1.00  0.00    -0.744 OA
ENDBRANCH  89  90
ENDBRANCH  63  84
ENDBRANCH  37  38
ENDBRANCH  30  32
ENDBRANCH  29  30
ENDBRANCH  28  29
ENDBRANCH   1  28
TORSDOF 19
ENDMDL
MODEL 2
REMARK VINA RESULT:     -12.1      4.370     10.857
REMARK SMILES Cc1ccc(OCC(=O)NNC(=O)[C@H]2CCCC[C@@H]2C(=O)OCCOC(=O)c2ccc(-c3c4nc(c(-c5ccc(S(=O)(=O)[O-])cc5)c5ccc([nH]5)c(-c5ccc(S(=O)(=O)[O-])cc5)c5nc(c(-c6ccc(S(=O)(=O)[O-])cc6)c6ccc3[nH]6)C=C5)C=C4)cc2)cc1
REMARK SMILES IDX 23 1 22 2 20 3 21 4 19 5 14 6 15 7 16 8 18 9 17 10 12 11
REMARK SMILES IDX 11 12 13 14 10 15 8 16 9 17 7 19 6 20 5 21 1 22 2 23 3 24
REMARK SMILES IDX 89 25 4 26 88 27 24 28 25 29 26 30 27 31 28 32 29 33 87 34
REMARK SMILES IDX 30 35 86 36 31 37 32 38 33 39 80 40 34 41 85 42 79 43 81 44
REMARK SMILES IDX 35 45 84 46 78 47 77 48 36 50 66 51 47 52 65 53 48 54 51 55
REMARK SMILES IDX 64 56 82 57 49 58 50 59 63 61 83 62 52 63 37 64 38 65 46 66
REMARK SMILES IDX 39 67 45 68 40 69 41 70 42 71 43 72 44 73 67 74 68 75 76 76
REMARK SMILES IDX 69 77 75 78 70 79 71 80 72 81 73 82 74 83 53 84 54 85 62 86
REMARK SMILES IDX 55 87 61 88 56 89 57 90 58 91 59 92 60 93
REMARK H PARENT 11 13 10 18 81 49 51 60
REMARK Flexibility Score: inf
ROOT
ATOM      1  C   UNL A   1      38.001  21.587  25.587  1.00  0.00     0.274 C 
ENDROOT
BRANCH   1   2
ATOM      2  O   UNL A   1      36.658  21.792  25.101  1.00  0.00    -0.462 OA
BRANCH   2   3
ATOM      3  C   UNL A   1      35.910  20.656  25.005  1.00  0.00     0.309 C 
ATOM      4  O   UNL A   1      36.398  19.533  24.993  1.00  0.00    -0.252 OA
BRANCH   3   5
ATOM      5  C   UNL A   1      34.426  20.948  24.771  1.00  0.00     0.111 C 
ATOM      6  C   UNL A   1      34.173  22.362  24.205  1.00  0.00     0.094 C 
ATOM      7  C   UNL A   1      34.489  23.471  25.236  1.00  0.00     0.014 C 
ATOM      8  C   UNL A   1      33.902  23.237  26.632  1.00  0.00     0.001 C 
ATOM      9  C   UNL A   1      33.714  20.743  26.116  1.00  0.00     0.016 C 
ATOM     10  C   UNL A   1      34.067  21.814  27.152  1.00  0.00     0.001 C 
BRANCH   6  11
ATOM     11  C   UNL A   1      32.731  22.549  23.725  1.00  0.00     0.242 C 
ATOM     12  N   UNL A   1      32.359  23.613  22.956  1.00  0.00    -0.267 N 
ATOM     13  H   UNL A   1      31.402  23.843  22.965  1.00  0.00     0.191 HD
ATOM     14  O   UNL A   1      31.830  21.766  24.049  1.00  0.00    -0.273 OA
BRANCH  12  15
ATOM     15  N   UNL A   1      33.178  24.412  22.159  1.00  0.00    -0.265 N 
ATOM     16  C   UNL A   1      32.985  25.780  22.081  1.00  0.00     0.276 C 
ATOM     17  O   UNL A   1      33.727  26.525  21.440  1.00  0.00    -0.269 OA
ATOM     18  H   UNL A   1      33.905  23.996  21.644  1.00  0.00     0.191 HD
BRANCH  16  19
ATOM     19  C   UNL A   1      31.827  26.392  22.888  1.00  0.00     0.331 C 
BRANCH  19  20
ATOM     20  O   UNL A   1      31.806  26.189  24.289  1.00  0.00    -0.484 OA
BRANCH  20  21
ATOM     21  C   UNL A   1      32.337  27.174  25.074  1.00  0.00     0.120 A 
ATOM     22  C   UNL A   1      33.637  30.511  27.479  1.00  0.00     0.044 C 
ATOM     23  C   UNL A   1      33.186  29.350  26.645  1.00  0.00    -0.051 A 
ATOM     24  C   UNL A   1      31.894  29.324  26.112  1.00  0.00     0.007 A 
ATOM     25  C   UNL A   1      34.043  28.276  26.394  1.00  0.00     0.007 A 
ATOM     26  C   UNL A   1      31.477  28.244  25.328  1.00  0.00     0.047 A 
ATOM     27  C   UNL A   1      33.622  27.194  25.617  1.00  0.00     0.047 A 
ENDBRANCH  20  21
ENDBRANCH  19  20
ENDBRANCH  16  19
ENDBRANCH  12  15
ENDBRANCH   6  11
ENDBRANCH   3   5
ENDBRANCH   2   3
ENDBRANCH   1   2
BRANCH   1  28
ATOM     28  C   UNL A   1      38.664  22.915  25.996  1.00  0.00     0.275 C 
BRANCH  28  29
ATOM     29  O   UNL A   1      39.687  22.836  27.010  1.00  0.00    -0.458 OA
BRANCH  29  30
ATOM     30  C   UNL A   1      40.691  23.750  26.905  1.00  0.00     0.338 C 
ATOM     31  O   UNL A   1      41.705  23.573  26.259  1.00  0.00    -0.246 OA
BRANCH  30  32
ATOM     32  C   UNL A   1      40.127  25.054  27.359  1.00  0.00     0.060 A 
ATOM     33  C   UNL A   1      39.345  25.058  28.515  1.00  0.00     0.016 A 
ATOM     34  C   UNL A   1      40.671  26.250  26.874  1.00  0.00     0.016 A 
ATOM     35  C   UNL A   1      39.256  26.216  29.288  1.00  0.00     0.010 A 
ATOM     36  C   UNL A   1      40.621  27.385  27.660  1.00  0.00     0.010 A 
ATOM     37  C   UNL A   1      39.964  27.354  28.897  1.00  0.00    -0.014 A 
BRANCH  37  38
ATOM     38  C   UNL A   1      39.882  28.616  29.623  1.00  0.00     0.031 A 
ATOM     39  C   UNL A   1      38.854  29.653  29.361  1.00  0.00     0.074 A 
ATOM     40  C   UNL A   1      40.907  28.848  30.466  1.00  0.00     0.049 A 
ATOM     41  N   UNL A   1      39.103  30.923  29.385  1.00  0.00    -0.248 NA
ATOM     42  C   UNL A   1      37.466  29.351  29.013  1.00  0.00     0.031 C 
ATOM     43  C   UNL A   1      41.096  29.944  31.398  1.00  0.00     0.029 A 
ATOM     44  N   UNL A   1      42.155  28.214  30.410  1.00  0.00    -0.354 N 
ATOM     45  C   UNL A   1      37.896  31.584  29.303  1.00  0.00     0.074 A 
ATOM     46  C   UNL A   1      36.920  30.576  28.963  1.00  0.00     0.031 C 
ATOM     47  C   UNL A   1      42.419  30.098  31.591  1.00  0.00     0.029 A 
ATOM     48  C   UNL A   1      43.097  29.208  30.649  1.00  0.00     0.049 A 
ATOM     49  H   UNL A   1      42.330  27.261  30.238  1.00  0.00     0.167 HD
ATOM     50  C   UNL A   1      37.784  32.882  29.706  1.00  0.00     0.031 A 
ATOM     51  C   UNL A   1      44.039  29.580  29.736  1.00  0.00     0.031 A 
ATOM     52  C   UNL A   1      39.032  33.367  30.277  1.00  0.00     0.049 A 
ATOM     53  C   UNL A   1      44.058  31.069  29.528  1.00  0.00     0.074 A 
ATOM     54  C   UNL A   1      39.482  33.376  31.586  1.00  0.00     0.029 A 
ATOM     55  N   UNL A   1      40.129  33.625  29.471  1.00  0.00    -0.354 N 
ATOM     56  N   UNL A   1      43.010  31.836  29.624  1.00  0.00    -0.248 NA
ATOM     57  C   UNL A   1      45.260  31.789  29.137  1.00  0.00     0.031 C 
ATOM     58  C   UNL A   1      40.871  33.631  31.571  1.00  0.00     0.029 A 
ATOM     59  C   UNL A   1      41.256  33.800  30.254  1.00  0.00     0.049 A 
ATOM     60  H   UNL A   1      40.109  33.676  28.489  1.00  0.00     0.167 HD
ATOM     61  C   UNL A   1      43.395  33.142  29.439  1.00  0.00     0.074 A 
ATOM     62  C   UNL A   1      44.793  33.047  29.058  1.00  0.00     0.031 C 
ATOM     63  C   UNL A   1      42.529  34.177  29.656  1.00  0.00     0.031 A 
BRANCH  50  64
ATOM     64  C   UNL A   1      36.456  33.565  29.937  1.00  0.00    -0.014 A 
ATOM     65  C   UNL A   1      35.730  34.043  28.824  1.00  0.00     0.010 A 
ATOM     66  C   UNL A   1      35.888  33.791  31.205  1.00  0.00     0.010 A 
ATOM     67  C   UNL A   1      34.562  34.800  28.962  1.00  0.00     0.020 A 
ATOM     68  C   UNL A   1      34.715  34.560  31.358  1.00  0.00     0.020 A 
ATOM     69  C   UNL A   1      34.075  35.083  30.233  1.00  0.00     0.054 A 
BRANCH  69  70
ATOM     70  S   UNL A   1      32.628  36.169  30.375  1.00  0.00     0.124 S 
ATOM     71  O   UNL A   1      33.206  37.387  30.937  1.00  0.00    -0.237 OA
ATOM     72  O   UNL A   1      32.169  36.273  28.993  1.00  0.00    -0.237 OA
ATOM     73  O   UNL A   1      31.733  35.442  31.275  1.00  0.00    -0.744 OA
ENDBRANCH  69  70
ENDBRANCH  50  64
BRANCH  51  74
ATOM     74  C   UNL A   1      44.341  28.622  28.630  1.00  0.00    -0.014 A 
ATOM     75  C   UNL A   1      43.956  28.926  27.306  1.00  0.00     0.010 A 
ATOM     76  C   UNL A   1      45.233  27.555  28.840  1.00  0.00     0.010 A 
ATOM     77  C   UNL A   1      44.531  28.254  26.219  1.00  0.00     0.020 A 
ATOM     78  C   UNL A   1      45.791  26.866  27.759  1.00  0.00     0.020 A 
ATOM     79  C   UNL A   1      45.466  27.244  26.454  1.00  0.00     0.054 A 
BRANCH  79  80
ATOM     80  S   UNL A   1      46.420  26.571  25.059  1.00  0.00     0.124 S 
ATOM     81  O   UNL A   1      46.299  27.638  24.073  1.00  0.00    -0.237 OA
ATOM     82  O   UNL A   1      47.742  26.391  25.652  1.00  0.00    -0.237 OA
ATOM     83  O   UNL A   1      45.702  25.329  24.754  1.00  0.00    -0.744 OA
ENDBRANCH  79  80
ENDBRANCH  51  74
BRANCH  63  84
ATOM     84  C   UNL A   1      42.772  35.658  29.455  1.00  0.00    -0.014 A 
ATOM     85  C   UNL A   1      42.214  36.447  28.443  1.00  0.00     0.010 A 
ATOM     86  C   UNL A   1      43.662  36.318  30.344  1.00  0.00     0.010 A 
ATOM     87  C   UNL A   1      42.475  37.823  28.358  1.00  0.00     0.020 A 
ATOM     88  C   UNL A   1      43.943  37.683  30.264  1.00  0.00     0.020 A 
ATOM     89  C   UNL A   1      43.331  38.433  29.273  1.00  0.00     0.054 A 
BRANCH  89  90
ATOM     90  S   UNL A   1      43.615  40.213  29.151  1.00  0.00     0.124 S 
ATOM     91  O   UNL A   1      45.070  40.286  29.057  1.00  0.00    -0.237 OA
ATOM     92  O   UNL A   1      42.889  40.558  27.931  1.00  0.00    -0.237 OA
ATOM     93  O   UNL A   1      43.041  40.746  30.385  1.00  0.00    -0.744 OA
ENDBRANCH  89  90
ENDBRANCH  63  84
ENDBRANCH  37  38
ENDBRANCH  30  32
ENDBRANCH  29  30
ENDBRANCH  28  29
ENDBRANCH   1  28
TORSDOF 19
ENDMDL
MODEL 3
REMARK VINA RESULT:     -11.9      1.214      1.582
REMARK SMILES Cc1ccc(OCC(=O)NNC(=O)[C@H]2CCCC[C@@H]2C(=O)OCCOC(=O)c2ccc(-c3c4nc(c(-c5ccc(S(=O)(=O)[O-])cc5)c5ccc([nH]5)c(-c5ccc(S(=O)(=O)[O-])cc5)c5nc(c(-c6ccc(S(=O)(=O)[O-])cc6)c6ccc3[nH]6)C=C5)C=C4)cc2)cc1
REMARK SMILES IDX 23 1 22 2 20 3 21 4 19 5 14 6 15 7 16 8 18 9 17 10 12 11
REMARK SMILES IDX 11 12 13 14 10 15 8 16 9 17 7 19 6 20 5 21 1 22 2 23 3 24
REMARK SMILES IDX 89 25 4 26 88 27 24 28 25 29 26 30 27 31 28 32 29 33 87 34
REMARK SMILES IDX 30 35 86 36 31 37 32 38 33 39 80 40 34 41 85 42 79 43 81 44
REMARK SMILES IDX 35 45 84 46 78 47 77 48 36 50 66 51 47 52 65 53 48 54 51 55
REMARK SMILES IDX 64 56 82 57 49 58 50 59 63 61 83 62 52 63 37 64 38 65 46 66
REMARK SMILES IDX 39 67 45 68 40 69 41 70 42 71 43 72 44 73 67 74 68 75 76 76
REMARK SMILES IDX 69 77 75 78 70 79 71 80 72 81 73 82 74 83 53 84 54 85 62 86
REMARK SMILES IDX 55 87 61 88 56 89 57 90 58 91 59 92 60 93
REMARK H PARENT 11 13 10 18 81 49 51 60
REMARK Flexibility Score: inf
ROOT
ATOM      1  C   UNL A   1      32.803  30.117  27.239  1.00  0.00     0.274 C 
ENDROOT
BRANCH   1   2
ATOM      2  O   UNL A   1      33.147  28.886  26.569  1.00  0.00    -0.462 OA
BRANCH   2   3
ATOM      3  C   UNL A   1      32.736  28.813  25.271  1.00  0.00     0.309 C 
ATOM      4  O   UNL A   1      33.363  29.307  24.342  1.00  0.00    -0.252 OA
BRANCH   3   5
ATOM      5  C   UNL A   1      31.350  28.180  25.129  1.00  0.00     0.111 C 
ATOM      6  C   UNL A   1      31.406  26.658  24.880  1.00  0.00     0.094 C 
ATOM      7  C   UNL A   1      31.984  26.313  23.487  1.00  0.00     0.014 C 
ATOM      8  C   UNL A   1      31.391  27.119  22.328  1.00  0.00     0.001 C 
ATOM      9  C   UNL A   1      30.640  28.914  23.982  1.00  0.00     0.016 C 
ATOM     10  C   UNL A   1      31.245  28.610  22.609  1.00  0.00     0.001 C 
BRANCH   6  11
ATOM     11  C   UNL A   1      30.032  25.994  25.008  1.00  0.00     0.242 C 
ATOM     12  N   UNL A   1      29.832  24.896  25.794  1.00  0.00    -0.267 N 
ATOM     13  H   UNL A   1      29.045  24.344  25.578  1.00  0.00     0.191 HD
ATOM     14  O   UNL A   1      29.052  26.399  24.371  1.00  0.00    -0.273 OA
BRANCH  12  15
ATOM     15  N   UNL A   1      30.611  24.466  26.867  1.00  0.00    -0.265 N 
ATOM     16  C   UNL A   1      31.105  23.174  26.919  1.00  0.00     0.276 C 
ATOM     17  O   UNL A   1      31.849  22.779  27.817  1.00  0.00    -0.269 OA
ATOM     18  H   UNL A   1      30.814  25.091  27.598  1.00  0.00     0.191 HD
BRANCH  16  19
ATOM     19  C   UNL A   1      30.753  22.221  25.764  1.00  0.00     0.331 C 
BRANCH  19  20
ATOM     20  O   UNL A   1      31.716  21.260  25.371  1.00  0.00    -0.484 OA
BRANCH  20  21
ATOM     21  C   UNL A   1      32.849  21.721  24.760  1.00  0.00     0.120 A 
ATOM     22  C   UNL A   1      36.653  22.949  23.138  1.00  0.00     0.044 C 
ATOM     23  C   UNL A   1      35.330  22.521  23.699  1.00  0.00    -0.051 A 
ATOM     24  C   UNL A   1      35.274  21.599  24.748  1.00  0.00     0.007 A 
ATOM     25  C   UNL A   1      34.137  23.030  23.181  1.00  0.00     0.007 A 
ATOM     26  C   UNL A   1      34.040  21.207  25.276  1.00  0.00     0.047 A 
ATOM     27  C   UNL A   1      32.904  22.631  23.706  1.00  0.00     0.047 A 
ENDBRANCH  20  21
ENDBRANCH  19  20
ENDBRANCH  16  19
ENDBRANCH  12  15
ENDBRANCH   6  11
ENDBRANCH   3   5
ENDBRANCH   2   3
ENDBRANCH   1   2
BRANCH   1  28
ATOM     28  C   UNL A   1      34.033  31.025  27.422  1.00  0.00     0.275 C 
BRANCH  28  29
ATOM     29  O   UNL A   1      35.294  30.361  27.648  1.00  0.00    -0.458 OA
BRANCH  29  30
ATOM     30  C   UNL A   1      36.330  31.171  28.005  1.00  0.00     0.338 C 
ATOM     31  O   UNL A   1      36.231  32.372  28.157  1.00  0.00    -0.246 OA
BRANCH  30  32
ATOM     32  C   UNL A   1      37.401  30.279  28.535  1.00  0.00     0.060 A 
ATOM     33  C   UNL A   1      37.405  28.946  28.119  1.00  0.00     0.016 A 
ATOM     34  C   UNL A   1      38.551  30.842  29.102  1.00  0.00     0.016 A 
ATOM     35  C   UNL A   1      38.601  28.230  28.099  1.00  0.00     0.010 A 
ATOM     36  C   UNL A   1      39.745  30.149  29.042  1.00  0.00     0.010 A 
ATOM     37  C   UNL A   1      39.784  28.864  28.486  1.00  0.00    -0.014 A 
BRANCH  37  38
ATOM     38  C   UNL A   1      41.064  28.168  28.541  1.00  0.00     0.031 A 
ATOM     39  C   UNL A   1      41.263  26.769  28.091  1.00  0.00     0.074 A 
ATOM     40  C   UNL A   1      42.044  28.843  29.173  1.00  0.00     0.049 A 
ATOM     41  N   UNL A   1      42.027  25.926  28.708  1.00  0.00    -0.248 NA
ATOM     42  C   UNL A   1      40.590  26.185  26.932  1.00  0.00     0.031 C 
ATOM     43  C   UNL A   1      43.445  28.493  29.327  1.00  0.00     0.029 A 
ATOM     44  N   UNL A   1      41.846  29.904  30.065  1.00  0.00    -0.354 N 
ATOM     45  C   UNL A   1      42.135  24.804  27.912  1.00  0.00     0.074 A 
ATOM     46  C   UNL A   1      41.142  24.963  26.877  1.00  0.00     0.031 C 
ATOM     47  C   UNL A   1      43.899  29.093  30.444  1.00  0.00     0.029 A 
ATOM     48  C   UNL A   1      42.744  29.697  31.107  1.00  0.00     0.049 A 
ATOM     49  H   UNL A   1      41.204  30.644  29.975  1.00  0.00     0.167 HD
ATOM     50  C   UNL A   1      43.168  23.929  28.079  1.00  0.00     0.031 A 
ATOM     51  C   UNL A   1      42.356  29.474  32.395  1.00  0.00     0.031 A 
ATOM     52  C   UNL A   1      44.102  24.401  29.090  1.00  0.00     0.049 A 
ATOM     53  C   UNL A   1      43.016  28.254  32.973  1.00  0.00     0.074 A 
ATOM     54  C   UNL A   1      45.247  25.170  28.972  1.00  0.00     0.029 A 
ATOM     55  N   UNL A   1      43.763  24.385  30.433  1.00  0.00    -0.354 N 
ATOM     56  N   UNL A   1      43.353  27.204  32.281  1.00  0.00    -0.248 NA
ATOM     57  C   UNL A   1      43.289  28.112  34.395  1.00  0.00     0.031 C 
ATOM     58  C   UNL A   1      45.598  25.635  30.259  1.00  0.00     0.029 A 
ATOM     59  C   UNL A   1      44.679  25.127  31.157  1.00  0.00     0.049 A 
ATOM     60  H   UNL A   1      42.987  23.917  30.814  1.00  0.00     0.167 HD
ATOM     61  C   UNL A   1      43.990  26.310  33.106  1.00  0.00     0.074 A 
ATOM     62  C   UNL A   1      43.849  26.891  34.430  1.00  0.00     0.031 C 
ATOM     63  C   UNL A   1      44.604  25.194  32.610  1.00  0.00     0.031 A 
BRANCH  50  64
ATOM     64  C   UNL A   1      43.524  22.867  27.064  1.00  0.00    -0.014 A 
ATOM     65  C   UNL A   1      42.665  21.758  26.905  1.00  0.00     0.010 A 
ATOM     66  C   UNL A   1      44.685  22.885  26.268  1.00  0.00     0.010 A 
ATOM     67  C   UNL A   1      42.989  20.672  26.086  1.00  0.00     0.020 A 
ATOM     68  C   UNL A   1      45.028  21.792  25.445  1.00  0.00     0.020 A 
ATOM     69  C   UNL A   1      44.188  20.679  25.381  1.00  0.00     0.054 A 
BRANCH  69  70
ATOM     70  S   UNL A   1      44.631  19.201  24.427  1.00  0.00     0.124 S 
ATOM     71  O   UNL A   1      46.031  19.001  24.792  1.00  0.00    -0.237 OA
ATOM     72  O   UNL A   1      43.700  18.199  24.939  1.00  0.00    -0.237 OA
ATOM     73  O   UNL A   1      44.410  19.604  23.038  1.00  0.00    -0.744 OA
ENDBRANCH  69  70
ENDBRANCH  50  64
BRANCH  51  74
ATOM     74  C   UNL A   1      40.969  29.880  32.776  1.00  0.00    -0.014 A 
ATOM     75  C   UNL A   1      40.691  31.222  33.113  1.00  0.00     0.010 A 
ATOM     76  C   UNL A   1      39.889  29.009  32.548  1.00  0.00     0.010 A 
ATOM     77  C   UNL A   1      39.376  31.705  33.113  1.00  0.00     0.020 A 
ATOM     78  C   UNL A   1      38.572  29.481  32.570  1.00  0.00     0.020 A 
ATOM     79  C   UNL A   1      38.326  30.834  32.815  1.00  0.00     0.054 A 
BRANCH  79  80
ATOM     80  S   UNL A   1      36.661  31.509  32.535  1.00  0.00     0.124 S 
ATOM     81  O   UNL A   1      35.949  30.345  32.020  1.00  0.00    -0.237 OA
ATOM     82  O   UNL A   1      36.282  31.952  33.873  1.00  0.00    -0.237 OA
ATOM     83  O   UNL A   1      36.913  32.587  31.572  1.00  0.00    -0.744 OA
ENDBRANCH  79  80
ENDBRANCH  51  74
BRANCH  63  84
ATOM     84  C   UNL A   1      45.302  24.091  33.377  1.00  0.00    -0.014 A 
ATOM     85  C   UNL A   1      44.785  22.813  33.622  1.00  0.00     0.010 A 
ATOM     86  C   UNL A   1      46.582  24.363  33.928  1.00  0.00     0.010 A 
ATOM     87  C   UNL A   1      45.523  21.844  34.317  1.00  0.00     0.020 A 
ATOM     88  C   UNL A   1      47.323  23.414  34.634  1.00  0.00     0.020 A 
ATOM     89  C   UNL A   1      46.790  22.149  34.812  1.00  0.00     0.054 A 
BRANCH  89  90
ATOM     90  S   UNL A   1      47.723  20.864  35.673  1.00  0.00     0.124 S 
ATOM     91  O   UNL A   1      46.673  20.159  36.403  1.00  0.00    -0.237 OA
ATOM     92  O   UNL A   1      48.321  20.122  34.565  1.00  0.00    -0.237 OA
ATOM     93  O   UNL A   1      48.668  21.609  36.502  1.00  0.00    -0.744 OA
ENDBRANCH  89  90
ENDBRANCH  63  84
ENDBRANCH  37  38
ENDBRANCH  30  32
ENDBRANCH  29  30
ENDBRANCH  28  29
ENDBRANCH   1  28
TORSDOF 19
ENDMDL
