MODEL 1
REMARK VINA RESULT:      -9.4      0.000      0.000
REMARK SMILES CC[C@@](C)(NC(=O)CSCc1cccs1)C(=O)OCCOC(=O)c1ccc(-c2c3nc(c(-c4ccc(S(=O)(=O)[O-])cc4)c4ccc([nH]4)c(-c4ccc(S(=O)(=O)[O-])cc4)c4nc(c(-c5ccc(S(=O)(=O)[O-])cc5)c5ccc2[nH]5)C=C4)C=C3)cc1
REMARK SMILES IDX 19 1 18 2 16 3 17 4 3 5 4 6 2 7 1 8 5 9 6 10 7 12 8 13 9 14
REMARK SMILES IDX 10 15 11 16 12 17 15 18 13 19 14 20 20 21 21 22 22 23 23 24
REMARK SMILES IDX 24 25 25 26 83 27 26 28 82 29 27 30 28 31 29 32 76 33 30 34
REMARK SMILES IDX 81 35 75 36 77 37 31 38 80 39 74 40 73 41 32 43 62 44 43 45
REMARK SMILES IDX 61 46 44 47 47 48 60 49 78 50 45 51 46 52 59 54 79 55 48 56
REMARK SMILES IDX 33 57 34 58 42 59 35 60 41 61 36 62 37 63 38 64 39 65 40 66
REMARK SMILES IDX 63 67 64 68 72 69 65 70 71 71 66 72 67 73 68 74 69 75 70 76
REMARK SMILES IDX 49 77 50 78 58 79 51 80 57 81 52 82 53 83 54 84 55 85 56 86
REMARK H PARENT 5 11 77 42 47 53
REMARK Flexibility Score: inf
ROOT
ATOM      1  C   UNL A   1      33.472  28.563  25.997  1.00  0.00     0.274 C 
ENDROOT
BRANCH   1   2
ATOM      2  O   UNL A   1      32.279  27.953  25.419  1.00  0.00    -0.460 OA
BRANCH   2   3
ATOM      3  C   UNL A   1      32.222  27.981  24.051  1.00  0.00     0.331 C 
ATOM      4  O   UNL A   1      32.896  28.762  23.378  1.00  0.00    -0.249 OA
BRANCH   3   5
ATOM      5  C   UNL A   1      31.270  26.912  23.383  1.00  0.00     0.135 C 
ATOM      6  C   UNL A   1      30.410  26.400  24.570  1.00  0.00     0.047 C 
BRANCH   5   7
ATOM      7  C   UNL A   1      30.295  27.547  22.334  1.00  0.00     0.037 C 
ATOM      8  C   UNL A   1      29.385  28.678  22.806  1.00  0.00     0.007 C 
ENDBRANCH   5   7
BRANCH   5   9
ATOM      9  N   UNL A   1      31.843  25.667  22.750  1.00  0.00    -0.340 N 
ATOM     10  C   UNL A   1      33.108  25.519  22.236  1.00  0.00     0.230 C 
ATOM     11  H   UNL A   1      31.250  24.883  22.700  1.00  0.00     0.164 HD
ATOM     12  O   UNL A   1      33.249  25.544  21.011  1.00  0.00    -0.274 OA
BRANCH  10  13
ATOM     13  C   UNL A   1      34.220  25.073  23.159  1.00  0.00     0.169 C 
BRANCH  13  14
ATOM     14  S   UNL A   1      33.663  23.840  24.358  1.00  0.00    -0.146 SA
BRANCH  14  15
ATOM     15  C   UNL A   1      34.824  22.482  24.059  1.00  0.00     0.116 C 
BRANCH  15  16
ATOM     16  C   UNL A   1      36.114  22.647  24.822  1.00  0.00     0.014 A 
ATOM     17  C   UNL A   1      36.643  23.736  25.497  1.00  0.00     0.016 A 
ATOM     18  S   UNL A   1      37.182  21.302  24.907  1.00  0.00    -0.148 S 
ATOM     19  C   UNL A   1      37.921  23.468  26.065  1.00  0.00     0.012 A 
ATOM     20  C   UNL A   1      38.333  22.180  25.814  1.00  0.00     0.065 A 
ENDBRANCH  15  16
ENDBRANCH  14  15
ENDBRANCH  13  14
ENDBRANCH  10  13
ENDBRANCH   5   9
ENDBRANCH   3   5
ENDBRANCH   2   3
ENDBRANCH   1   2
BRANCH   1  21
ATOM     21  C   UNL A   1      33.202  29.910  26.727  1.00  0.00     0.275 C 
BRANCH  21  22
ATOM     22  O   UNL A   1      33.576  30.060  28.130  1.00  0.00    -0.458 OA
BRANCH  22  23
ATOM     23  C   UNL A   1      34.575  30.919  28.404  1.00  0.00     0.338 C 
ATOM     24  O   UNL A   1      34.465  32.130  28.430  1.00  0.00    -0.246 OA
BRANCH  23  25
ATOM     25  C   UNL A   1      35.907  30.385  28.704  1.00  0.00     0.060 A 
ATOM     26  C   UNL A   1      36.763  30.344  27.589  1.00  0.00     0.016 A 
ATOM     27  C   UNL A   1      36.320  29.856  29.921  1.00  0.00     0.016 A 
ATOM     28  C   UNL A   1      38.016  29.784  27.665  1.00  0.00     0.010 A 
ATOM     29  C   UNL A   1      37.623  29.345  30.023  1.00  0.00     0.010 A 
ATOM     30  C   UNL A   1      38.475  29.340  28.902  1.00  0.00    -0.014 A 
BRANCH  30  31
ATOM     31  C   UNL A   1      39.920  29.079  29.005  1.00  0.00     0.031 A 
ATOM     32  C   UNL A   1      40.865  30.123  29.489  1.00  0.00     0.074 A 
ATOM     33  C   UNL A   1      40.327  27.823  28.739  1.00  0.00     0.049 A 
ATOM     34  N   UNL A   1      42.165  30.060  29.582  1.00  0.00    -0.248 NA
ATOM     35  C   UNL A   1      40.280  31.397  29.935  1.00  0.00     0.031 C 
ATOM     36  C   UNL A   1      39.437  26.716  28.361  1.00  0.00     0.029 A 
ATOM     37  N   UNL A   1      41.570  27.255  28.761  1.00  0.00    -0.354 N 
ATOM     38  C   UNL A   1      42.566  31.298  30.061  1.00  0.00     0.074 A 
ATOM     39  C   UNL A   1      41.366  32.087  30.259  1.00  0.00     0.031 C 
ATOM     40  C   UNL A   1      40.164  25.604  28.195  1.00  0.00     0.029 A 
ATOM     41  C   UNL A   1      41.570  25.937  28.371  1.00  0.00     0.049 A 
ATOM     42  H   UNL A   1      42.383  27.740  29.031  1.00  0.00     0.167 HD
ATOM     43  C   UNL A   1      43.830  31.732  30.283  1.00  0.00     0.031 A 
ATOM     44  C   UNL A   1      42.594  25.104  28.120  1.00  0.00     0.031 A 
ATOM     45  C   UNL A   1      44.997  30.920  30.051  1.00  0.00     0.049 A 
ATOM     46  C   UNL A   1      43.983  25.629  28.298  1.00  0.00     0.074 A 
ATOM     47  C   UNL A   1      46.328  31.259  30.205  1.00  0.00     0.029 A 
ATOM     48  N   UNL A   1      44.967  29.606  29.603  1.00  0.00    -0.354 N 
ATOM     49  N   UNL A   1      44.358  26.820  28.705  1.00  0.00    -0.248 NA
ATOM     50  C   UNL A   1      45.084  24.719  27.973  1.00  0.00     0.031 C 
ATOM     51  C   UNL A   1      47.105  30.163  29.807  1.00  0.00     0.029 A 
ATOM     52  C   UNL A   1      46.257  29.125  29.449  1.00  0.00     0.049 A 
ATOM     53  H   UNL A   1      44.148  29.090  29.422  1.00  0.00     0.167 HD
ATOM     54  C   UNL A   1      45.743  26.806  28.683  1.00  0.00     0.074 A 
ATOM     55  C   UNL A   1      46.138  25.481  28.242  1.00  0.00     0.031 C 
ATOM     56  C   UNL A   1      46.610  27.801  28.995  1.00  0.00     0.031 A 
BRANCH  43  57
ATOM     57  C   UNL A   1      44.000  33.164  30.703  1.00  0.00    -0.014 A 
ATOM     58  C   UNL A   1      44.110  33.533  32.055  1.00  0.00     0.010 A 
ATOM     59  C   UNL A   1      44.035  34.168  29.716  1.00  0.00     0.010 A 
ATOM     60  C   UNL A   1      44.201  34.882  32.415  1.00  0.00     0.020 A 
ATOM     61  C   UNL A   1      44.146  35.514  30.070  1.00  0.00     0.020 A 
ATOM     62  C   UNL A   1      44.205  35.865  31.420  1.00  0.00     0.054 A 
BRANCH  62  63
ATOM     63  S   UNL A   1      44.297  37.611  31.906  1.00  0.00     0.124 S 
ATOM     64  O   UNL A   1      43.790  38.283  30.713  1.00  0.00    -0.237 OA
ATOM     65  O   UNL A   1      43.425  37.668  33.077  1.00  0.00    -0.237 OA
ATOM     66  O   UNL A   1      45.717  37.819  32.182  1.00  0.00    -0.744 OA
ENDBRANCH  62  63
ENDBRANCH  43  57
BRANCH  44  67
ATOM     67  C   UNL A   1      42.302  23.746  27.592  1.00  0.00    -0.014 A 
ATOM     68  C   UNL A   1      42.316  23.485  26.214  1.00  0.00     0.010 A 
ATOM     69  C   UNL A   1      42.131  22.674  28.492  1.00  0.00     0.010 A 
ATOM     70  C   UNL A   1      42.185  22.174  25.745  1.00  0.00     0.020 A 
ATOM     71  C   UNL A   1      42.027  21.362  28.028  1.00  0.00     0.020 A 
ATOM     72  C   UNL A   1      42.052  21.119  26.655  1.00  0.00     0.054 A 
BRANCH  72  73
ATOM     73  S   UNL A   1      42.006  19.414  26.034  1.00  0.00     0.124 S 
ATOM     74  O   UNL A   1      42.942  19.474  24.917  1.00  0.00    -0.237 OA
ATOM     75  O   UNL A   1      42.450  18.640  27.191  1.00  0.00    -0.237 OA
ATOM     76  O   UNL A   1      40.604  19.223  25.670  1.00  0.00    -0.744 OA
ENDBRANCH  72  73
ENDBRANCH  44  67
BRANCH  56  77
ATOM     77  C   UNL A   1      48.070  27.482  28.875  1.00  0.00    -0.014 A 
ATOM     78  C   UNL A   1      48.779  27.791  27.702  1.00  0.00     0.010 A 
ATOM     79  C   UNL A   1      48.750  26.925  29.971  1.00  0.00     0.010 A 
ATOM     80  C   UNL A   1      50.149  27.536  27.623  1.00  0.00     0.020 A 
ATOM     81  C   UNL A   1      50.123  26.686  29.902  1.00  0.00     0.020 A 
ATOM     82  C   UNL A   1      50.813  26.986  28.724  1.00  0.00     0.054 A 
BRANCH  82  83
ATOM     83  S   UNL A   1      52.604  26.725  28.625  1.00  0.00     0.124 S 
ATOM     84  O   UNL A   1      52.699  25.642  27.651  1.00  0.00    -0.237 OA
ATOM     85  O   UNL A   1      53.095  28.025  28.171  1.00  0.00    -0.237 OA
ATOM     86  O   UNL A   1      52.976  26.370  29.993  1.00  0.00    -0.744 OA
ENDBRANCH  82  83
ENDBRANCH  56  77
ENDBRANCH  30  31
ENDBRANCH  23  25
ENDBRANCH  22  23
ENDBRANCH  21  22
ENDBRANCH   1  21
TORSDOF 20
ENDMDL
MODEL 2
REMARK VINA RESULT:      -8.9      3.105      8.268
REMARK SMILES CC[C@@](C)(NC(=O)CSCc1cccs1)C(=O)OCCOC(=O)c1ccc(-c2c3nc(c(-c4ccc(S(=O)(=O)[O-])cc4)c4ccc([nH]4)c(-c4ccc(S(=O)(=O)[O-])cc4)c4nc(c(-c5ccc(S(=O)(=O)[O-])cc5)c5ccc2[nH]5)C=C4)C=C3)cc1
REMARK SMILES IDX 19 1 18 2 16 3 17 4 3 5 4 6 2 7 1 8 5 9 6 10 7 12 8 13 9 14
REMARK SMILES IDX 10 15 11 16 12 17 15 18 13 19 14 20 20 21 21 22 22 23 23 24
REMARK SMILES IDX 24 25 25 26 83 27 26 28 82 29 27 30 28 31 29 32 76 33 30 34
REMARK SMILES IDX 81 35 75 36 77 37 31 38 80 39 74 40 73 41 32 43 62 44 43 45
REMARK SMILES IDX 61 46 44 47 47 48 60 49 78 50 45 51 46 52 59 54 79 55 48 56
REMARK SMILES IDX 33 57 34 58 42 59 35 60 41 61 36 62 37 63 38 64 39 65 40 66
REMARK SMILES IDX 63 67 64 68 72 69 65 70 71 71 66 72 67 73 68 74 69 75 70 76
REMARK SMILES IDX 49 77 50 78 58 79 51 80 57 81 52 82 53 83 54 84 55 85 56 86
REMARK H PARENT 5 11 77 42 47 53
REMARK Flexibility Score: inf
ROOT
ATOM      1  C   UNL A   1      37.841  21.166  25.163  1.00  0.00     0.274 C 
ENDROOT
BRANCH   1   2
ATOM      2  O   UNL A   1      36.648  21.473  25.947  1.00  0.00    -0.460 OA
BRANCH   2   3
ATOM      3  C   UNL A   1      35.460  21.224  25.312  1.00  0.00     0.331 C 
ATOM      4  O   UNL A   1      35.181  20.118  24.846  1.00  0.00    -0.249 OA
BRANCH   3   5
ATOM      5  C   UNL A   1      34.446  22.433  25.256  1.00  0.00     0.135 C 
ATOM      6  C   UNL A   1      35.030  23.444  26.279  1.00  0.00     0.047 C 
BRANCH   5   7
ATOM      7  C   UNL A   1      34.426  23.137  23.857  1.00  0.00     0.037 C 
ATOM      8  C   UNL A   1      33.365  22.689  22.854  1.00  0.00     0.007 C 
ENDBRANCH   5   7
BRANCH   5   9
ATOM      9  N   UNL A   1      33.007  22.244  25.672  1.00  0.00    -0.340 N 
ATOM     10  C   UNL A   1      32.246  23.120  26.406  1.00  0.00     0.230 C 
ATOM     11  H   UNL A   1      32.571  21.409  25.388  1.00  0.00     0.164 HD
ATOM     12  O   UNL A   1      32.049  22.868  27.598  1.00  0.00    -0.274 OA
BRANCH  10  13
ATOM     13  C   UNL A   1      31.473  24.197  25.681  1.00  0.00     0.169 C 
BRANCH  13  14
ATOM     14  S   UNL A   1      32.003  25.860  26.155  1.00  0.00    -0.146 SA
BRANCH  14  15
ATOM     15  C   UNL A   1      32.399  26.595  24.547  1.00  0.00     0.116 C 
BRANCH  15  16
ATOM     16  C   UNL A   1      31.334  27.549  24.071  1.00  0.00     0.014 A 
ATOM     17  C   UNL A   1      31.280  28.934  24.075  1.00  0.00     0.016 A 
ATOM     18  S   UNL A   1      29.893  26.887  23.404  1.00  0.00    -0.148 S 
ATOM     19  C   UNL A   1      30.057  29.442  23.548  1.00  0.00     0.012 A 
ATOM     20  C   UNL A   1      29.212  28.432  23.151  1.00  0.00     0.065 A 
ENDBRANCH  15  16
ENDBRANCH  14  15
ENDBRANCH  13  14
ENDBRANCH  10  13
ENDBRANCH   5   9
ENDBRANCH   3   5
ENDBRANCH   2   3
ENDBRANCH   1   2
BRANCH   1  21
ATOM     21  C   UNL A   1      39.168  21.275  25.966  1.00  0.00     0.275 C 
BRANCH  21  22
ATOM     22  O   UNL A   1      39.950  20.072  26.236  1.00  0.00    -0.458 OA
BRANCH  22  23
ATOM     23  C   UNL A   1      41.279  20.154  26.043  1.00  0.00     0.338 C 
ATOM     24  O   UNL A   1      41.952  19.320  25.469  1.00  0.00    -0.246 OA
BRANCH  23  25
ATOM     25  C   UNL A   1      41.998  21.327  26.548  1.00  0.00     0.060 A 
ATOM     26  C   UNL A   1      42.453  22.191  25.536  1.00  0.00     0.016 A 
ATOM     27  C   UNL A   1      42.328  21.575  27.877  1.00  0.00     0.016 A 
ATOM     28  C   UNL A   1      43.228  23.289  25.823  1.00  0.00     0.010 A 
ATOM     29  C   UNL A   1      43.061  22.731  28.182  1.00  0.00     0.010 A 
ATOM     30  C   UNL A   1      43.481  23.599  27.156  1.00  0.00    -0.014 A 
BRANCH  30  31
ATOM     31  C   UNL A   1      44.006  24.948  27.424  1.00  0.00     0.031 A 
ATOM     32  C   UNL A   1      43.141  26.016  27.996  1.00  0.00     0.074 A 
ATOM     33  C   UNL A   1      45.324  25.134  27.221  1.00  0.00     0.049 A 
ATOM     34  N   UNL A   1      43.444  27.263  28.235  1.00  0.00    -0.248 NA
ATOM     35  C   UNL A   1      41.766  25.641  28.357  1.00  0.00     0.031 C 
ATOM     36  C   UNL A   1      46.257  24.096  26.761  1.00  0.00     0.029 A 
ATOM     37  N   UNL A   1      46.114  26.236  27.390  1.00  0.00    -0.354 N 
ATOM     38  C   UNL A   1      42.287  27.839  28.739  1.00  0.00     0.074 A 
ATOM     39  C   UNL A   1      41.281  26.797  28.791  1.00  0.00     0.031 C 
ATOM     40  C   UNL A   1      47.490  24.611  26.693  1.00  0.00     0.029 A 
ATOM     41  C   UNL A   1      47.421  26.027  27.021  1.00  0.00     0.049 A 
ATOM     42  H   UNL A   1      45.782  27.094  27.742  1.00  0.00     0.167 HD
ATOM     43  C   UNL A   1      42.092  29.131  29.095  1.00  0.00     0.031 A 
ATOM     44  C   UNL A   1      48.440  26.895  26.896  1.00  0.00     0.031 A 
ATOM     45  C   UNL A   1      43.115  30.141  29.006  1.00  0.00     0.049 A 
ATOM     46  C   UNL A   1      48.179  28.332  27.221  1.00  0.00     0.074 A 
ATOM     47  C   UNL A   1      43.028  31.488  29.303  1.00  0.00     0.029 A 
ATOM     48  N   UNL A   1      44.415  29.909  28.575  1.00  0.00    -0.354 N 
ATOM     49  N   UNL A   1      47.067  28.880  27.652  1.00  0.00    -0.248 NA
ATOM     50  C   UNL A   1      49.290  29.268  27.035  1.00  0.00     0.031 C 
ATOM     51  C   UNL A   1      44.263  32.079  29.009  1.00  0.00     0.029 A 
ATOM     52  C   UNL A   1      45.135  31.093  28.573  1.00  0.00     0.049 A 
ATOM     53  H   UNL A   1      44.774  29.031  28.310  1.00  0.00     0.167 HD
ATOM     54  C   UNL A   1      47.341  30.233  27.785  1.00  0.00     0.074 A 
ATOM     55  C   UNL A   1      48.731  30.413  27.409  1.00  0.00     0.031 C 
ATOM     56  C   UNL A   1      46.516  31.234  28.179  1.00  0.00     0.031 A 
BRANCH  43  57
ATOM     57  C   UNL A   1      40.703  29.525  29.512  1.00  0.00    -0.014 A 
ATOM     58  C   UNL A   1      39.672  29.711  28.575  1.00  0.00     0.010 A 
ATOM     59  C   UNL A   1      40.430  29.730  30.878  1.00  0.00     0.010 A 
ATOM     60  C   UNL A   1      38.407  30.143  28.991  1.00  0.00     0.020 A 
ATOM     61  C   UNL A   1      39.164  30.141  31.300  1.00  0.00     0.020 A 
ATOM     62  C   UNL A   1      38.166  30.369  30.350  1.00  0.00     0.054 A 
BRANCH  62  63
ATOM     63  S   UNL A   1      36.528  30.953  30.869  1.00  0.00     0.124 S 
ATOM     64  O   UNL A   1      36.088  29.874  31.749  1.00  0.00    -0.237 OA
ATOM     65  O   UNL A   1      36.830  32.220  31.532  1.00  0.00    -0.237 OA
ATOM     66  O   UNL A   1      35.790  31.073  29.614  1.00  0.00    -0.744 OA
ENDBRANCH  62  63
ENDBRANCH  43  57
BRANCH  44  67
ATOM     67  C   UNL A   1      49.736  26.409  26.358  1.00  0.00    -0.014 A 
ATOM     68  C   UNL A   1      50.117  26.675  25.035  1.00  0.00     0.010 A 
ATOM     69  C   UNL A   1      50.653  25.777  27.222  1.00  0.00     0.010 A 
ATOM     70  C   UNL A   1      51.401  26.338  24.590  1.00  0.00     0.020 A 
ATOM     71  C   UNL A   1      51.943  25.463  26.790  1.00  0.00     0.020 A 
ATOM     72  C   UNL A   1      52.308  25.744  25.474  1.00  0.00     0.054 A 
BRANCH  72  73
ATOM     73  S   UNL A   1      54.007  25.425  24.916  1.00  0.00     0.124 S 
ATOM     74  O   UNL A   1      54.000  26.008  23.579  1.00  0.00    -0.237 OA
ATOM     75  O   UNL A   1      54.809  26.132  25.912  1.00  0.00    -0.237 OA
ATOM     76  O   UNL A   1      54.112  23.968  24.966  1.00  0.00    -0.744 OA
ENDBRANCH  72  73
ENDBRANCH  44  67
BRANCH  56  77
ATOM     77  C   UNL A   1      47.108  32.611  28.227  1.00  0.00    -0.014 A 
ATOM     78  C   UNL A   1      47.754  33.075  29.386  1.00  0.00     0.010 A 
ATOM     79  C   UNL A   1      47.070  33.422  27.080  1.00  0.00     0.010 A 
ATOM     80  C   UNL A   1      48.346  34.339  29.399  1.00  0.00     0.020 A 
ATOM     81  C   UNL A   1      47.677  34.678  27.084  1.00  0.00     0.020 A 
ATOM     82  C   UNL A   1      48.305  35.132  28.248  1.00  0.00     0.054 A 
BRANCH  82  83
ATOM     83  S   UNL A   1      49.138  36.742  28.264  1.00  0.00     0.124 S 
ATOM     84  O   UNL A   1      49.070  37.133  26.860  1.00  0.00    -0.237 OA
ATOM     85  O   UNL A   1      48.307  37.526  29.176  1.00  0.00    -0.237 OA
ATOM     86  O   UNL A   1      50.476  36.433  28.763  1.00  0.00    -0.744 OA
ENDBRANCH  82  83
ENDBRANCH  56  77
ENDBRANCH  30  31
ENDBRANCH  23  25
ENDBRANCH  22  23
ENDBRANCH  21  22
ENDBRANCH   1  21
TORSDOF 20
ENDMDL
MODEL 3
REMARK VINA RESULT:      -8.8      5.564     11.245
REMARK SMILES CC[C@@](C)(NC(=O)CSCc1cccs1)C(=O)OCCOC(=O)c1ccc(-c2c3nc(c(-c4ccc(S(=O)(=O)[O-])cc4)c4ccc([nH]4)c(-c4ccc(S(=O)(=O)[O-])cc4)c4nc(c(-c5ccc(S(=O)(=O)[O-])cc5)c5ccc2[nH]5)C=C4)C=C3)cc1
REMARK SMILES IDX 19 1 18 2 16 3 17 4 3 5 4 6 2 7 1 8 5 9 6 10 7 12 8 13 9 14
REMARK SMILES IDX 10 15 11 16 12 17 15 18 13 19 14 20 20 21 21 22 22 23 23 24
REMARK SMILES IDX 24 25 25 26 83 27 26 28 82 29 27 30 28 31 29 32 76 33 30 34
REMARK SMILES IDX 81 35 75 36 77 37 31 38 80 39 74 40 73 41 32 43 62 44 43 45
REMARK SMILES IDX 61 46 44 47 47 48 60 49 78 50 45 51 46 52 59 54 79 55 48 56
REMARK SMILES IDX 33 57 34 58 42 59 35 60 41 61 36 62 37 63 38 64 39 65 40 66
REMARK SMILES IDX 63 67 64 68 72 69 65 70 71 71 66 72 67 73 68 74 69 75 70 76
REMARK SMILES IDX 49 77 50 78 58 79 51 80 57 81 52 82 53 83 54 84 55 85 56 86
REMARK H PARENT 5 11 77 42 47 53
REMARK Flexibility Score: inf
ROOT
ATOM      1  C   UNL A   1      37.883  22.678  25.553  1.00  0.00     0.274 C 
ENDROOT
BRANCH   1   2
ATOM      2  O   UNL A   1      36.942  23.602  24.927  1.00  0.00    -0.460 OA
BRANCH   2   3
ATOM      3  C   UNL A   1      36.141  23.047  23.965  1.00  0.00     0.331 C 
ATOM      4  O   UNL A   1      36.513  22.905  22.799  1.00  0.00    -0.249 OA
BRANCH   3   5
ATOM      5  C   UNL A   1      34.724  22.552  24.454  1.00  0.00     0.135 C 
ATOM      6  C   UNL A   1      33.824  22.734  23.203  1.00  0.00     0.047 C 
BRANCH   5   7
ATOM      7  C   UNL A   1      34.713  21.030  24.826  1.00  0.00     0.037 C 
ATOM      8  C   UNL A   1      33.449  20.233  24.513  1.00  0.00     0.007 C 
ENDBRANCH   5   7
BRANCH   5   9
ATOM      9  N   UNL A   1      34.002  23.278  25.564  1.00  0.00    -0.340 N 
ATOM     10  C   UNL A   1      33.217  24.397  25.434  1.00  0.00     0.230 C 
ATOM     11  H   UNL A   1      34.105  22.913  26.472  1.00  0.00     0.164 HD
ATOM     12  O   UNL A   1      33.688  25.486  25.773  1.00  0.00    -0.274 OA
BRANCH  10  13
ATOM     13  C   UNL A   1      31.745  24.223  25.139  1.00  0.00     0.169 C 
BRANCH  13  14
ATOM     14  S   UNL A   1      30.733  25.510  25.908  1.00  0.00    -0.146 SA
BRANCH  14  15
ATOM     15  C   UNL A   1      29.635  25.981  24.547  1.00  0.00     0.116 C 
BRANCH  15  16
ATOM     16  C   UNL A   1      30.013  27.304  23.933  1.00  0.00     0.014 A 
ATOM     17  C   UNL A   1      29.419  28.046  22.923  1.00  0.00     0.016 A 
ATOM     18  S   UNL A   1      31.423  28.096  24.518  1.00  0.00    -0.148 S 
ATOM     19  C   UNL A   1      30.128  29.246  22.626  1.00  0.00     0.012 A 
ATOM     20  C   UNL A   1      31.242  29.392  23.420  1.00  0.00     0.065 A 
ENDBRANCH  15  16
ENDBRANCH  14  15
ENDBRANCH  13  14
ENDBRANCH  10  13
ENDBRANCH   5   9
ENDBRANCH   3   5
ENDBRANCH   2   3
ENDBRANCH   1   2
BRANCH   1  21
ATOM     21  C   UNL A   1      38.906  23.365  26.501  1.00  0.00     0.275 C 
BRANCH  21  22
ATOM     22  O   UNL A   1      38.662  24.728  26.964  1.00  0.00    -0.458 OA
BRANCH  22  23
ATOM     23  C   UNL A   1      39.697  25.586  26.903  1.00  0.00     0.338 C 
ATOM     24  O   UNL A   1      40.577  25.557  26.065  1.00  0.00    -0.246 OA
BRANCH  23  25
ATOM     25  C   UNL A   1      39.795  26.651  27.906  1.00  0.00     0.060 A 
ATOM     26  C   UNL A   1      39.255  26.302  29.156  1.00  0.00     0.016 A 
ATOM     27  C   UNL A   1      40.269  27.940  27.686  1.00  0.00     0.016 A 
ATOM     28  C   UNL A   1      39.175  27.211  30.184  1.00  0.00     0.010 A 
ATOM     29  C   UNL A   1      40.253  28.851  28.752  1.00  0.00     0.010 A 
ATOM     30  C   UNL A   1      39.734  28.472  30.005  1.00  0.00    -0.014 A 
BRANCH  30  31
ATOM     31  C   UNL A   1      39.935  29.275  31.222  1.00  0.00     0.031 A 
ATOM     32  C   UNL A   1      41.117  29.064  32.103  1.00  0.00     0.074 A 
ATOM     33  C   UNL A   1      39.056  30.271  31.441  1.00  0.00     0.049 A 
ATOM     34  N   UNL A   1      41.402  29.652  33.233  1.00  0.00    -0.248 NA
ATOM     35  C   UNL A   1      42.112  28.076  31.660  1.00  0.00     0.031 C 
ATOM     36  C   UNL A   1      37.930  30.605  30.558  1.00  0.00     0.029 A 
ATOM     37  N   UNL A   1      38.973  31.195  32.445  1.00  0.00    -0.354 N 
ATOM     38  C   UNL A   1      42.591  29.082  33.663  1.00  0.00     0.074 A 
ATOM     39  C   UNL A   1      42.985  28.114  32.659  1.00  0.00     0.031 C 
ATOM     40  C   UNL A   1      37.277  31.661  31.057  1.00  0.00     0.029 A 
ATOM     41  C   UNL A   1      37.883  32.023  32.329  1.00  0.00     0.049 A 
ATOM     42  H   UNL A   1      39.629  31.261  33.177  1.00  0.00     0.167 HD
ATOM     43  C   UNL A   1      43.265  29.335  34.810  1.00  0.00     0.031 A 
ATOM     44  C   UNL A   1      37.386  32.933  33.186  1.00  0.00     0.031 A 
ATOM     45  C   UNL A   1      42.823  30.292  35.793  1.00  0.00     0.049 A 
ATOM     46  C   UNL A   1      38.104  33.140  34.481  1.00  0.00     0.074 A 
ATOM     47  C   UNL A   1      43.401  30.610  37.007  1.00  0.00     0.029 A 
ATOM     48  N   UNL A   1      41.684  31.077  35.673  1.00  0.00    -0.354 N 
ATOM     49  N   UNL A   1      39.205  32.561  34.904  1.00  0.00    -0.248 NA
ATOM     50  C   UNL A   1      37.520  34.101  35.419  1.00  0.00     0.031 C 
ATOM     51  C   UNL A   1      42.586  31.556  37.642  1.00  0.00     0.029 A 
ATOM     52  C   UNL A   1      41.525  31.862  36.802  1.00  0.00     0.049 A 
ATOM     53  H   UNL A   1      41.078  31.077  34.897  1.00  0.00     0.167 HD
ATOM     54  C   UNL A   1      39.445  33.085  36.164  1.00  0.00     0.074 A 
ATOM     55  C   UNL A   1      38.386  34.043  36.424  1.00  0.00     0.031 C 
ATOM     56  C   UNL A   1      40.448  32.796  37.029  1.00  0.00     0.031 A 
BRANCH  43  57
ATOM     57  C   UNL A   1      44.480  28.497  35.091  1.00  0.00    -0.014 A 
ATOM     58  C   UNL A   1      45.768  28.904  34.700  1.00  0.00     0.010 A 
ATOM     59  C   UNL A   1      44.323  27.263  35.750  1.00  0.00     0.010 A 
ATOM     60  C   UNL A   1      46.869  28.069  34.920  1.00  0.00     0.020 A 
ATOM     61  C   UNL A   1      45.422  26.435  35.988  1.00  0.00     0.020 A 
ATOM     62  C   UNL A   1      46.686  26.833  35.550  1.00  0.00     0.054 A 
BRANCH  62  63
ATOM     63  S   UNL A   1      48.122  25.752  35.802  1.00  0.00     0.124 S 
ATOM     64  O   UNL A   1      49.204  26.720  35.957  1.00  0.00    -0.237 OA
ATOM     65  O   UNL A   1      47.764  25.012  37.010  1.00  0.00    -0.237 OA
ATOM     66  O   UNL A   1      48.172  24.953  34.579  1.00  0.00    -0.744 OA
ENDBRANCH  62  63
ENDBRANCH  43  57
BRANCH  44  67
ATOM     67  C   UNL A   1      36.109  33.612  32.850  1.00  0.00    -0.014 A 
ATOM     68  C   UNL A   1      34.872  33.020  33.146  1.00  0.00     0.010 A 
ATOM     69  C   UNL A   1      36.135  34.927  32.340  1.00  0.00     0.010 A 
ATOM     70  C   UNL A   1      33.685  33.737  32.957  1.00  0.00     0.020 A 
ATOM     71  C   UNL A   1      34.955  35.654  32.176  1.00  0.00     0.020 A 
ATOM     72  C   UNL A   1      33.735  35.052  32.484  1.00  0.00     0.054 A 
BRANCH  72  73
ATOM     73  S   UNL A   1      32.196  36.008  32.362  1.00  0.00     0.124 S 
ATOM     74  O   UNL A   1      32.179  36.372  30.949  1.00  0.00    -0.237 OA
ATOM     75  O   UNL A   1      31.184  35.041  32.779  1.00  0.00    -0.237 OA
ATOM     76  O   UNL A   1      32.409  37.114  33.293  1.00  0.00    -0.744 OA
ENDBRANCH  72  73
ENDBRANCH  44  67
BRANCH  56  77
ATOM     77  C   UNL A   1      40.444  33.537  38.333  1.00  0.00    -0.014 A 
ATOM     78  C   UNL A   1      41.125  34.759  38.467  1.00  0.00     0.010 A 
ATOM     79  C   UNL A   1      39.699  33.035  39.413  1.00  0.00     0.010 A 
ATOM     80  C   UNL A   1      41.070  35.464  39.670  1.00  0.00     0.020 A 
ATOM     81  C   UNL A   1      39.626  33.747  40.612  1.00  0.00     0.020 A 
ATOM     82  C   UNL A   1      40.320  34.954  40.735  1.00  0.00     0.054 A 
BRANCH  82  83
ATOM     83  S   UNL A   1      40.205  35.917  42.266  1.00  0.00     0.124 S 
ATOM     84  O   UNL A   1      40.501  34.910  43.280  1.00  0.00    -0.237 OA
ATOM     85  O   UNL A   1      41.230  36.942  42.080  1.00  0.00    -0.237 OA
ATOM     86  O   UNL A   1      38.831  36.412  42.260  1.00  0.00    -0.744 OA
ENDBRANCH  82  83
ENDBRANCH  56  77
ENDBRANCH  30  31
ENDBRANCH  23  25
ENDBRANCH  22  23
ENDBRANCH  21  22
ENDBRANCH   1  21
TORSDOF 20
ENDMDL
