MODEL 1
REMARK VINA RESULT:     -10.6      0.000      0.000
REMARK SMILES C=C(C)COc1ccc2c(C)c(CC(=O)OCCOC(=O)c3ccc(-c4c5nc(c(-c6ccc(S(=O)(=O)[O-])cc6)c6ccc([nH]6)c(-c6ccc(S(=O)(=O)[O-])cc6)c6nc(c(-c7ccc(S(=O)(=O)[O-])cc7)c7ccc4[nH]7)C=C6)C=C5)cc3)c(=O)oc2c1
REMARK SMILES IDX 17 1 16 2 14 3 15 4 13 5 12 6 6 7 7 8 86 9 8 10 85 11 9 12
REMARK SMILES IDX 84 13 10 14 82 15 11 16 83 17 5 18 4 19 2 20 1 21 3 22 18 23
REMARK SMILES IDX 19 24 20 25 21 26 22 27 23 28 81 29 24 30 80 31 25 32 26 33
REMARK SMILES IDX 27 34 74 35 28 36 79 37 73 38 75 39 29 40 78 41 72 42 71 43
REMARK SMILES IDX 30 45 60 46 41 47 59 48 42 49 45 50 58 51 76 52 43 53 44 54
REMARK SMILES IDX 57 56 77 57 46 58 31 59 32 60 40 61 33 62 39 63 34 64 35 65
REMARK SMILES IDX 36 66 37 67 38 68 61 69 62 70 70 71 63 72 69 73 64 74 65 75
REMARK SMILES IDX 66 76 67 77 68 78 47 79 48 80 56 81 49 82 55 83 50 84 51 85
REMARK SMILES IDX 52 86 53 87 54 88
REMARK H PARENT 75 44 45 55
REMARK Flexibility Score: inf
ROOT
ATOM      1  C   UNL A   1      33.120  29.460  25.261  1.00  0.00     0.274 C 
ENDROOT
BRANCH   1   2
ATOM      2  O   UNL A   1      32.124  29.087  24.288  1.00  0.00    -0.462 OA
BRANCH   2   3
ATOM      3  C   UNL A   1      32.594  28.610  23.104  1.00  0.00     0.310 C 
ATOM      4  O   UNL A   1      33.682  28.897  22.618  1.00  0.00    -0.252 OA
BRANCH   3   5
ATOM      5  C   UNL A   1      31.668  27.595  22.449  1.00  0.00     0.166 C 
BRANCH   5   6
ATOM      6  C   UNL A   1      31.981  26.151  22.764  1.00  0.00     0.052 A 
ATOM      7  C   UNL A   1      33.041  21.478  24.321  1.00  0.00     0.123 A 
ATOM      8  C   UNL A   1      31.973  21.883  25.114  1.00  0.00     0.047 A 
ATOM      9  C   UNL A   1      33.490  22.282  23.283  1.00  0.00     0.094 A 
ATOM     10  C   UNL A   1      31.421  23.156  24.932  1.00  0.00     0.016 A 
ATOM     11  C   UNL A   1      32.932  23.546  23.120  1.00  0.00     0.142 A 
ATOM     12  C   UNL A   1      31.927  24.029  23.954  1.00  0.00     0.021 A 
ATOM     13  O   UNL A   1      33.446  24.311  22.067  1.00  0.00    -0.422 OA
ATOM     14  C   UNL A   1      31.491  25.430  23.797  1.00  0.00    -0.029 A 
ATOM     15  C   UNL A   1      32.952  25.570  21.795  1.00  0.00     0.340 A 
ATOM     16  C   UNL A   1      30.555  25.962  24.851  1.00  0.00     0.046 C 
ATOM     17  O   UNL A   1      33.338  26.200  20.815  1.00  0.00    -0.246 OA
BRANCH   7  18
ATOM     18  O   UNL A   1      33.640  20.270  24.553  1.00  0.00    -0.489 OA
BRANCH  18  19
ATOM     19  C   UNL A   1      32.757  19.412  25.303  1.00  0.00     0.260 C 
BRANCH  19  20
ATOM     20  C   UNL A   1      32.668  18.028  24.691  1.00  0.00    -0.043 C 
ATOM     21  C   UNL A   1      32.488  16.923  25.435  1.00  0.00     0.011 C 
ATOM     22  C   UNL A   1      32.744  17.968  23.193  1.00  0.00     0.042 C 
ENDBRANCH  19  20
ENDBRANCH  18  19
ENDBRANCH   7  18
ENDBRANCH   5   6
ENDBRANCH   3   5
ENDBRANCH   2   3
ENDBRANCH   1   2
BRANCH   1  23
ATOM     23  C   UNL A   1      32.491  29.459  26.652  1.00  0.00     0.275 C 
BRANCH  23  24
ATOM     24  O   UNL A   1      33.530  29.274  27.629  1.00  0.00    -0.458 OA
BRANCH  24  25
ATOM     25  C   UNL A   1      34.271  30.368  27.916  1.00  0.00     0.338 C 
ATOM     26  O   UNL A   1      33.880  31.526  27.954  1.00  0.00    -0.246 OA
BRANCH  25  27
ATOM     27  C   UNL A   1      35.667  29.975  28.214  1.00  0.00     0.060 A 
ATOM     28  C   UNL A   1      36.047  29.573  29.496  1.00  0.00     0.016 A 
ATOM     29  C   UNL A   1      36.634  30.098  27.214  1.00  0.00     0.016 A 
ATOM     30  C   UNL A   1      37.397  29.374  29.796  1.00  0.00     0.010 A 
ATOM     31  C   UNL A   1      37.973  29.797  27.494  1.00  0.00     0.010 A 
ATOM     32  C   UNL A   1      38.377  29.457  28.795  1.00  0.00    -0.014 A 
BRANCH  32  33
ATOM     33  C   UNL A   1      39.810  29.166  29.101  1.00  0.00     0.031 A 
ATOM     34  C   UNL A   1      40.708  30.219  29.704  1.00  0.00     0.074 A 
ATOM     35  C   UNL A   1      40.323  27.952  28.815  1.00  0.00     0.049 A 
ATOM     36  N   UNL A   1      42.003  30.182  29.902  1.00  0.00    -0.248 NA
ATOM     37  C   UNL A   1      40.078  31.483  30.122  1.00  0.00     0.031 C 
ATOM     38  C   UNL A   1      39.583  26.833  28.223  1.00  0.00     0.029 A 
ATOM     39  N   UNL A   1      41.592  27.454  28.982  1.00  0.00    -0.354 N 
ATOM     40  C   UNL A   1      42.351  31.430  30.407  1.00  0.00     0.074 A 
ATOM     41  C   UNL A   1      41.129  32.203  30.493  1.00  0.00     0.031 C 
ATOM     42  C   UNL A   1      40.396  25.772  28.117  1.00  0.00     0.029 A 
ATOM     43  C   UNL A   1      41.734  26.153  28.557  1.00  0.00     0.049 A 
ATOM     44  H   UNL A   1      42.330  27.977  29.369  1.00  0.00     0.167 HD
ATOM     45  C   UNL A   1      43.575  31.895  30.760  1.00  0.00     0.031 A 
ATOM     46  C   UNL A   1      42.817  25.356  28.489  1.00  0.00     0.031 A 
ATOM     47  C   UNL A   1      44.787  31.117  30.727  1.00  0.00     0.049 A 
ATOM     48  C   UNL A   1      44.155  25.886  28.910  1.00  0.00     0.074 A 
ATOM     49  C   UNL A   1      46.061  31.497  31.119  1.00  0.00     0.029 A 
ATOM     50  N   UNL A   1      44.878  29.807  30.291  1.00  0.00    -0.354 N 
ATOM     51  N   UNL A   1      44.459  27.076  29.369  1.00  0.00    -0.248 NA
ATOM     52  C   UNL A   1      45.297  24.969  28.790  1.00  0.00     0.031 C 
ATOM     53  C   UNL A   1      46.929  30.424  30.887  1.00  0.00     0.029 A 
ATOM     54  C   UNL A   1      46.189  29.366  30.387  1.00  0.00     0.049 A 
ATOM     55  H   UNL A   1      44.124  29.267  29.960  1.00  0.00     0.167 HD
ATOM     56  C   UNL A   1      45.832  27.053  29.584  1.00  0.00     0.074 A 
ATOM     57  C   UNL A   1      46.292  25.724  29.237  1.00  0.00     0.031 C 
ATOM     58  C   UNL A   1      46.639  28.050  30.020  1.00  0.00     0.031 A 
BRANCH  45  59
ATOM     59  C   UNL A   1      43.680  33.332  31.191  1.00  0.00    -0.014 A 
ATOM     60  C   UNL A   1      43.686  33.692  32.550  1.00  0.00     0.010 A 
ATOM     61  C   UNL A   1      43.848  34.333  30.216  1.00  0.00     0.010 A 
ATOM     62  C   UNL A   1      43.833  35.031  32.925  1.00  0.00     0.020 A 
ATOM     63  C   UNL A   1      44.015  35.670  30.587  1.00  0.00     0.020 A 
ATOM     64  C   UNL A   1      43.993  36.013  31.942  1.00  0.00     0.054 A 
BRANCH  64  65
ATOM     65  S   UNL A   1      44.222  37.738  32.453  1.00  0.00     0.124 S 
ATOM     66  O   UNL A   1      43.235  37.866  33.522  1.00  0.00    -0.237 OA
ATOM     67  O   UNL A   1      45.618  37.766  32.882  1.00  0.00    -0.237 OA
ATOM     68  O   UNL A   1      43.931  38.499  31.241  1.00  0.00    -0.744 OA
ENDBRANCH  64  65
ENDBRANCH  45  59
BRANCH  46  69
ATOM     69  C   UNL A   1      42.679  23.978  27.950  1.00  0.00    -0.014 A 
ATOM     70  C   UNL A   1      42.428  22.898  28.811  1.00  0.00     0.010 A 
ATOM     71  C   UNL A   1      42.758  23.752  26.563  1.00  0.00     0.010 A 
ATOM     72  C   UNL A   1      42.258  21.609  28.294  1.00  0.00     0.020 A 
ATOM     73  C   UNL A   1      42.565  22.471  26.042  1.00  0.00     0.020 A 
ATOM     74  C   UNL A   1      42.325  21.406  26.912  1.00  0.00     0.054 A 
BRANCH  74  75
ATOM     75  S   UNL A   1      42.018  19.747  26.245  1.00  0.00     0.124 S 
ATOM     76  O   UNL A   1      42.421  18.895  27.358  1.00  0.00    -0.237 OA
ATOM     77  O   UNL A   1      40.586  19.774  25.955  1.00  0.00    -0.237 OA
ATOM     78  O   UNL A   1      42.881  19.694  25.067  1.00  0.00    -0.744 OA
ENDBRANCH  74  75
ENDBRANCH  46  69
BRANCH  58  79
ATOM     79  C   UNL A   1      48.103  27.734  30.143  1.00  0.00    -0.014 A 
ATOM     80  C   UNL A   1      48.955  27.835  29.030  1.00  0.00     0.010 A 
ATOM     81  C   UNL A   1      48.633  27.338  31.383  1.00  0.00     0.010 A 
ATOM     82  C   UNL A   1      50.308  27.505  29.144  1.00  0.00     0.020 A 
ATOM     83  C   UNL A   1      49.989  27.026  31.506  1.00  0.00     0.020 A 
ATOM     84  C   UNL A   1      50.814  27.093  30.381  1.00  0.00     0.054 A 
BRANCH  84  85
ATOM     85  S   UNL A   1      52.575  26.676  30.516  1.00  0.00     0.124 S 
ATOM     86  O   UNL A   1      53.132  27.898  31.090  1.00  0.00    -0.237 OA
ATOM     87  O   UNL A   1      52.567  25.513  31.401  1.00  0.00    -0.237 OA
ATOM     88  O   UNL A   1      52.968  26.398  29.137  1.00  0.00    -0.744 OA
ENDBRANCH  84  85
ENDBRANCH  58  79
ENDBRANCH  32  33
ENDBRANCH  25  27
ENDBRANCH  24  25
ENDBRANCH  23  24
ENDBRANCH   1  23
TORSDOF 18
ENDMDL
MODEL 2
REMARK VINA RESULT:     -10.5      2.503      3.208
REMARK SMILES C=C(C)COc1ccc2c(C)c(CC(=O)OCCOC(=O)c3ccc(-c4c5nc(c(-c6ccc(S(=O)(=O)[O-])cc6)c6ccc([nH]6)c(-c6ccc(S(=O)(=O)[O-])cc6)c6nc(c(-c7ccc(S(=O)(=O)[O-])cc7)c7ccc4[nH]7)C=C6)C=C5)cc3)c(=O)oc2c1
REMARK SMILES IDX 17 1 16 2 14 3 15 4 13 5 12 6 6 7 7 8 86 9 8 10 85 11 9 12
REMARK SMILES IDX 84 13 10 14 82 15 11 16 83 17 5 18 4 19 2 20 1 21 3 22 18 23
REMARK SMILES IDX 19 24 20 25 21 26 22 27 23 28 81 29 24 30 80 31 25 32 26 33
REMARK SMILES IDX 27 34 74 35 28 36 79 37 73 38 75 39 29 40 78 41 72 42 71 43
REMARK SMILES IDX 30 45 60 46 41 47 59 48 42 49 45 50 58 51 76 52 43 53 44 54
REMARK SMILES IDX 57 56 77 57 46 58 31 59 32 60 40 61 33 62 39 63 34 64 35 65
REMARK SMILES IDX 36 66 37 67 38 68 61 69 62 70 70 71 63 72 69 73 64 74 65 75
REMARK SMILES IDX 66 76 67 77 68 78 47 79 48 80 56 81 49 82 55 83 50 84 51 85
REMARK SMILES IDX 52 86 53 87 54 88
REMARK H PARENT 75 44 45 55
REMARK Flexibility Score: inf
ROOT
ATOM      1  C   UNL A   1      34.044  29.224  26.290  1.00  0.00     0.274 C 
ENDROOT
BRANCH   1   2
ATOM      2  O   UNL A   1      32.883  29.802  25.663  1.00  0.00    -0.462 OA
BRANCH   2   3
ATOM      3  C   UNL A   1      32.554  29.304  24.440  1.00  0.00     0.310 C 
ATOM      4  O   UNL A   1      33.282  29.338  23.453  1.00  0.00    -0.252 OA
BRANCH   3   5
ATOM      5  C   UNL A   1      31.202  28.606  24.412  1.00  0.00     0.166 C 
BRANCH   5   6
ATOM      6  C   UNL A   1      31.265  27.101  24.300  1.00  0.00     0.052 A 
ATOM      7  C   UNL A   1      31.865  22.098  24.276  1.00  0.00     0.123 A 
ATOM      8  C   UNL A   1      31.773  22.439  25.622  1.00  0.00     0.047 A 
ATOM      9  C   UNL A   1      31.672  23.059  23.294  1.00  0.00     0.094 A 
ATOM     10  C   UNL A   1      31.594  23.778  25.984  1.00  0.00     0.016 A 
ATOM     11  C   UNL A   1      31.499  24.386  23.674  1.00  0.00     0.142 A 
ATOM     12  C   UNL A   1      31.499  24.785  25.008  1.00  0.00     0.021 A 
ATOM     13  O   UNL A   1      31.330  25.304  22.631  1.00  0.00    -0.422 OA
ATOM     14  C   UNL A   1      31.448  26.227  25.315  1.00  0.00    -0.029 A 
ATOM     15  C   UNL A   1      31.126  26.644  22.889  1.00  0.00     0.340 A 
ATOM     16  C   UNL A   1      31.656  26.612  26.756  1.00  0.00     0.046 C 
ATOM     17  O   UNL A   1      30.884  27.431  21.979  1.00  0.00    -0.246 OA
BRANCH   7  18
ATOM     18  O   UNL A   1      32.129  20.804  23.920  1.00  0.00    -0.489 OA
BRANCH  18  19
ATOM     19  C   UNL A   1      33.280  20.315  24.635  1.00  0.00     0.260 C 
BRANCH  19  20
ATOM     20  C   UNL A   1      33.607  18.883  24.260  1.00  0.00    -0.043 C 
ATOM     21  C   UNL A   1      34.801  18.325  24.522  1.00  0.00     0.011 C 
ATOM     22  C   UNL A   1      32.496  18.105  23.617  1.00  0.00     0.042 C 
ENDBRANCH  19  20
ENDBRANCH  18  19
ENDBRANCH   7  18
ENDBRANCH   5   6
ENDBRANCH   3   5
ENDBRANCH   2   3
ENDBRANCH   1   2
BRANCH   1  23
ATOM     23  C   UNL A   1      34.261  29.881  27.652  1.00  0.00     0.275 C 
BRANCH  23  24
ATOM     24  O   UNL A   1      35.545  30.527  27.654  1.00  0.00    -0.458 OA
BRANCH  24  25
ATOM     25  C   UNL A   1      36.176  30.578  28.849  1.00  0.00     0.338 C 
ATOM     26  O   UNL A   1      35.710  30.980  29.906  1.00  0.00    -0.246 OA
BRANCH  25  27
ATOM     27  C   UNL A   1      37.552  30.045  28.723  1.00  0.00     0.060 A 
ATOM     28  C   UNL A   1      38.382  29.913  29.838  1.00  0.00     0.016 A 
ATOM     29  C   UNL A   1      38.054  29.757  27.451  1.00  0.00     0.016 A 
ATOM     30  C   UNL A   1      39.727  29.573  29.674  1.00  0.00     0.010 A 
ATOM     31  C   UNL A   1      39.375  29.318  27.303  1.00  0.00     0.010 A 
ATOM     32  C   UNL A   1      40.238  29.245  28.408  1.00  0.00    -0.014 A 
BRANCH  32  33
ATOM     33  C   UNL A   1      41.656  28.805  28.246  1.00  0.00     0.031 A 
ATOM     34  C   UNL A   1      42.795  29.788  28.364  1.00  0.00     0.074 A 
ATOM     35  C   UNL A   1      41.929  27.514  27.966  1.00  0.00     0.049 A 
ATOM     36  N   UNL A   1      44.069  29.606  28.114  1.00  0.00    -0.248 NA
ATOM     37  C   UNL A   1      42.463  31.155  28.800  1.00  0.00     0.031 C 
ATOM     38  C   UNL A   1      40.935  26.447  27.814  1.00  0.00     0.029 A 
ATOM     39  N   UNL A   1      43.129  26.877  27.757  1.00  0.00    -0.354 N 
ATOM     40  C   UNL A   1      44.678  30.843  28.301  1.00  0.00     0.074 A 
ATOM     41  C   UNL A   1      43.635  31.768  28.693  1.00  0.00     0.031 C 
ATOM     42  C   UNL A   1      41.565  25.287  27.580  1.00  0.00     0.029 A 
ATOM     43  C   UNL A   1      42.999  25.536  27.486  1.00  0.00     0.049 A 
ATOM     44  H   UNL A   1      43.997  27.337  27.799  1.00  0.00     0.167 HD
ATOM     45  C   UNL A   1      45.983  31.180  28.154  1.00  0.00     0.031 A 
ATOM     46  C   UNL A   1      43.917  24.605  27.160  1.00  0.00     0.031 A 
ATOM     47  C   UNL A   1      47.034  30.256  27.816  1.00  0.00     0.049 A 
ATOM     48  C   UNL A   1      45.357  24.999  27.029  1.00  0.00     0.074 A 
ATOM     49  C   UNL A   1      48.392  30.506  27.698  1.00  0.00     0.029 A 
ATOM     50  N   UNL A   1      46.854  28.909  27.552  1.00  0.00    -0.354 N 
ATOM     51  N   UNL A   1      45.905  26.178  27.196  1.00  0.00    -0.248 NA
ATOM     52  C   UNL A   1      46.301  23.937  26.652  1.00  0.00     0.031 C 
ATOM     53  C   UNL A   1      49.029  29.315  27.330  1.00  0.00     0.029 A 
ATOM     54  C   UNL A   1      48.071  28.317  27.255  1.00  0.00     0.049 A 
ATOM     55  H   UNL A   1      45.988  28.440  27.570  1.00  0.00     0.167 HD
ATOM     56  C   UNL A   1      47.258  26.002  26.934  1.00  0.00     0.074 A 
ATOM     57  C   UNL A   1      47.450  24.599  26.630  1.00  0.00     0.031 C 
ATOM     58  C   UNL A   1      48.249  26.926  26.934  1.00  0.00     0.031 A 
BRANCH  45  59
ATOM     59  C   UNL A   1      46.356  32.627  28.330  1.00  0.00    -0.014 A 
ATOM     60  C   UNL A   1      46.848  33.114  29.554  1.00  0.00     0.010 A 
ATOM     61  C   UNL A   1      46.280  33.497  27.225  1.00  0.00     0.010 A 
ATOM     62  C   UNL A   1      47.232  34.453  29.676  1.00  0.00     0.020 A 
ATOM     63  C   UNL A   1      46.682  34.830  27.339  1.00  0.00     0.020 A 
ATOM     64  C   UNL A   1      47.144  35.304  28.570  1.00  0.00     0.054 A 
BRANCH  64  65
ATOM     65  S   UNL A   1      47.686  37.026  28.742  1.00  0.00     0.124 S 
ATOM     66  O   UNL A   1      49.072  36.861  29.173  1.00  0.00    -0.237 OA
ATOM     67  O   UNL A   1      47.508  37.558  27.393  1.00  0.00    -0.237 OA
ATOM     68  O   UNL A   1      46.780  37.575  29.748  1.00  0.00    -0.744 OA
ENDBRANCH  64  65
ENDBRANCH  45  59
BRANCH  46  69
ATOM     69  C   UNL A   1      43.480  23.211  26.887  1.00  0.00    -0.014 A 
ATOM     70  C   UNL A   1      43.702  22.627  25.630  1.00  0.00     0.010 A 
ATOM     71  C   UNL A   1      42.875  22.450  27.904  1.00  0.00     0.010 A 
ATOM     72  C   UNL A   1      43.326  21.302  25.391  1.00  0.00     0.020 A 
ATOM     73  C   UNL A   1      42.520  21.118  27.677  1.00  0.00     0.020 A 
ATOM     74  C   UNL A   1      42.740  20.555  26.418  1.00  0.00     0.054 A 
BRANCH  74  75
ATOM     75  S   UNL A   1      42.334  18.812  26.125  1.00  0.00     0.124 S 
ATOM     76  O   UNL A   1      43.236  18.472  25.031  1.00  0.00    -0.237 OA
ATOM     77  O   UNL A   1      42.635  18.189  27.412  1.00  0.00    -0.237 OA
ATOM     78  O   UNL A   1      40.914  18.851  25.781  1.00  0.00    -0.744 OA
ENDBRANCH  74  75
ENDBRANCH  46  69
BRANCH  58  79
ATOM     79  C   UNL A   1      49.630  26.440  26.595  1.00  0.00    -0.014 A 
ATOM     80  C   UNL A   1      50.075  26.418  25.261  1.00  0.00     0.010 A 
ATOM     81  C   UNL A   1      50.492  26.008  27.617  1.00  0.00     0.010 A 
ATOM     82  C   UNL A   1      51.348  25.933  24.950  1.00  0.00     0.020 A 
ATOM     83  C   UNL A   1      51.772  25.538  27.311  1.00  0.00     0.020 A 
ATOM     84  C   UNL A   1      52.185  25.486  25.977  1.00  0.00     0.054 A 
BRANCH  84  85
ATOM     85  S   UNL A   1      53.837  24.865  25.559  1.00  0.00     0.124 S 
ATOM     86  O   UNL A   1      53.540  23.521  25.070  1.00  0.00    -0.237 OA
ATOM     87  O   UNL A   1      54.295  25.815  24.547  1.00  0.00    -0.237 OA
ATOM     88  O   UNL A   1      54.557  24.923  26.829  1.00  0.00    -0.744 OA
ENDBRANCH  84  85
ENDBRANCH  58  79
ENDBRANCH  32  33
ENDBRANCH  25  27
ENDBRANCH  24  25
ENDBRANCH  23  24
ENDBRANCH   1  23
TORSDOF 18
ENDMDL
MODEL 3
REMARK VINA RESULT:      -9.8      7.886     16.233
REMARK SMILES C=C(C)COc1ccc2c(C)c(CC(=O)OCCOC(=O)c3ccc(-c4c5nc(c(-c6ccc(S(=O)(=O)[O-])cc6)c6ccc([nH]6)c(-c6ccc(S(=O)(=O)[O-])cc6)c6nc(c(-c7ccc(S(=O)(=O)[O-])cc7)c7ccc4[nH]7)C=C6)C=C5)cc3)c(=O)oc2c1
REMARK SMILES IDX 17 1 16 2 14 3 15 4 13 5 12 6 6 7 7 8 86 9 8 10 85 11 9 12
REMARK SMILES IDX 84 13 10 14 82 15 11 16 83 17 5 18 4 19 2 20 1 21 3 22 18 23
REMARK SMILES IDX 19 24 20 25 21 26 22 27 23 28 81 29 24 30 80 31 25 32 26 33
REMARK SMILES IDX 27 34 74 35 28 36 79 37 73 38 75 39 29 40 78 41 72 42 71 43
REMARK SMILES IDX 30 45 60 46 41 47 59 48 42 49 45 50 58 51 76 52 43 53 44 54
REMARK SMILES IDX 57 56 77 57 46 58 31 59 32 60 40 61 33 62 39 63 34 64 35 65
REMARK SMILES IDX 36 66 37 67 38 68 61 69 62 70 70 71 63 72 69 73 64 74 65 75
REMARK SMILES IDX 66 76 67 77 68 78 47 79 48 80 56 81 49 82 55 83 50 84 51 85
REMARK SMILES IDX 52 86 53 87 54 88
REMARK H PARENT 75 44 45 55
REMARK Flexibility Score: inf
ROOT
ATOM      1  C   UNL A   1      47.646  23.870  37.897  1.00  0.00     0.274 C 
ENDROOT
BRANCH   1   2
ATOM      2  O   UNL A   1      47.997  22.514  37.556  1.00  0.00    -0.462 OA
BRANCH   2   3
ATOM      3  C   UNL A   1      46.972  21.710  37.166  1.00  0.00     0.310 C 
ATOM      4  O   UNL A   1      45.831  22.096  36.936  1.00  0.00    -0.252 OA
BRANCH   3   5
ATOM      5  C   UNL A   1      47.386  20.262  36.949  1.00  0.00     0.166 C 
BRANCH   5   6
ATOM      6  C   UNL A   1      46.414  19.236  37.481  1.00  0.00     0.052 A 
ATOM      7  C   UNL A   1      43.573  15.613  39.531  1.00  0.00     0.123 A 
ATOM      8  C   UNL A   1      44.233  16.198  40.606  1.00  0.00     0.047 A 
ATOM      9  C   UNL A   1      43.700  16.145  38.255  1.00  0.00     0.094 A 
ATOM     10  C   UNL A   1      45.113  17.262  40.380  1.00  0.00     0.016 A 
ATOM     11  C   UNL A   1      44.583  17.200  38.050  1.00  0.00     0.142 A 
ATOM     12  C   UNL A   1      45.337  17.752  39.082  1.00  0.00     0.021 A 
ATOM     13  O   UNL A   1      44.675  17.674  36.736  1.00  0.00    -0.422 OA
ATOM     14  C   UNL A   1      46.349  18.773  38.750  1.00  0.00    -0.029 A 
ATOM     15  C   UNL A   1      45.500  18.733  36.418  1.00  0.00     0.340 A 
ATOM     16  C   UNL A   1      47.273  19.186  39.866  1.00  0.00     0.046 C 
ATOM     17  O   UNL A   1      45.508  19.207  35.286  1.00  0.00    -0.246 OA
BRANCH   7  18
ATOM     18  O   UNL A   1      42.780  14.517  39.735  1.00  0.00    -0.489 OA
BRANCH  18  19
ATOM     19  C   UNL A   1      41.853  14.768  40.810  1.00  0.00     0.260 C 
BRANCH  19  20
ATOM     20  C   UNL A   1      41.827  13.624  41.805  1.00  0.00    -0.043 C 
ATOM     21  C   UNL A   1      41.142  12.490  41.580  1.00  0.00     0.011 C 
ATOM     22  C   UNL A   1      42.655  13.814  43.044  1.00  0.00     0.042 C 
ENDBRANCH  19  20
ENDBRANCH  18  19
ENDBRANCH   7  18
ENDBRANCH   5   6
ENDBRANCH   3   5
ENDBRANCH   2   3
ENDBRANCH   1   2
BRANCH   1  23
ATOM     23  C   UNL A   1      48.809  24.795  37.550  1.00  0.00     0.275 C 
BRANCH  23  24
ATOM     24  O   UNL A   1      48.377  25.722  36.539  1.00  0.00    -0.458 OA
BRANCH  24  25
ATOM     25  C   UNL A   1      48.280  27.014  36.927  1.00  0.00     0.338 C 
ATOM     26  O   UNL A   1      49.120  27.658  37.540  1.00  0.00    -0.246 OA
BRANCH  25  27
ATOM     27  C   UNL A   1      46.989  27.585  36.480  1.00  0.00     0.060 A 
ATOM     28  C   UNL A   1      46.943  28.647  35.574  1.00  0.00     0.016 A 
ATOM     29  C   UNL A   1      45.805  27.110  37.048  1.00  0.00     0.016 A 
ATOM     30  C   UNL A   1      45.729  29.282  35.301  1.00  0.00     0.010 A 
ATOM     31  C   UNL A   1      44.578  27.683  36.691  1.00  0.00     0.010 A 
ATOM     32  C   UNL A   1      44.525  28.794  35.833  1.00  0.00    -0.014 A 
BRANCH  32  33
ATOM     33  C   UNL A   1      43.220  29.426  35.476  1.00  0.00     0.031 A 
ATOM     34  C   UNL A   1      42.477  29.027  34.224  1.00  0.00     0.074 A 
ATOM     35  C   UNL A   1      42.700  30.386  36.269  1.00  0.00     0.049 A 
ATOM     36  N   UNL A   1      41.409  29.569  33.692  1.00  0.00    -0.248 NA
ATOM     37  C   UNL A   1      43.010  27.886  33.460  1.00  0.00     0.031 C 
ATOM     38  C   UNL A   1      43.304  30.885  37.508  1.00  0.00     0.029 A 
ATOM     39  N   UNL A   1      41.544  31.118  36.149  1.00  0.00    -0.354 N 
ATOM     40  C   UNL A   1      41.178  28.880  32.506  1.00  0.00     0.074 A 
ATOM     41  C   UNL A   1      42.214  27.874  32.397  1.00  0.00     0.031 C 
ATOM     42  C   UNL A   1      42.496  31.805  38.054  1.00  0.00     0.029 A 
ATOM     43  C   UNL A   1      41.358  32.022  37.169  1.00  0.00     0.049 A 
ATOM     44  H   UNL A   1      40.909  31.006  35.406  1.00  0.00     0.167 HD
ATOM     45  C   UNL A   1      40.200  29.071  31.587  1.00  0.00     0.031 A 
ATOM     46  C   UNL A   1      40.403  32.953  37.364  1.00  0.00     0.031 A 
ATOM     47  C   UNL A   1      39.136  30.034  31.711  1.00  0.00     0.049 A 
ATOM     48  C   UNL A   1      39.317  33.126  36.345  1.00  0.00     0.074 A 
ATOM     49  C   UNL A   1      38.074  30.256  30.850  1.00  0.00     0.029 A 
ATOM     50  N   UNL A   1      38.990  30.925  32.761  1.00  0.00    -0.354 N 
ATOM     51  N   UNL A   1      39.131  32.472  35.224  1.00  0.00    -0.248 NA
ATOM     52  C   UNL A   1      38.321  34.173  36.612  1.00  0.00     0.031 C 
ATOM     53  C   UNL A   1      37.303  31.305  31.363  1.00  0.00     0.029 A 
ATOM     54  C   UNL A   1      37.865  31.709  32.562  1.00  0.00     0.049 A 
ATOM     55  H   UNL A   1      39.596  30.992  33.534  1.00  0.00     0.167 HD
ATOM     56  C   UNL A   1      38.000  33.036  34.647  1.00  0.00     0.074 A 
ATOM     57  C   UNL A   1      37.527  34.060  35.556  1.00  0.00     0.031 C 
ATOM     58  C   UNL A   1      37.415  32.738  33.461  1.00  0.00     0.031 A 
BRANCH  45  59
ATOM     59  C   UNL A   1      40.243  28.237  30.335  1.00  0.00    -0.014 A 
ATOM     60  C   UNL A   1      41.116  28.546  29.278  1.00  0.00     0.010 A 
ATOM     61  C   UNL A   1      39.444  27.081  30.250  1.00  0.00     0.010 A 
ATOM     62  C   UNL A   1      41.171  27.727  28.146  1.00  0.00     0.020 A 
ATOM     63  C   UNL A   1      39.511  26.249  29.129  1.00  0.00     0.020 A 
ATOM     64  C   UNL A   1      40.365  26.586  28.076  1.00  0.00     0.054 A 
BRANCH  64  65
ATOM     65  S   UNL A   1      40.482  25.517  26.615  1.00  0.00     0.124 S 
ATOM     66  O   UNL A   1      40.945  26.455  25.595  1.00  0.00    -0.237 OA
ATOM     67  O   UNL A   1      41.456  24.510  27.028  1.00  0.00    -0.237 OA
ATOM     68  O   UNL A   1      39.119  25.024  26.437  1.00  0.00    -0.744 OA
ENDBRANCH  64  65
ENDBRANCH  45  59
BRANCH  46  69
ATOM     69  C   UNL A   1      40.469  33.827  38.563  1.00  0.00    -0.014 A 
ATOM     70  C   UNL A   1      41.019  35.117  38.476  1.00  0.00     0.010 A 
ATOM     71  C   UNL A   1      39.943  33.383  39.790  1.00  0.00     0.010 A 
ATOM     72  C   UNL A   1      41.042  35.950  39.598  1.00  0.00     0.020 A 
ATOM     73  C   UNL A   1      39.942  34.223  40.907  1.00  0.00     0.020 A 
ATOM     74  C   UNL A   1      40.500  35.499  40.806  1.00  0.00     0.054 A 
BRANCH  74  75
ATOM     75  S   UNL A   1      40.456  36.619  42.232  1.00  0.00     0.124 S 
ATOM     76  O   UNL A   1      39.372  37.524  41.872  1.00  0.00    -0.237 OA
ATOM     77  O   UNL A   1      40.183  35.714  43.346  1.00  0.00    -0.237 OA
ATOM     78  O   UNL A   1      41.793  37.208  42.236  1.00  0.00    -0.744 OA
ENDBRANCH  74  75
ENDBRANCH  46  69
BRANCH  58  79
ATOM     79  C   UNL A   1      36.196  33.534  33.087  1.00  0.00    -0.014 A 
ATOM     80  C   UNL A   1      36.323  34.811  32.513  1.00  0.00     0.010 A 
ATOM     81  C   UNL A   1      34.915  33.000  33.306  1.00  0.00     0.010 A 
ATOM     82  C   UNL A   1      35.185  35.559  32.199  1.00  0.00     0.020 A 
ATOM     83  C   UNL A   1      33.775  33.738  32.976  1.00  0.00     0.020 A 
ATOM     84  C   UNL A   1      33.918  35.021  32.443  1.00  0.00     0.054 A 
BRANCH  84  85
ATOM     85  S   UNL A   1      32.450  36.001  32.024  1.00  0.00     0.124 S 
ATOM     86  O   UNL A   1      31.378  35.214  32.629  1.00  0.00    -0.237 OA
ATOM     87  O   UNL A   1      32.723  37.286  32.664  1.00  0.00    -0.237 OA
ATOM     88  O   UNL A   1      32.459  36.026  30.563  1.00  0.00    -0.744 OA
ENDBRANCH  84  85
ENDBRANCH  58  79
ENDBRANCH  32  33
ENDBRANCH  25  27
ENDBRANCH  24  25
ENDBRANCH  23  24
ENDBRANCH   1  23
TORSDOF 18
ENDMDL
