MODEL 1
REMARK VINA RESULT:     -11.8      0.000      0.000
REMARK SMILES O=C(OCCOC(=O)c1cccc2c1ccn2Cc1ccncc1)c1ccc(-c2c3nc(c(-c4ccc(S(=O)(=O)[O-])cc4)c4ccc([nH]4)c(-c4ccc(S(=O)(=O)[O-])cc4)c4nc(c(-c5ccc(S(=O)(=O)[O-])cc5)c5ccc2[nH]5)C=C4)C=C3)cc1
REMARK SMILES IDX 4 1 3 2 2 3 1 4 25 5 26 6 84 7 27 8 83 9 28 10 29 11 30 12
REMARK SMILES IDX 77 13 31 14 82 15 76 16 78 17 32 18 81 19 75 20 74 21 33 23
REMARK SMILES IDX 63 24 44 25 62 26 45 27 48 28 61 29 79 30 46 31 47 32 60 34
REMARK SMILES IDX 80 35 49 36 34 37 35 38 43 39 36 40 42 41 37 42 38 43 39 44
REMARK SMILES IDX 40 45 41 46 64 47 65 48 73 49 66 50 72 51 67 52 68 53 69 54
REMARK SMILES IDX 70 55 71 56 50 57 51 58 59 59 52 60 58 61 53 62 54 63 55 64
REMARK SMILES IDX 56 65 57 66 5 67 6 68 7 69 8 70 9 71 10 72 14 73 11 74 13 75
REMARK SMILES IDX 15 76 12 77 17 78 16 79 18 80 19 81 20 82 24 83 21 84 23 85
REMARK SMILES IDX 22 86
REMARK H PARENT 78 22 48 33
REMARK Flexibility Score: inf
ROOT
ATOM      1  C   UNL A   1      42.049  19.971  26.653  1.00  0.00     0.275 C 
ENDROOT
BRANCH   1   2
ATOM      2  O   UNL A   1      42.753  20.334  25.433  1.00  0.00    -0.458 OA
BRANCH   2   3
ATOM      3  C   UNL A   1      44.004  20.877  25.352  1.00  0.00     0.338 C 
ATOM      4  O   UNL A   1      45.018  20.196  25.272  1.00  0.00    -0.246 OA
BRANCH   3   5
ATOM      5  C   UNL A   1      44.090  22.333  25.538  1.00  0.00     0.060 A 
ATOM      6  C   UNL A   1      44.933  22.765  26.551  1.00  0.00     0.016 A 
ATOM      7  C   UNL A   1      43.144  23.188  24.964  1.00  0.00     0.016 A 
ATOM      8  C   UNL A   1      44.582  23.924  27.214  1.00  0.00     0.010 A 
ATOM      9  C   UNL A   1      42.798  24.355  25.635  1.00  0.00     0.010 A 
ATOM     10  C   UNL A   1      43.441  24.659  26.831  1.00  0.00    -0.014 A 
BRANCH  10  11
ATOM     11  C   UNL A   1      43.134  25.852  27.634  1.00  0.00     0.031 A 
ATOM     12  C   UNL A   1      44.235  26.843  27.546  1.00  0.00     0.074 A 
ATOM     13  C   UNL A   1      42.006  26.105  28.332  1.00  0.00     0.049 A 
ATOM     14  N   UNL A   1      44.967  27.315  28.502  1.00  0.00    -0.248 NA
ATOM     15  C   UNL A   1      44.727  27.145  26.185  1.00  0.00     0.031 C 
ATOM     16  C   UNL A   1      40.773  25.314  28.353  1.00  0.00     0.029 A 
ATOM     17  N   UNL A   1      41.677  27.198  29.094  1.00  0.00    -0.354 N 
ATOM     18  C   UNL A   1      45.895  28.126  27.862  1.00  0.00     0.074 A 
ATOM     19  C   UNL A   1      45.852  27.795  26.462  1.00  0.00     0.031 C 
ATOM     20  C   UNL A   1      39.771  26.059  28.870  1.00  0.00     0.029 A 
ATOM     21  C   UNL A   1      40.307  27.336  29.309  1.00  0.00     0.049 A 
ATOM     22  H   UNL A   1      42.346  27.825  29.455  1.00  0.00     0.167 HD
ATOM     23  C   UNL A   1      46.406  29.236  28.450  1.00  0.00     0.031 A 
ATOM     24  C   UNL A   1      39.643  28.449  29.713  1.00  0.00     0.031 A 
ATOM     25  C   UNL A   1      46.303  29.199  29.877  1.00  0.00     0.049 A 
ATOM     26  C   UNL A   1      40.610  29.348  30.380  1.00  0.00     0.074 A 
ATOM     27  C   UNL A   1      46.905  28.474  30.881  1.00  0.00     0.029 A 
ATOM     28  N   UNL A   1      45.175  29.775  30.401  1.00  0.00    -0.354 N 
ATOM     29  N   UNL A   1      41.159  29.099  31.533  1.00  0.00    -0.248 NA
ATOM     30  C   UNL A   1      41.221  30.426  29.614  1.00  0.00     0.031 C 
ATOM     31  C   UNL A   1      45.966  28.429  31.946  1.00  0.00     0.029 A 
ATOM     32  C   UNL A   1      44.833  29.158  31.577  1.00  0.00     0.049 A 
ATOM     33  H   UNL A   1      44.683  30.522  29.992  1.00  0.00     0.167 HD
ATOM     34  C   UNL A   1      42.408  29.682  31.453  1.00  0.00     0.074 A 
ATOM     35  C   UNL A   1      42.329  30.610  30.334  1.00  0.00     0.031 C 
ATOM     36  C   UNL A   1      43.477  29.139  32.099  1.00  0.00     0.031 A 
BRANCH  23  37
ATOM     37  C   UNL A   1      46.574  30.511  27.663  1.00  0.00    -0.014 A 
ATOM     38  C   UNL A   1      45.472  31.190  27.093  1.00  0.00     0.010 A 
ATOM     39  C   UNL A   1      47.804  31.189  27.670  1.00  0.00     0.010 A 
ATOM     40  C   UNL A   1      45.593  32.428  26.474  1.00  0.00     0.020 A 
ATOM     41  C   UNL A   1      47.927  32.466  27.096  1.00  0.00     0.020 A 
ATOM     42  C   UNL A   1      46.825  33.062  26.480  1.00  0.00     0.054 A 
BRANCH  42  43
ATOM     43  S   UNL A   1      46.917  34.697  25.719  1.00  0.00     0.124 S 
ATOM     44  O   UNL A   1      45.695  34.720  24.918  1.00  0.00    -0.237 OA
ATOM     45  O   UNL A   1      46.923  35.583  26.880  1.00  0.00    -0.237 OA
ATOM     46  O   UNL A   1      48.164  34.651  24.962  1.00  0.00    -0.744 OA
ENDBRANCH  42  43
ENDBRANCH  23  37
BRANCH  24  47
ATOM     47  C   UNL A   1      38.322  28.950  29.243  1.00  0.00    -0.014 A 
ATOM     48  C   UNL A   1      38.228  29.663  28.031  1.00  0.00     0.010 A 
ATOM     49  C   UNL A   1      37.226  29.022  30.129  1.00  0.00     0.010 A 
ATOM     50  C   UNL A   1      37.142  30.502  27.761  1.00  0.00     0.020 A 
ATOM     51  C   UNL A   1      36.136  29.870  29.870  1.00  0.00     0.020 A 
ATOM     52  C   UNL A   1      36.127  30.640  28.706  1.00  0.00     0.054 A 
BRANCH  52  53
ATOM     53  S   UNL A   1      34.874  31.924  28.429  1.00  0.00     0.124 S 
ATOM     54  O   UNL A   1      35.580  32.846  27.545  1.00  0.00    -0.237 OA
ATOM     55  O   UNL A   1      33.784  31.174  27.811  1.00  0.00    -0.237 OA
ATOM     56  O   UNL A   1      34.597  32.433  29.770  1.00  0.00    -0.744 OA
ENDBRANCH  52  53
ENDBRANCH  24  47
BRANCH  36  57
ATOM     57  C   UNL A   1      43.231  28.290  33.321  1.00  0.00    -0.014 A 
ATOM     58  C   UNL A   1      43.426  26.903  33.169  1.00  0.00     0.010 A 
ATOM     59  C   UNL A   1      42.698  28.765  34.533  1.00  0.00     0.010 A 
ATOM     60  C   UNL A   1      43.052  26.010  34.170  1.00  0.00     0.020 A 
ATOM     61  C   UNL A   1      42.348  27.871  35.559  1.00  0.00     0.020 A 
ATOM     62  C   UNL A   1      42.502  26.497  35.356  1.00  0.00     0.054 A 
BRANCH  62  63
ATOM     63  S   UNL A   1      41.977  25.291  36.603  1.00  0.00     0.124 S 
ATOM     64  O   UNL A   1      43.136  25.244  37.490  1.00  0.00    -0.237 OA
ATOM     65  O   UNL A   1      40.783  25.916  37.171  1.00  0.00    -0.237 OA
ATOM     66  O   UNL A   1      41.729  24.073  35.835  1.00  0.00    -0.744 OA
ENDBRANCH  62  63
ENDBRANCH  36  57
ENDBRANCH  10  11
ENDBRANCH   3   5
ENDBRANCH   2   3
ENDBRANCH   1   2
BRANCH   1  67
ATOM     67  C   UNL A   1      40.521  19.816  26.573  1.00  0.00     0.275 C 
BRANCH  67  68
ATOM     68  O   UNL A   1      39.893  20.813  25.773  1.00  0.00    -0.458 OA
BRANCH  68  69
ATOM     69  C   UNL A   1      38.657  20.538  25.284  1.00  0.00     0.338 C 
ATOM     70  O   UNL A   1      38.244  19.489  24.874  1.00  0.00    -0.246 OA
BRANCH  69  71
ATOM     71  C   UNL A   1      37.848  21.756  25.498  1.00  0.00     0.069 A 
ATOM     72  C   UNL A   1      38.421  22.947  25.960  1.00  0.00     0.016 A 
ATOM     73  C   UNL A   1      36.454  21.664  25.317  1.00  0.00     0.014 A 
ATOM     74  C   UNL A   1      37.608  24.045  26.243  1.00  0.00     0.003 A 
ATOM     75  C   UNL A   1      35.663  22.798  25.554  1.00  0.00     0.049 A 
ATOM     76  C   UNL A   1      35.575  20.597  24.986  1.00  0.00     0.029 A 
ATOM     77  C   UNL A   1      36.222  23.998  26.028  1.00  0.00     0.027 A 
ATOM     78  N   UNL A   1      34.369  22.445  25.223  1.00  0.00    -0.343 N 
ATOM     79  C   UNL A   1      34.295  21.086  25.023  1.00  0.00     0.087 A 
BRANCH  78  80
ATOM     80  C   UNL A   1      33.229  23.345  25.076  1.00  0.00     0.157 C 
BRANCH  80  81
ATOM     81  C   UNL A   1      33.312  24.133  23.786  1.00  0.00    -0.025 A 
ATOM     82  C   UNL A   1      33.566  25.512  23.790  1.00  0.00     0.025 A 
ATOM     83  C   UNL A   1      33.113  23.514  22.550  1.00  0.00     0.025 A 
ATOM     84  C   UNL A   1      33.578  26.203  22.590  1.00  0.00     0.111 A 
ATOM     85  C   UNL A   1      33.164  24.289  21.398  1.00  0.00     0.111 A 
ATOM     86  N   UNL A   1      33.399  25.619  21.389  1.00  0.00    -0.265 NA
ENDBRANCH  80  81
ENDBRANCH  78  80
ENDBRANCH  69  71
ENDBRANCH  68  69
ENDBRANCH  67  68
ENDBRANCH   1  67
TORSDOF 16
ENDMDL
MODEL 2
REMARK VINA RESULT:     -11.7      1.095      1.695
REMARK SMILES O=C(OCCOC(=O)c1cccc2c1ccn2Cc1ccncc1)c1ccc(-c2c3nc(c(-c4ccc(S(=O)(=O)[O-])cc4)c4ccc([nH]4)c(-c4ccc(S(=O)(=O)[O-])cc4)c4nc(c(-c5ccc(S(=O)(=O)[O-])cc5)c5ccc2[nH]5)C=C4)C=C3)cc1
REMARK SMILES IDX 4 1 3 2 2 3 1 4 25 5 26 6 84 7 27 8 83 9 28 10 29 11 30 12
REMARK SMILES IDX 77 13 31 14 82 15 76 16 78 17 32 18 81 19 75 20 74 21 33 23
REMARK SMILES IDX 63 24 44 25 62 26 45 27 48 28 61 29 79 30 46 31 47 32 60 34
REMARK SMILES IDX 80 35 49 36 34 37 35 38 43 39 36 40 42 41 37 42 38 43 39 44
REMARK SMILES IDX 40 45 41 46 64 47 65 48 73 49 66 50 72 51 67 52 68 53 69 54
REMARK SMILES IDX 70 55 71 56 50 57 51 58 59 59 52 60 58 61 53 62 54 63 55 64
REMARK SMILES IDX 56 65 57 66 5 67 6 68 7 69 8 70 9 71 10 72 14 73 11 74 13 75
REMARK SMILES IDX 15 76 12 77 17 78 16 79 18 80 19 81 20 82 24 83 21 84 23 85
REMARK SMILES IDX 22 86
REMARK H PARENT 78 22 48 33
REMARK Flexibility Score: inf
ROOT
ATOM      1  C   UNL A   1      42.478  19.869  25.915  1.00  0.00     0.275 C 
ENDROOT
BRANCH   1   2
ATOM      2  O   UNL A   1      43.764  20.546  25.857  1.00  0.00    -0.458 OA
BRANCH   2   3
ATOM      3  C   UNL A   1      44.161  21.449  24.911  1.00  0.00     0.338 C 
ATOM      4  O   UNL A   1      44.453  21.126  23.767  1.00  0.00    -0.246 OA
BRANCH   3   5
ATOM      5  C   UNL A   1      44.386  22.823  25.385  1.00  0.00     0.060 A 
ATOM      6  C   UNL A   1      44.874  22.945  26.678  1.00  0.00     0.016 A 
ATOM      7  C   UNL A   1      43.836  23.916  24.708  1.00  0.00     0.016 A 
ATOM      8  C   UNL A   1      44.485  24.056  27.398  1.00  0.00     0.010 A 
ATOM      9  C   UNL A   1      43.451  25.034  25.438  1.00  0.00     0.010 A 
ATOM     10  C   UNL A   1      43.671  25.048  26.813  1.00  0.00    -0.014 A 
BRANCH  10  11
ATOM     11  C   UNL A   1      43.278  26.166  27.683  1.00  0.00     0.031 A 
ATOM     12  C   UNL A   1      44.333  27.211  27.704  1.00  0.00     0.074 A 
ATOM     13  C   UNL A   1      42.116  26.318  28.352  1.00  0.00     0.049 A 
ATOM     14  N   UNL A   1      45.007  27.648  28.717  1.00  0.00    -0.248 NA
ATOM     15  C   UNL A   1      44.856  27.630  26.387  1.00  0.00     0.031 C 
ATOM     16  C   UNL A   1      40.923  25.472  28.273  1.00  0.00     0.029 A 
ATOM     17  N   UNL A   1      41.707  27.339  29.175  1.00  0.00    -0.354 N 
ATOM     18  C   UNL A   1      45.917  28.543  28.170  1.00  0.00     0.074 A 
ATOM     19  C   UNL A   1      45.939  28.310  26.751  1.00  0.00     0.031 C 
ATOM     20  C   UNL A   1      39.868  26.132  28.801  1.00  0.00     0.029 A 
ATOM     21  C   UNL A   1      40.327  27.399  29.346  1.00  0.00     0.049 A 
ATOM     22  H   UNL A   1      42.332  27.970  29.603  1.00  0.00     0.167 HD
ATOM     23  C   UNL A   1      46.352  29.633  28.852  1.00  0.00     0.031 A 
ATOM     24  C   UNL A   1      39.596  28.449  29.800  1.00  0.00     0.031 A 
ATOM     25  C   UNL A   1      46.202  29.491  30.268  1.00  0.00     0.049 A 
ATOM     26  C   UNL A   1      40.494  29.342  30.562  1.00  0.00     0.074 A 
ATOM     27  C   UNL A   1      46.802  28.726  31.242  1.00  0.00     0.029 A 
ATOM     28  N   UNL A   1      45.029  29.976  30.786  1.00  0.00    -0.354 N 
ATOM     29  N   UNL A   1      41.014  29.039  31.716  1.00  0.00    -0.248 NA
ATOM     30  C   UNL A   1      41.079  30.499  29.895  1.00  0.00     0.031 C 
ATOM     31  C   UNL A   1      45.830  28.564  32.265  1.00  0.00     0.029 A 
ATOM     32  C   UNL A   1      44.677  29.264  31.903  1.00  0.00     0.049 A 
ATOM     33  H   UNL A   1      44.516  30.727  30.411  1.00  0.00     0.167 HD
ATOM     34  C   UNL A   1      42.235  29.684  31.723  1.00  0.00     0.074 A 
ATOM     35  C   UNL A   1      42.150  30.682  30.668  1.00  0.00     0.031 C 
ATOM     36  C   UNL A   1      43.306  29.146  32.371  1.00  0.00     0.031 A 
BRANCH  23  37
ATOM     37  C   UNL A   1      46.485  30.966  28.161  1.00  0.00    -0.014 A 
ATOM     38  C   UNL A   1      47.707  31.399  27.597  1.00  0.00     0.010 A 
ATOM     39  C   UNL A   1      45.341  31.719  27.851  1.00  0.00     0.010 A 
ATOM     40  C   UNL A   1      47.817  32.564  26.850  1.00  0.00     0.020 A 
ATOM     41  C   UNL A   1      45.430  32.870  27.050  1.00  0.00     0.020 A 
ATOM     42  C   UNL A   1      46.672  33.297  26.579  1.00  0.00     0.054 A 
BRANCH  42  43
ATOM     43  S   UNL A   1      46.857  34.770  25.551  1.00  0.00     0.124 S 
ATOM     44  O   UNL A   1      48.209  34.596  25.026  1.00  0.00    -0.237 OA
ATOM     45  O   UNL A   1      45.779  34.609  24.577  1.00  0.00    -0.237 OA
ATOM     46  O   UNL A   1      46.685  35.869  26.496  1.00  0.00    -0.744 OA
ENDBRANCH  42  43
ENDBRANCH  23  37
BRANCH  24  47
ATOM     47  C   UNL A   1      38.269  28.920  29.314  1.00  0.00    -0.014 A 
ATOM     48  C   UNL A   1      38.137  29.439  28.011  1.00  0.00     0.010 A 
ATOM     49  C   UNL A   1      37.221  29.172  30.225  1.00  0.00     0.010 A 
ATOM     50  C   UNL A   1      37.065  30.266  27.659  1.00  0.00     0.020 A 
ATOM     51  C   UNL A   1      36.145  30.010  29.884  1.00  0.00     0.020 A 
ATOM     52  C   UNL A   1      36.103  30.588  28.615  1.00  0.00     0.054 A 
BRANCH  52  53
ATOM     53  S   UNL A   1      34.878  31.861  28.194  1.00  0.00     0.124 S 
ATOM     54  O   UNL A   1      35.695  32.838  27.480  1.00  0.00    -0.237 OA
ATOM     55  O   UNL A   1      33.925  31.121  27.371  1.00  0.00    -0.237 OA
ATOM     56  O   UNL A   1      34.372  32.297  29.492  1.00  0.00    -0.744 OA
ENDBRANCH  52  53
ENDBRANCH  24  47
BRANCH  36  57
ATOM     57  C   UNL A   1      43.059  28.203  33.522  1.00  0.00    -0.014 A 
ATOM     58  C   UNL A   1      42.663  28.789  34.739  1.00  0.00     0.010 A 
ATOM     59  C   UNL A   1      43.325  26.821  33.496  1.00  0.00     0.010 A 
ATOM     60  C   UNL A   1      42.588  28.038  35.910  1.00  0.00     0.020 A 
ATOM     61  C   UNL A   1      43.220  26.052  34.667  1.00  0.00     0.020 A 
ATOM     62  C   UNL A   1      42.880  26.675  35.871  1.00  0.00     0.054 A 
BRANCH  62  63
ATOM     63  S   UNL A   1      42.826  25.753  37.431  1.00  0.00     0.124 S 
ATOM     64  O   UNL A   1      43.349  26.731  38.382  1.00  0.00    -0.237 OA
ATOM     65  O   UNL A   1      41.404  25.446  37.574  1.00  0.00    -0.237 OA
ATOM     66  O   UNL A   1      43.685  24.597  37.189  1.00  0.00    -0.744 OA
ENDBRANCH  62  63
ENDBRANCH  36  57
ENDBRANCH  10  11
ENDBRANCH   3   5
ENDBRANCH   2   3
ENDBRANCH   1   2
BRANCH   1  67
ATOM     67  C   UNL A   1      41.710  19.916  27.247  1.00  0.00     0.275 C 
BRANCH  67  68
ATOM     68  O   UNL A   1      40.477  20.624  27.164  1.00  0.00    -0.458 OA
BRANCH  68  69
ATOM     69  C   UNL A   1      39.654  20.332  26.125  1.00  0.00     0.338 C 
ATOM     70  O   UNL A   1      39.533  19.283  25.555  1.00  0.00    -0.246 OA
BRANCH  69  71
ATOM     71  C   UNL A   1      38.805  21.524  25.922  1.00  0.00     0.069 A 
ATOM     72  C   UNL A   1      39.240  22.805  26.284  1.00  0.00     0.016 A 
ATOM     73  C   UNL A   1      37.495  21.329  25.441  1.00  0.00     0.014 A 
ATOM     74  C   UNL A   1      38.371  23.891  26.167  1.00  0.00     0.003 A 
ATOM     75  C   UNL A   1      36.660  22.444  25.280  1.00  0.00     0.049 A 
ATOM     76  C   UNL A   1      36.732  20.176  25.112  1.00  0.00     0.029 A 
ATOM     77  C   UNL A   1      37.077  23.735  25.648  1.00  0.00     0.027 A 
ATOM     78  N   UNL A   1      35.485  21.972  24.725  1.00  0.00    -0.343 N 
ATOM     79  C   UNL A   1      35.476  20.597  24.761  1.00  0.00     0.087 A 
BRANCH  78  80
ATOM     80  C   UNL A   1      34.404  22.772  24.158  1.00  0.00     0.157 C 
BRANCH  80  81
ATOM     81  C   UNL A   1      33.449  23.248  25.232  1.00  0.00    -0.025 A 
ATOM     82  C   UNL A   1      32.709  22.340  26.001  1.00  0.00     0.025 A 
ATOM     83  C   UNL A   1      33.257  24.610  25.472  1.00  0.00     0.025 A 
ATOM     84  C   UNL A   1      31.805  22.821  26.935  1.00  0.00     0.111 A 
ATOM     85  C   UNL A   1      32.342  24.995  26.444  1.00  0.00     0.111 A 
ATOM     86  N   UNL A   1      31.616  24.131  27.186  1.00  0.00    -0.265 NA
ENDBRANCH  80  81
ENDBRANCH  78  80
ENDBRANCH  69  71
ENDBRANCH  68  69
ENDBRANCH  67  68
ENDBRANCH   1  67
TORSDOF 16
ENDMDL
MODEL 3
REMARK VINA RESULT:     -11.3      3.545      6.257
REMARK SMILES O=C(OCCOC(=O)c1cccc2c1ccn2Cc1ccncc1)c1ccc(-c2c3nc(c(-c4ccc(S(=O)(=O)[O-])cc4)c4ccc([nH]4)c(-c4ccc(S(=O)(=O)[O-])cc4)c4nc(c(-c5ccc(S(=O)(=O)[O-])cc5)c5ccc2[nH]5)C=C4)C=C3)cc1
REMARK SMILES IDX 4 1 3 2 2 3 1 4 25 5 26 6 84 7 27 8 83 9 28 10 29 11 30 12
REMARK SMILES IDX 77 13 31 14 82 15 76 16 78 17 32 18 81 19 75 20 74 21 33 23
REMARK SMILES IDX 63 24 44 25 62 26 45 27 48 28 61 29 79 30 46 31 47 32 60 34
REMARK SMILES IDX 80 35 49 36 34 37 35 38 43 39 36 40 42 41 37 42 38 43 39 44
REMARK SMILES IDX 40 45 41 46 64 47 65 48 73 49 66 50 72 51 67 52 68 53 69 54
REMARK SMILES IDX 70 55 71 56 50 57 51 58 59 59 52 60 58 61 53 62 54 63 55 64
REMARK SMILES IDX 56 65 57 66 5 67 6 68 7 69 8 70 9 71 10 72 14 73 11 74 13 75
REMARK SMILES IDX 15 76 12 77 17 78 16 79 18 80 19 81 20 82 24 83 21 84 23 85
REMARK SMILES IDX 22 86
REMARK H PARENT 78 22 48 33
REMARK Flexibility Score: inf
ROOT
ATOM      1  C   UNL A   1      41.203  20.733  26.611  1.00  0.00     0.275 C 
ENDROOT
BRANCH   1   2
ATOM      2  O   UNL A   1      40.526  21.779  27.362  1.00  0.00    -0.458 OA
BRANCH   2   3
ATOM      3  C   UNL A   1      39.791  22.804  26.837  1.00  0.00     0.338 C 
ATOM      4  O   UNL A   1      38.848  22.622  26.077  1.00  0.00    -0.246 OA
BRANCH   3   5
ATOM      5  C   UNL A   1      40.296  24.160  27.097  1.00  0.00     0.060 A 
ATOM      6  C   UNL A   1      41.436  24.241  27.883  1.00  0.00     0.016 A 
ATOM      7  C   UNL A   1      39.500  25.283  26.851  1.00  0.00     0.016 A 
ATOM      8  C   UNL A   1      41.566  25.350  28.694  1.00  0.00     0.010 A 
ATOM      9  C   UNL A   1      39.639  26.398  27.669  1.00  0.00     0.010 A 
ATOM     10  C   UNL A   1      40.601  26.378  28.675  1.00  0.00    -0.014 A 
BRANCH  10  11
ATOM     11  C   UNL A   1      40.814  27.491  29.612  1.00  0.00     0.031 A 
ATOM     12  C   UNL A   1      41.933  28.354  29.158  1.00  0.00     0.074 A 
ATOM     13  C   UNL A   1      40.095  27.783  30.717  1.00  0.00     0.049 A 
ATOM     14  N   UNL A   1      43.041  28.618  29.772  1.00  0.00    -0.248 NA
ATOM     15  C   UNL A   1      41.902  28.762  27.738  1.00  0.00     0.031 C 
ATOM     16  C   UNL A   1      38.861  27.141  31.175  1.00  0.00     0.029 A 
ATOM     17  N   UNL A   1      40.258  28.806  31.620  1.00  0.00    -0.354 N 
ATOM     18  C   UNL A   1      43.762  29.390  28.871  1.00  0.00     0.074 A 
ATOM     19  C   UNL A   1      43.132  29.241  27.586  1.00  0.00     0.031 C 
ATOM     20  C   UNL A   1      38.263  27.927  32.098  1.00  0.00     0.029 A 
ATOM     21  C   UNL A   1      39.116  29.071  32.371  1.00  0.00     0.049 A 
ATOM     22  H   UNL A   1      41.101  29.303  31.725  1.00  0.00     0.167 HD
ATOM     23  C   UNL A   1      44.623  30.355  29.280  1.00  0.00     0.031 A 
ATOM     24  C   UNL A   1      38.838  30.195  33.081  1.00  0.00     0.031 A 
ATOM     25  C   UNL A   1      45.075  30.155  30.623  1.00  0.00     0.049 A 
ATOM     26  C   UNL A   1      40.112  30.889  33.365  1.00  0.00     0.074 A 
ATOM     27  C   UNL A   1      45.899  29.248  31.252  1.00  0.00     0.029 A 
ATOM     28  N   UNL A   1      44.339  30.787  31.591  1.00  0.00    -0.354 N 
ATOM     29  N   UNL A   1      41.019  30.440  34.184  1.00  0.00    -0.248 NA
ATOM     30  C   UNL A   1      40.538  31.976  32.494  1.00  0.00     0.031 C 
ATOM     31  C   UNL A   1      45.448  29.181  32.598  1.00  0.00     0.029 A 
ATOM     32  C   UNL A   1      44.387  30.074  32.761  1.00  0.00     0.049 A 
ATOM     33  H   UNL A   1      43.848  31.630  31.465  1.00  0.00     0.167 HD
ATOM     34  C   UNL A   1      42.213  30.883  33.651  1.00  0.00     0.074 A 
ATOM     35  C   UNL A   1      41.852  31.943  32.722  1.00  0.00     0.031 C 
ATOM     36  C   UNL A   1      43.352  30.146  33.779  1.00  0.00     0.031 A 
BRANCH  23  37
ATOM     37  C   UNL A   1      44.668  31.689  28.580  1.00  0.00    -0.014 A 
ATOM     38  C   UNL A   1      43.688  32.684  28.800  1.00  0.00     0.010 A 
ATOM     39  C   UNL A   1      45.813  32.074  27.863  1.00  0.00     0.010 A 
ATOM     40  C   UNL A   1      43.780  33.960  28.261  1.00  0.00     0.020 A 
ATOM     41  C   UNL A   1      45.944  33.379  27.359  1.00  0.00     0.020 A 
ATOM     42  C   UNL A   1      44.914  34.302  27.541  1.00  0.00     0.054 A 
BRANCH  42  43
ATOM     43  S   UNL A   1      45.017  35.993  26.915  1.00  0.00     0.124 S 
ATOM     44  O   UNL A   1      43.637  36.240  26.502  1.00  0.00    -0.237 OA
ATOM     45  O   UNL A   1      45.462  36.736  28.091  1.00  0.00    -0.237 OA
ATOM     46  O   UNL A   1      45.990  35.898  25.832  1.00  0.00    -0.744 OA
ENDBRANCH  42  43
ENDBRANCH  23  37
BRANCH  24  47
ATOM     47  C   UNL A   1      37.531  30.897  33.212  1.00  0.00    -0.014 A 
ATOM     48  C   UNL A   1      36.564  30.784  32.194  1.00  0.00     0.010 A 
ATOM     49  C   UNL A   1      37.365  31.930  34.158  1.00  0.00     0.010 A 
ATOM     50  C   UNL A   1      35.539  31.725  32.054  1.00  0.00     0.020 A 
ATOM     51  C   UNL A   1      36.343  32.886  34.020  1.00  0.00     0.020 A 
ATOM     52  C   UNL A   1      35.466  32.800  32.939  1.00  0.00     0.054 A 
BRANCH  52  53
ATOM     53  S   UNL A   1      34.284  34.128  32.570  1.00  0.00     0.124 S 
ATOM     54  O   UNL A   1      34.971  35.299  33.107  1.00  0.00    -0.237 OA
ATOM     55  O   UNL A   1      34.189  34.071  31.113  1.00  0.00    -0.237 OA
ATOM     56  O   UNL A   1      33.077  33.727  33.288  1.00  0.00    -0.744 OA
ENDBRANCH  52  53
ENDBRANCH  24  47
BRANCH  36  57
ATOM     57  C   UNL A   1      43.469  29.187  34.937  1.00  0.00    -0.014 A 
ATOM     58  C   UNL A   1      44.360  29.552  35.965  1.00  0.00     0.010 A 
ATOM     59  C   UNL A   1      42.866  27.917  34.989  1.00  0.00     0.010 A 
ATOM     60  C   UNL A   1      44.685  28.661  36.986  1.00  0.00     0.020 A 
ATOM     61  C   UNL A   1      43.166  27.026  36.033  1.00  0.00     0.020 A 
ATOM     62  C   UNL A   1      44.096  27.397  37.008  1.00  0.00     0.054 A 
BRANCH  62  63
ATOM     63  S   UNL A   1      44.597  26.254  38.322  1.00  0.00     0.124 S 
ATOM     64  O   UNL A   1      46.021  26.551  38.460  1.00  0.00    -0.237 OA
ATOM     65  O   UNL A   1      43.763  26.672  39.448  1.00  0.00    -0.237 OA
ATOM     66  O   UNL A   1      44.285  24.933  37.781  1.00  0.00    -0.744 OA
ENDBRANCH  62  63
ENDBRANCH  36  57
ENDBRANCH  10  11
ENDBRANCH   3   5
ENDBRANCH   2   3
ENDBRANCH   1   2
BRANCH   1  67
ATOM     67  C   UNL A   1      42.594  21.055  26.039  1.00  0.00     0.275 C 
BRANCH  67  68
ATOM     68  O   UNL A   1      42.573  22.068  25.038  1.00  0.00    -0.458 OA
BRANCH  68  69
ATOM     69  C   UNL A   1      43.766  22.565  24.622  1.00  0.00     0.338 C 
ATOM     70  O   UNL A   1      44.537  22.072  23.846  1.00  0.00    -0.246 OA
BRANCH  69  71
ATOM     71  C   UNL A   1      43.870  23.924  25.194  1.00  0.00     0.069 A 
ATOM     72  C   UNL A   1      43.015  24.957  24.791  1.00  0.00     0.016 A 
ATOM     73  C   UNL A   1      44.923  24.184  26.092  1.00  0.00     0.014 A 
ATOM     74  C   UNL A   1      43.209  26.249  25.281  1.00  0.00     0.003 A 
ATOM     75  C   UNL A   1      45.064  25.478  26.615  1.00  0.00     0.049 A 
ATOM     76  C   UNL A   1      46.003  23.406  26.590  1.00  0.00     0.029 A 
ATOM     77  C   UNL A   1      44.220  26.529  26.212  1.00  0.00     0.027 A 
ATOM     78  N   UNL A   1      46.111  25.421  27.515  1.00  0.00    -0.343 N 
ATOM     79  C   UNL A   1      46.765  24.218  27.390  1.00  0.00     0.087 A 
BRANCH  78  80
ATOM     80  C   UNL A   1      46.487  26.448  28.481  1.00  0.00     0.157 C 
BRANCH  80  81
ATOM     81  C   UNL A   1      46.138  26.029  29.894  1.00  0.00    -0.025 A 
ATOM     82  C   UNL A   1      44.822  25.706  30.252  1.00  0.00     0.025 A 
ATOM     83  C   UNL A   1      47.113  25.977  30.892  1.00  0.00     0.025 A 
ATOM     84  C   UNL A   1      44.537  25.382  31.569  1.00  0.00     0.111 A 
ATOM     85  C   UNL A   1      46.734  25.622  32.181  1.00  0.00     0.111 A 
ATOM     86  N   UNL A   1      45.469  25.316  32.541  1.00  0.00    -0.265 NA
ENDBRANCH  80  81
ENDBRANCH  78  80
ENDBRANCH  69  71
ENDBRANCH  68  69
ENDBRANCH  67  68
ENDBRANCH   1  67
TORSDOF 16
ENDMDL
