MODEL 1
REMARK VINA RESULT:     -10.5      0.000      0.000
REMARK SMILES O=C(OCCOC(=O)[C@H]1C[C@H]2CCCC[C@@H]2[N@@H+]1CC[C@@H]1CCCO1)c1ccc(-c2c3nc(c(-c4ccc(S(=O)(=O)[O-])cc4)c4ccc([nH]4)c(-c4ccc(S(=O)(=O)[O-])cc4)c4nc(c(-c5ccc(S(=O)(=O)[O-])cc5)c5ccc2[nH]5)C=C4)C=C3)cc1
REMARK SMILES IDX 4 1 3 2 2 3 1 4 25 5 26 6 84 7 27 8 83 9 28 10 29 11 30 12
REMARK SMILES IDX 77 13 31 14 82 15 76 16 78 17 32 18 81 19 75 20 74 21 33 23
REMARK SMILES IDX 63 24 44 25 62 26 45 27 48 28 61 29 79 30 46 31 47 32 60 34
REMARK SMILES IDX 80 35 49 36 34 37 35 38 43 39 36 40 42 41 37 42 38 43 39 44
REMARK SMILES IDX 40 45 41 46 64 47 65 48 73 49 66 50 72 51 67 52 68 53 69 54
REMARK SMILES IDX 70 55 71 56 50 57 51 58 59 59 52 60 58 61 53 62 54 63 55 64
REMARK SMILES IDX 56 65 57 66 5 67 6 68 7 69 8 70 9 71 10 72 17 73 11 74 16 75
REMARK SMILES IDX 12 77 15 78 13 79 14 80 18 81 19 82 20 83 21 84 24 85 22 86
REMARK SMILES IDX 23 87
REMARK H PARENT 78 22 48 33 17 76
REMARK Flexibility Score: inf
ROOT
ATOM      1  C   UNL A   1      36.491  22.159  25.546  1.00  0.00     0.275 C 
ENDROOT
BRANCH   1   2
ATOM      2  O   UNL A   1      37.809  22.674  25.307  1.00  0.00    -0.458 OA
BRANCH   2   3
ATOM      3  C   UNL A   1      38.849  22.823  26.162  1.00  0.00     0.338 C 
ATOM      4  O   UNL A   1      39.525  21.832  26.441  1.00  0.00    -0.246 OA
BRANCH   3   5
ATOM      5  C   UNL A   1      39.162  24.109  26.862  1.00  0.00     0.060 A 
ATOM      6  C   UNL A   1      38.774  24.463  28.159  1.00  0.00     0.016 A 
ATOM      7  C   UNL A   1      39.935  25.033  26.141  1.00  0.00     0.016 A 
ATOM      8  C   UNL A   1      39.245  25.623  28.773  1.00  0.00     0.010 A 
ATOM      9  C   UNL A   1      40.384  26.213  26.738  1.00  0.00     0.010 A 
ATOM     10  C   UNL A   1      40.072  26.495  28.076  1.00  0.00    -0.014 A 
BRANCH  10  11
ATOM     11  C   UNL A   1      40.493  27.764  28.709  1.00  0.00     0.031 A 
ATOM     12  C   UNL A   1      41.884  27.823  29.262  1.00  0.00     0.074 A 
ATOM     13  C   UNL A   1      39.676  28.836  28.751  1.00  0.00     0.049 A 
ATOM     14  N   UNL A   1      42.498  28.820  29.836  1.00  0.00    -0.248 NA
ATOM     15  C   UNL A   1      42.699  26.603  29.127  1.00  0.00     0.031 C 
ATOM     16  C   UNL A   1      38.330  28.916  28.176  1.00  0.00     0.029 A 
ATOM     17  N   UNL A   1      39.849  30.070  29.330  1.00  0.00    -0.354 N 
ATOM     18  C   UNL A   1      43.780  28.357  30.095  1.00  0.00     0.074 A 
ATOM     19  C   UNL A   1      43.830  26.968  29.705  1.00  0.00     0.031 C 
ATOM     20  C   UNL A   1      37.774  30.098  28.495  1.00  0.00     0.029 A 
ATOM     21  C   UNL A   1      38.735  30.877  29.267  1.00  0.00     0.049 A 
ATOM     22  H   UNL A   1      40.693  30.352  29.751  1.00  0.00     0.167 HD
ATOM     23  C   UNL A   1      44.841  29.047  30.566  1.00  0.00     0.031 A 
ATOM     24  C   UNL A   1      38.521  32.108  29.773  1.00  0.00     0.031 A 
ATOM     25  C   UNL A   1      44.772  30.421  30.970  1.00  0.00     0.049 A 
ATOM     26  C   UNL A   1      39.682  32.811  30.430  1.00  0.00     0.074 A 
ATOM     27  C   UNL A   1      45.777  31.224  31.470  1.00  0.00     0.029 A 
ATOM     28  N   UNL A   1      43.618  31.190  30.928  1.00  0.00    -0.354 N 
ATOM     29  N   UNL A   1      40.909  32.380  30.609  1.00  0.00    -0.248 NA
ATOM     30  C   UNL A   1      39.447  34.180  30.907  1.00  0.00     0.031 C 
ATOM     31  C   UNL A   1      45.216  32.465  31.784  1.00  0.00     0.029 A 
ATOM     32  C   UNL A   1      43.877  32.453  31.421  1.00  0.00     0.049 A 
ATOM     33  H   UNL A   1      42.744  30.880  30.596  1.00  0.00     0.167 HD
ATOM     34  C   UNL A   1      41.607  33.444  31.165  1.00  0.00     0.074 A 
ATOM     35  C   UNL A   1      40.664  34.537  31.294  1.00  0.00     0.031 C 
ATOM     36  C   UNL A   1      42.912  33.520  31.525  1.00  0.00     0.031 A 
BRANCH  23  37
ATOM     37  C   UNL A   1      46.141  28.302  30.660  1.00  0.00    -0.014 A 
ATOM     38  C   UNL A   1      47.056  28.313  29.589  1.00  0.00     0.010 A 
ATOM     39  C   UNL A   1      46.438  27.552  31.810  1.00  0.00     0.010 A 
ATOM     40  C   UNL A   1      48.221  27.548  29.646  1.00  0.00     0.020 A 
ATOM     41  C   UNL A   1      47.619  26.808  31.883  1.00  0.00     0.020 A 
ATOM     42  C   UNL A   1      48.493  26.797  30.792  1.00  0.00     0.054 A 
BRANCH  42  43
ATOM     43  S   UNL A   1      50.020  25.819  30.847  1.00  0.00     0.124 S 
ATOM     44  O   UNL A   1      51.037  26.860  30.991  1.00  0.00    -0.237 OA
ATOM     45  O   UNL A   1      49.816  24.978  32.026  1.00  0.00    -0.237 OA
ATOM     46  O   UNL A   1      50.026  25.113  29.574  1.00  0.00    -0.744 OA
ENDBRANCH  42  43
ENDBRANCH  23  37
BRANCH  24  47
ATOM     47  C   UNL A   1      37.190  32.771  29.658  1.00  0.00    -0.014 A 
ATOM     48  C   UNL A   1      36.777  33.365  28.451  1.00  0.00     0.010 A 
ATOM     49  C   UNL A   1      36.340  32.856  30.778  1.00  0.00     0.010 A 
ATOM     50  C   UNL A   1      35.569  34.067  28.378  1.00  0.00     0.020 A 
ATOM     51  C   UNL A   1      35.120  33.537  30.702  1.00  0.00     0.020 A 
ATOM     52  C   UNL A   1      34.749  34.154  29.506  1.00  0.00     0.054 A 
BRANCH  52  53
ATOM     53  S   UNL A   1      33.188  35.072  29.384  1.00  0.00     0.124 S 
ATOM     54  O   UNL A   1      32.645  34.932  30.732  1.00  0.00    -0.237 OA
ATOM     55  O   UNL A   1      33.640  36.412  29.018  1.00  0.00    -0.237 OA
ATOM     56  O   UNL A   1      32.455  34.363  28.338  1.00  0.00    -0.744 OA
ENDBRANCH  52  53
ENDBRANCH  24  47
BRANCH  36  57
ATOM     57  C   UNL A   1      43.407  34.839  32.048  1.00  0.00    -0.014 A 
ATOM     58  C   UNL A   1      43.893  35.831  31.180  1.00  0.00     0.010 A 
ATOM     59  C   UNL A   1      43.309  35.113  33.425  1.00  0.00     0.010 A 
ATOM     60  C   UNL A   1      44.297  37.068  31.685  1.00  0.00     0.020 A 
ATOM     61  C   UNL A   1      43.680  36.360  33.928  1.00  0.00     0.020 A 
ATOM     62  C   UNL A   1      44.184  37.326  33.055  1.00  0.00     0.054 A 
BRANCH  62  63
ATOM     63  S   UNL A   1      44.654  38.962  33.675  1.00  0.00     0.124 S 
ATOM     64  O   UNL A   1      43.810  39.090  34.860  1.00  0.00    -0.237 OA
ATOM     65  O   UNL A   1      46.083  38.806  33.934  1.00  0.00    -0.237 OA
ATOM     66  O   UNL A   1      44.320  39.861  32.572  1.00  0.00    -0.744 OA
ENDBRANCH  62  63
ENDBRANCH  36  57
ENDBRANCH  10  11
ENDBRANCH   3   5
ENDBRANCH   2   3
ENDBRANCH   1   2
BRANCH   1  67
ATOM     67  C   UNL A   1      35.437  23.187  25.981  1.00  0.00     0.274 C 
BRANCH  67  68
ATOM     68  O   UNL A   1      34.176  23.158  25.283  1.00  0.00    -0.458 OA
BRANCH  68  69
ATOM     69  C   UNL A   1      33.148  23.785  25.934  1.00  0.00     0.365 C 
ATOM     70  O   UNL A   1      32.843  23.529  27.096  1.00  0.00    -0.245 OA
BRANCH  69  71
ATOM     71  C   UNL A   1      32.358  24.759  25.011  1.00  0.00     0.295 C 
ATOM     72  C   UNL A   1      31.290  25.423  25.911  1.00  0.00     0.087 C 
ATOM     73  N   UNL A   1      33.221  25.876  24.519  1.00  0.00    -0.320 N 
ATOM     74  C   UNL A   1      31.747  26.871  26.024  1.00  0.00     0.054 C 
ATOM     75  C   UNL A   1      33.210  26.847  25.611  1.00  0.00     0.188 C 
ATOM     76  H   UNL A   1      34.159  25.532  24.314  1.00  0.00     0.349 HD
ATOM     77  C   UNL A   1      31.597  27.611  27.337  1.00  0.00     0.010 C 
ATOM     78  C   UNL A   1      33.827  28.227  25.410  1.00  0.00     0.065 C 
ATOM     79  C   UNL A   1      32.108  29.049  27.150  1.00  0.00     0.001 C 
ATOM     80  C   UNL A   1      33.547  29.132  26.614  1.00  0.00     0.006 C 
BRANCH  73  81
ATOM     81  C   UNL A   1      32.912  26.431  23.178  1.00  0.00     0.265 C 
BRANCH  81  82
ATOM     82  C   UNL A   1      31.499  26.582  22.573  1.00  0.00     0.093 C 
BRANCH  82  83
ATOM     83  C   UNL A   1      30.607  27.781  22.940  1.00  0.00     0.123 C 
ATOM     84  C   UNL A   1      29.202  27.460  23.436  1.00  0.00     0.034 C 
ATOM     85  O   UNL A   1      30.406  28.718  21.889  1.00  0.00    -0.378 OA
ATOM     86  C   UNL A   1      28.362  28.654  23.008  1.00  0.00     0.031 C 
ATOM     87  C   UNL A   1      29.325  29.561  22.279  1.00  0.00     0.160 C 
ENDBRANCH  82  83
ENDBRANCH  81  82
ENDBRANCH  73  81
ENDBRANCH  69  71
ENDBRANCH  68  69
ENDBRANCH  67  68
ENDBRANCH   1  67
TORSDOF 17
ENDMDL
MODEL 2
REMARK VINA RESULT:     -10.4      2.622      9.290
REMARK SMILES O=C(OCCOC(=O)[C@H]1C[C@H]2CCCC[C@@H]2[N@@H+]1CC[C@@H]1CCCO1)c1ccc(-c2c3nc(c(-c4ccc(S(=O)(=O)[O-])cc4)c4ccc([nH]4)c(-c4ccc(S(=O)(=O)[O-])cc4)c4nc(c(-c5ccc(S(=O)(=O)[O-])cc5)c5ccc2[nH]5)C=C4)C=C3)cc1
REMARK SMILES IDX 4 1 3 2 2 3 1 4 25 5 26 6 84 7 27 8 83 9 28 10 29 11 30 12
REMARK SMILES IDX 77 13 31 14 82 15 76 16 78 17 32 18 81 19 75 20 74 21 33 23
REMARK SMILES IDX 63 24 44 25 62 26 45 27 48 28 61 29 79 30 46 31 47 32 60 34
REMARK SMILES IDX 80 35 49 36 34 37 35 38 43 39 36 40 42 41 37 42 38 43 39 44
REMARK SMILES IDX 40 45 41 46 64 47 65 48 73 49 66 50 72 51 67 52 68 53 69 54
REMARK SMILES IDX 70 55 71 56 50 57 51 58 59 59 52 60 58 61 53 62 54 63 55 64
REMARK SMILES IDX 56 65 57 66 5 67 6 68 7 69 8 70 9 71 10 72 17 73 11 74 16 75
REMARK SMILES IDX 12 77 15 78 13 79 14 80 18 81 19 82 20 83 21 84 24 85 22 86
REMARK SMILES IDX 23 87
REMARK H PARENT 78 22 48 33 17 76
REMARK Flexibility Score: inf
ROOT
ATOM      1  C   UNL A   1      32.539  30.724  26.603  1.00  0.00     0.275 C 
ENDROOT
BRANCH   1   2
ATOM      2  O   UNL A   1      33.911  30.402  26.871  1.00  0.00    -0.458 OA
BRANCH   2   3
ATOM      3  C   UNL A   1      34.693  30.748  27.922  1.00  0.00     0.338 C 
ATOM      4  O   UNL A   1      34.287  31.620  28.691  1.00  0.00    -0.246 OA
BRANCH   3   5
ATOM      5  C   UNL A   1      36.065  30.194  28.145  1.00  0.00     0.060 A 
ATOM      6  C   UNL A   1      37.090  30.111  27.196  1.00  0.00     0.016 A 
ATOM      7  C   UNL A   1      36.343  29.733  29.441  1.00  0.00     0.016 A 
ATOM      8  C   UNL A   1      38.381  29.717  27.544  1.00  0.00     0.010 A 
ATOM      9  C   UNL A   1      37.627  29.307  29.791  1.00  0.00     0.010 A 
ATOM     10  C   UNL A   1      38.666  29.335  28.850  1.00  0.00    -0.014 A 
BRANCH  10  11
ATOM     11  C   UNL A   1      40.017  28.836  29.186  1.00  0.00     0.031 A 
ATOM     12  C   UNL A   1      40.945  29.789  29.874  1.00  0.00     0.074 A 
ATOM     13  C   UNL A   1      40.387  27.566  28.922  1.00  0.00     0.049 A 
ATOM     14  N   UNL A   1      42.163  29.591  30.296  1.00  0.00    -0.248 NA
ATOM     15  C   UNL A   1      40.421  31.140  30.144  1.00  0.00     0.031 C 
ATOM     16  C   UNL A   1      39.538  26.530  28.326  1.00  0.00     0.029 A 
ATOM     17  N   UNL A   1      41.590  26.930  29.101  1.00  0.00    -0.354 N 
ATOM     18  C   UNL A   1      42.532  30.777  30.913  1.00  0.00     0.074 A 
ATOM     19  C   UNL A   1      41.454  31.719  30.729  1.00  0.00     0.031 C 
ATOM     20  C   UNL A   1      40.266  25.417  28.119  1.00  0.00     0.029 A 
ATOM     21  C   UNL A   1      41.623  25.647  28.600  1.00  0.00     0.049 A 
ATOM     22  H   UNL A   1      42.360  27.351  29.547  1.00  0.00     0.167 HD
ATOM     23  C   UNL A   1      43.653  31.040  31.620  1.00  0.00     0.031 A 
ATOM     24  C   UNL A   1      42.637  24.761  28.542  1.00  0.00     0.031 A 
ATOM     25  C   UNL A   1      44.726  30.102  31.775  1.00  0.00     0.049 A 
ATOM     26  C   UNL A   1      43.936  25.130  29.212  1.00  0.00     0.074 A 
ATOM     27  C   UNL A   1      45.913  30.257  32.461  1.00  0.00     0.029 A 
ATOM     28  N   UNL A   1      44.738  28.831  31.220  1.00  0.00    -0.354 N 
ATOM     29  N   UNL A   1      44.246  26.236  29.848  1.00  0.00    -0.248 NA
ATOM     30  C   UNL A   1      45.001  24.119  29.202  1.00  0.00     0.031 C 
ATOM     31  C   UNL A   1      46.670  29.097  32.273  1.00  0.00     0.029 A 
ATOM     32  C   UNL A   1      45.927  28.197  31.523  1.00  0.00     0.049 A 
ATOM     33  H   UNL A   1      44.007  28.439  30.689  1.00  0.00     0.167 HD
ATOM     34  C   UNL A   1      45.520  26.031  30.364  1.00  0.00     0.074 A 
ATOM     35  C   UNL A   1      45.921  24.697  29.963  1.00  0.00     0.031 C 
ATOM     36  C   UNL A   1      46.286  26.862  31.113  1.00  0.00     0.031 A 
BRANCH  23  37
ATOM     37  C   UNL A   1      43.744  32.397  32.257  1.00  0.00    -0.014 A 
ATOM     38  C   UNL A   1      43.266  32.611  33.565  1.00  0.00     0.010 A 
ATOM     39  C   UNL A   1      44.275  33.477  31.534  1.00  0.00     0.010 A 
ATOM     40  C   UNL A   1      43.272  33.891  34.119  1.00  0.00     0.020 A 
ATOM     41  C   UNL A   1      44.309  34.756  32.097  1.00  0.00     0.020 A 
ATOM     42  C   UNL A   1      43.791  34.957  33.379  1.00  0.00     0.054 A 
BRANCH  42  43
ATOM     43  S   UNL A   1      43.797  36.610  34.126  1.00  0.00     0.124 S 
ATOM     44  O   UNL A   1      43.229  37.425  33.054  1.00  0.00    -0.237 OA
ATOM     45  O   UNL A   1      42.940  36.432  35.297  1.00  0.00    -0.237 OA
ATOM     46  O   UNL A   1      45.204  36.854  34.417  1.00  0.00    -0.744 OA
ENDBRANCH  42  43
ENDBRANCH  23  37
BRANCH  24  47
ATOM     47  C   UNL A   1      42.472  23.440  27.867  1.00  0.00    -0.014 A 
ATOM     48  C   UNL A   1      41.965  22.328  28.565  1.00  0.00     0.010 A 
ATOM     49  C   UNL A   1      42.871  23.273  26.527  1.00  0.00     0.010 A 
ATOM     50  C   UNL A   1      41.902  21.071  27.954  1.00  0.00     0.020 A 
ATOM     51  C   UNL A   1      42.787  22.022  25.905  1.00  0.00     0.020 A 
ATOM     52  C   UNL A   1      42.319  20.924  26.629  1.00  0.00     0.054 A 
BRANCH  52  53
ATOM     53  S   UNL A   1      42.228  19.281  25.861  1.00  0.00     0.124 S 
ATOM     54  O   UNL A   1      40.801  19.153  25.581  1.00  0.00    -0.237 OA
ATOM     55  O   UNL A   1      43.093  19.432  24.694  1.00  0.00    -0.237 OA
ATOM     56  O   UNL A   1      42.744  18.390  26.899  1.00  0.00    -0.744 OA
ENDBRANCH  52  53
ENDBRANCH  24  47
BRANCH  36  57
ATOM     57  C   UNL A   1      47.612  26.337  31.587  1.00  0.00    -0.014 A 
ATOM     58  C   UNL A   1      47.731  25.652  32.807  1.00  0.00     0.010 A 
ATOM     59  C   UNL A   1      48.740  26.467  30.754  1.00  0.00     0.010 A 
ATOM     60  C   UNL A   1      48.964  25.127  33.199  1.00  0.00     0.020 A 
ATOM     61  C   UNL A   1      49.964  25.913  31.127  1.00  0.00     0.020 A 
ATOM     62  C   UNL A   1      50.071  25.257  32.355  1.00  0.00     0.054 A 
BRANCH  62  63
ATOM     63  S   UNL A   1      51.643  24.510  32.859  1.00  0.00     0.124 S 
ATOM     64  O   UNL A   1      51.293  23.093  32.934  1.00  0.00    -0.237 OA
ATOM     65  O   UNL A   1      52.537  24.879  31.764  1.00  0.00    -0.237 OA
ATOM     66  O   UNL A   1      51.937  25.149  34.139  1.00  0.00    -0.744 OA
ENDBRANCH  62  63
ENDBRANCH  36  57
ENDBRANCH  10  11
ENDBRANCH   3   5
ENDBRANCH   2   3
ENDBRANCH   1   2
BRANCH   1  67
ATOM     67  C   UNL A   1      31.513  29.633  26.940  1.00  0.00     0.274 C 
BRANCH  67  68
ATOM     68  O   UNL A   1      32.035  28.370  27.399  1.00  0.00    -0.458 OA
BRANCH  68  69
ATOM     69  C   UNL A   1      31.733  27.302  26.598  1.00  0.00     0.365 C 
ATOM     70  O   UNL A   1      31.438  26.197  27.048  1.00  0.00    -0.245 OA
BRANCH  69  71
ATOM     71  C   UNL A   1      31.914  27.616  25.084  1.00  0.00     0.295 C 
ATOM     72  C   UNL A   1      33.368  27.221  24.740  1.00  0.00     0.087 C 
ATOM     73  N   UNL A   1      31.047  26.744  24.232  1.00  0.00    -0.320 N 
ATOM     74  C   UNL A   1      33.220  25.997  23.845  1.00  0.00     0.054 C 
ATOM     75  C   UNL A   1      31.805  25.502  24.100  1.00  0.00     0.188 C 
ATOM     76  H   UNL A   1      30.142  26.602  24.681  1.00  0.00     0.349 HD
ATOM     77  C   UNL A   1      34.197  24.846  23.969  1.00  0.00     0.010 C 
ATOM     78  C   UNL A   1      31.335  24.421  23.133  1.00  0.00     0.065 C 
ATOM     79  C   UNL A   1      33.825  23.775  22.931  1.00  0.00     0.001 C 
ATOM     80  C   UNL A   1      32.368  23.295  23.028  1.00  0.00     0.006 C 
BRANCH  73  81
ATOM     81  C   UNL A   1      30.553  27.320  22.957  1.00  0.00     0.265 C 
BRANCH  81  82
ATOM     82  C   UNL A   1      29.257  28.142  22.785  1.00  0.00     0.093 C 
BRANCH  82  83
ATOM     83  C   UNL A   1      29.308  29.612  22.330  1.00  0.00     0.123 C 
ATOM     84  C   UNL A   1      29.021  30.666  23.394  1.00  0.00     0.034 C 
ATOM     85  O   UNL A   1      28.426  29.936  21.264  1.00  0.00    -0.378 OA
ATOM     86  C   UNL A   1      28.408  31.827  22.627  1.00  0.00     0.031 C 
ATOM     87  C   UNL A   1      28.359  31.357  21.192  1.00  0.00     0.160 C 
ENDBRANCH  82  83
ENDBRANCH  81  82
ENDBRANCH  73  81
ENDBRANCH  69  71
ENDBRANCH  68  69
ENDBRANCH  67  68
ENDBRANCH   1  67
TORSDOF 17
ENDMDL
MODEL 3
REMARK VINA RESULT:     -10.3      2.709      9.502
REMARK SMILES O=C(OCCOC(=O)[C@H]1C[C@H]2CCCC[C@@H]2[N@@H+]1CC[C@@H]1CCCO1)c1ccc(-c2c3nc(c(-c4ccc(S(=O)(=O)[O-])cc4)c4ccc([nH]4)c(-c4ccc(S(=O)(=O)[O-])cc4)c4nc(c(-c5ccc(S(=O)(=O)[O-])cc5)c5ccc2[nH]5)C=C4)C=C3)cc1
REMARK SMILES IDX 4 1 3 2 2 3 1 4 25 5 26 6 84 7 27 8 83 9 28 10 29 11 30 12
REMARK SMILES IDX 77 13 31 14 82 15 76 16 78 17 32 18 81 19 75 20 74 21 33 23
REMARK SMILES IDX 63 24 44 25 62 26 45 27 48 28 61 29 79 30 46 31 47 32 60 34
REMARK SMILES IDX 80 35 49 36 34 37 35 38 43 39 36 40 42 41 37 42 38 43 39 44
REMARK SMILES IDX 40 45 41 46 64 47 65 48 73 49 66 50 72 51 67 52 68 53 69 54
REMARK SMILES IDX 70 55 71 56 50 57 51 58 59 59 52 60 58 61 53 62 54 63 55 64
REMARK SMILES IDX 56 65 57 66 5 67 6 68 7 69 8 70 9 71 10 72 17 73 11 74 16 75
REMARK SMILES IDX 12 77 15 78 13 79 14 80 18 81 19 82 20 83 21 84 24 85 22 86
REMARK SMILES IDX 23 87
REMARK H PARENT 78 22 48 33 17 76
REMARK Flexibility Score: inf
ROOT
ATOM      1  C   UNL A   1      32.363  29.552  26.730  1.00  0.00     0.275 C 
ENDROOT
BRANCH   1   2
ATOM      2  O   UNL A   1      33.485  29.439  27.617  1.00  0.00    -0.458 OA
BRANCH   2   3
ATOM      3  C   UNL A   1      34.449  30.343  27.914  1.00  0.00     0.338 C 
ATOM      4  O   UNL A   1      34.190  31.540  27.781  1.00  0.00    -0.246 OA
BRANCH   3   5
ATOM      5  C   UNL A   1      35.844  29.963  28.303  1.00  0.00     0.060 A 
ATOM      6  C   UNL A   1      36.260  29.522  29.564  1.00  0.00     0.016 A 
ATOM      7  C   UNL A   1      36.812  30.044  27.291  1.00  0.00     0.016 A 
ATOM      8  C   UNL A   1      37.553  29.048  29.784  1.00  0.00     0.010 A 
ATOM      9  C   UNL A   1      38.119  29.601  27.512  1.00  0.00     0.010 A 
ATOM     10  C   UNL A   1      38.486  29.062  28.754  1.00  0.00    -0.014 A 
BRANCH  10  11
ATOM     11  C   UNL A   1      39.877  28.638  29.023  1.00  0.00     0.031 A 
ATOM     12  C   UNL A   1      40.792  29.651  29.639  1.00  0.00     0.074 A 
ATOM     13  C   UNL A   1      40.295  27.382  28.763  1.00  0.00     0.049 A 
ATOM     14  N   UNL A   1      42.040  29.522  29.995  1.00  0.00    -0.248 NA
ATOM     15  C   UNL A   1      40.216  30.980  29.912  1.00  0.00     0.031 C 
ATOM     16  C   UNL A   1      39.469  26.292  28.236  1.00  0.00     0.029 A 
ATOM     17  N   UNL A   1      41.537  26.810  28.886  1.00  0.00    -0.354 N 
ATOM     18  C   UNL A   1      42.383  30.738  30.567  1.00  0.00     0.074 A 
ATOM     19  C   UNL A   1      41.250  31.622  30.426  1.00  0.00     0.031 C 
ATOM     20  C   UNL A   1      40.240  25.213  28.010  1.00  0.00     0.029 A 
ATOM     21  C   UNL A   1      41.608  25.520  28.408  1.00  0.00     0.049 A 
ATOM     22  H   UNL A   1      42.308  27.279  29.280  1.00  0.00     0.167 HD
ATOM     23  C   UNL A   1      43.526  31.072  31.205  1.00  0.00     0.031 A 
ATOM     24  C   UNL A   1      42.660  24.684  28.311  1.00  0.00     0.031 A 
ATOM     25  C   UNL A   1      44.652  30.193  31.318  1.00  0.00     0.049 A 
ATOM     26  C   UNL A   1      43.974  25.132  28.899  1.00  0.00     0.074 A 
ATOM     27  C   UNL A   1      45.866  30.421  31.932  1.00  0.00     0.029 A 
ATOM     28  N   UNL A   1      44.698  28.911  30.787  1.00  0.00    -0.354 N 
ATOM     29  N   UNL A   1      44.263  26.265  29.495  1.00  0.00    -0.248 NA
ATOM     30  C   UNL A   1      45.087  24.175  28.848  1.00  0.00     0.031 C 
ATOM     31  C   UNL A   1      46.670  29.296  31.724  1.00  0.00     0.029 A 
ATOM     32  C   UNL A   1      45.932  28.344  31.034  1.00  0.00     0.049 A 
ATOM     33  H   UNL A   1      43.959  28.472  30.305  1.00  0.00     0.167 HD
ATOM     34  C   UNL A   1      45.572  26.136  29.942  1.00  0.00     0.074 A 
ATOM     35  C   UNL A   1      46.017  24.814  29.545  1.00  0.00     0.031 C 
ATOM     36  C   UNL A   1      46.335  27.020  30.631  1.00  0.00     0.031 A 
BRANCH  23  37
ATOM     37  C   UNL A   1      43.583  32.446  31.809  1.00  0.00    -0.014 A 
ATOM     38  C   UNL A   1      43.172  32.664  33.139  1.00  0.00     0.010 A 
ATOM     39  C   UNL A   1      44.014  33.536  31.036  1.00  0.00     0.010 A 
ATOM     40  C   UNL A   1      43.144  33.954  33.668  1.00  0.00     0.020 A 
ATOM     41  C   UNL A   1      44.015  34.827  31.571  1.00  0.00     0.020 A 
ATOM     42  C   UNL A   1      43.562  35.029  32.878  1.00  0.00     0.054 A 
BRANCH  42  43
ATOM     43  S   UNL A   1      43.527  36.696  33.591  1.00  0.00     0.124 S 
ATOM     44  O   UNL A   1      42.227  36.708  34.261  1.00  0.00    -0.237 OA
ATOM     45  O   UNL A   1      44.687  36.685  34.481  1.00  0.00    -0.237 OA
ATOM     46  O   UNL A   1      43.640  37.572  32.433  1.00  0.00    -0.744 OA
ENDBRANCH  42  43
ENDBRANCH  23  37
BRANCH  24  47
ATOM     47  C   UNL A   1      42.525  23.342  27.672  1.00  0.00    -0.014 A 
ATOM     48  C   UNL A   1      41.921  22.271  28.356  1.00  0.00     0.010 A 
ATOM     49  C   UNL A   1      43.049  23.113  26.385  1.00  0.00     0.010 A 
ATOM     50  C   UNL A   1      41.883  20.993  27.789  1.00  0.00     0.020 A 
ATOM     51  C   UNL A   1      42.991  21.840  25.804  1.00  0.00     0.020 A 
ATOM     52  C   UNL A   1      42.423  20.784  26.518  1.00  0.00     0.054 A 
BRANCH  52  53
ATOM     53  S   UNL A   1      42.363  19.114  25.806  1.00  0.00     0.124 S 
ATOM     54  O   UNL A   1      40.931  18.928  25.587  1.00  0.00    -0.237 OA
ATOM     55  O   UNL A   1      43.176  19.257  24.601  1.00  0.00    -0.237 OA
ATOM     56  O   UNL A   1      42.950  18.276  26.849  1.00  0.00    -0.744 OA
ENDBRANCH  52  53
ENDBRANCH  24  47
BRANCH  36  57
ATOM     57  C   UNL A   1      47.711  26.571  31.039  1.00  0.00    -0.014 A 
ATOM     58  C   UNL A   1      48.828  26.809  30.221  1.00  0.00     0.010 A 
ATOM     59  C   UNL A   1      47.892  25.971  32.299  1.00  0.00     0.010 A 
ATOM     60  C   UNL A   1      50.102  26.431  30.647  1.00  0.00     0.020 A 
ATOM     61  C   UNL A   1      49.167  25.623  32.742  1.00  0.00     0.020 A 
ATOM     62  C   UNL A   1      50.264  25.844  31.906  1.00  0.00     0.054 A 
BRANCH  62  63
ATOM     63  S   UNL A   1      51.937  25.422  32.461  1.00  0.00     0.124 S 
ATOM     64  O   UNL A   1      52.033  26.162  33.717  1.00  0.00    -0.237 OA
ATOM     65  O   UNL A   1      51.872  23.969  32.591  1.00  0.00    -0.237 OA
ATOM     66  O   UNL A   1      52.794  25.909  31.382  1.00  0.00    -0.744 OA
ENDBRANCH  62  63
ENDBRANCH  36  57
ENDBRANCH  10  11
ENDBRANCH   3   5
ENDBRANCH   2   3
ENDBRANCH   1   2
BRANCH   1  67
ATOM     67  C   UNL A   1      32.435  28.718  25.444  1.00  0.00     0.274 C 
BRANCH  67  68
ATOM     68  O   UNL A   1      33.550  27.813  25.319  1.00  0.00    -0.458 OA
BRANCH  68  69
ATOM     69  C   UNL A   1      33.494  26.983  24.231  1.00  0.00     0.365 C 
ATOM     70  O   UNL A   1      33.675  27.380  23.083  1.00  0.00    -0.245 OA
BRANCH  69  71
ATOM     71  C   UNL A   1      33.071  25.531  24.605  1.00  0.00     0.295 C 
ATOM     72  C   UNL A   1      33.525  24.641  23.425  1.00  0.00     0.087 C 
ATOM     73  N   UNL A   1      33.817  25.029  25.800  1.00  0.00    -0.320 N 
ATOM     74  C   UNL A   1      34.662  23.809  24.003  1.00  0.00     0.054 C 
ATOM     75  C   UNL A   1      35.088  24.556  25.256  1.00  0.00     0.188 C 
ATOM     76  H   UNL A   1      33.940  25.780  26.479  1.00  0.00     0.349 HD
ATOM     77  C   UNL A   1      35.876  23.494  23.154  1.00  0.00     0.010 C 
ATOM     78  C   UNL A   1      36.058  23.786  26.146  1.00  0.00     0.065 C 
ATOM     79  C   UNL A   1      36.836  22.621  23.979  1.00  0.00     0.001 C 
ATOM     80  C   UNL A   1      37.233  23.239  25.329  1.00  0.00     0.006 C 
BRANCH  73  81
ATOM     81  C   UNL A   1      33.112  24.069  26.683  1.00  0.00     0.265 C 
BRANCH  81  82
ATOM     82  C   UNL A   1      33.660  22.699  27.139  1.00  0.00     0.093 C 
BRANCH  82  83
ATOM     83  C   UNL A   1      33.246  21.403  26.418  1.00  0.00     0.123 C 
ATOM     84  C   UNL A   1      34.372  20.562  25.827  1.00  0.00     0.034 C 
ATOM     85  O   UNL A   1      32.337  21.585  25.340  1.00  0.00    -0.378 OA
ATOM     86  C   UNL A   1      33.742  19.866  24.630  1.00  0.00     0.031 C 
ATOM     87  C   UNL A   1      32.319  20.370  24.597  1.00  0.00     0.160 C 
ENDBRANCH  82  83
ENDBRANCH  81  82
ENDBRANCH  73  81
ENDBRANCH  69  71
ENDBRANCH  68  69
ENDBRANCH  67  68
ENDBRANCH   1  67
TORSDOF 17
ENDMDL
