MODEL 1
REMARK VINA RESULT:      -9.9      0.000      0.000
REMARK SMILES Cc1ncccc1C(=O)NCCOCC(=O)OCCOC(=O)c1ccc(-c2c3nc(c(-c4ccc(S(=O)(=O)[O-])cc4)c4ccc([nH]4)c(-c4ccc(S(=O)(=O)[O-])cc4)c4nc(c(-c5ccc(S(=O)(=O)[O-])cc5)c5ccc2[nH]5)C=C4)C=C3)cc1
REMARK SMILES IDX 18 1 17 2 15 3 16 4 14 5 13 6 12 7 11 8 10 9 8 10 9 11 7 13
REMARK SMILES IDX 1 14 2 15 3 16 4 17 6 18 5 19 19 20 20 21 21 22 22 23 23 24
REMARK SMILES IDX 24 25 82 26 25 27 81 28 26 29 27 30 28 31 75 32 29 33 80 34
REMARK SMILES IDX 74 35 76 36 30 37 79 38 73 39 72 40 31 42 61 43 42 44 60 45
REMARK SMILES IDX 43 46 46 47 59 48 77 49 44 50 45 51 58 53 78 54 47 55 32 56
REMARK SMILES IDX 33 57 41 58 34 59 40 60 35 61 36 62 37 63 38 64 39 65 62 66
REMARK SMILES IDX 63 67 71 68 64 69 70 70 65 71 66 72 67 73 68 74 69 75 48 76
REMARK SMILES IDX 49 77 57 78 50 79 56 80 51 81 52 82 53 83 54 84 55 85
REMARK H PARENT 10 12 76 41 46 52
REMARK Flexibility Score: inf
ROOT
ATOM      1  C   UNL A   1      35.389  33.860  30.888  1.00  0.00     0.274 C 
ENDROOT
BRANCH   1   2
ATOM      2  O   UNL A   1      33.973  34.093  30.724  1.00  0.00    -0.460 OA
BRANCH   2   3
ATOM      3  C   UNL A   1      33.601  34.915  29.704  1.00  0.00     0.332 C 
ATOM      4  O   UNL A   1      32.645  35.687  29.750  1.00  0.00    -0.250 OA
BRANCH   3   5
ATOM      5  C   UNL A   1      34.573  34.872  28.504  1.00  0.00     0.282 C 
BRANCH   5   6
ATOM      6  O   UNL A   1      34.550  33.828  27.544  1.00  0.00    -0.368 OA
BRANCH   6   7
ATOM      7  C   UNL A   1      33.396  32.970  27.600  1.00  0.00     0.182 C 
BRANCH   7   8
ATOM      8  C   UNL A   1      33.746  31.483  27.813  1.00  0.00     0.144 C 
BRANCH   8   9
ATOM      9  N   UNL A   1      33.723  30.569  26.673  1.00  0.00    -0.350 N 
ATOM     10  C   UNL A   1      34.206  29.279  26.728  1.00  0.00     0.253 C 
ATOM     11  O   UNL A   1      35.084  28.875  27.478  1.00  0.00    -0.269 OA
ATOM     12  H   UNL A   1      33.344  30.891  25.823  1.00  0.00     0.163 HD
BRANCH  10  13
ATOM     13  C   UNL A   1      33.487  28.301  25.886  1.00  0.00     0.061 A 
ATOM     14  C   UNL A   1      31.669  28.171  27.649  1.00  0.00     0.067 C 
ATOM     15  C   UNL A   1      32.296  27.740  26.356  1.00  0.00     0.050 A 
ATOM     16  N   UNL A   1      31.646  26.757  25.685  1.00  0.00    -0.261 NA
ATOM     17  C   UNL A   1      32.202  26.290  24.546  1.00  0.00     0.111 A 
ATOM     18  C   UNL A   1      34.041  27.807  24.703  1.00  0.00     0.017 A 
ATOM     19  C   UNL A   1      33.382  26.787  24.016  1.00  0.00     0.021 A 
ENDBRANCH  10  13
ENDBRANCH   8   9
ENDBRANCH   7   8
ENDBRANCH   6   7
ENDBRANCH   5   6
ENDBRANCH   3   5
ENDBRANCH   2   3
ENDBRANCH   1   2
BRANCH   1  20
ATOM     20  C   UNL A   1      35.680  32.419  31.363  1.00  0.00     0.275 C 
BRANCH  20  21
ATOM     21  O   UNL A   1      36.087  31.493  30.321  1.00  0.00    -0.458 OA
BRANCH  21  22
ATOM     22  C   UNL A   1      36.562  30.331  30.808  1.00  0.00     0.338 C 
ATOM     23  O   UNL A   1      36.090  29.717  31.746  1.00  0.00    -0.246 OA
BRANCH  22  24
ATOM     24  C   UNL A   1      37.756  29.750  30.202  1.00  0.00     0.060 A 
ATOM     25  C   UNL A   1      38.670  29.203  31.117  1.00  0.00     0.016 A 
ATOM     26  C   UNL A   1      38.129  30.014  28.887  1.00  0.00     0.016 A 
ATOM     27  C   UNL A   1      39.985  28.993  30.745  1.00  0.00     0.010 A 
ATOM     28  C   UNL A   1      39.454  29.771  28.503  1.00  0.00     0.010 A 
ATOM     29  C   UNL A   1      40.387  29.286  29.438  1.00  0.00    -0.014 A 
BRANCH  29  30
ATOM     30  C   UNL A   1      41.764  28.935  29.042  1.00  0.00     0.031 A 
ATOM     31  C   UNL A   1      42.891  29.915  29.131  1.00  0.00     0.074 A 
ATOM     32  C   UNL A   1      41.978  27.667  28.656  1.00  0.00     0.049 A 
ATOM     33  N   UNL A   1      44.115  29.799  28.688  1.00  0.00    -0.248 NA
ATOM     34  C   UNL A   1      42.615  31.190  29.803  1.00  0.00     0.031 C 
ATOM     35  C   UNL A   1      40.953  26.618  28.626  1.00  0.00     0.029 A 
ATOM     36  N   UNL A   1      43.116  27.043  28.233  1.00  0.00    -0.354 N 
ATOM     37  C   UNL A   1      44.741  31.006  28.973  1.00  0.00     0.074 A 
ATOM     38  C   UNL A   1      43.768  31.833  29.653  1.00  0.00     0.031 C 
ATOM     39  C   UNL A   1      41.513  25.477  28.206  1.00  0.00     0.029 A 
ATOM     40  C   UNL A   1      42.911  25.733  27.881  1.00  0.00     0.049 A 
ATOM     41  H   UNL A   1      43.993  27.487  28.186  1.00  0.00     0.167 HD
ATOM     42  C   UNL A   1      46.010  31.378  28.674  1.00  0.00     0.031 A 
ATOM     43  C   UNL A   1      43.745  24.846  27.315  1.00  0.00     0.031 A 
ATOM     44  C   UNL A   1      46.976  30.497  28.062  1.00  0.00     0.049 A 
ATOM     45  C   UNL A   1      45.148  25.270  27.018  1.00  0.00     0.074 A 
ATOM     46  C   UNL A   1      48.298  30.755  27.745  1.00  0.00     0.029 A 
ATOM     47  N   UNL A   1      46.730  29.179  27.703  1.00  0.00    -0.354 N 
ATOM     48  N   UNL A   1      45.702  26.445  27.203  1.00  0.00    -0.248 NA
ATOM     49  C   UNL A   1      46.036  24.256  26.444  1.00  0.00     0.031 C 
ATOM     50  C   UNL A   1      48.844  29.600  27.172  1.00  0.00     0.029 A 
ATOM     51  C   UNL A   1      47.875  28.610  27.171  1.00  0.00     0.049 A 
ATOM     52  H   UNL A   1      45.868  28.715  27.812  1.00  0.00     0.167 HD
ATOM     53  C   UNL A   1      47.011  26.314  26.765  1.00  0.00     0.074 A 
ATOM     54  C   UNL A   1      47.169  24.937  26.331  1.00  0.00     0.031 C 
ATOM     55  C   UNL A   1      47.994  27.246  26.725  1.00  0.00     0.031 A 
BRANCH  42  56
ATOM     56  C   UNL A   1      46.432  32.798  28.955  1.00  0.00    -0.014 A 
ATOM     57  C   UNL A   1      47.082  33.160  30.147  1.00  0.00     0.010 A 
ATOM     58  C   UNL A   1      46.269  33.768  27.948  1.00  0.00     0.010 A 
ATOM     59  C   UNL A   1      47.554  34.466  30.328  1.00  0.00     0.020 A 
ATOM     60  C   UNL A   1      46.759  35.068  28.115  1.00  0.00     0.020 A 
ATOM     61  C   UNL A   1      47.393  35.410  29.309  1.00  0.00     0.054 A 
BRANCH  61  62
ATOM     62  S   UNL A   1      48.094  37.073  29.524  1.00  0.00     0.124 S 
ATOM     63  O   UNL A   1      46.892  37.900  29.589  1.00  0.00    -0.237 OA
ATOM     64  O   UNL A   1      48.840  36.952  30.773  1.00  0.00    -0.237 OA
ATOM     65  O   UNL A   1      48.914  37.258  28.330  1.00  0.00    -0.744 OA
ENDBRANCH  61  62
ENDBRANCH  42  56
BRANCH  43  66
ATOM     66  C   UNL A   1      43.224  23.502  26.971  1.00  0.00    -0.014 A 
ATOM     67  C   UNL A   1      43.265  23.035  25.648  1.00  0.00     0.010 A 
ATOM     68  C   UNL A   1      42.809  22.635  28.000  1.00  0.00     0.010 A 
ATOM     69  C   UNL A   1      42.917  21.713  25.362  1.00  0.00     0.020 A 
ATOM     70  C   UNL A   1      42.485  21.308  27.720  1.00  0.00     0.020 A 
ATOM     71  C   UNL A   1      42.541  20.854  26.400  1.00  0.00     0.054 A 
BRANCH  71  72
ATOM     72  S   UNL A   1      42.221  19.108  26.030  1.00  0.00     0.124 S 
ATOM     73  O   UNL A   1      40.780  19.107  25.799  1.00  0.00    -0.237 OA
ATOM     74  O   UNL A   1      43.053  18.873  24.852  1.00  0.00    -0.237 OA
ATOM     75  O   UNL A   1      42.665  18.419  27.241  1.00  0.00    -0.744 OA
ENDBRANCH  71  72
ENDBRANCH  43  66
BRANCH  55  76
ATOM     76  C   UNL A   1      49.324  26.788  26.200  1.00  0.00    -0.014 A 
ATOM     77  C   UNL A   1      50.222  26.088  27.025  1.00  0.00     0.010 A 
ATOM     78  C   UNL A   1      49.677  27.064  24.867  1.00  0.00     0.010 A 
ATOM     79  C   UNL A   1      51.474  25.713  26.538  1.00  0.00     0.020 A 
ATOM     80  C   UNL A   1      50.921  26.671  24.372  1.00  0.00     0.020 A 
ATOM     81  C   UNL A   1      51.820  26.016  25.217  1.00  0.00     0.054 A 
BRANCH  81  82
ATOM     82  S   UNL A   1      53.454  25.523  24.606  1.00  0.00     0.124 S 
ATOM     83  O   UNL A   1      53.323  25.763  23.171  1.00  0.00    -0.237 OA
ATOM     84  O   UNL A   1      54.352  26.431  25.315  1.00  0.00    -0.237 OA
ATOM     85  O   UNL A   1      53.558  24.119  24.997  1.00  0.00    -0.744 OA
ENDBRANCH  81  82
ENDBRANCH  55  76
ENDBRANCH  29  30
ENDBRANCH  22  24
ENDBRANCH  21  22
ENDBRANCH  20  21
ENDBRANCH   1  20
TORSDOF 19
ENDMDL
MODEL 2
REMARK VINA RESULT:      -9.4      2.181      8.939
REMARK SMILES Cc1ncccc1C(=O)NCCOCC(=O)OCCOC(=O)c1ccc(-c2c3nc(c(-c4ccc(S(=O)(=O)[O-])cc4)c4ccc([nH]4)c(-c4ccc(S(=O)(=O)[O-])cc4)c4nc(c(-c5ccc(S(=O)(=O)[O-])cc5)c5ccc2[nH]5)C=C4)C=C3)cc1
REMARK SMILES IDX 18 1 17 2 15 3 16 4 14 5 13 6 12 7 11 8 10 9 8 10 9 11 7 13
REMARK SMILES IDX 1 14 2 15 3 16 4 17 6 18 5 19 19 20 20 21 21 22 22 23 23 24
REMARK SMILES IDX 24 25 82 26 25 27 81 28 26 29 27 30 28 31 75 32 29 33 80 34
REMARK SMILES IDX 74 35 76 36 30 37 79 38 73 39 72 40 31 42 61 43 42 44 60 45
REMARK SMILES IDX 43 46 46 47 59 48 77 49 44 50 45 51 58 53 78 54 47 55 32 56
REMARK SMILES IDX 33 57 41 58 34 59 40 60 35 61 36 62 37 63 38 64 39 65 62 66
REMARK SMILES IDX 63 67 71 68 64 69 70 70 65 71 66 72 67 73 68 74 69 75 48 76
REMARK SMILES IDX 49 77 57 78 50 79 56 80 51 81 52 82 53 83 54 84 55 85
REMARK H PARENT 10 12 76 41 46 52
REMARK Flexibility Score: inf
ROOT
ATOM      1  C   UNL A   1      36.884  33.624  34.300  1.00  0.00     0.274 C 
ENDROOT
BRANCH   1   2
ATOM      2  O   UNL A   1      36.359  34.864  33.777  1.00  0.00    -0.460 OA
BRANCH   2   3
ATOM      3  C   UNL A   1      35.063  34.853  33.358  1.00  0.00     0.332 C 
ATOM      4  O   UNL A   1      34.596  34.032  32.572  1.00  0.00    -0.250 OA
BRANCH   3   5
ATOM      5  C   UNL A   1      34.191  35.918  34.059  1.00  0.00     0.282 C 
BRANCH   5   6
ATOM      6  O   UNL A   1      33.714  37.074  33.386  1.00  0.00    -0.368 OA
BRANCH   6   7
ATOM      7  C   UNL A   1      32.750  36.824  32.349  1.00  0.00     0.182 C 
BRANCH   7   8
ATOM      8  C   UNL A   1      33.342  36.903  30.927  1.00  0.00     0.144 C 
BRANCH   8   9
ATOM      9  N   UNL A   1      33.456  35.686  30.126  1.00  0.00    -0.350 N 
ATOM     10  C   UNL A   1      34.047  35.651  28.881  1.00  0.00     0.253 C 
ATOM     11  O   UNL A   1      34.124  36.589  28.099  1.00  0.00    -0.269 OA
ATOM     12  H   UNL A   1      33.090  34.849  30.494  1.00  0.00     0.163 HD
BRANCH  10  13
ATOM     13  C   UNL A   1      34.754  34.395  28.555  1.00  0.00     0.061 A 
ATOM     14  C   UNL A   1      32.585  33.451  27.640  1.00  0.00     0.067 C 
ATOM     15  C   UNL A   1      34.036  33.331  28.004  1.00  0.00     0.050 A 
ATOM     16  N   UNL A   1      34.598  32.116  27.786  1.00  0.00    -0.261 NA
ATOM     17  C   UNL A   1      35.885  31.936  28.153  1.00  0.00     0.111 A 
ATOM     18  C   UNL A   1      36.085  34.190  28.923  1.00  0.00     0.017 A 
ATOM     19  C   UNL A   1      36.664  32.938  28.711  1.00  0.00     0.021 A 
ENDBRANCH  10  13
ENDBRANCH   8   9
ENDBRANCH   7   8
ENDBRANCH   6   7
ENDBRANCH   5   6
ENDBRANCH   3   5
ENDBRANCH   2   3
ENDBRANCH   1   2
BRANCH   1  20
ATOM     20  C   UNL A   1      37.907  32.984  33.334  1.00  0.00     0.275 C 
BRANCH  20  21
ATOM     21  O   UNL A   1      38.144  31.565  33.534  1.00  0.00    -0.458 OA
BRANCH  21  22
ATOM     22  C   UNL A   1      37.701  30.810  32.511  1.00  0.00     0.338 C 
ATOM     23  O   UNL A   1      36.535  30.548  32.285  1.00  0.00    -0.246 OA
BRANCH  22  24
ATOM     24  C   UNL A   1      38.676  30.220  31.599  1.00  0.00     0.060 A 
ATOM     25  C   UNL A   1      39.736  29.548  32.230  1.00  0.00     0.016 A 
ATOM     26  C   UNL A   1      38.751  30.575  30.255  1.00  0.00     0.016 A 
ATOM     27  C   UNL A   1      40.909  29.299  31.543  1.00  0.00     0.010 A 
ATOM     28  C   UNL A   1      39.929  30.294  29.552  1.00  0.00     0.010 A 
ATOM     29  C   UNL A   1      41.017  29.680  30.201  1.00  0.00    -0.014 A 
BRANCH  29  30
ATOM     30  C   UNL A   1      42.234  29.291  29.466  1.00  0.00     0.031 A 
ATOM     31  C   UNL A   1      42.374  27.954  28.810  1.00  0.00     0.074 A 
ATOM     32  C   UNL A   1      43.197  30.221  29.355  1.00  0.00     0.049 A 
ATOM     33  N   UNL A   1      43.430  27.419  28.256  1.00  0.00    -0.248 NA
ATOM     34  C   UNL A   1      41.178  27.105  28.764  1.00  0.00     0.031 C 
ATOM     35  C   UNL A   1      43.107  31.584  29.888  1.00  0.00     0.029 A 
ATOM     36  N   UNL A   1      44.421  30.170  28.753  1.00  0.00    -0.354 N 
ATOM     37  C   UNL A   1      43.045  26.147  27.848  1.00  0.00     0.074 A 
ATOM     38  C   UNL A   1      41.648  26.000  28.194  1.00  0.00     0.031 C 
ATOM     39  C   UNL A   1      44.233  32.243  29.586  1.00  0.00     0.029 A 
ATOM     40  C   UNL A   1      45.139  31.330  28.898  1.00  0.00     0.049 A 
ATOM     41  H   UNL A   1      44.753  29.383  28.264  1.00  0.00     0.167 HD
ATOM     42  C   UNL A   1      43.806  25.197  27.254  1.00  0.00     0.031 A 
ATOM     43  C   UNL A   1      46.407  31.614  28.557  1.00  0.00     0.031 A 
ATOM     44  C   UNL A   1      45.178  25.408  26.855  1.00  0.00     0.049 A 
ATOM     45  C   UNL A   1      47.219  30.559  27.878  1.00  0.00     0.074 A 
ATOM     46  C   UNL A   1      46.034  24.529  26.214  1.00  0.00     0.029 A 
ATOM     47  N   UNL A   1      45.881  26.591  27.031  1.00  0.00    -0.354 N 
ATOM     48  N   UNL A   1      46.876  29.327  27.585  1.00  0.00    -0.248 NA
ATOM     49  C   UNL A   1      48.581  30.928  27.481  1.00  0.00     0.031 C 
ATOM     50  C   UNL A   1      47.262  25.173  26.027  1.00  0.00     0.029 A 
ATOM     51  C   UNL A   1      47.159  26.467  26.511  1.00  0.00     0.049 A 
ATOM     52  H   UNL A   1      45.524  27.401  27.462  1.00  0.00     0.167 HD
ATOM     53  C   UNL A   1      47.984  28.768  26.966  1.00  0.00     0.074 A 
ATOM     54  C   UNL A   1      48.997  29.807  26.907  1.00  0.00     0.031 C 
ATOM     55  C   UNL A   1      48.151  27.510  26.489  1.00  0.00     0.031 A 
BRANCH  42  56
ATOM     56  C   UNL A   1      43.211  23.830  27.028  1.00  0.00    -0.014 A 
ATOM     57  C   UNL A   1      42.681  23.444  25.786  1.00  0.00     0.010 A 
ATOM     58  C   UNL A   1      43.288  22.876  28.062  1.00  0.00     0.010 A 
ATOM     59  C   UNL A   1      42.233  22.132  25.584  1.00  0.00     0.020 A 
ATOM     60  C   UNL A   1      42.863  21.559  27.857  1.00  0.00     0.020 A 
ATOM     61  C   UNL A   1      42.331  21.197  26.619  1.00  0.00     0.054 A 
BRANCH  61  62
ATOM     62  S   UNL A   1      41.832  19.478  26.310  1.00  0.00     0.124 S 
ATOM     63  O   UNL A   1      42.615  19.145  25.123  1.00  0.00    -0.237 OA
ATOM     64  O   UNL A   1      42.232  18.797  27.538  1.00  0.00    -0.237 OA
ATOM     65  O   UNL A   1      40.389  19.571  26.097  1.00  0.00    -0.744 OA
ENDBRANCH  61  62
ENDBRANCH  42  56
BRANCH  43  66
ATOM     66  C   UNL A   1      46.953  32.947  28.908  1.00  0.00    -0.014 A 
ATOM     67  C   UNL A   1      46.792  34.037  28.040  1.00  0.00     0.010 A 
ATOM     68  C   UNL A   1      47.519  33.150  30.181  1.00  0.00     0.010 A 
ATOM     69  C   UNL A   1      47.172  35.319  28.450  1.00  0.00     0.020 A 
ATOM     70  C   UNL A   1      47.876  34.431  30.601  1.00  0.00     0.020 A 
ATOM     71  C   UNL A   1      47.699  35.510  29.731  1.00  0.00     0.054 A 
BRANCH  71  72
ATOM     72  S   UNL A   1      48.062  37.195  30.294  1.00  0.00     0.124 S 
ATOM     73  O   UNL A   1      48.852  37.720  29.186  1.00  0.00    -0.237 OA
ATOM     74  O   UNL A   1      46.730  37.772  30.454  1.00  0.00    -0.237 OA
ATOM     75  O   UNL A   1      48.792  36.983  31.543  1.00  0.00    -0.744 OA
ENDBRANCH  71  72
ENDBRANCH  43  66
BRANCH  55  76
ATOM     76  C   UNL A   1      49.479  27.209  25.858  1.00  0.00    -0.014 A 
ATOM     77  C   UNL A   1      49.686  27.416  24.483  1.00  0.00     0.010 A 
ATOM     78  C   UNL A   1      50.528  26.711  26.651  1.00  0.00     0.010 A 
ATOM     79  C   UNL A   1      50.909  27.084  23.901  1.00  0.00     0.020 A 
ATOM     80  C   UNL A   1      51.759  26.398  26.074  1.00  0.00     0.020 A 
ATOM     81  C   UNL A   1      51.936  26.566  24.698  1.00  0.00     0.054 A 
BRANCH  81  82
ATOM     82  S   UNL A   1      53.516  26.138  23.920  1.00  0.00     0.124 S 
ATOM     83  O   UNL A   1      54.341  27.295  24.259  1.00  0.00    -0.237 OA
ATOM     84  O   UNL A   1      53.877  24.890  24.588  1.00  0.00    -0.237 OA
ATOM     85  O   UNL A   1      53.178  26.006  22.505  1.00  0.00    -0.744 OA
ENDBRANCH  81  82
ENDBRANCH  55  76
ENDBRANCH  29  30
ENDBRANCH  22  24
ENDBRANCH  21  22
ENDBRANCH  20  21
ENDBRANCH   1  20
TORSDOF 19
ENDMDL
MODEL 3
REMARK VINA RESULT:      -9.3      6.212     12.461
REMARK SMILES Cc1ncccc1C(=O)NCCOCC(=O)OCCOC(=O)c1ccc(-c2c3nc(c(-c4ccc(S(=O)(=O)[O-])cc4)c4ccc([nH]4)c(-c4ccc(S(=O)(=O)[O-])cc4)c4nc(c(-c5ccc(S(=O)(=O)[O-])cc5)c5ccc2[nH]5)C=C4)C=C3)cc1
REMARK SMILES IDX 18 1 17 2 15 3 16 4 14 5 13 6 12 7 11 8 10 9 8 10 9 11 7 13
REMARK SMILES IDX 1 14 2 15 3 16 4 17 6 18 5 19 19 20 20 21 21 22 22 23 23 24
REMARK SMILES IDX 24 25 82 26 25 27 81 28 26 29 27 30 28 31 75 32 29 33 80 34
REMARK SMILES IDX 74 35 76 36 30 37 79 38 73 39 72 40 31 42 61 43 42 44 60 45
REMARK SMILES IDX 43 46 46 47 59 48 77 49 44 50 45 51 58 53 78 54 47 55 32 56
REMARK SMILES IDX 33 57 41 58 34 59 40 60 35 61 36 62 37 63 38 64 39 65 62 66
REMARK SMILES IDX 63 67 71 68 64 69 70 70 65 71 66 72 67 73 68 74 69 75 48 76
REMARK SMILES IDX 49 77 57 78 50 79 56 80 51 81 52 82 53 83 54 84 55 85
REMARK H PARENT 10 12 76 41 46 52
REMARK Flexibility Score: inf
ROOT
ATOM      1  C   UNL A   1      41.335  21.714  26.240  1.00  0.00     0.274 C 
ENDROOT
BRANCH   1   2
ATOM      2  O   UNL A   1      40.207  22.159  27.025  1.00  0.00    -0.460 OA
BRANCH   2   3
ATOM      3  C   UNL A   1      39.094  22.539  26.339  1.00  0.00     0.332 C 
ATOM      4  O   UNL A   1      38.696  23.698  26.251  1.00  0.00    -0.250 OA
BRANCH   3   5
ATOM      5  C   UNL A   1      38.426  21.374  25.574  1.00  0.00     0.282 C 
BRANCH   5   6
ATOM      6  O   UNL A   1      37.702  21.571  24.369  1.00  0.00    -0.368 OA
BRANCH   6   7
ATOM      7  C   UNL A   1      36.345  22.016  24.537  1.00  0.00     0.182 C 
BRANCH   7   8
ATOM      8  C   UNL A   1      35.884  23.008  23.450  1.00  0.00     0.144 C 
BRANCH   8   9
ATOM      9  N   UNL A   1      34.541  23.578  23.519  1.00  0.00    -0.350 N 
ATOM     10  C   UNL A   1      34.191  24.591  24.386  1.00  0.00     0.253 C 
ATOM     11  O   UNL A   1      34.722  24.825  25.464  1.00  0.00    -0.269 OA
ATOM     12  H   UNL A   1      33.850  23.221  22.915  1.00  0.00     0.163 HD
BRANCH  10  13
ATOM     13  C   UNL A   1      33.174  25.533  23.877  1.00  0.00     0.061 A 
ATOM     14  C   UNL A   1      31.395  24.251  25.151  1.00  0.00     0.067 C 
ATOM     15  C   UNL A   1      31.831  25.336  24.210  1.00  0.00     0.050 A 
ATOM     16  N   UNL A   1      30.837  26.096  23.687  1.00  0.00    -0.261 NA
ATOM     17  C   UNL A   1      31.170  27.047  22.788  1.00  0.00     0.111 A 
ATOM     18  C   UNL A   1      33.497  26.526  22.950  1.00  0.00     0.017 A 
ATOM     19  C   UNL A   1      32.476  27.303  22.400  1.00  0.00     0.021 A 
ENDBRANCH  10  13
ENDBRANCH   8   9
ENDBRANCH   7   8
ENDBRANCH   6   7
ENDBRANCH   5   6
ENDBRANCH   3   5
ENDBRANCH   2   3
ENDBRANCH   1   2
BRANCH   1  20
ATOM     20  C   UNL A   1      42.186  22.903  25.738  1.00  0.00     0.275 C 
BRANCH  20  21
ATOM     21  O   UNL A   1      42.386  23.972  26.702  1.00  0.00    -0.458 OA
BRANCH  21  22
ATOM     22  C   UNL A   1      41.949  25.165  26.259  1.00  0.00     0.338 C 
ATOM     23  O   UNL A   1      41.926  25.518  25.095  1.00  0.00    -0.246 OA
BRANCH  22  24
ATOM     24  C   UNL A   1      41.486  26.150  27.232  1.00  0.00     0.060 A 
ATOM     25  C   UNL A   1      42.305  27.284  27.353  1.00  0.00     0.016 A 
ATOM     26  C   UNL A   1      40.528  25.851  28.198  1.00  0.00     0.016 A 
ATOM     27  C   UNL A   1      42.227  28.081  28.480  1.00  0.00     0.010 A 
ATOM     28  C   UNL A   1      40.429  26.678  29.324  1.00  0.00     0.010 A 
ATOM     29  C   UNL A   1      41.295  27.777  29.477  1.00  0.00    -0.014 A 
BRANCH  29  30
ATOM     30  C   UNL A   1      41.156  28.716  30.605  1.00  0.00     0.031 A 
ATOM     31  C   UNL A   1      42.085  28.695  31.778  1.00  0.00     0.074 A 
ATOM     32  C   UNL A   1      40.190  29.644  30.504  1.00  0.00     0.049 A 
ATOM     33  N   UNL A   1      42.002  29.358  32.901  1.00  0.00    -0.248 NA
ATOM     34  C   UNL A   1      43.261  27.823  31.681  1.00  0.00     0.031 C 
ATOM     35  C   UNL A   1      39.293  29.795  29.353  1.00  0.00     0.029 A 
ATOM     36  N   UNL A   1      39.809  30.633  31.364  1.00  0.00    -0.354 N 
ATOM     37  C   UNL A   1      43.079  28.939  33.672  1.00  0.00     0.074 A 
ATOM     38  C   UNL A   1      43.820  27.985  32.876  1.00  0.00     0.031 C 
ATOM     39  C   UNL A   1      38.466  30.823  29.580  1.00  0.00     0.029 A 
ATOM     40  C   UNL A   1      38.733  31.354  30.910  1.00  0.00     0.049 A 
ATOM     41  H   UNL A   1      40.261  30.812  32.220  1.00  0.00     0.167 HD
ATOM     42  C   UNL A   1      43.399  29.318  34.934  1.00  0.00     0.031 A 
ATOM     43  C   UNL A   1      38.011  32.309  31.518  1.00  0.00     0.031 A 
ATOM     44  C   UNL A   1      42.678  30.331  35.668  1.00  0.00     0.049 A 
ATOM     45  C   UNL A   1      38.397  32.729  32.900  1.00  0.00     0.074 A 
ATOM     46  C   UNL A   1      42.933  30.819  36.938  1.00  0.00     0.029 A 
ATOM     47  N   UNL A   1      41.582  31.032  35.185  1.00  0.00    -0.354 N 
ATOM     48  N   UNL A   1      39.359  32.258  33.658  1.00  0.00    -0.248 NA
ATOM     49  C   UNL A   1      37.611  33.807  33.506  1.00  0.00     0.031 C 
ATOM     50  C   UNL A   1      41.976  31.797  37.232  1.00  0.00     0.029 A 
ATOM     51  C   UNL A   1      41.150  31.948  36.129  1.00  0.00     0.049 A 
ATOM     52  H   UNL A   1      41.172  30.898  34.300  1.00  0.00     0.167 HD
ATOM     53  C   UNL A   1      39.295  32.984  34.838  1.00  0.00     0.074 A 
ATOM     54  C   UNL A   1      38.214  33.941  34.680  1.00  0.00     0.031 C 
ATOM     55  C   UNL A   1      40.058  32.870  35.952  1.00  0.00     0.031 A 
BRANCH  42  56
ATOM     56  C   UNL A   1      44.540  28.622  35.630  1.00  0.00    -0.014 A 
ATOM     57  C   UNL A   1      45.858  29.105  35.567  1.00  0.00     0.010 A 
ATOM     58  C   UNL A   1      44.259  27.517  36.459  1.00  0.00     0.010 A 
ATOM     59  C   UNL A   1      46.873  28.493  36.313  1.00  0.00     0.020 A 
ATOM     60  C   UNL A   1      45.266  26.918  37.223  1.00  0.00     0.020 A 
ATOM     61  C   UNL A   1      46.570  27.406  37.140  1.00  0.00     0.054 A 
BRANCH  61  62
ATOM     62  S   UNL A   1      47.881  26.684  38.170  1.00  0.00     0.124 S 
ATOM     63  O   UNL A   1      49.071  26.932  37.361  1.00  0.00    -0.237 OA
ATOM     64  O   UNL A   1      47.788  27.460  39.404  1.00  0.00    -0.237 OA
ATOM     65  O   UNL A   1      47.491  25.282  38.291  1.00  0.00    -0.744 OA
ENDBRANCH  61  62
ENDBRANCH  42  56
BRANCH  43  66
ATOM     66  C   UNL A   1      36.837  32.870  30.807  1.00  0.00    -0.014 A 
ATOM     67  C   UNL A   1      35.536  32.461  31.140  1.00  0.00     0.010 A 
ATOM     68  C   UNL A   1      37.021  33.919  29.887  1.00  0.00     0.010 A 
ATOM     69  C   UNL A   1      34.434  33.108  30.575  1.00  0.00     0.020 A 
ATOM     70  C   UNL A   1      35.922  34.583  29.341  1.00  0.00     0.020 A 
ATOM     71  C   UNL A   1      34.633  34.172  29.690  1.00  0.00     0.054 A 
BRANCH  71  72
ATOM     72  S   UNL A   1      33.195  35.086  29.070  1.00  0.00     0.124 S 
ATOM     73  O   UNL A   1      32.435  35.318  30.293  1.00  0.00    -0.237 OA
ATOM     74  O   UNL A   1      33.804  36.270  28.466  1.00  0.00    -0.237 OA
ATOM     75  O   UNL A   1      32.588  34.157  28.118  1.00  0.00    -0.744 OA
ENDBRANCH  71  72
ENDBRANCH  43  66
BRANCH  55  76
ATOM     76  C   UNL A   1      39.744  33.817  37.073  1.00  0.00    -0.014 A 
ATOM     77  C   UNL A   1      40.288  35.113  37.094  1.00  0.00     0.010 A 
ATOM     78  C   UNL A   1      38.897  33.402  38.116  1.00  0.00     0.010 A 
ATOM     79  C   UNL A   1      40.027  35.965  38.168  1.00  0.00     0.020 A 
ATOM     80  C   UNL A   1      38.619  34.260  39.181  1.00  0.00     0.020 A 
ATOM     81  C   UNL A   1      39.203  35.529  39.211  1.00  0.00     0.054 A 
BRANCH  81  82
ATOM     82  S   UNL A   1      38.882  36.650  40.598  1.00  0.00     0.124 S 
ATOM     83  O   UNL A   1      37.967  35.860  41.418  1.00  0.00    -0.237 OA
ATOM     84  O   UNL A   1      40.213  36.857  41.162  1.00  0.00    -0.237 OA
ATOM     85  O   UNL A   1      38.291  37.825  39.961  1.00  0.00    -0.744 OA
ENDBRANCH  81  82
ENDBRANCH  55  76
ENDBRANCH  29  30
ENDBRANCH  22  24
ENDBRANCH  21  22
ENDBRANCH  20  21
ENDBRANCH   1  20
TORSDOF 19
ENDMDL
