MODEL 1
REMARK VINA RESULT:     -10.6      0.000      0.000
REMARK SMILES O=C(OCCOC(=O)[C@H]1CCC(=O)N(C[C@@H]2COc3ccccc32)C1)c1ccc(-c2c3nc(c(-c4ccc(S(=O)(=O)[O-])cc4)c4ccc([nH]4)c(-c4ccc(S(=O)(=O)[O-])cc4)c4nc(c(-c5ccc(S(=O)(=O)[O-])cc5)c5ccc2[nH]5)C=C4)C=C3)cc1
REMARK SMILES IDX 4 1 3 2 2 3 1 4 26 5 27 6 85 7 28 8 84 9 29 10 30 11 31 12
REMARK SMILES IDX 78 13 32 14 83 15 77 16 79 17 33 18 82 19 76 20 75 21 34 23
REMARK SMILES IDX 64 24 45 25 63 26 46 27 49 28 62 29 80 30 47 31 48 32 61 34
REMARK SMILES IDX 81 35 50 36 35 37 36 38 44 39 37 40 43 41 38 42 39 43 40 44
REMARK SMILES IDX 41 45 42 46 65 47 66 48 74 49 67 50 73 51 68 52 69 53 70 54
REMARK SMILES IDX 71 55 72 56 51 57 52 58 60 59 53 60 59 61 54 62 55 63 56 64
REMARK SMILES IDX 57 65 58 66 5 67 6 68 7 69 8 70 9 71 10 72 25 73 11 74 14 75
REMARK SMILES IDX 12 76 13 77 15 78 16 79 17 80 24 81 18 82 19 83 23 84 20 85
REMARK SMILES IDX 22 86 21 87
REMARK H PARENT 79 22 49 33
REMARK Flexibility Score: inf
ROOT
ATOM      1  C   UNL A   1      34.436  32.930  27.725  1.00  0.00     0.275 C 
ENDROOT
BRANCH   1   2
ATOM      2  O   UNL A   1      33.908  31.618  27.976  1.00  0.00    -0.458 OA
BRANCH   2   3
ATOM      3  C   UNL A   1      34.432  30.385  27.802  1.00  0.00     0.338 C 
ATOM      4  O   UNL A   1      33.732  29.553  27.224  1.00  0.00    -0.246 OA
BRANCH   3   5
ATOM      5  C   UNL A   1      35.787  29.927  28.277  1.00  0.00     0.060 A 
ATOM      6  C   UNL A   1      36.119  29.437  29.544  1.00  0.00     0.016 A 
ATOM      7  C   UNL A   1      36.834  30.023  27.336  1.00  0.00     0.016 A 
ATOM      8  C   UNL A   1      37.426  29.015  29.844  1.00  0.00     0.010 A 
ATOM      9  C   UNL A   1      38.140  29.603  27.631  1.00  0.00     0.010 A 
ATOM     10  C   UNL A   1      38.446  29.088  28.893  1.00  0.00    -0.014 A 
BRANCH  10  11
ATOM     11  C   UNL A   1      39.842  28.728  29.256  1.00  0.00     0.031 A 
ATOM     12  C   UNL A   1      40.595  29.630  30.164  1.00  0.00     0.074 A 
ATOM     13  C   UNL A   1      40.439  27.617  28.786  1.00  0.00     0.049 A 
ATOM     14  N   UNL A   1      41.759  29.436  30.716  1.00  0.00    -0.248 NA
ATOM     15  C   UNL A   1      39.957  30.914  30.493  1.00  0.00     0.031 C 
ATOM     16  C   UNL A   1      39.772  26.680  27.910  1.00  0.00     0.029 A 
ATOM     17  N   UNL A   1      41.681  27.055  28.974  1.00  0.00    -0.354 N 
ATOM     18  C   UNL A   1      42.006  30.579  31.453  1.00  0.00     0.074 A 
ATOM     19  C   UNL A   1      40.880  31.469  31.262  1.00  0.00     0.031 C 
ATOM     20  C   UNL A   1      40.583  25.646  27.647  1.00  0.00     0.029 A 
ATOM     21  C   UNL A   1      41.823  25.814  28.378  1.00  0.00     0.049 A 
ATOM     22  H   UNL A   1      42.399  27.493  29.485  1.00  0.00     0.167 HD
ATOM     23  C   UNL A   1      43.086  30.856  32.214  1.00  0.00     0.031 A 
ATOM     24  C   UNL A   1      42.781  24.869  28.477  1.00  0.00     0.031 A 
ATOM     25  C   UNL A   1      44.223  29.988  32.333  1.00  0.00     0.049 A 
ATOM     26  C   UNL A   1      43.951  25.188  29.363  1.00  0.00     0.074 A 
ATOM     27  C   UNL A   1      45.401  30.204  33.021  1.00  0.00     0.029 A 
ATOM     28  N   UNL A   1      44.332  28.742  31.728  1.00  0.00    -0.354 N 
ATOM     29  N   UNL A   1      44.125  26.238  30.130  1.00  0.00    -0.248 NA
ATOM     30  C   UNL A   1      45.043  24.209  29.410  1.00  0.00     0.031 C 
ATOM     31  C   UNL A   1      46.244  29.112  32.790  1.00  0.00     0.029 A 
ATOM     32  C   UNL A   1      45.568  28.186  32.009  1.00  0.00     0.049 A 
ATOM     33  H   UNL A   1      43.633  28.317  31.180  1.00  0.00     0.167 HD
ATOM     34  C   UNL A   1      45.352  26.053  30.745  1.00  0.00     0.074 A 
ATOM     35  C   UNL A   1      45.843  24.757  30.314  1.00  0.00     0.031 C 
ATOM     36  C   UNL A   1      46.027  26.892  31.565  1.00  0.00     0.031 A 
BRANCH  23  37
ATOM     37  C   UNL A   1      43.081  32.192  32.891  1.00  0.00    -0.014 A 
ATOM     38  C   UNL A   1      42.517  32.353  34.170  1.00  0.00     0.010 A 
ATOM     39  C   UNL A   1      43.568  33.317  32.203  1.00  0.00     0.010 A 
ATOM     40  C   UNL A   1      42.389  33.626  34.726  1.00  0.00     0.020 A 
ATOM     41  C   UNL A   1      43.466  34.589  32.769  1.00  0.00     0.020 A 
ATOM     42  C   UNL A   1      42.857  34.736  34.016  1.00  0.00     0.054 A 
BRANCH  42  43
ATOM     43  S   UNL A   1      42.661  36.380  34.753  1.00  0.00     0.124 S 
ATOM     44  O   UNL A   1      41.258  36.362  35.160  1.00  0.00    -0.237 OA
ATOM     45  O   UNL A   1      43.631  36.358  35.845  1.00  0.00    -0.237 OA
ATOM     46  O   UNL A   1      42.981  37.291  33.657  1.00  0.00    -0.744 OA
ENDBRANCH  42  43
ENDBRANCH  23  37
BRANCH  24  47
ATOM     47  C   UNL A   1      42.644  23.518  27.832  1.00  0.00    -0.014 A 
ATOM     48  C   UNL A   1      41.896  22.497  28.455  1.00  0.00     0.010 A 
ATOM     49  C   UNL A   1      43.254  23.224  26.597  1.00  0.00     0.010 A 
ATOM     50  C   UNL A   1      41.794  21.219  27.888  1.00  0.00     0.020 A 
ATOM     51  C   UNL A   1      43.126  21.958  26.005  1.00  0.00     0.020 A 
ATOM     52  C   UNL A   1      42.415  20.956  26.665  1.00  0.00     0.054 A 
BRANCH  52  53
ATOM     53  S   UNL A   1      42.267  19.291  25.953  1.00  0.00     0.124 S 
ATOM     54  O   UNL A   1      40.827  19.178  25.739  1.00  0.00    -0.237 OA
ATOM     55  O   UNL A   1      43.078  19.393  24.742  1.00  0.00    -0.237 OA
ATOM     56  O   UNL A   1      42.813  18.417  26.990  1.00  0.00    -0.744 OA
ENDBRANCH  52  53
ENDBRANCH  24  47
BRANCH  36  57
ATOM     57  C   UNL A   1      47.376  26.434  32.038  1.00  0.00    -0.014 A 
ATOM     58  C   UNL A   1      47.510  25.709  33.237  1.00  0.00     0.010 A 
ATOM     59  C   UNL A   1      48.509  26.676  31.244  1.00  0.00     0.010 A 
ATOM     60  C   UNL A   1      48.763  25.255  33.645  1.00  0.00     0.020 A 
ATOM     61  C   UNL A   1      49.759  26.194  31.634  1.00  0.00     0.020 A 
ATOM     62  C   UNL A   1      49.879  25.496  32.838  1.00  0.00     0.054 A 
BRANCH  62  63
ATOM     63  S   UNL A   1      51.483  24.833  33.357  1.00  0.00     0.124 S 
ATOM     64  O   UNL A   1      52.096  24.485  32.077  1.00  0.00    -0.237 OA
ATOM     65  O   UNL A   1      52.086  25.966  34.055  1.00  0.00    -0.237 OA
ATOM     66  O   UNL A   1      51.130  23.700  34.209  1.00  0.00    -0.744 OA
ENDBRANCH  62  63
ENDBRANCH  36  57
ENDBRANCH  10  11
ENDBRANCH   3   5
ENDBRANCH   2   3
ENDBRANCH   1   2
BRANCH   1  67
ATOM     67  C   UNL A   1      33.409  34.034  27.924  1.00  0.00     0.274 C 
BRANCH  67  68
ATOM     68  O   UNL A   1      33.952  35.178  28.586  1.00  0.00    -0.462 OA
BRANCH  68  69
ATOM     69  C   UNL A   1      33.110  35.952  29.333  1.00  0.00     0.310 C 
ATOM     70  O   UNL A   1      32.169  36.585  28.892  1.00  0.00    -0.252 OA
BRANCH  69  71
ATOM     71  C   UNL A   1      33.570  36.009  30.784  1.00  0.00     0.119 C 
ATOM     72  C   UNL A   1      32.535  36.472  31.779  1.00  0.00     0.027 C 
ATOM     73  C   UNL A   1      34.017  34.621  31.208  1.00  0.00     0.134 C 
ATOM     74  C   UNL A   1      33.171  36.540  33.164  1.00  0.00     0.101 C 
ATOM     75  N   UNL A   1      34.448  34.459  32.564  1.00  0.00    -0.341 N 
ATOM     76  C   UNL A   1      34.278  35.512  33.466  1.00  0.00     0.222 C 
ATOM     77  O   UNL A   1      34.929  35.610  34.504  1.00  0.00    -0.275 OA
BRANCH  75  78
ATOM     78  C   UNL A   1      35.284  33.271  32.893  1.00  0.00     0.131 C 
BRANCH  78  79
ATOM     79  C   UNL A   1      36.836  33.211  32.617  1.00  0.00     0.080 C 
ATOM     80  C   UNL A   1      37.812  33.945  33.561  1.00  0.00     0.239 C 
ATOM     81  C   UNL A   1      37.455  33.580  31.311  1.00  0.00     0.002 A 
ATOM     82  O   UNL A   1      38.915  34.532  32.828  1.00  0.00    -0.493 OA
ATOM     83  C   UNL A   1      38.608  34.322  31.513  1.00  0.00     0.122 A 
ATOM     84  C   UNL A   1      37.174  33.127  30.034  1.00  0.00     0.008 A 
ATOM     85  C   UNL A   1      39.426  34.744  30.477  1.00  0.00     0.047 A 
ATOM     86  C   UNL A   1      37.980  33.543  28.962  1.00  0.00     0.001 A 
ATOM     87  C   UNL A   1      39.088  34.369  29.179  1.00  0.00     0.004 A 
ENDBRANCH  78  79
ENDBRANCH  75  78
ENDBRANCH  69  71
ENDBRANCH  68  69
ENDBRANCH  67  68
ENDBRANCH   1  67
TORSDOF 16
ENDMDL
MODEL 2
REMARK VINA RESULT:     -10.2      3.840     10.974
REMARK SMILES O=C(OCCOC(=O)[C@H]1CCC(=O)N(C[C@@H]2COc3ccccc32)C1)c1ccc(-c2c3nc(c(-c4ccc(S(=O)(=O)[O-])cc4)c4ccc([nH]4)c(-c4ccc(S(=O)(=O)[O-])cc4)c4nc(c(-c5ccc(S(=O)(=O)[O-])cc5)c5ccc2[nH]5)C=C4)C=C3)cc1
REMARK SMILES IDX 4 1 3 2 2 3 1 4 26 5 27 6 85 7 28 8 84 9 29 10 30 11 31 12
REMARK SMILES IDX 78 13 32 14 83 15 77 16 79 17 33 18 82 19 76 20 75 21 34 23
REMARK SMILES IDX 64 24 45 25 63 26 46 27 49 28 62 29 80 30 47 31 48 32 61 34
REMARK SMILES IDX 81 35 50 36 35 37 36 38 44 39 37 40 43 41 38 42 39 43 40 44
REMARK SMILES IDX 41 45 42 46 65 47 66 48 74 49 67 50 73 51 68 52 69 53 70 54
REMARK SMILES IDX 71 55 72 56 51 57 52 58 60 59 53 60 59 61 54 62 55 63 56 64
REMARK SMILES IDX 57 65 58 66 5 67 6 68 7 69 8 70 9 71 10 72 25 73 11 74 14 75
REMARK SMILES IDX 12 76 13 77 15 78 16 79 17 80 24 81 18 82 19 83 23 84 20 85
REMARK SMILES IDX 22 86 21 87
REMARK H PARENT 79 22 49 33
REMARK Flexibility Score: inf
ROOT
ATOM      1  C   UNL A   1      37.101  21.385  25.247  1.00  0.00     0.275 C 
ENDROOT
BRANCH   1   2
ATOM      2  O   UNL A   1      37.802  22.596  25.574  1.00  0.00    -0.458 OA
BRANCH   2   3
ATOM      3  C   UNL A   1      38.978  22.818  26.200  1.00  0.00     0.338 C 
ATOM      4  O   UNL A   1      39.724  21.850  26.353  1.00  0.00    -0.246 OA
BRANCH   3   5
ATOM      5  C   UNL A   1      39.449  24.138  26.754  1.00  0.00     0.060 A 
ATOM      6  C   UNL A   1      40.203  25.112  26.095  1.00  0.00     0.016 A 
ATOM      7  C   UNL A   1      39.098  24.402  28.095  1.00  0.00     0.016 A 
ATOM      8  C   UNL A   1      40.551  26.319  26.727  1.00  0.00     0.010 A 
ATOM      9  C   UNL A   1      39.443  25.604  28.731  1.00  0.00     0.010 A 
ATOM     10  C   UNL A   1      40.171  26.580  28.045  1.00  0.00    -0.014 A 
BRANCH  10  11
ATOM     11  C   UNL A   1      40.628  27.817  28.730  1.00  0.00     0.031 A 
ATOM     12  C   UNL A   1      42.066  27.944  29.084  1.00  0.00     0.074 A 
ATOM     13  C   UNL A   1      39.783  28.818  29.039  1.00  0.00     0.049 A 
ATOM     14  N   UNL A   1      42.696  28.984  29.550  1.00  0.00    -0.248 NA
ATOM     15  C   UNL A   1      42.898  26.748  28.890  1.00  0.00     0.031 C 
ATOM     16  C   UNL A   1      38.374  28.780  28.717  1.00  0.00     0.029 A 
ATOM     17  N   UNL A   1      39.944  30.046  29.639  1.00  0.00    -0.354 N 
ATOM     18  C   UNL A   1      44.004  28.571  29.718  1.00  0.00     0.074 A 
ATOM     19  C   UNL A   1      44.072  27.180  29.324  1.00  0.00     0.031 C 
ATOM     20  C   UNL A   1      37.790  29.927  29.091  1.00  0.00     0.029 A 
ATOM     21  C   UNL A   1      38.794  30.816  29.639  1.00  0.00     0.049 A 
ATOM     22  H   UNL A   1      40.795  30.348  30.029  1.00  0.00     0.167 HD
ATOM     23  C   UNL A   1      45.050  29.294  30.171  1.00  0.00     0.031 A 
ATOM     24  C   UNL A   1      38.575  32.113  29.945  1.00  0.00     0.031 A 
ATOM     25  C   UNL A   1      44.944  30.653  30.624  1.00  0.00     0.049 A 
ATOM     26  C   UNL A   1      39.765  32.904  30.406  1.00  0.00     0.074 A 
ATOM     27  C   UNL A   1      45.927  31.456  31.170  1.00  0.00     0.029 A 
ATOM     28  N   UNL A   1      43.775  31.404  30.604  1.00  0.00    -0.354 N 
ATOM     29  N   UNL A   1      41.018  32.522  30.471  1.00  0.00    -0.248 NA
ATOM     30  C   UNL A   1      39.527  34.289  30.827  1.00  0.00     0.031 C 
ATOM     31  C   UNL A   1      45.341  32.675  31.527  1.00  0.00     0.029 A 
ATOM     32  C   UNL A   1      44.007  32.655  31.148  1.00  0.00     0.049 A 
ATOM     33  H   UNL A   1      42.910  31.092  30.254  1.00  0.00     0.167 HD
ATOM     34  C   UNL A   1      41.719  33.616  30.950  1.00  0.00     0.074 A 
ATOM     35  C   UNL A   1      40.761  34.696  31.091  1.00  0.00     0.031 C 
ATOM     36  C   UNL A   1      43.031  33.710  31.274  1.00  0.00     0.031 A 
BRANCH  23  37
ATOM     37  C   UNL A   1      46.356  28.568  30.259  1.00  0.00    -0.014 A 
ATOM     38  C   UNL A   1      47.215  28.487  29.147  1.00  0.00     0.010 A 
ATOM     39  C   UNL A   1      46.688  27.885  31.441  1.00  0.00     0.010 A 
ATOM     40  C   UNL A   1      48.357  27.687  29.198  1.00  0.00     0.020 A 
ATOM     41  C   UNL A   1      47.845  27.106  31.505  1.00  0.00     0.020 A 
ATOM     42  C   UNL A   1      48.659  26.995  30.375  1.00  0.00     0.054 A 
BRANCH  42  43
ATOM     43  S   UNL A   1      50.138  25.949  30.410  1.00  0.00     0.124 S 
ATOM     44  O   UNL A   1      51.189  26.924  30.691  1.00  0.00    -0.237 OA
ATOM     45  O   UNL A   1      49.843  25.015  31.492  1.00  0.00    -0.237 OA
ATOM     46  O   UNL A   1      50.176  25.359  29.074  1.00  0.00    -0.744 OA
ENDBRANCH  42  43
ENDBRANCH  23  37
BRANCH  24  47
ATOM     47  C   UNL A   1      37.243  32.774  29.729  1.00  0.00    -0.014 A 
ATOM     48  C   UNL A   1      36.900  33.305  28.468  1.00  0.00     0.010 A 
ATOM     49  C   UNL A   1      36.299  32.888  30.768  1.00  0.00     0.010 A 
ATOM     50  C   UNL A   1      35.679  33.962  28.262  1.00  0.00     0.020 A 
ATOM     51  C   UNL A   1      35.059  33.512  30.559  1.00  0.00     0.020 A 
ATOM     52  C   UNL A   1      34.765  34.065  29.312  1.00  0.00     0.054 A 
BRANCH  52  53
ATOM     53  S   UNL A   1      33.191  34.922  29.018  1.00  0.00     0.124 S 
ATOM     54  O   UNL A   1      32.590  34.921  30.349  1.00  0.00    -0.237 OA
ATOM     55  O   UNL A   1      33.628  36.226  28.526  1.00  0.00    -0.237 OA
ATOM     56  O   UNL A   1      32.515  34.084  28.030  1.00  0.00    -0.744 OA
ENDBRANCH  52  53
ENDBRANCH  24  47
BRANCH  36  57
ATOM     57  C   UNL A   1      43.497  35.025  31.826  1.00  0.00    -0.014 A 
ATOM     58  C   UNL A   1      43.960  36.041  30.969  1.00  0.00     0.010 A 
ATOM     59  C   UNL A   1      43.410  35.269  33.207  1.00  0.00     0.010 A 
ATOM     60  C   UNL A   1      44.353  37.273  31.490  1.00  0.00     0.020 A 
ATOM     61  C   UNL A   1      43.772  36.513  33.726  1.00  0.00     0.020 A 
ATOM     62  C   UNL A   1      44.251  37.503  32.865  1.00  0.00     0.054 A 
BRANCH  62  63
ATOM     63  S   UNL A   1      44.701  39.136  33.507  1.00  0.00     0.124 S 
ATOM     64  O   UNL A   1      43.413  39.645  33.971  1.00  0.00    -0.237 OA
ATOM     65  O   UNL A   1      45.664  38.812  34.557  1.00  0.00    -0.237 OA
ATOM     66  O   UNL A   1      45.262  39.821  32.345  1.00  0.00    -0.744 OA
ENDBRANCH  62  63
ENDBRANCH  36  57
ENDBRANCH  10  11
ENDBRANCH   3   5
ENDBRANCH   2   3
ENDBRANCH   1   2
BRANCH   1  67
ATOM     67  C   UNL A   1      35.688  21.632  24.741  1.00  0.00     0.274 C 
BRANCH  67  68
ATOM     68  O   UNL A   1      34.710  21.556  25.781  1.00  0.00    -0.462 OA
BRANCH  68  69
ATOM     69  C   UNL A   1      33.572  22.301  25.653  1.00  0.00     0.310 C 
ATOM     70  O   UNL A   1      32.632  22.276  26.424  1.00  0.00    -0.252 OA
BRANCH  69  71
ATOM     71  C   UNL A   1      33.585  23.090  24.350  1.00  0.00     0.119 C 
ATOM     72  C   UNL A   1      32.570  22.664  23.319  1.00  0.00     0.027 C 
ATOM     73  C   UNL A   1      33.326  24.553  24.665  1.00  0.00     0.134 C 
ATOM     74  C   UNL A   1      32.762  23.501  22.057  1.00  0.00     0.101 C 
ATOM     75  N   UNL A   1      33.257  25.458  23.557  1.00  0.00    -0.341 N 
ATOM     76  C   UNL A   1      33.254  24.947  22.257  1.00  0.00     0.222 C 
ATOM     77  O   UNL A   1      33.568  25.620  21.277  1.00  0.00    -0.275 OA
BRANCH  75  78
ATOM     78  C   UNL A   1      33.443  26.910  23.829  1.00  0.00     0.131 C 
BRANCH  78  79
ATOM     79  C   UNL A   1      32.636  27.684  24.942  1.00  0.00     0.080 C 
ATOM     80  C   UNL A   1      31.346  28.444  24.566  1.00  0.00     0.239 C 
ATOM     81  C   UNL A   1      33.249  28.701  25.845  1.00  0.00     0.002 A 
ATOM     82  O   UNL A   1      31.228  29.683  25.307  1.00  0.00    -0.493 OA
ATOM     83  C   UNL A   1      32.404  29.790  25.994  1.00  0.00     0.122 A 
ATOM     84  C   UNL A   1      34.361  28.609  26.664  1.00  0.00     0.008 A 
ATOM     85  C   UNL A   1      32.688  30.857  26.831  1.00  0.00     0.047 A 
ATOM     86  C   UNL A   1      34.679  29.678  27.518  1.00  0.00     0.001 A 
ATOM     87  C   UNL A   1      33.858  30.809  27.583  1.00  0.00     0.004 A 
ENDBRANCH  78  79
ENDBRANCH  75  78
ENDBRANCH  69  71
ENDBRANCH  68  69
ENDBRANCH  67  68
ENDBRANCH   1  67
TORSDOF 16
ENDMDL
MODEL 3
REMARK VINA RESULT:     -10.1      3.016      6.110
REMARK SMILES O=C(OCCOC(=O)[C@H]1CCC(=O)N(C[C@@H]2COc3ccccc32)C1)c1ccc(-c2c3nc(c(-c4ccc(S(=O)(=O)[O-])cc4)c4ccc([nH]4)c(-c4ccc(S(=O)(=O)[O-])cc4)c4nc(c(-c5ccc(S(=O)(=O)[O-])cc5)c5ccc2[nH]5)C=C4)C=C3)cc1
REMARK SMILES IDX 4 1 3 2 2 3 1 4 26 5 27 6 85 7 28 8 84 9 29 10 30 11 31 12
REMARK SMILES IDX 78 13 32 14 83 15 77 16 79 17 33 18 82 19 76 20 75 21 34 23
REMARK SMILES IDX 64 24 45 25 63 26 46 27 49 28 62 29 80 30 47 31 48 32 61 34
REMARK SMILES IDX 81 35 50 36 35 37 36 38 44 39 37 40 43 41 38 42 39 43 40 44
REMARK SMILES IDX 41 45 42 46 65 47 66 48 74 49 67 50 73 51 68 52 69 53 70 54
REMARK SMILES IDX 71 55 72 56 51 57 52 58 60 59 53 60 59 61 54 62 55 63 56 64
REMARK SMILES IDX 57 65 58 66 5 67 6 68 7 69 8 70 9 71 10 72 25 73 11 74 14 75
REMARK SMILES IDX 12 76 13 77 15 78 16 79 17 80 24 81 18 82 19 83 23 84 20 85
REMARK SMILES IDX 22 86 21 87
REMARK H PARENT 79 22 49 33
REMARK Flexibility Score: inf
ROOT
ATOM      1  C   UNL A   1      32.379  29.569  27.079  1.00  0.00     0.275 C 
ENDROOT
BRANCH   1   2
ATOM      2  O   UNL A   1      33.740  30.021  26.990  1.00  0.00    -0.458 OA
BRANCH   2   3
ATOM      3  C   UNL A   1      34.554  30.617  27.888  1.00  0.00     0.338 C 
ATOM      4  O   UNL A   1      34.192  31.704  28.339  1.00  0.00    -0.246 OA
BRANCH   3   5
ATOM      5  C   UNL A   1      35.881  30.085  28.367  1.00  0.00     0.060 A 
ATOM      6  C   UNL A   1      36.161  29.495  29.602  1.00  0.00     0.016 A 
ATOM      7  C   UNL A   1      36.958  30.219  27.465  1.00  0.00     0.016 A 
ATOM      8  C   UNL A   1      37.445  29.014  29.908  1.00  0.00     0.010 A 
ATOM      9  C   UNL A   1      38.243  29.741  27.766  1.00  0.00     0.010 A 
ATOM     10  C   UNL A   1      38.496  29.126  28.994  1.00  0.00    -0.014 A 
BRANCH  10  11
ATOM     11  C   UNL A   1      39.869  28.700  29.370  1.00  0.00     0.031 A 
ATOM     12  C   UNL A   1      40.649  29.555  30.301  1.00  0.00     0.074 A 
ATOM     13  C   UNL A   1      40.423  27.570  28.892  1.00  0.00     0.049 A 
ATOM     14  N   UNL A   1      41.796  29.302  30.864  1.00  0.00    -0.248 NA
ATOM     15  C   UNL A   1      40.065  30.861  30.640  1.00  0.00     0.031 C 
ATOM     16  C   UNL A   1      39.728  26.675  27.994  1.00  0.00     0.029 A 
ATOM     17  N   UNL A   1      41.637  26.951  29.088  1.00  0.00    -0.354 N 
ATOM     18  C   UNL A   1      42.084  30.422  31.621  1.00  0.00     0.074 A 
ATOM     19  C   UNL A   1      41.001  31.364  31.428  1.00  0.00     0.031 C 
ATOM     20  C   UNL A   1      40.496  25.610  27.726  1.00  0.00     0.029 A 
ATOM     21  C   UNL A   1      41.732  25.713  28.475  1.00  0.00     0.049 A 
ATOM     22  H   UNL A   1      42.367  27.349  29.614  1.00  0.00     0.167 HD
ATOM     23  C   UNL A   1      43.165  30.641  32.400  1.00  0.00     0.031 A 
ATOM     24  C   UNL A   1      42.646  24.725  28.572  1.00  0.00     0.031 A 
ATOM     25  C   UNL A   1      44.261  29.722  32.520  1.00  0.00     0.049 A 
ATOM     26  C   UNL A   1      43.817  24.980  29.478  1.00  0.00     0.074 A 
ATOM     27  C   UNL A   1      45.438  29.876  33.226  1.00  0.00     0.029 A 
ATOM     28  N   UNL A   1      44.323  28.481  31.898  1.00  0.00    -0.354 N 
ATOM     29  N   UNL A   1      44.027  26.010  30.262  1.00  0.00    -0.248 NA
ATOM     30  C   UNL A   1      44.864  23.953  29.525  1.00  0.00     0.031 C 
ATOM     31  C   UNL A   1      46.235  28.750  32.990  1.00  0.00     0.029 A 
ATOM     32  C   UNL A   1      45.530  27.867  32.187  1.00  0.00     0.049 A 
ATOM     33  H   UNL A   1      43.613  28.095  31.336  1.00  0.00     0.167 HD
ATOM     34  C   UNL A   1      45.237  25.763  30.889  1.00  0.00     0.074 A 
ATOM     35  C   UNL A   1      45.676  24.453  30.447  1.00  0.00     0.031 C 
ATOM     36  C   UNL A   1      45.937  26.560  31.730  1.00  0.00     0.031 A 
BRANCH  23  37
ATOM     37  C   UNL A   1      43.210  31.967  33.095  1.00  0.00    -0.014 A 
ATOM     38  C   UNL A   1      42.528  32.169  34.310  1.00  0.00     0.010 A 
ATOM     39  C   UNL A   1      43.869  33.046  32.483  1.00  0.00     0.010 A 
ATOM     40  C   UNL A   1      42.458  33.444  34.871  1.00  0.00     0.020 A 
ATOM     41  C   UNL A   1      43.824  34.317  33.057  1.00  0.00     0.020 A 
ATOM     42  C   UNL A   1      43.100  34.512  34.235  1.00  0.00     0.054 A 
BRANCH  42  43
ATOM     43  S   UNL A   1      42.978  36.161  34.976  1.00  0.00     0.124 S 
ATOM     44  O   UNL A   1      41.733  36.058  35.733  1.00  0.00    -0.237 OA
ATOM     45  O   UNL A   1      44.196  36.241  35.779  1.00  0.00    -0.237 OA
ATOM     46  O   UNL A   1      42.935  37.056  33.823  1.00  0.00    -0.744 OA
ENDBRANCH  42  43
ENDBRANCH  23  37
BRANCH  24  47
ATOM     47  C   UNL A   1      42.459  23.391  27.906  1.00  0.00    -0.014 A 
ATOM     48  C   UNL A   1      41.481  22.486  28.373  1.00  0.00     0.010 A 
ATOM     49  C   UNL A   1      43.245  22.998  26.807  1.00  0.00     0.010 A 
ATOM     50  C   UNL A   1      41.322  21.222  27.790  1.00  0.00     0.020 A 
ATOM     51  C   UNL A   1      43.067  21.747  26.195  1.00  0.00     0.020 A 
ATOM     52  C   UNL A   1      42.121  20.857  26.705  1.00  0.00     0.054 A 
BRANCH  52  53
ATOM     53  S   UNL A   1      41.895  19.212  25.969  1.00  0.00     0.124 S 
ATOM     54  O   UNL A   1      40.453  19.174  25.745  1.00  0.00    -0.237 OA
ATOM     55  O   UNL A   1      42.717  19.289  24.763  1.00  0.00    -0.237 OA
ATOM     56  O   UNL A   1      42.390  18.298  26.996  1.00  0.00    -0.744 OA
ENDBRANCH  52  53
ENDBRANCH  24  47
BRANCH  36  57
ATOM     57  C   UNL A   1      47.258  26.036  32.214  1.00  0.00    -0.014 A 
ATOM     58  C   UNL A   1      47.365  25.402  33.465  1.00  0.00     0.010 A 
ATOM     59  C   UNL A   1      48.386  26.123  31.381  1.00  0.00     0.010 A 
ATOM     60  C   UNL A   1      48.590  24.884  33.886  1.00  0.00     0.020 A 
ATOM     61  C   UNL A   1      49.604  25.576  31.786  1.00  0.00     0.020 A 
ATOM     62  C   UNL A   1      49.700  24.970  33.041  1.00  0.00     0.054 A 
BRANCH  62  63
ATOM     63  S   UNL A   1      51.261  24.226  33.581  1.00  0.00     0.124 S 
ATOM     64  O   UNL A   1      52.196  25.338  33.429  1.00  0.00    -0.237 OA
ATOM     65  O   UNL A   1      50.968  23.835  34.958  1.00  0.00    -0.237 OA
ATOM     66  O   UNL A   1      51.454  23.116  32.652  1.00  0.00    -0.744 OA
ENDBRANCH  62  63
ENDBRANCH  36  57
ENDBRANCH  10  11
ENDBRANCH   3   5
ENDBRANCH   2   3
ENDBRANCH   1   2
BRANCH   1  67
ATOM     67  C   UNL A   1      31.625  29.685  25.764  1.00  0.00     0.274 C 
BRANCH  67  68
ATOM     68  O   UNL A   1      32.429  29.337  24.635  1.00  0.00    -0.462 OA
BRANCH  68  69
ATOM     69  C   UNL A   1      32.109  28.206  23.939  1.00  0.00     0.310 C 
ATOM     70  O   UNL A   1      32.151  28.098  22.728  1.00  0.00    -0.252 OA
BRANCH  69  71
ATOM     71  C   UNL A   1      31.585  27.124  24.874  1.00  0.00     0.119 C 
ATOM     72  C   UNL A   1      30.281  26.485  24.466  1.00  0.00     0.027 C 
ATOM     73  C   UNL A   1      32.622  26.018  24.969  1.00  0.00     0.134 C 
ATOM     74  C   UNL A   1      29.862  25.482  25.537  1.00  0.00     0.101 C 
ATOM     75  N   UNL A   1      32.293  24.881  25.775  1.00  0.00    -0.341 N 
ATOM     76  C   UNL A   1      30.998  24.756  26.283  1.00  0.00     0.222 C 
ATOM     77  O   UNL A   1      30.730  24.050  27.254  1.00  0.00    -0.275 OA
BRANCH  75  78
ATOM     78  C   UNL A   1      33.407  24.010  26.242  1.00  0.00     0.131 C 
BRANCH  78  79
ATOM     79  C   UNL A   1      34.374  23.250  25.254  1.00  0.00     0.080 C 
ATOM     80  C   UNL A   1      33.983  21.855  24.721  1.00  0.00     0.239 C 
ATOM     81  C   UNL A   1      35.813  22.992  25.548  1.00  0.00     0.002 A 
ATOM     82  O   UNL A   1      35.138  20.987  24.617  1.00  0.00    -0.493 OA
ATOM     83  C   UNL A   1      36.162  21.705  25.170  1.00  0.00     0.122 A 
ATOM     84  C   UNL A   1      36.818  23.870  25.913  1.00  0.00     0.008 A 
ATOM     85  C   UNL A   1      37.454  21.215  25.264  1.00  0.00     0.047 A 
ATOM     86  C   UNL A   1      38.137  23.401  26.025  1.00  0.00     0.001 A 
ATOM     87  C   UNL A   1      38.450  22.071  25.725  1.00  0.00     0.004 A 
ENDBRANCH  78  79
ENDBRANCH  75  78
ENDBRANCH  69  71
ENDBRANCH  68  69
ENDBRANCH  67  68
ENDBRANCH   1  67
TORSDOF 16
ENDMDL
