MODEL 1
REMARK VINA RESULT:     -11.0      0.000      0.000
REMARK SMILES O=C(OCCOC(=O)c1cncc(Oc2cc(F)ccc2F)n1)c1ccc(-c2c3nc(c(-c4ccc(S(=O)(=O)[O-])cc4)c4ccc([nH]4)c(-c4ccc(S(=O)(=O)[O-])cc4)c4nc(c(-c5ccc(S(=O)(=O)[O-])cc5)c5ccc2[nH]5)C=C4)C=C3)cc1
REMARK SMILES IDX 4 1 3 2 2 3 1 4 24 5 25 6 83 7 26 8 82 9 27 10 28 11 29 12
REMARK SMILES IDX 76 13 30 14 81 15 75 16 77 17 31 18 80 19 74 20 73 21 32 23
REMARK SMILES IDX 62 24 43 25 61 26 44 27 47 28 60 29 78 30 45 31 46 32 59 34
REMARK SMILES IDX 79 35 48 36 33 37 34 38 42 39 35 40 41 41 36 42 37 43 38 44
REMARK SMILES IDX 39 45 40 46 63 47 64 48 72 49 65 50 71 51 66 52 67 53 68 54
REMARK SMILES IDX 69 55 70 56 49 57 50 58 58 59 51 60 57 61 52 62 53 63 54 64
REMARK SMILES IDX 55 65 56 66 5 67 6 68 7 69 8 70 9 71 10 72 23 73 11 74 13 75
REMARK SMILES IDX 12 76 14 77 15 78 16 79 21 80 17 81 20 82 22 83 18 84 19 85
REMARK H PARENT 77 22 47 33
REMARK Flexibility Score: inf
ROOT
ATOM      1  C   UNL A   1      40.973  21.156  26.189  1.00  0.00     0.275 C 
ENDROOT
BRANCH   1   2
ATOM      2  O   UNL A   1      39.702  21.616  26.676  1.00  0.00    -0.458 OA
BRANCH   2   3
ATOM      3  C   UNL A   1      39.000  22.718  26.329  1.00  0.00     0.338 C 
ATOM      4  O   UNL A   1      38.097  22.618  25.500  1.00  0.00    -0.246 OA
BRANCH   3   5
ATOM      5  C   UNL A   1      39.347  24.089  26.811  1.00  0.00     0.060 A 
ATOM      6  C   UNL A   1      40.097  25.040  26.118  1.00  0.00     0.016 A 
ATOM      7  C   UNL A   1      38.938  24.399  28.116  1.00  0.00     0.016 A 
ATOM      8  C   UNL A   1      40.384  26.285  26.695  1.00  0.00     0.010 A 
ATOM      9  C   UNL A   1      39.219  25.638  28.699  1.00  0.00     0.010 A 
ATOM     10  C   UNL A   1      39.964  26.586  27.995  1.00  0.00    -0.014 A 
BRANCH  10  11
ATOM     11  C   UNL A   1      40.443  27.821  28.661  1.00  0.00     0.031 A 
ATOM     12  C   UNL A   1      41.880  27.896  29.099  1.00  0.00     0.074 A 
ATOM     13  C   UNL A   1      39.621  28.873  28.838  1.00  0.00     0.049 A 
ATOM     14  N   UNL A   1      42.549  28.920  29.560  1.00  0.00    -0.248 NA
ATOM     15  C   UNL A   1      42.669  26.657  29.002  1.00  0.00     0.031 C 
ATOM     16  C   UNL A   1      38.209  28.910  28.465  1.00  0.00     0.029 A 
ATOM     17  N   UNL A   1      39.858  30.116  29.369  1.00  0.00    -0.354 N 
ATOM     18  C   UNL A   1      43.841  28.457  29.777  1.00  0.00     0.074 A 
ATOM     19  C   UNL A   1      43.845  27.044  29.470  1.00  0.00     0.031 C 
ATOM     20  C   UNL A   1      37.702  30.117  28.775  1.00  0.00     0.029 A 
ATOM     21  C   UNL A   1      38.756  30.940  29.359  1.00  0.00     0.049 A 
ATOM     22  H   UNL A   1      40.734  30.392  29.723  1.00  0.00     0.167 HD
ATOM     23  C   UNL A   1      44.937  29.151  30.165  1.00  0.00     0.031 A 
ATOM     24  C   UNL A   1      38.621  32.221  29.755  1.00  0.00     0.031 A 
ATOM     25  C   UNL A   1      44.919  30.547  30.499  1.00  0.00     0.049 A 
ATOM     26  C   UNL A   1      39.839  32.959  30.245  1.00  0.00     0.074 A 
ATOM     27  C   UNL A   1      45.971  31.360  30.882  1.00  0.00     0.029 A 
ATOM     28  N   UNL A   1      43.777  31.337  30.507  1.00  0.00    -0.354 N 
ATOM     29  N   UNL A   1      41.074  32.529  30.350  1.00  0.00    -0.248 NA
ATOM     30  C   UNL A   1      39.652  34.363  30.637  1.00  0.00     0.031 C 
ATOM     31  C   UNL A   1      45.456  32.631  31.163  1.00  0.00     0.029 A 
ATOM     32  C   UNL A   1      44.093  32.622  30.908  1.00  0.00     0.049 A 
ATOM     33  H   UNL A   1      42.876  31.028  30.260  1.00  0.00     0.167 HD
ATOM     34  C   UNL A   1      41.820  33.622  30.779  1.00  0.00     0.074 A 
ATOM     35  C   UNL A   1      40.895  34.731  30.912  1.00  0.00     0.031 C 
ATOM     36  C   UNL A   1      43.152  33.707  31.027  1.00  0.00     0.031 A 
BRANCH  23  37
ATOM     37  C   UNL A   1      46.229  28.385  30.252  1.00  0.00    -0.014 A 
ATOM     38  C   UNL A   1      47.065  28.253  29.126  1.00  0.00     0.010 A 
ATOM     39  C   UNL A   1      46.600  27.761  31.456  1.00  0.00     0.010 A 
ATOM     40  C   UNL A   1      48.211  27.456  29.183  1.00  0.00     0.020 A 
ATOM     41  C   UNL A   1      47.760  26.984  31.525  1.00  0.00     0.020 A 
ATOM     42  C   UNL A   1      48.544  26.815  30.380  1.00  0.00     0.054 A 
BRANCH  42  43
ATOM     43  S   UNL A   1      50.019  25.761  30.422  1.00  0.00     0.124 S 
ATOM     44  O   UNL A   1      49.925  25.062  29.143  1.00  0.00    -0.237 OA
ATOM     45  O   UNL A   1      51.106  26.731  30.527  1.00  0.00    -0.237 OA
ATOM     46  O   UNL A   1      49.816  24.929  31.605  1.00  0.00    -0.744 OA
ENDBRANCH  42  43
ENDBRANCH  23  37
BRANCH  24  47
ATOM     47  C   UNL A   1      37.299  32.903  29.653  1.00  0.00    -0.014 A 
ATOM     48  C   UNL A   1      36.487  33.064  30.790  1.00  0.00     0.010 A 
ATOM     49  C   UNL A   1      36.847  33.400  28.418  1.00  0.00     0.010 A 
ATOM     50  C   UNL A   1      35.242  33.692  30.690  1.00  0.00     0.020 A 
ATOM     51  C   UNL A   1      35.612  34.050  28.317  1.00  0.00     0.020 A 
ATOM     52  C   UNL A   1      34.812  34.182  29.454  1.00  0.00     0.054 A 
BRANCH  52  53
ATOM     53  S   UNL A   1      33.212  35.035  29.360  1.00  0.00     0.124 S 
ATOM     54  O   UNL A   1      33.607  36.382  28.960  1.00  0.00    -0.237 OA
ATOM     55  O   UNL A   1      32.499  34.258  28.348  1.00  0.00    -0.237 OA
ATOM     56  O   UNL A   1      32.680  34.916  30.715  1.00  0.00    -0.744 OA
ENDBRANCH  52  53
ENDBRANCH  24  47
BRANCH  36  57
ATOM     57  C   UNL A   1      43.692  35.053  31.425  1.00  0.00    -0.014 A 
ATOM     58  C   UNL A   1      44.087  35.994  30.460  1.00  0.00     0.010 A 
ATOM     59  C   UNL A   1      43.748  35.396  32.789  1.00  0.00     0.010 A 
ATOM     60  C   UNL A   1      44.560  37.249  30.854  1.00  0.00     0.020 A 
ATOM     61  C   UNL A   1      44.196  36.658  33.185  1.00  0.00     0.020 A 
ATOM     62  C   UNL A   1      44.613  37.571  32.215  1.00  0.00     0.054 A 
BRANCH  62  63
ATOM     63  S   UNL A   1      45.185  39.222  32.702  1.00  0.00     0.124 S 
ATOM     64  O   UNL A   1      44.607  39.361  34.036  1.00  0.00    -0.237 OA
ATOM     65  O   UNL A   1      46.639  39.086  32.657  1.00  0.00    -0.237 OA
ATOM     66  O   UNL A   1      44.617  40.099  31.680  1.00  0.00    -0.744 OA
ENDBRANCH  62  63
ENDBRANCH  36  57
ENDBRANCH  10  11
ENDBRANCH   3   5
ENDBRANCH   2   3
ENDBRANCH   1   2
BRANCH   1  67
ATOM     67  C   UNL A   1      41.182  19.647  26.282  1.00  0.00     0.275 C 
BRANCH  67  68
ATOM     68  O   UNL A   1      42.104  19.135  25.308  1.00  0.00    -0.457 OA
BRANCH  68  69
ATOM     69  C   UNL A   1      43.256  18.597  25.805  1.00  0.00     0.358 C 
ATOM     70  O   UNL A   1      43.338  17.646  26.563  1.00  0.00    -0.244 OA
BRANCH  69  71
ATOM     71  C   UNL A   1      44.410  19.350  25.259  1.00  0.00     0.170 A 
ATOM     72  C   UNL A   1      45.691  18.846  25.438  1.00  0.00     0.147 A 
ATOM     73  N   UNL A   1      44.162  20.533  24.623  1.00  0.00    -0.203 NA
ATOM     74  N   UNL A   1      46.793  19.502  25.007  1.00  0.00    -0.257 NA
ATOM     75  C   UNL A   1      45.273  21.203  24.222  1.00  0.00     0.238 A 
ATOM     76  C   UNL A   1      46.555  20.698  24.414  1.00  0.00     0.179 A 
BRANCH  75  77
ATOM     77  O   UNL A   1      45.200  22.491  23.700  1.00  0.00    -0.434 OA
BRANCH  77  78
ATOM     78  C   UNL A   1      45.189  23.535  24.590  1.00  0.00     0.168 A 
ATOM     79  C   UNL A   1      46.389  24.171  24.909  1.00  0.00     0.089 A 
ATOM     80  C   UNL A   1      43.984  24.058  25.054  1.00  0.00     0.166 A 
ATOM     81  C   UNL A   1      46.370  25.276  25.753  1.00  0.00     0.127 A 
ATOM     82  C   UNL A   1      43.968  25.183  25.878  1.00  0.00     0.046 A 
ATOM     83  F   UNL A   1      42.820  23.512  24.675  1.00  0.00    -0.203 F 
ATOM     84  F   UNL A   1      47.523  25.873  26.085  1.00  0.00    -0.207 F 
ATOM     85  C   UNL A   1      45.171  25.789  26.241  1.00  0.00     0.042 A 
ENDBRANCH  77  78
ENDBRANCH  75  77
ENDBRANCH  69  71
ENDBRANCH  68  69
ENDBRANCH  67  68
ENDBRANCH   1  67
TORSDOF 16
ENDMDL
MODEL 2
REMARK VINA RESULT:     -10.6      1.715      2.221
REMARK SMILES O=C(OCCOC(=O)c1cncc(Oc2cc(F)ccc2F)n1)c1ccc(-c2c3nc(c(-c4ccc(S(=O)(=O)[O-])cc4)c4ccc([nH]4)c(-c4ccc(S(=O)(=O)[O-])cc4)c4nc(c(-c5ccc(S(=O)(=O)[O-])cc5)c5ccc2[nH]5)C=C4)C=C3)cc1
REMARK SMILES IDX 4 1 3 2 2 3 1 4 24 5 25 6 83 7 26 8 82 9 27 10 28 11 29 12
REMARK SMILES IDX 76 13 30 14 81 15 75 16 77 17 31 18 80 19 74 20 73 21 32 23
REMARK SMILES IDX 62 24 43 25 61 26 44 27 47 28 60 29 78 30 45 31 46 32 59 34
REMARK SMILES IDX 79 35 48 36 33 37 34 38 42 39 35 40 41 41 36 42 37 43 38 44
REMARK SMILES IDX 39 45 40 46 63 47 64 48 72 49 65 50 71 51 66 52 67 53 68 54
REMARK SMILES IDX 69 55 70 56 49 57 50 58 58 59 51 60 57 61 52 62 53 63 54 64
REMARK SMILES IDX 55 65 56 66 5 67 6 68 7 69 8 70 9 71 10 72 23 73 11 74 13 75
REMARK SMILES IDX 12 76 14 77 15 78 16 79 21 80 17 81 20 82 22 83 18 84 19 85
REMARK H PARENT 77 22 47 33
REMARK Flexibility Score: inf
ROOT
ATOM      1  C   UNL A   1      40.982  21.038  26.357  1.00  0.00     0.275 C 
ENDROOT
BRANCH   1   2
ATOM      2  O   UNL A   1      39.822  21.651  26.943  1.00  0.00    -0.458 OA
BRANCH   2   3
ATOM      3  C   UNL A   1      39.140  22.748  26.545  1.00  0.00     0.338 C 
ATOM      4  O   UNL A   1      38.191  22.617  25.773  1.00  0.00    -0.246 OA
BRANCH   3   5
ATOM      5  C   UNL A   1      39.559  24.138  26.896  1.00  0.00     0.060 A 
ATOM      6  C   UNL A   1      40.078  25.089  26.016  1.00  0.00     0.016 A 
ATOM      7  C   UNL A   1      39.488  24.471  28.257  1.00  0.00     0.016 A 
ATOM      8  C   UNL A   1      40.467  26.354  26.478  1.00  0.00     0.010 A 
ATOM      9  C   UNL A   1      39.873  25.732  28.725  1.00  0.00     0.010 A 
ATOM     10  C   UNL A   1      40.385  26.679  27.836  1.00  0.00    -0.014 A 
BRANCH  10  11
ATOM     11  C   UNL A   1      40.982  27.941  28.334  1.00  0.00     0.031 A 
ATOM     12  C   UNL A   1      42.469  28.134  28.213  1.00  0.00     0.074 A 
ATOM     13  C   UNL A   1      40.208  28.914  28.849  1.00  0.00     0.049 A 
ATOM     14  N   UNL A   1      43.182  29.206  28.442  1.00  0.00    -0.248 NA
ATOM     15  C   UNL A   1      43.257  26.970  27.776  1.00  0.00     0.031 C 
ATOM     16  C   UNL A   1      38.759  28.834  29.025  1.00  0.00     0.029 A 
ATOM     17  N   UNL A   1      40.530  30.166  29.311  1.00  0.00    -0.354 N 
ATOM     18  C   UNL A   1      44.493  28.854  28.146  1.00  0.00     0.074 A 
ATOM     19  C   UNL A   1      44.489  27.452  27.795  1.00  0.00     0.031 C 
ATOM     20  C   UNL A   1      38.314  29.987  29.555  1.00  0.00     0.029 A 
ATOM     21  C   UNL A   1      39.444  30.891  29.745  1.00  0.00     0.049 A 
ATOM     22  H   UNL A   1      41.451  30.512  29.329  1.00  0.00     0.167 HD
ATOM     23  C   UNL A   1      45.599  29.636  28.134  1.00  0.00     0.031 A 
ATOM     24  C   UNL A   1      39.369  32.149  30.222  1.00  0.00     0.031 A 
ATOM     25  C   UNL A   1      45.601  31.020  28.514  1.00  0.00     0.049 A 
ATOM     26  C   UNL A   1      40.623  32.984  30.261  1.00  0.00     0.074 A 
ATOM     27  C   UNL A   1      46.655  31.916  28.518  1.00  0.00     0.029 A 
ATOM     28  N   UNL A   1      44.487  31.707  28.978  1.00  0.00    -0.354 N 
ATOM     29  N   UNL A   1      41.838  32.662  29.883  1.00  0.00    -0.248 NA
ATOM     30  C   UNL A   1      40.489  34.360  30.757  1.00  0.00     0.031 C 
ATOM     31  C   UNL A   1      46.187  33.132  29.027  1.00  0.00     0.029 A 
ATOM     32  C   UNL A   1      44.831  33.008  29.292  1.00  0.00     0.049 A 
ATOM     33  H   UNL A   1      43.585  31.324  29.067  1.00  0.00     0.167 HD
ATOM     34  C   UNL A   1      42.604  33.809  30.056  1.00  0.00     0.074 A 
ATOM     35  C   UNL A   1      41.714  34.831  30.571  1.00  0.00     0.031 C 
ATOM     36  C   UNL A   1      43.922  34.006  29.799  1.00  0.00     0.031 A 
BRANCH  23  37
ATOM     37  C   UNL A   1      46.885  28.984  27.703  1.00  0.00    -0.014 A 
ATOM     38  C   UNL A   1      47.241  28.923  26.341  1.00  0.00     0.010 A 
ATOM     39  C   UNL A   1      47.731  28.394  28.658  1.00  0.00     0.010 A 
ATOM     40  C   UNL A   1      48.384  28.229  25.937  1.00  0.00     0.020 A 
ATOM     41  C   UNL A   1      48.890  27.720  28.259  1.00  0.00     0.020 A 
ATOM     42  C   UNL A   1      49.194  27.619  26.899  1.00  0.00     0.054 A 
BRANCH  42  43
ATOM     43  S   UNL A   1      50.655  26.696  26.348  1.00  0.00     0.124 S 
ATOM     44  O   UNL A   1      50.283  26.332  24.984  1.00  0.00    -0.237 OA
ATOM     45  O   UNL A   1      51.724  27.685  26.465  1.00  0.00    -0.237 OA
ATOM     46  O   UNL A   1      50.736  25.583  27.291  1.00  0.00    -0.744 OA
ENDBRANCH  42  43
ENDBRANCH  23  37
BRANCH  24  47
ATOM     47  C   UNL A   1      38.057  32.715  30.645  1.00  0.00    -0.014 A 
ATOM     48  C   UNL A   1      37.654  32.658  31.991  1.00  0.00     0.010 A 
ATOM     49  C   UNL A   1      37.204  33.319  29.705  1.00  0.00     0.010 A 
ATOM     50  C   UNL A   1      36.417  33.178  32.385  1.00  0.00     0.020 A 
ATOM     51  C   UNL A   1      35.975  33.860  30.098  1.00  0.00     0.020 A 
ATOM     52  C   UNL A   1      35.584  33.776  31.435  1.00  0.00     0.054 A 
BRANCH  52  53
ATOM     53  S   UNL A   1      34.004  34.485  31.980  1.00  0.00     0.124 S 
ATOM     54  O   UNL A   1      34.430  35.726  32.619  1.00  0.00    -0.237 OA
ATOM     55  O   UNL A   1      33.277  34.638  30.722  1.00  0.00    -0.237 OA
ATOM     56  O   UNL A   1      33.466  33.469  32.882  1.00  0.00    -0.744 OA
ENDBRANCH  52  53
ENDBRANCH  24  47
BRANCH  36  57
ATOM     57  C   UNL A   1      44.469  35.388  30.031  1.00  0.00    -0.014 A 
ATOM     58  C   UNL A   1      45.040  35.749  31.264  1.00  0.00     0.010 A 
ATOM     59  C   UNL A   1      44.460  36.318  28.975  1.00  0.00     0.010 A 
ATOM     60  C   UNL A   1      45.566  37.030  31.446  1.00  0.00     0.020 A 
ATOM     61  C   UNL A   1      45.009  37.590  29.146  1.00  0.00     0.020 A 
ATOM     62  C   UNL A   1      45.545  37.943  30.386  1.00  0.00     0.054 A 
BRANCH  62  63
ATOM     63  S   UNL A   1      46.276  39.584  30.629  1.00  0.00     0.124 S 
ATOM     64  O   UNL A   1      47.517  39.480  29.865  1.00  0.00    -0.237 OA
ATOM     65  O   UNL A   1      45.264  40.475  30.068  1.00  0.00    -0.237 OA
ATOM     66  O   UNL A   1      46.441  39.677  32.079  1.00  0.00    -0.744 OA
ENDBRANCH  62  63
ENDBRANCH  36  57
ENDBRANCH  10  11
ENDBRANCH   3   5
ENDBRANCH   2   3
ENDBRANCH   1   2
BRANCH   1  67
ATOM     67  C   UNL A   1      40.930  19.513  26.289  1.00  0.00     0.275 C 
BRANCH  67  68
ATOM     68  O   UNL A   1      41.881  18.948  25.374  1.00  0.00    -0.457 OA
BRANCH  68  69
ATOM     69  C   UNL A   1      43.000  18.407  25.939  1.00  0.00     0.358 C 
ATOM     70  O   UNL A   1      43.030  17.483  26.733  1.00  0.00    -0.244 OA
BRANCH  69  71
ATOM     71  C   UNL A   1      44.191  19.116  25.416  1.00  0.00     0.170 A 
ATOM     72  C   UNL A   1      45.409  18.452  25.374  1.00  0.00     0.147 A 
ATOM     73  N   UNL A   1      44.043  20.416  25.021  1.00  0.00    -0.203 NA
ATOM     74  N   UNL A   1      46.546  19.052  24.953  1.00  0.00    -0.257 NA
ATOM     75  C   UNL A   1      45.193  21.023  24.631  1.00  0.00     0.238 A 
ATOM     76  C   UNL A   1      46.413  20.355  24.601  1.00  0.00     0.179 A 
BRANCH  75  77
ATOM     77  O   UNL A   1      45.241  22.385  24.349  1.00  0.00    -0.434 OA
BRANCH  77  78
ATOM     78  C   UNL A   1      45.703  23.220  25.334  1.00  0.00     0.168 A 
ATOM     79  C   UNL A   1      45.191  23.098  26.625  1.00  0.00     0.089 A 
ATOM     80  C   UNL A   1      46.779  24.072  25.093  1.00  0.00     0.166 A 
ATOM     81  C   UNL A   1      45.713  23.891  27.642  1.00  0.00     0.127 A 
ATOM     82  C   UNL A   1      47.317  24.846  26.121  1.00  0.00     0.046 A 
ATOM     83  F   UNL A   1      47.341  24.125  23.878  1.00  0.00    -0.203 F 
ATOM     84  F   UNL A   1      45.204  23.799  28.878  1.00  0.00    -0.207 F 
ATOM     85  C   UNL A   1      46.770  24.764  27.403  1.00  0.00     0.042 A 
ENDBRANCH  77  78
ENDBRANCH  75  77
ENDBRANCH  69  71
ENDBRANCH  68  69
ENDBRANCH  67  68
ENDBRANCH   1  67
TORSDOF 16
ENDMDL
MODEL 3
REMARK VINA RESULT:     -10.5      3.643     12.601
REMARK SMILES O=C(OCCOC(=O)c1cncc(Oc2cc(F)ccc2F)n1)c1ccc(-c2c3nc(c(-c4ccc(S(=O)(=O)[O-])cc4)c4ccc([nH]4)c(-c4ccc(S(=O)(=O)[O-])cc4)c4nc(c(-c5ccc(S(=O)(=O)[O-])cc5)c5ccc2[nH]5)C=C4)C=C3)cc1
REMARK SMILES IDX 4 1 3 2 2 3 1 4 24 5 25 6 83 7 26 8 82 9 27 10 28 11 29 12
REMARK SMILES IDX 76 13 30 14 81 15 75 16 77 17 31 18 80 19 74 20 73 21 32 23
REMARK SMILES IDX 62 24 43 25 61 26 44 27 47 28 60 29 78 30 45 31 46 32 59 34
REMARK SMILES IDX 79 35 48 36 33 37 34 38 42 39 35 40 41 41 36 42 37 43 38 44
REMARK SMILES IDX 39 45 40 46 63 47 64 48 72 49 65 50 71 51 66 52 67 53 68 54
REMARK SMILES IDX 69 55 70 56 49 57 50 58 58 59 51 60 57 61 52 62 53 63 54 64
REMARK SMILES IDX 55 65 56 66 5 67 6 68 7 69 8 70 9 71 10 72 23 73 11 74 13 75
REMARK SMILES IDX 12 76 14 77 15 78 16 79 21 80 17 81 20 82 22 83 18 84 19 85
REMARK H PARENT 77 22 47 33
REMARK Flexibility Score: inf
ROOT
ATOM      1  C   UNL A   1      33.171  32.867  27.918  1.00  0.00     0.275 C 
ENDROOT
BRANCH   1   2
ATOM      2  O   UNL A   1      34.057  31.904  28.510  1.00  0.00    -0.458 OA
BRANCH   2   3
ATOM      3  C   UNL A   1      34.460  30.705  28.033  1.00  0.00     0.338 C 
ATOM      4  O   UNL A   1      33.671  30.022  27.382  1.00  0.00    -0.246 OA
BRANCH   3   5
ATOM      5  C   UNL A   1      35.786  30.102  28.366  1.00  0.00     0.060 A 
ATOM      6  C   UNL A   1      36.167  29.582  29.604  1.00  0.00     0.016 A 
ATOM      7  C   UNL A   1      36.748  30.143  27.346  1.00  0.00     0.016 A 
ATOM      8  C   UNL A   1      37.458  29.072  29.799  1.00  0.00     0.010 A 
ATOM      9  C   UNL A   1      38.037  29.635  27.532  1.00  0.00     0.010 A 
ATOM     10  C   UNL A   1      38.407  29.111  28.772  1.00  0.00    -0.014 A 
BRANCH  10  11
ATOM     11  C   UNL A   1      39.818  28.752  29.053  1.00  0.00     0.031 A 
ATOM     12  C   UNL A   1      40.688  29.746  29.772  1.00  0.00     0.074 A 
ATOM     13  C   UNL A   1      40.305  27.545  28.709  1.00  0.00     0.049 A 
ATOM     14  N   UNL A   1      41.894  29.592  30.251  1.00  0.00    -0.248 NA
ATOM     15  C   UNL A   1      40.124  31.091  29.983  1.00  0.00     0.031 C 
ATOM     16  C   UNL A   1      39.559  26.507  28.000  1.00  0.00     0.029 A 
ATOM     17  N   UNL A   1      41.540  26.984  28.915  1.00  0.00    -0.354 N 
ATOM     18  C   UNL A   1      42.220  30.805  30.845  1.00  0.00     0.074 A 
ATOM     19  C   UNL A   1      41.118  31.708  30.602  1.00  0.00     0.031 C 
ATOM     20  C   UNL A   1      40.349  25.432  27.831  1.00  0.00     0.029 A 
ATOM     21  C   UNL A   1      41.653  25.702  28.430  1.00  0.00     0.049 A 
ATOM     22  H   UNL A   1      42.276  27.456  29.369  1.00  0.00     0.167 HD
ATOM     23  C   UNL A   1      43.324  31.130  31.559  1.00  0.00     0.031 A 
ATOM     24  C   UNL A   1      42.685  24.837  28.482  1.00  0.00     0.031 A 
ATOM     25  C   UNL A   1      44.428  30.238  31.770  1.00  0.00     0.049 A 
ATOM     26  C   UNL A   1      43.930  25.241  29.227  1.00  0.00     0.074 A 
ATOM     27  C   UNL A   1      45.587  30.450  32.495  1.00  0.00     0.029 A 
ATOM     28  N   UNL A   1      44.517  28.960  31.235  1.00  0.00    -0.354 N 
ATOM     29  N   UNL A   1      44.180  26.359  29.867  1.00  0.00    -0.248 NA
ATOM     30  C   UNL A   1      45.018  24.254  29.286  1.00  0.00     0.031 C 
ATOM     31  C   UNL A   1      46.396  29.316  32.361  1.00  0.00     0.029 A 
ATOM     32  C   UNL A   1      45.719  28.379  31.593  1.00  0.00     0.049 A 
ATOM     33  H   UNL A   1      43.825  28.531  30.683  1.00  0.00     0.167 HD
ATOM     34  C   UNL A   1      45.436  26.194  30.442  1.00  0.00     0.074 A 
ATOM     35  C   UNL A   1      45.892  24.868  30.072  1.00  0.00     0.031 C 
ATOM     36  C   UNL A   1      46.144  27.055  31.216  1.00  0.00     0.031 A 
BRANCH  23  37
ATOM     37  C   UNL A   1      43.369  32.517  32.143  1.00  0.00    -0.014 A 
ATOM     38  C   UNL A   1      43.990  33.571  31.446  1.00  0.00     0.010 A 
ATOM     39  C   UNL A   1      42.821  32.765  33.414  1.00  0.00     0.010 A 
ATOM     40  C   UNL A   1      44.120  34.831  32.036  1.00  0.00     0.020 A 
ATOM     41  C   UNL A   1      42.927  34.032  33.997  1.00  0.00     0.020 A 
ATOM     42  C   UNL A   1      43.599  35.049  33.315  1.00  0.00     0.054 A 
BRANCH  42  43
ATOM     43  S   UNL A   1      43.808  36.684  34.072  1.00  0.00     0.124 S 
ATOM     44  O   UNL A   1      44.873  36.433  35.039  1.00  0.00    -0.237 OA
ATOM     45  O   UNL A   1      44.179  37.521  32.934  1.00  0.00    -0.237 OA
ATOM     46  O   UNL A   1      42.496  36.968  34.648  1.00  0.00    -0.744 OA
ENDBRANCH  42  43
ENDBRANCH  23  37
BRANCH  24  47
ATOM     47  C   UNL A   1      42.566  23.487  27.862  1.00  0.00    -0.014 A 
ATOM     48  C   UNL A   1      43.115  23.232  26.593  1.00  0.00     0.010 A 
ATOM     49  C   UNL A   1      41.905  22.447  28.539  1.00  0.00     0.010 A 
ATOM     50  C   UNL A   1      42.991  21.968  26.006  1.00  0.00     0.020 A 
ATOM     51  C   UNL A   1      41.798  21.175  27.966  1.00  0.00     0.020 A 
ATOM     52  C   UNL A   1      42.333  20.946  26.697  1.00  0.00     0.054 A 
BRANCH  52  53
ATOM     53  S   UNL A   1      42.226  19.302  25.934  1.00  0.00     0.124 S 
ATOM     54  O   UNL A   1      43.074  19.457  24.757  1.00  0.00    -0.237 OA
ATOM     55  O   UNL A   1      42.751  18.433  26.984  1.00  0.00    -0.237 OA
ATOM     56  O   UNL A   1      40.799  19.144  25.661  1.00  0.00    -0.744 OA
ENDBRANCH  52  53
ENDBRANCH  24  47
BRANCH  36  57
ATOM     57  C   UNL A   1      47.465  26.572  31.750  1.00  0.00    -0.014 A 
ATOM     58  C   UNL A   1      48.658  26.775  31.036  1.00  0.00     0.010 A 
ATOM     59  C   UNL A   1      47.512  25.957  33.014  1.00  0.00     0.010 A 
ATOM     60  C   UNL A   1      49.876  26.342  31.566  1.00  0.00     0.020 A 
ATOM     61  C   UNL A   1      48.731  25.546  33.558  1.00  0.00     0.020 A 
ATOM     62  C   UNL A   1      49.904  25.728  32.823  1.00  0.00     0.054 A 
BRANCH  62  63
ATOM     63  S   UNL A   1      51.501  25.217  33.513  1.00  0.00     0.124 S 
ATOM     64  O   UNL A   1      52.443  25.943  32.666  1.00  0.00    -0.237 OA
ATOM     65  O   UNL A   1      51.417  25.675  34.897  1.00  0.00    -0.237 OA
ATOM     66  O   UNL A   1      51.500  23.765  33.344  1.00  0.00    -0.744 OA
ENDBRANCH  62  63
ENDBRANCH  36  57
ENDBRANCH  10  11
ENDBRANCH   3   5
ENDBRANCH   2   3
ENDBRANCH   1   2
BRANCH   1  67
ATOM     67  C   UNL A   1      33.521  34.323  28.218  1.00  0.00     0.275 C 
BRANCH  67  68
ATOM     68  O   UNL A   1      32.641  34.939  29.170  1.00  0.00    -0.457 OA
BRANCH  68  69
ATOM     69  C   UNL A   1      32.959  36.216  29.533  1.00  0.00     0.358 C 
ATOM     70  O   UNL A   1      32.954  37.194  28.804  1.00  0.00    -0.244 OA
BRANCH  69  71
ATOM     71  C   UNL A   1      33.299  36.234  30.975  1.00  0.00     0.170 A 
ATOM     72  C   UNL A   1      33.352  37.450  31.643  1.00  0.00     0.147 A 
ATOM     73  N   UNL A   1      33.578  35.043  31.583  1.00  0.00    -0.203 NA
ATOM     74  N   UNL A   1      33.700  37.544  32.946  1.00  0.00    -0.257 NA
ATOM     75  C   UNL A   1      33.958  35.146  32.882  1.00  0.00     0.238 A 
ATOM     76  C   UNL A   1      34.020  36.369  33.543  1.00  0.00     0.179 A 
BRANCH  75  77
ATOM     77  O   UNL A   1      34.425  34.047  33.597  1.00  0.00    -0.434 OA
BRANCH  77  78
ATOM     78  C   UNL A   1      35.675  33.574  33.287  1.00  0.00     0.168 A 
ATOM     79  C   UNL A   1      36.781  34.072  33.975  1.00  0.00     0.089 A 
ATOM     80  C   UNL A   1      35.830  32.502  32.410  1.00  0.00     0.166 A 
ATOM     81  C   UNL A   1      38.040  33.541  33.715  1.00  0.00     0.127 A 
ATOM     82  C   UNL A   1      37.090  31.955  32.173  1.00  0.00     0.046 A 
ATOM     83  F   UNL A   1      34.760  31.954  31.818  1.00  0.00    -0.203 F 
ATOM     84  F   UNL A   1      39.109  34.036  34.352  1.00  0.00    -0.207 F 
ATOM     85  C   UNL A   1      38.206  32.487  32.821  1.00  0.00     0.042 A 
ENDBRANCH  77  78
ENDBRANCH  75  77
ENDBRANCH  69  71
ENDBRANCH  68  69
ENDBRANCH  67  68
ENDBRANCH   1  67
TORSDOF 16
ENDMDL
