MODEL 1
REMARK VINA RESULT:      -9.8      0.000      0.000
REMARK SMILES Cc1cc(Cl)c2c(c1)C=C(C(=O)OCCOC(=O)c1ccc(-c3c4nc(c(-c5ccc(S(=O)(=O)[O-])cc5)c5ccc([nH]5)c(-c5ccc(S(=O)(=O)[O-])cc5)c5nc(c(-c6ccc(S(=O)(=O)[O-])cc6)c6ccc3[nH]6)C=C5)C=C4)cc1)[C@@H](C(F)(F)F)O2
REMARK SMILES IDX 15 1 14 2 13 3 11 4 12 5 10 6 1 7 2 8 3 9 8 10 4 11 7 12
REMARK SMILES IDX 5 13 6 14 9 15 84 16 79 17 80 18 81 19 82 20 83 21 16 22
REMARK SMILES IDX 17 23 18 24 19 25 20 26 78 27 21 28 77 29 22 30 23 31 24 32
REMARK SMILES IDX 71 33 25 34 76 35 70 36 72 37 26 38 75 39 69 40 68 41 27 43
REMARK SMILES IDX 57 44 38 45 56 46 39 47 42 48 55 49 73 50 40 51 41 52 54 54
REMARK SMILES IDX 74 55 43 56 28 57 29 58 37 59 30 60 36 61 31 62 32 63 33 64
REMARK SMILES IDX 34 65 35 66 58 67 59 68 67 69 60 70 66 71 61 72 62 73 63 74
REMARK SMILES IDX 64 75 65 76 44 77 45 78 53 79 46 80 52 81 47 82 48 83 49 84
REMARK SMILES IDX 50 85 51 86
REMARK H PARENT 72 42 42 53
REMARK Flexibility Score: inf
ROOT
ATOM      1  C   UNL A   1      33.663  33.523  28.084  1.00  0.00     0.275 C 
ENDROOT
BRANCH   1   2
ATOM      2  C   UNL A   1      34.397  34.626  28.847  1.00  0.00     0.275 C 
BRANCH   2   3
ATOM      3  O   UNL A   1      34.143  34.546  30.266  1.00  0.00    -0.459 OA
BRANCH   3   4
ATOM      4  C   UNL A   1      34.768  33.532  30.908  1.00  0.00     0.338 C 
ATOM      5  O   UNL A   1      34.403  32.367  30.953  1.00  0.00    -0.246 OA
BRANCH   4   6
ATOM      6  C   UNL A   1      36.003  34.004  31.561  1.00  0.00     0.087 C 
ATOM      7  C   UNL A   1      42.106  33.681  30.894  1.00  0.00     0.044 C 
ATOM      8  C   UNL A   1      40.827  34.034  31.593  1.00  0.00    -0.049 A 
ATOM      9  C   UNL A   1      40.813  34.547  32.895  1.00  0.00     0.028 A 
ATOM     10  C   UNL A   1      39.609  33.836  30.938  1.00  0.00     0.015 A 
ATOM     11  C   UNL A   1      39.599  34.853  33.527  1.00  0.00     0.084 A 
ATOM     12  C   UNL A   1      38.397  34.122  31.580  1.00  0.00     0.019 A 
ATOM     13  Cl  UNL A   1      39.652  35.476  35.137  1.00  0.00    -0.080 Cl
ATOM     14  C   UNL A   1      38.379  34.636  32.876  1.00  0.00     0.146 A 
ATOM     15  C   UNL A   1      37.152  33.832  30.901  1.00  0.00     0.027 C 
ATOM     16  O   UNL A   1      37.213  34.953  33.525  1.00  0.00    -0.474 OA
ATOM     17  C   UNL A   1      35.943  34.499  32.974  1.00  0.00     0.316 C 
BRANCH  17  18
ATOM     18  C   UNL A   1      35.338  33.442  33.911  1.00  0.00     0.430 C 
ATOM     19  F   UNL A   1      35.639  33.698  35.207  1.00  0.00    -0.167 F 
ATOM     20  F   UNL A   1      33.985  33.422  33.829  1.00  0.00    -0.167 F 
ATOM     21  F   UNL A   1      35.779  32.195  33.631  1.00  0.00    -0.167 F 
ENDBRANCH  17  18
ENDBRANCH   4   6
ENDBRANCH   3   4
ENDBRANCH   2   3
ENDBRANCH   1   2
BRANCH   1  22
ATOM     22  O   UNL A   1      34.593  32.706  27.350  1.00  0.00    -0.458 OA
BRANCH  22  23
ATOM     23  C   UNL A   1      34.478  31.374  27.555  1.00  0.00     0.338 C 
ATOM     24  O   UNL A   1      33.538  30.657  27.262  1.00  0.00    -0.246 OA
BRANCH  23  25
ATOM     25  C   UNL A   1      35.729  30.851  28.126  1.00  0.00     0.060 A 
ATOM     26  C   UNL A   1      35.667  29.689  28.881  1.00  0.00     0.016 A 
ATOM     27  C   UNL A   1      36.916  31.577  28.060  1.00  0.00     0.016 A 
ATOM     28  C   UNL A   1      36.730  29.328  29.698  1.00  0.00     0.010 A 
ATOM     29  C   UNL A   1      38.042  31.114  28.755  1.00  0.00     0.010 A 
ATOM     30  C   UNL A   1      37.954  30.007  29.617  1.00  0.00    -0.014 A 
BRANCH  30  31
ATOM     31  C   UNL A   1      39.115  29.527  30.428  1.00  0.00     0.031 A 
ATOM     32  C   UNL A   1      40.141  28.591  29.838  1.00  0.00     0.074 A 
ATOM     33  C   UNL A   1      39.272  29.976  31.693  1.00  0.00     0.049 A 
ATOM     34  N   UNL A   1      41.166  28.024  30.422  1.00  0.00    -0.248 NA
ATOM     35  C   UNL A   1      39.994  28.233  28.417  1.00  0.00     0.031 C 
ATOM     36  C   UNL A   1      38.372  30.910  32.380  1.00  0.00     0.029 A 
ATOM     37  N   UNL A   1      40.261  29.744  32.619  1.00  0.00    -0.354 N 
ATOM     38  C   UNL A   1      41.756  27.211  29.458  1.00  0.00     0.074 A 
ATOM     39  C   UNL A   1      40.964  27.342  28.256  1.00  0.00     0.031 C 
ATOM     40  C   UNL A   1      38.894  31.240  33.568  1.00  0.00     0.029 A 
ATOM     41  C   UNL A   1      40.104  30.460  33.786  1.00  0.00     0.049 A 
ATOM     42  H   UNL A   1      41.010  29.125  32.464  1.00  0.00     0.167 HD
ATOM     43  C   UNL A   1      42.860  26.432  29.565  1.00  0.00     0.031 A 
ATOM     44  C   UNL A   1      40.828  30.472  34.924  1.00  0.00     0.031 A 
ATOM     45  C   UNL A   1      43.664  26.333  30.754  1.00  0.00     0.049 A 
ATOM     46  C   UNL A   1      42.019  29.566  35.032  1.00  0.00     0.074 A 
ATOM     47  C   UNL A   1      44.801  25.570  30.960  1.00  0.00     0.029 A 
ATOM     48  N   UNL A   1      43.429  27.027  31.931  1.00  0.00    -0.354 N 
ATOM     49  N   UNL A   1      42.529  28.773  34.121  1.00  0.00    -0.248 NA
ATOM     50  C   UNL A   1      42.718  29.535  36.323  1.00  0.00     0.031 C 
ATOM     51  C   UNL A   1      45.226  25.768  32.278  1.00  0.00     0.029 A 
ATOM     52  C   UNL A   1      44.391  26.700  32.872  1.00  0.00     0.049 A 
ATOM     53  H   UNL A   1      42.688  27.659  32.076  1.00  0.00     0.167 HD
ATOM     54  C   UNL A   1      43.620  28.160  34.724  1.00  0.00     0.074 A 
ATOM     55  C   UNL A   1      43.705  28.683  36.072  1.00  0.00     0.031 C 
ATOM     56  C   UNL A   1      44.469  27.242  34.205  1.00  0.00     0.031 A 
BRANCH  43  57
ATOM     57  C   UNL A   1      43.260  25.602  28.371  1.00  0.00    -0.014 A 
ATOM     58  C   UNL A   1      44.056  26.135  27.343  1.00  0.00     0.010 A 
ATOM     59  C   UNL A   1      42.890  24.244  28.313  1.00  0.00     0.010 A 
ATOM     60  C   UNL A   1      44.449  25.337  26.264  1.00  0.00     0.020 A 
ATOM     61  C   UNL A   1      43.303  23.435  27.249  1.00  0.00     0.020 A 
ATOM     62  C   UNL A   1      44.069  23.991  26.224  1.00  0.00     0.054 A 
BRANCH  62  63
ATOM     63  S   UNL A   1      44.619  22.975  24.826  1.00  0.00     0.124 S 
ATOM     64  O   UNL A   1      43.403  22.884  24.022  1.00  0.00    -0.237 OA
ATOM     65  O   UNL A   1      45.693  23.779  24.249  1.00  0.00    -0.237 OA
ATOM     66  O   UNL A   1      45.047  21.725  25.450  1.00  0.00    -0.744 OA
ENDBRANCH  62  63
ENDBRANCH  43  57
BRANCH  44  67
ATOM     67  C   UNL A   1      40.422  31.358  36.051  1.00  0.00    -0.014 A 
ATOM     68  C   UNL A   1      41.315  32.314  36.566  1.00  0.00     0.010 A 
ATOM     69  C   UNL A   1      39.124  31.278  36.589  1.00  0.00     0.010 A 
ATOM     70  C   UNL A   1      40.916  33.173  37.595  1.00  0.00     0.020 A 
ATOM     71  C   UNL A   1      38.712  32.157  37.595  1.00  0.00     0.020 A 
ATOM     72  C   UNL A   1      39.614  33.094  38.098  1.00  0.00     0.054 A 
BRANCH  72  73
ATOM     73  S   UNL A   1      39.101  34.263  39.389  1.00  0.00     0.124 S 
ATOM     74  O   UNL A   1      37.806  33.722  39.789  1.00  0.00    -0.237 OA
ATOM     75  O   UNL A   1      40.173  34.135  40.372  1.00  0.00    -0.237 OA
ATOM     76  O   UNL A   1      39.055  35.545  38.690  1.00  0.00    -0.744 OA
ENDBRANCH  72  73
ENDBRANCH  44  67
BRANCH  56  77
ATOM     77  C   UNL A   1      45.596  26.759  35.075  1.00  0.00    -0.014 A 
ATOM     78  C   UNL A   1      45.496  25.548  35.782  1.00  0.00     0.010 A 
ATOM     79  C   UNL A   1      46.813  27.465  35.083  1.00  0.00     0.010 A 
ATOM     80  C   UNL A   1      46.600  25.050  36.479  1.00  0.00     0.020 A 
ATOM     81  C   UNL A   1      47.924  26.957  35.758  1.00  0.00     0.020 A 
ATOM     82  C   UNL A   1      47.809  25.751  36.452  1.00  0.00     0.054 A 
BRANCH  82  83
ATOM     83  S   UNL A   1      49.252  25.026  37.279  1.00  0.00     0.124 S 
ATOM     84  O   UNL A   1      48.646  24.386  38.443  1.00  0.00    -0.237 OA
ATOM     85  O   UNL A   1      49.776  24.118  36.263  1.00  0.00    -0.237 OA
ATOM     86  O   UNL A   1      50.100  26.180  37.573  1.00  0.00    -0.744 OA
ENDBRANCH  82  83
ENDBRANCH  56  77
ENDBRANCH  30  31
ENDBRANCH  23  25
ENDBRANCH  22  23
ENDBRANCH   1  22
TORSDOF 15
ENDMDL
MODEL 2
REMARK VINA RESULT:      -9.6      0.665      8.301
REMARK SMILES Cc1cc(Cl)c2c(c1)C=C(C(=O)OCCOC(=O)c1ccc(-c3c4nc(c(-c5ccc(S(=O)(=O)[O-])cc5)c5ccc([nH]5)c(-c5ccc(S(=O)(=O)[O-])cc5)c5nc(c(-c6ccc(S(=O)(=O)[O-])cc6)c6ccc3[nH]6)C=C5)C=C4)cc1)[C@@H](C(F)(F)F)O2
REMARK SMILES IDX 15 1 14 2 13 3 11 4 12 5 10 6 1 7 2 8 3 9 8 10 4 11 7 12
REMARK SMILES IDX 5 13 6 14 9 15 84 16 79 17 80 18 81 19 82 20 83 21 16 22
REMARK SMILES IDX 17 23 18 24 19 25 20 26 78 27 21 28 77 29 22 30 23 31 24 32
REMARK SMILES IDX 71 33 25 34 76 35 70 36 72 37 26 38 75 39 69 40 68 41 27 43
REMARK SMILES IDX 57 44 38 45 56 46 39 47 42 48 55 49 73 50 40 51 41 52 54 54
REMARK SMILES IDX 74 55 43 56 28 57 29 58 37 59 30 60 36 61 31 62 32 63 33 64
REMARK SMILES IDX 34 65 35 66 58 67 59 68 67 69 60 70 66 71 61 72 62 73 63 74
REMARK SMILES IDX 64 75 65 76 44 77 45 78 53 79 46 80 52 81 47 82 48 83 49 84
REMARK SMILES IDX 50 85 51 86
REMARK H PARENT 72 42 42 53
REMARK Flexibility Score: inf
ROOT
ATOM      1  C   UNL A   1      33.605  33.548  28.268  1.00  0.00     0.275 C 
ENDROOT
BRANCH   1   2
ATOM      2  C   UNL A   1      34.185  34.739  29.033  1.00  0.00     0.275 C 
BRANCH   2   3
ATOM      3  O   UNL A   1      34.035  34.575  30.460  1.00  0.00    -0.459 OA
BRANCH   3   4
ATOM      4  C   UNL A   1      34.729  33.545  30.998  1.00  0.00     0.338 C 
ATOM      5  O   UNL A   1      34.403  32.368  30.990  1.00  0.00    -0.246 OA
BRANCH   4   6
ATOM      6  C   UNL A   1      35.986  34.018  31.606  1.00  0.00     0.087 C 
ATOM      7  C   UNL A   1      42.060  33.745  30.690  1.00  0.00     0.044 C 
ATOM      8  C   UNL A   1      40.807  34.081  31.444  1.00  0.00    -0.049 A 
ATOM      9  C   UNL A   1      40.842  34.579  32.751  1.00  0.00     0.028 A 
ATOM     10  C   UNL A   1      39.565  33.882  30.836  1.00  0.00     0.015 A 
ATOM     11  C   UNL A   1      39.653  34.870  33.435  1.00  0.00     0.084 A 
ATOM     12  C   UNL A   1      38.378  34.152  31.531  1.00  0.00     0.019 A 
ATOM     13  Cl  UNL A   1      39.767  35.474  35.049  1.00  0.00    -0.080 Cl
ATOM     14  C   UNL A   1      38.409  34.651  32.831  1.00  0.00     0.146 A 
ATOM     15  C   UNL A   1      37.109  33.862  30.898  1.00  0.00     0.027 C 
ATOM     16  O   UNL A   1      37.268  34.953  33.531  1.00  0.00    -0.474 OA
ATOM     17  C   UNL A   1      35.980  34.497  33.026  1.00  0.00     0.316 C 
BRANCH  17  18
ATOM     18  C   UNL A   1      35.420  33.425  33.975  1.00  0.00     0.430 C 
ATOM     19  F   UNL A   1      35.722  33.699  35.266  1.00  0.00    -0.167 F 
ATOM     20  F   UNL A   1      34.068  33.357  33.904  1.00  0.00    -0.167 F 
ATOM     21  F   UNL A   1      35.902  32.193  33.698  1.00  0.00    -0.167 F 
ENDBRANCH  17  18
ENDBRANCH   4   6
ENDBRANCH   3   4
ENDBRANCH   2   3
ENDBRANCH   1   2
BRANCH   1  22
ATOM     22  O   UNL A   1      34.644  32.834  27.575  1.00  0.00    -0.458 OA
BRANCH  22  23
ATOM     23  C   UNL A   1      34.561  31.486  27.641  1.00  0.00     0.338 C 
ATOM     24  O   UNL A   1      33.634  30.782  27.282  1.00  0.00    -0.246 OA
BRANCH  23  25
ATOM     25  C   UNL A   1      35.829  30.936  28.145  1.00  0.00     0.060 A 
ATOM     26  C   UNL A   1      35.791  29.731  28.833  1.00  0.00     0.016 A 
ATOM     27  C   UNL A   1      37.011  31.669  28.089  1.00  0.00     0.016 A 
ATOM     28  C   UNL A   1      36.877  29.328  29.597  1.00  0.00     0.010 A 
ATOM     29  C   UNL A   1      38.158  31.172  28.725  1.00  0.00     0.010 A 
ATOM     30  C   UNL A   1      38.097  30.015  29.523  1.00  0.00    -0.014 A 
BRANCH  30  31
ATOM     31  C   UNL A   1      39.281  29.494  30.271  1.00  0.00     0.031 A 
ATOM     32  C   UNL A   1      39.601  29.989  31.660  1.00  0.00     0.074 A 
ATOM     33  C   UNL A   1      40.049  28.531  29.714  1.00  0.00     0.049 A 
ATOM     34  N   UNL A   1      40.627  29.697  32.421  1.00  0.00    -0.248 NA
ATOM     35  C   UNL A   1      38.662  30.944  32.273  1.00  0.00     0.031 C 
ATOM     36  C   UNL A   1      39.835  27.937  28.389  1.00  0.00     0.029 A 
ATOM     37  N   UNL A   1      41.139  27.849  30.199  1.00  0.00    -0.354 N 
ATOM     38  C   UNL A   1      40.481  30.462  33.574  1.00  0.00     0.074 A 
ATOM     39  C   UNL A   1      39.279  31.247  33.409  1.00  0.00     0.031 C 
ATOM     40  C   UNL A   1      40.697  26.928  28.209  1.00  0.00     0.029 A 
ATOM     41  C   UNL A   1      41.602  26.870  29.348  1.00  0.00     0.049 A 
ATOM     42  H   UNL A   1      41.551  28.044  31.072  1.00  0.00     0.167 HD
ATOM     43  C   UNL A   1      41.273  30.500  34.673  1.00  0.00     0.031 A 
ATOM     44  C   UNL A   1      42.655  26.033  29.447  1.00  0.00     0.031 A 
ATOM     45  C   UNL A   1      42.450  29.689  34.846  1.00  0.00     0.049 A 
ATOM     46  C   UNL A   1      43.542  26.129  30.652  1.00  0.00     0.074 A 
ATOM     47  C   UNL A   1      43.319  29.656  35.924  1.00  0.00     0.029 A 
ATOM     48  N   UNL A   1      42.914  28.758  33.929  1.00  0.00    -0.354 N 
ATOM     49  N   UNL A   1      43.408  26.893  31.709  1.00  0.00    -0.248 NA
ATOM     50  C   UNL A   1      44.735  25.271  30.672  1.00  0.00     0.031 C 
ATOM     51  C   UNL A   1      44.334  28.740  35.637  1.00  0.00     0.029 A 
ATOM     52  C   UNL A   1      44.065  28.156  34.410  1.00  0.00     0.049 A 
ATOM     53  H   UNL A   1      42.489  28.555  33.065  1.00  0.00     0.167 HD
ATOM     54  C   UNL A   1      44.490  26.597  32.528  1.00  0.00     0.074 A 
ATOM     55  C   UNL A   1      45.262  25.574  31.852  1.00  0.00     0.031 C 
ATOM     56  C   UNL A   1      44.814  27.130  33.730  1.00  0.00     0.031 A 
BRANCH  43  57
ATOM     57  C   UNL A   1      40.913  31.465  35.774  1.00  0.00    -0.014 A 
ATOM     58  C   UNL A   1      39.669  31.401  36.425  1.00  0.00     0.010 A 
ATOM     59  C   UNL A   1      41.864  32.409  36.211  1.00  0.00     0.010 A 
ATOM     60  C   UNL A   1      39.370  32.280  37.470  1.00  0.00     0.020 A 
ATOM     61  C   UNL A   1      41.578  33.272  37.274  1.00  0.00     0.020 A 
ATOM     62  C   UNL A   1      40.327  33.211  37.887  1.00  0.00     0.054 A 
BRANCH  62  63
ATOM     63  S   UNL A   1      39.919  34.318  39.266  1.00  0.00     0.124 S 
ATOM     64  O   UNL A   1      39.288  33.401  40.212  1.00  0.00    -0.237 OA
ATOM     65  O   UNL A   1      41.227  34.829  39.664  1.00  0.00    -0.237 OA
ATOM     66  O   UNL A   1      39.023  35.304  38.667  1.00  0.00    -0.744 OA
ENDBRANCH  62  63
ENDBRANCH  43  57
BRANCH  44  67
ATOM     67  C   UNL A   1      42.930  25.056  28.356  1.00  0.00    -0.014 A 
ATOM     68  C   UNL A   1      43.841  25.367  27.331  1.00  0.00     0.010 A 
ATOM     69  C   UNL A   1      42.314  23.790  28.359  1.00  0.00     0.010 A 
ATOM     70  C   UNL A   1      44.130  24.431  26.333  1.00  0.00     0.020 A 
ATOM     71  C   UNL A   1      42.625  22.841  27.382  1.00  0.00     0.020 A 
ATOM     72  C   UNL A   1      43.526  23.170  26.369  1.00  0.00     0.054 A 
BRANCH  72  73
ATOM     73  S   UNL A   1      43.967  21.951  25.099  1.00  0.00     0.124 S 
ATOM     74  O   UNL A   1      43.236  20.770  25.546  1.00  0.00    -0.237 OA
ATOM     75  O   UNL A   1      43.473  22.579  23.876  1.00  0.00    -0.237 OA
ATOM     76  O   UNL A   1      45.423  21.862  25.202  1.00  0.00    -0.744 OA
ENDBRANCH  72  73
ENDBRANCH  44  67
BRANCH  56  77
ATOM     77  C   UNL A   1      46.037  26.602  34.425  1.00  0.00    -0.014 A 
ATOM     78  C   UNL A   1      45.966  25.471  35.256  1.00  0.00     0.010 A 
ATOM     79  C   UNL A   1      47.291  27.174  34.143  1.00  0.00     0.010 A 
ATOM     80  C   UNL A   1      47.132  24.917  35.789  1.00  0.00     0.020 A 
ATOM     81  C   UNL A   1      48.461  26.607  34.654  1.00  0.00     0.020 A 
ATOM     82  C   UNL A   1      48.372  25.481  35.474  1.00  0.00     0.054 A 
BRANCH  82  83
ATOM     83  S   UNL A   1      49.875  24.677  36.094  1.00  0.00     0.124 S 
ATOM     84  O   UNL A   1      50.778  24.795  34.953  1.00  0.00    -0.237 OA
ATOM     85  O   UNL A   1      50.218  25.496  37.254  1.00  0.00    -0.237 OA
ATOM     86  O   UNL A   1      49.439  23.317  36.405  1.00  0.00    -0.744 OA
ENDBRANCH  82  83
ENDBRANCH  56  77
ENDBRANCH  30  31
ENDBRANCH  23  25
ENDBRANCH  22  23
ENDBRANCH   1  22
TORSDOF 15
ENDMDL
MODEL 3
REMARK VINA RESULT:      -9.6      5.525      7.865
REMARK SMILES Cc1cc(Cl)c2c(c1)C=C(C(=O)OCCOC(=O)c1ccc(-c3c4nc(c(-c5ccc(S(=O)(=O)[O-])cc5)c5ccc([nH]5)c(-c5ccc(S(=O)(=O)[O-])cc5)c5nc(c(-c6ccc(S(=O)(=O)[O-])cc6)c6ccc3[nH]6)C=C5)C=C4)cc1)[C@@H](C(F)(F)F)O2
REMARK SMILES IDX 15 1 14 2 13 3 11 4 12 5 10 6 1 7 2 8 3 9 8 10 4 11 7 12
REMARK SMILES IDX 5 13 6 14 9 15 84 16 79 17 80 18 81 19 82 20 83 21 16 22
REMARK SMILES IDX 17 23 18 24 19 25 20 26 78 27 21 28 77 29 22 30 23 31 24 32
REMARK SMILES IDX 71 33 25 34 76 35 70 36 72 37 26 38 75 39 69 40 68 41 27 43
REMARK SMILES IDX 57 44 38 45 56 46 39 47 42 48 55 49 73 50 40 51 41 52 54 54
REMARK SMILES IDX 74 55 43 56 28 57 29 58 37 59 30 60 36 61 31 62 32 63 33 64
REMARK SMILES IDX 34 65 35 66 58 67 59 68 67 69 60 70 66 71 61 72 62 73 63 74
REMARK SMILES IDX 64 75 65 76 44 77 45 78 53 79 46 80 52 81 47 82 48 83 49 84
REMARK SMILES IDX 50 85 51 86
REMARK H PARENT 72 42 42 53
REMARK Flexibility Score: inf
ROOT
ATOM      1  C   UNL A   1      32.664  28.563  27.057  1.00  0.00     0.275 C 
ENDROOT
BRANCH   1   2
ATOM      2  C   UNL A   1      32.227  28.310  25.614  1.00  0.00     0.275 C 
BRANCH   2   3
ATOM      3  O   UNL A   1      32.189  26.899  25.311  1.00  0.00    -0.459 OA
BRANCH   3   4
ATOM      4  C   UNL A   1      33.067  26.488  24.367  1.00  0.00     0.338 C 
ATOM      5  O   UNL A   1      33.406  27.110  23.371  1.00  0.00    -0.246 OA
BRANCH   4   6
ATOM      6  C   UNL A   1      33.609  25.157  24.696  1.00  0.00     0.087 C 
ATOM      7  C   UNL A   1      38.943  22.466  26.145  1.00  0.00     0.044 C 
ATOM      8  C   UNL A   1      37.487  22.503  25.786  1.00  0.00    -0.049 A 
ATOM      9  C   UNL A   1      36.758  21.337  25.533  1.00  0.00     0.028 A 
ATOM     10  C   UNL A   1      36.836  23.735  25.689  1.00  0.00     0.015 A 
ATOM     11  C   UNL A   1      35.401  21.406  25.186  1.00  0.00     0.084 A 
ATOM     12  C   UNL A   1      35.485  23.803  25.320  1.00  0.00     0.019 A 
ATOM     13  Cl  UNL A   1      34.561  19.929  24.878  1.00  0.00    -0.080 Cl
ATOM     14  C   UNL A   1      34.755  22.643  25.070  1.00  0.00     0.146 A 
ATOM     15  C   UNL A   1      34.863  25.099  25.154  1.00  0.00     0.027 C 
ATOM     16  O   UNL A   1      33.425  22.669  24.733  1.00  0.00    -0.474 OA
ATOM     17  C   UNL A   1      32.808  23.935  24.359  1.00  0.00     0.316 C 
BRANCH  17  18
ATOM     18  C   UNL A   1      32.450  23.897  22.865  1.00  0.00     0.430 C 
ATOM     19  F   UNL A   1      33.486  24.312  22.097  1.00  0.00    -0.167 F 
ATOM     20  F   UNL A   1      32.153  22.638  22.458  1.00  0.00    -0.167 F 
ATOM     21  F   UNL A   1      31.388  24.679  22.571  1.00  0.00    -0.167 F 
ENDBRANCH  17  18
ENDBRANCH   4   6
ENDBRANCH   3   4
ENDBRANCH   2   3
ENDBRANCH   1   2
BRANCH   1  22
ATOM     22  O   UNL A   1      34.085  28.775  27.129  1.00  0.00    -0.458 OA
BRANCH  22  23
ATOM     23  C   UNL A   1      34.467  29.950  27.678  1.00  0.00     0.338 C 
ATOM     24  O   UNL A   1      33.780  30.940  27.864  1.00  0.00    -0.246 OA
BRANCH  23  25
ATOM     25  C   UNL A   1      35.864  29.856  28.128  1.00  0.00     0.060 A 
ATOM     26  C   UNL A   1      36.868  30.088  27.199  1.00  0.00     0.016 A 
ATOM     27  C   UNL A   1      36.186  29.387  29.399  1.00  0.00     0.016 A 
ATOM     28  C   UNL A   1      38.175  29.708  27.471  1.00  0.00     0.010 A 
ATOM     29  C   UNL A   1      37.531  29.163  29.727  1.00  0.00     0.010 A 
ATOM     30  C   UNL A   1      38.541  29.280  28.756  1.00  0.00    -0.014 A 
BRANCH  30  31
ATOM     31  C   UNL A   1      39.976  28.982  29.049  1.00  0.00     0.031 A 
ATOM     32  C   UNL A   1      40.592  27.662  28.654  1.00  0.00     0.074 A 
ATOM     33  C   UNL A   1      40.745  29.927  29.635  1.00  0.00     0.049 A 
ATOM     34  N   UNL A   1      41.798  27.214  28.895  1.00  0.00    -0.248 NA
ATOM     35  C   UNL A   1      39.747  26.717  27.904  1.00  0.00     0.031 C 
ATOM     36  C   UNL A   1      40.286  31.260  30.042  1.00  0.00     0.029 A 
ATOM     37  N   UNL A   1      42.081  29.935  29.958  1.00  0.00    -0.354 N 
ATOM     38  C   UNL A   1      41.841  25.926  28.371  1.00  0.00     0.074 A 
ATOM     39  C   UNL A   1      40.535  25.654  27.815  1.00  0.00     0.031 C 
ATOM     40  C   UNL A   1      41.332  31.980  30.468  1.00  0.00     0.029 A 
ATOM     41  C   UNL A   1      42.516  31.134  30.478  1.00  0.00     0.049 A 
ATOM     42  H   UNL A   1      42.669  29.156  29.831  1.00  0.00     0.167 HD
ATOM     43  C   UNL A   1      42.878  25.052  28.350  1.00  0.00     0.031 A 
ATOM     44  C   UNL A   1      43.724  31.512  30.943  1.00  0.00     0.031 A 
ATOM     45  C   UNL A   1      44.186  25.342  28.875  1.00  0.00     0.049 A 
ATOM     46  C   UNL A   1      44.841  30.511  30.951  1.00  0.00     0.074 A 
ATOM     47  C   UNL A   1      45.302  24.523  28.900  1.00  0.00     0.029 A 
ATOM     48  N   UNL A   1      44.562  26.547  29.449  1.00  0.00    -0.354 N 
ATOM     49  N   UNL A   1      44.843  29.284  30.491  1.00  0.00    -0.248 NA
ATOM     50  C   UNL A   1      46.110  30.932  31.561  1.00  0.00     0.031 C 
ATOM     51  C   UNL A   1      46.338  25.216  29.533  1.00  0.00     0.029 A 
ATOM     52  C   UNL A   1      45.887  26.488  29.845  1.00  0.00     0.049 A 
ATOM     53  H   UNL A   1      43.974  27.329  29.559  1.00  0.00     0.167 HD
ATOM     54  C   UNL A   1      46.118  28.790  30.740  1.00  0.00     0.074 A 
ATOM     55  C   UNL A   1      46.864  29.855  31.379  1.00  0.00     0.031 C 
ATOM     56  C   UNL A   1      46.619  27.563  30.467  1.00  0.00     0.031 A 
BRANCH  43  57
ATOM     57  C   UNL A   1      42.641  23.685  27.760  1.00  0.00    -0.014 A 
ATOM     58  C   UNL A   1      42.915  23.414  26.408  1.00  0.00     0.010 A 
ATOM     59  C   UNL A   1      42.202  22.635  28.590  1.00  0.00     0.010 A 
ATOM     60  C   UNL A   1      42.726  22.130  25.890  1.00  0.00     0.020 A 
ATOM     61  C   UNL A   1      42.037  21.342  28.082  1.00  0.00     0.020 A 
ATOM     62  C   UNL A   1      42.287  21.102  26.731  1.00  0.00     0.054 A 
BRANCH  62  63
ATOM     63  S   UNL A   1      42.080  19.439  26.035  1.00  0.00     0.124 S 
ATOM     64  O   UNL A   1      42.903  19.512  24.831  1.00  0.00    -0.237 OA
ATOM     65  O   UNL A   1      42.597  18.581  27.097  1.00  0.00    -0.237 OA
ATOM     66  O   UNL A   1      40.642  19.337  25.799  1.00  0.00    -0.744 OA
ENDBRANCH  62  63
ENDBRANCH  43  57
BRANCH  44  67
ATOM     67  C   UNL A   1      43.919  32.897  31.460  1.00  0.00    -0.014 A 
ATOM     68  C   UNL A   1      44.411  33.910  30.620  1.00  0.00     0.010 A 
ATOM     69  C   UNL A   1      43.571  33.218  32.786  1.00  0.00     0.010 A 
ATOM     70  C   UNL A   1      44.552  35.218  31.096  1.00  0.00     0.020 A 
ATOM     71  C   UNL A   1      43.680  34.530  33.255  1.00  0.00     0.020 A 
ATOM     72  C   UNL A   1      44.178  35.522  32.409  1.00  0.00     0.054 A 
BRANCH  72  73
ATOM     73  S   UNL A   1      44.309  37.238  32.982  1.00  0.00     0.124 S 
ATOM     74  O   UNL A   1      45.740  37.362  33.241  1.00  0.00    -0.237 OA
ATOM     75  O   UNL A   1      43.805  37.992  31.836  1.00  0.00    -0.237 OA
ATOM     76  O   UNL A   1      43.453  37.270  34.166  1.00  0.00    -0.744 OA
ENDBRANCH  72  73
ENDBRANCH  44  67
BRANCH  56  77
ATOM     77  C   UNL A   1      48.056  27.297  30.820  1.00  0.00    -0.014 A 
ATOM     78  C   UNL A   1      48.394  26.536  31.951  1.00  0.00     0.010 A 
ATOM     79  C   UNL A   1      49.070  27.713  29.938  1.00  0.00     0.010 A 
ATOM     80  C   UNL A   1      49.726  26.189  32.191  1.00  0.00     0.020 A 
ATOM     81  C   UNL A   1      50.399  27.347  30.162  1.00  0.00     0.020 A 
ATOM     82  C   UNL A   1      50.718  26.586  31.288  1.00  0.00     0.054 A 
BRANCH  82  83
ATOM     83  S   UNL A   1      52.422  26.032  31.570  1.00  0.00     0.124 S 
ATOM     84  O   UNL A   1      52.921  27.041  32.499  1.00  0.00    -0.237 OA
ATOM     85  O   UNL A   1      52.232  24.698  32.134  1.00  0.00    -0.237 OA
ATOM     86  O   UNL A   1      53.022  26.060  30.237  1.00  0.00    -0.744 OA
ENDBRANCH  82  83
ENDBRANCH  56  77
ENDBRANCH  30  31
ENDBRANCH  23  25
ENDBRANCH  22  23
ENDBRANCH   1  22
TORSDOF 15
ENDMDL
