MODEL 1
REMARK VINA RESULT:     -10.8      0.000      0.000
REMARK SMILES O=C(OCCOC(=O)c1cc(S(=O)(=O)Nc2cccc(Cl)c2)ccc1O)c1ccc(-c2c3nc(c(-c4ccc(S(=O)(=O)[O-])cc4)c4ccc([nH]4)c(-c4ccc(S(=O)(=O)[O-])cc4)c4nc(c(-c5ccc(S(=O)(=O)[O-])cc5)c5ccc2[nH]5)C=C4)C=C3)cc1
REMARK SMILES IDX 4 1 3 2 2 3 1 4 27 5 28 6 86 7 29 8 85 9 30 10 31 11 32 12
REMARK SMILES IDX 79 13 33 14 84 15 78 16 80 17 34 18 83 19 77 20 76 21 35 23
REMARK SMILES IDX 65 24 46 25 64 26 47 27 50 28 63 29 81 30 48 31 49 32 62 34
REMARK SMILES IDX 82 35 51 36 36 37 37 38 45 39 38 40 44 41 39 42 40 43 41 44
REMARK SMILES IDX 42 45 43 46 66 47 67 48 75 49 68 50 74 51 69 52 70 53 71 54
REMARK SMILES IDX 72 55 73 56 52 57 53 58 61 59 54 60 60 61 55 62 56 63 57 64
REMARK SMILES IDX 58 65 59 66 5 67 6 68 7 69 8 70 9 71 10 72 25 73 11 74 24 75
REMARK SMILES IDX 23 76 26 77 12 79 13 80 14 81 15 82 16 84 17 85 22 86 18 87
REMARK SMILES IDX 20 88 19 89 21 90
REMARK H PARENT 80 22 50 33 26 78 15 83
REMARK Flexibility Score: inf
ROOT
ATOM      1  C   UNL A   1      40.170  22.830  26.858  1.00  0.00     0.275 C 
ENDROOT
BRANCH   1   2
ATOM      2  O   UNL A   1      41.194  23.762  26.470  1.00  0.00    -0.458 OA
BRANCH   2   3
ATOM      3  C   UNL A   1      41.199  25.115  26.424  1.00  0.00     0.338 C 
ATOM      4  O   UNL A   1      41.517  25.654  25.365  1.00  0.00    -0.246 OA
BRANCH   3   5
ATOM      5  C   UNL A   1      40.913  26.013  27.592  1.00  0.00     0.060 A 
ATOM      6  C   UNL A   1      39.848  25.888  28.485  1.00  0.00     0.016 A 
ATOM      7  C   UNL A   1      41.799  27.093  27.786  1.00  0.00     0.016 A 
ATOM      8  C   UNL A   1      39.708  26.754  29.571  1.00  0.00     0.010 A 
ATOM      9  C   UNL A   1      41.670  27.958  28.880  1.00  0.00     0.010 A 
ATOM     10  C   UNL A   1      40.622  27.785  29.788  1.00  0.00    -0.014 A 
BRANCH  10  11
ATOM     11  C   UNL A   1      40.407  28.711  30.922  1.00  0.00     0.031 A 
ATOM     12  C   UNL A   1      41.199  28.520  32.179  1.00  0.00     0.074 A 
ATOM     13  C   UNL A   1      39.585  29.770  30.788  1.00  0.00     0.049 A 
ATOM     14  N   UNL A   1      41.257  29.293  33.229  1.00  0.00    -0.248 NA
ATOM     15  C   UNL A   1      42.082  27.343  32.239  1.00  0.00     0.031 C 
ATOM     16  C   UNL A   1      38.867  30.124  29.566  1.00  0.00     0.029 A 
ATOM     17  N   UNL A   1      39.211  30.747  31.674  1.00  0.00    -0.354 N 
ATOM     18  C   UNL A   1      42.234  28.739  34.043  1.00  0.00     0.074 A 
ATOM     19  C   UNL A   1      42.682  27.520  33.407  1.00  0.00     0.031 C 
ATOM     20  C   UNL A   1      38.069  31.178  29.800  1.00  0.00     0.029 A 
ATOM     21  C   UNL A   1      38.257  31.607  31.178  1.00  0.00     0.049 A 
ATOM     22  H   UNL A   1      39.589  30.827  32.580  1.00  0.00     0.167 HD
ATOM     23  C   UNL A   1      42.744  29.231  35.195  1.00  0.00     0.031 A 
ATOM     24  C   UNL A   1      37.615  32.635  31.764  1.00  0.00     0.031 A 
ATOM     25  C   UNL A   1      42.248  30.415  35.844  1.00  0.00     0.049 A 
ATOM     26  C   UNL A   1      38.073  33.060  33.130  1.00  0.00     0.074 A 
ATOM     27  C   UNL A   1      42.656  30.978  37.039  1.00  0.00     0.029 A 
ATOM     28  N   UNL A   1      41.220  31.207  35.354  1.00  0.00    -0.354 N 
ATOM     29  N   UNL A   1      39.027  32.544  33.869  1.00  0.00    -0.248 NA
ATOM     30  C   UNL A   1      37.418  34.236  33.715  1.00  0.00     0.031 C 
ATOM     31  C   UNL A   1      41.836  32.081  37.299  1.00  0.00     0.029 A 
ATOM     32  C   UNL A   1      40.957  32.240  36.238  1.00  0.00     0.049 A 
ATOM     33  H   UNL A   1      40.746  31.058  34.504  1.00  0.00     0.167 HD
ATOM     34  C   UNL A   1      39.120  33.359  34.987  1.00  0.00     0.074 A 
ATOM     35  C   UNL A   1      38.130  34.406  34.820  1.00  0.00     0.031 C 
ATOM     36  C   UNL A   1      39.955  33.259  36.051  1.00  0.00     0.031 A 
BRANCH  23  37
ATOM     37  C   UNL A   1      43.885  28.475  35.813  1.00  0.00    -0.014 A 
ATOM     38  C   UNL A   1      45.216  28.781  35.471  1.00  0.00     0.010 A 
ATOM     39  C   UNL A   1      43.633  27.453  36.744  1.00  0.00     0.010 A 
ATOM     40  C   UNL A   1      46.273  28.058  36.027  1.00  0.00     0.020 A 
ATOM     41  C   UNL A   1      44.691  26.742  37.318  1.00  0.00     0.020 A 
ATOM     42  C   UNL A   1      46.004  27.041  36.946  1.00  0.00     0.054 A 
BRANCH  42  43
ATOM     43  S   UNL A   1      47.397  26.132  37.668  1.00  0.00     0.124 S 
ATOM     44  O   UNL A   1      47.865  27.062  38.693  1.00  0.00    -0.237 OA
ATOM     45  O   UNL A   1      46.760  24.916  38.168  1.00  0.00    -0.237 OA
ATOM     46  O   UNL A   1      48.307  25.938  36.541  1.00  0.00    -0.744 OA
ENDBRANCH  42  43
ENDBRANCH  23  37
BRANCH  24  47
ATOM     47  C   UNL A   1      36.497  33.327  31.067  1.00  0.00    -0.014 A 
ATOM     48  C   UNL A   1      36.653  33.866  29.779  1.00  0.00     0.010 A 
ATOM     49  C   UNL A   1      35.258  33.474  31.721  1.00  0.00     0.010 A 
ATOM     50  C   UNL A   1      35.607  34.573  29.173  1.00  0.00     0.020 A 
ATOM     51  C   UNL A   1      34.203  34.160  31.111  1.00  0.00     0.020 A 
ATOM     52  C   UNL A   1      34.391  34.721  29.847  1.00  0.00     0.054 A 
BRANCH  52  53
ATOM     53  S   UNL A   1      33.046  35.639  29.045  1.00  0.00     0.124 S 
ATOM     54  O   UNL A   1      32.442  34.616  28.200  1.00  0.00    -0.237 OA
ATOM     55  O   UNL A   1      32.244  36.078  30.185  1.00  0.00    -0.237 OA
ATOM     56  O   UNL A   1      33.744  36.709  28.336  1.00  0.00    -0.744 OA
ENDBRANCH  52  53
ENDBRANCH  24  47
BRANCH  36  57
ATOM     57  C   UNL A   1      39.838  34.326  37.102  1.00  0.00    -0.014 A 
ATOM     58  C   UNL A   1      39.110  34.104  38.284  1.00  0.00     0.010 A 
ATOM     59  C   UNL A   1      40.483  35.561  36.910  1.00  0.00     0.010 A 
ATOM     60  C   UNL A   1      38.993  35.115  39.239  1.00  0.00     0.020 A 
ATOM     61  C   UNL A   1      40.395  36.563  37.877  1.00  0.00     0.020 A 
ATOM     62  C   UNL A   1      39.634  36.339  39.027  1.00  0.00     0.054 A 
BRANCH  62  63
ATOM     63  S   UNL A   1      39.485  37.629  40.291  1.00  0.00     0.124 S 
ATOM     64  O   UNL A   1      38.577  38.577  39.652  1.00  0.00    -0.237 OA
ATOM     65  O   UNL A   1      38.933  36.900  41.430  1.00  0.00    -0.237 OA
ATOM     66  O   UNL A   1      40.857  38.100  40.467  1.00  0.00    -0.744 OA
ENDBRANCH  62  63
ENDBRANCH  36  57
ENDBRANCH  10  11
ENDBRANCH   3   5
ENDBRANCH   2   3
ENDBRANCH   1   2
BRANCH   1  67
ATOM     67  C   UNL A   1      40.596  21.362  26.821  1.00  0.00     0.275 C 
BRANCH  67  68
ATOM     68  O   UNL A   1      41.493  21.066  25.745  1.00  0.00    -0.458 OA
BRANCH  68  69
ATOM     69  C   UNL A   1      42.351  20.028  25.939  1.00  0.00     0.342 C 
ATOM     70  O   UNL A   1      42.068  18.901  26.313  1.00  0.00    -0.246 OA
BRANCH  69  71
ATOM     71  C   UNL A   1      43.688  20.427  25.455  1.00  0.00     0.103 A 
ATOM     72  C   UNL A   1      44.075  21.774  25.569  1.00  0.00     0.041 A 
ATOM     73  C   UNL A   1      44.593  19.479  24.969  1.00  0.00     0.130 A 
ATOM     74  C   UNL A   1      45.413  22.124  25.348  1.00  0.00     0.088 A 
ATOM     75  C   UNL A   1      45.917  19.839  24.744  1.00  0.00     0.048 A 
ATOM     76  C   UNL A   1      46.343  21.128  25.043  1.00  0.00     0.026 A 
BRANCH  73  77
ATOM     77  O   UNL A   1      44.200  18.192  24.737  1.00  0.00    -0.507 OA
ATOM     78  H   UNL A   1      43.309  17.942  24.880  1.00  0.00     0.293 HD
ENDBRANCH  73  77
BRANCH  74  79
ATOM     79  S   UNL A   1      45.968  23.793  25.610  1.00  0.00     0.261 S 
ATOM     80  O   UNL A   1      47.031  23.753  26.593  1.00  0.00    -0.201 OA
ATOM     81  O   UNL A   1      46.198  24.377  24.307  1.00  0.00    -0.201 OA
BRANCH  79  82
ATOM     82  N   UNL A   1      44.718  24.701  26.348  1.00  0.00    -0.280 N 
ATOM     83  H   UNL A   1      44.045  25.156  25.791  1.00  0.00     0.180 HD
BRANCH  82  84
ATOM     84  C   UNL A   1      44.653  24.795  27.777  1.00  0.00     0.050 A 
ATOM     85  C   UNL A   1      44.070  23.736  28.479  1.00  0.00     0.027 A 
ATOM     86  C   UNL A   1      45.086  25.934  28.458  1.00  0.00     0.047 A 
ATOM     87  C   UNL A   1      43.876  23.827  29.859  1.00  0.00     0.004 A 
ATOM     88  C   UNL A   1      44.921  26.002  29.846  1.00  0.00     0.043 A 
ATOM     89  C   UNL A   1      44.304  24.963  30.545  1.00  0.00     0.020 A 
ATOM     90  Cl  UNL A   1      45.481  27.383  30.707  1.00  0.00    -0.084 Cl
ENDBRANCH  82  84
ENDBRANCH  79  82
ENDBRANCH  74  79
ENDBRANCH  69  71
ENDBRANCH  68  69
ENDBRANCH  67  68
ENDBRANCH   1  67
TORSDOF 18
ENDMDL
MODEL 2
REMARK VINA RESULT:     -10.3      5.225     11.547
REMARK SMILES O=C(OCCOC(=O)c1cc(S(=O)(=O)Nc2cccc(Cl)c2)ccc1O)c1ccc(-c2c3nc(c(-c4ccc(S(=O)(=O)[O-])cc4)c4ccc([nH]4)c(-c4ccc(S(=O)(=O)[O-])cc4)c4nc(c(-c5ccc(S(=O)(=O)[O-])cc5)c5ccc2[nH]5)C=C4)C=C3)cc1
REMARK SMILES IDX 4 1 3 2 2 3 1 4 27 5 28 6 86 7 29 8 85 9 30 10 31 11 32 12
REMARK SMILES IDX 79 13 33 14 84 15 78 16 80 17 34 18 83 19 77 20 76 21 35 23
REMARK SMILES IDX 65 24 46 25 64 26 47 27 50 28 63 29 81 30 48 31 49 32 62 34
REMARK SMILES IDX 82 35 51 36 36 37 37 38 45 39 38 40 44 41 39 42 40 43 41 44
REMARK SMILES IDX 42 45 43 46 66 47 67 48 75 49 68 50 74 51 69 52 70 53 71 54
REMARK SMILES IDX 72 55 73 56 52 57 53 58 61 59 54 60 60 61 55 62 56 63 57 64
REMARK SMILES IDX 58 65 59 66 5 67 6 68 7 69 8 70 9 71 10 72 25 73 11 74 24 75
REMARK SMILES IDX 23 76 26 77 12 79 13 80 14 81 15 82 16 84 17 85 22 86 18 87
REMARK SMILES IDX 20 88 19 89 21 90
REMARK H PARENT 80 22 50 33 26 78 15 83
REMARK Flexibility Score: inf
ROOT
ATOM      1  C   UNL A   1      32.259  29.442  26.982  1.00  0.00     0.275 C 
ENDROOT
BRANCH   1   2
ATOM      2  O   UNL A   1      33.693  29.547  27.029  1.00  0.00    -0.458 OA
BRANCH   2   3
ATOM      3  C   UNL A   1      34.507  30.318  27.786  1.00  0.00     0.338 C 
ATOM      4  O   UNL A   1      34.110  31.440  28.100  1.00  0.00    -0.246 OA
BRANCH   3   5
ATOM      5  C   UNL A   1      35.893  29.937  28.215  1.00  0.00     0.060 A 
ATOM      6  C   UNL A   1      36.270  29.500  29.486  1.00  0.00     0.016 A 
ATOM      7  C   UNL A   1      36.908  30.054  27.243  1.00  0.00     0.016 A 
ATOM      8  C   UNL A   1      37.586  29.122  29.761  1.00  0.00     0.010 A 
ATOM      9  C   UNL A   1      38.227  29.666  27.510  1.00  0.00     0.010 A 
ATOM     10  C   UNL A   1      38.571  29.185  28.776  1.00  0.00    -0.014 A 
BRANCH  10  11
ATOM     11  C   UNL A   1      39.963  28.824  29.125  1.00  0.00     0.031 A 
ATOM     12  C   UNL A   1      40.836  29.844  29.789  1.00  0.00     0.074 A 
ATOM     13  C   UNL A   1      40.404  27.564  28.943  1.00  0.00     0.049 A 
ATOM     14  N   UNL A   1      42.029  29.689  30.293  1.00  0.00    -0.248 NA
ATOM     15  C   UNL A   1      40.272  31.194  29.961  1.00  0.00     0.031 C 
ATOM     16  C   UNL A   1      39.597  26.460  28.428  1.00  0.00     0.029 A 
ATOM     17  N   UNL A   1      41.628  26.990  29.167  1.00  0.00    -0.354 N 
ATOM     18  C   UNL A   1      42.333  30.897  30.905  1.00  0.00     0.074 A 
ATOM     19  C   UNL A   1      41.236  31.801  30.639  1.00  0.00     0.031 C 
ATOM     20  C   UNL A   1      40.365  25.368  28.284  1.00  0.00     0.029 A 
ATOM     21  C   UNL A   1      41.710  25.680  28.747  1.00  0.00     0.049 A 
ATOM     22  H   UNL A   1      42.379  27.467  29.588  1.00  0.00     0.167 HD
ATOM     23  C   UNL A   1      43.410  31.205  31.663  1.00  0.00     0.031 A 
ATOM     24  C   UNL A   1      42.748  24.824  28.747  1.00  0.00     0.031 A 
ATOM     25  C   UNL A   1      44.519  30.314  31.872  1.00  0.00     0.049 A 
ATOM     26  C   UNL A   1      44.010  25.252  29.439  1.00  0.00     0.074 A 
ATOM     27  C   UNL A   1      45.684  30.540  32.579  1.00  0.00     0.029 A 
ATOM     28  N   UNL A   1      44.602  29.029  31.354  1.00  0.00    -0.354 N 
ATOM     29  N   UNL A   1      44.263  26.387  30.047  1.00  0.00    -0.248 NA
ATOM     30  C   UNL A   1      45.100  24.271  29.503  1.00  0.00     0.031 C 
ATOM     31  C   UNL A   1      46.498  29.409  32.444  1.00  0.00     0.029 A 
ATOM     32  C   UNL A   1      45.814  28.457  31.702  1.00  0.00     0.049 A 
ATOM     33  H   UNL A   1      43.904  28.588  30.820  1.00  0.00     0.167 HD
ATOM     34  C   UNL A   1      45.524  26.243  30.606  1.00  0.00     0.074 A 
ATOM     35  C   UNL A   1      45.975  24.905  30.270  1.00  0.00     0.031 C 
ATOM     36  C   UNL A   1      46.241  27.129  31.340  1.00  0.00     0.031 A 
BRANCH  23  37
ATOM     37  C   UNL A   1      43.425  32.563  32.303  1.00  0.00    -0.014 A 
ATOM     38  C   UNL A   1      42.786  32.780  33.539  1.00  0.00     0.010 A 
ATOM     39  C   UNL A   1      44.083  33.633  31.673  1.00  0.00     0.010 A 
ATOM     40  C   UNL A   1      42.779  34.051  34.118  1.00  0.00     0.020 A 
ATOM     41  C   UNL A   1      44.096  34.901  32.262  1.00  0.00     0.020 A 
ATOM     42  C   UNL A   1      43.433  35.105  33.475  1.00  0.00     0.054 A 
BRANCH  42  43
ATOM     43  S   UNL A   1      43.426  36.739  34.261  1.00  0.00     0.124 S 
ATOM     44  O   UNL A   1      44.722  36.755  34.935  1.00  0.00    -0.237 OA
ATOM     45  O   UNL A   1      43.302  37.641  33.118  1.00  0.00    -0.237 OA
ATOM     46  O   UNL A   1      42.264  36.695  35.145  1.00  0.00    -0.744 OA
ENDBRANCH  42  43
ENDBRANCH  23  37
BRANCH  24  47
ATOM     47  C   UNL A   1      42.633  23.493  28.089  1.00  0.00    -0.014 A 
ATOM     48  C   UNL A   1      43.312  23.201  26.894  1.00  0.00     0.010 A 
ATOM     49  C   UNL A   1      41.803  22.509  28.658  1.00  0.00     0.010 A 
ATOM     50  C   UNL A   1      43.131  21.967  26.258  1.00  0.00     0.020 A 
ATOM     51  C   UNL A   1      41.637  21.266  28.039  1.00  0.00     0.020 A 
ATOM     52  C   UNL A   1      42.289  21.010  26.832  1.00  0.00     0.054 A 
BRANCH  52  53
ATOM     53  S   UNL A   1      42.070  19.414  25.995  1.00  0.00     0.124 S 
ATOM     54  O   UNL A   1      40.626  19.371  25.797  1.00  0.00    -0.237 OA
ATOM     55  O   UNL A   1      42.873  19.583  24.787  1.00  0.00    -0.237 OA
ATOM     56  O   UNL A   1      42.602  18.452  26.958  1.00  0.00    -0.744 OA
ENDBRANCH  52  53
ENDBRANCH  24  47
BRANCH  36  57
ATOM     57  C   UNL A   1      47.579  26.663  31.841  1.00  0.00    -0.014 A 
ATOM     58  C   UNL A   1      48.750  26.886  31.096  1.00  0.00     0.010 A 
ATOM     59  C   UNL A   1      47.665  26.012  33.084  1.00  0.00     0.010 A 
ATOM     60  C   UNL A   1      49.981  26.426  31.566  1.00  0.00     0.020 A 
ATOM     61  C   UNL A   1      48.898  25.579  33.573  1.00  0.00     0.020 A 
ATOM     62  C   UNL A   1      50.046  25.772  32.800  1.00  0.00     0.054 A 
BRANCH  62  63
ATOM     63  S   UNL A   1      51.659  25.203  33.400  1.00  0.00     0.124 S 
ATOM     64  O   UNL A   1      51.304  23.974  34.102  1.00  0.00    -0.237 OA
ATOM     65  O   UNL A   1      52.416  25.025  32.163  1.00  0.00    -0.237 OA
ATOM     66  O   UNL A   1      52.116  26.299  34.251  1.00  0.00    -0.744 OA
ENDBRANCH  62  63
ENDBRANCH  36  57
ENDBRANCH  10  11
ENDBRANCH   3   5
ENDBRANCH   2   3
ENDBRANCH   1   2
BRANCH   1  67
ATOM     67  C   UNL A   1      31.658  29.537  25.579  1.00  0.00     0.275 C 
BRANCH  67  68
ATOM     68  O   UNL A   1      31.666  28.287  24.880  1.00  0.00    -0.458 OA
BRANCH  68  69
ATOM     69  C   UNL A   1      32.661  28.107  23.971  1.00  0.00     0.342 C 
ATOM     70  O   UNL A   1      33.330  28.974  23.432  1.00  0.00    -0.246 OA
BRANCH  69  71
ATOM     71  C   UNL A   1      32.935  26.660  23.854  1.00  0.00     0.103 A 
ATOM     72  C   UNL A   1      32.791  25.850  24.994  1.00  0.00     0.041 A 
ATOM     73  C   UNL A   1      33.249  26.081  22.621  1.00  0.00     0.130 A 
ATOM     74  C   UNL A   1      32.804  24.457  24.851  1.00  0.00     0.088 A 
ATOM     75  C   UNL A   1      33.269  24.697  22.492  1.00  0.00     0.048 A 
ATOM     76  C   UNL A   1      32.935  23.897  23.579  1.00  0.00     0.026 A 
BRANCH  73  77
ATOM     77  O   UNL A   1      33.512  26.860  21.531  1.00  0.00    -0.507 OA
ATOM     78  H   UNL A   1      32.806  27.202  21.018  1.00  0.00     0.293 HD
ENDBRANCH  73  77
BRANCH  74  79
ATOM     79  S   UNL A   1      32.494  23.400  26.247  1.00  0.00     0.261 S 
ATOM     80  O   UNL A   1      31.684  24.144  27.190  1.00  0.00    -0.201 OA
ATOM     81  O   UNL A   1      32.032  22.130  25.729  1.00  0.00    -0.201 OA
BRANCH  79  82
ATOM     82  N   UNL A   1      33.964  23.095  27.070  1.00  0.00    -0.280 N 
ATOM     83  H   UNL A   1      33.998  23.144  28.053  1.00  0.00     0.180 HD
BRANCH  82  84
ATOM     84  C   UNL A   1      35.143  22.767  26.325  1.00  0.00     0.050 A 
ATOM     85  C   UNL A   1      35.939  23.819  25.859  1.00  0.00     0.027 A 
ATOM     86  C   UNL A   1      35.465  21.448  26.000  1.00  0.00     0.047 A 
ATOM     87  C   UNL A   1      37.033  23.562  25.031  1.00  0.00     0.004 A 
ATOM     88  C   UNL A   1      36.585  21.197  25.200  1.00  0.00     0.043 A 
ATOM     89  C   UNL A   1      37.358  22.247  24.700  1.00  0.00     0.020 A 
ATOM     90  Cl  UNL A   1      37.017  19.576  24.818  1.00  0.00    -0.084 Cl
ENDBRANCH  82  84
ENDBRANCH  79  82
ENDBRANCH  74  79
ENDBRANCH  69  71
ENDBRANCH  68  69
ENDBRANCH  67  68
ENDBRANCH   1  67
TORSDOF 18
ENDMDL
MODEL 3
REMARK VINA RESULT:     -10.3      4.690     10.990
REMARK SMILES O=C(OCCOC(=O)c1cc(S(=O)(=O)Nc2cccc(Cl)c2)ccc1O)c1ccc(-c2c3nc(c(-c4ccc(S(=O)(=O)[O-])cc4)c4ccc([nH]4)c(-c4ccc(S(=O)(=O)[O-])cc4)c4nc(c(-c5ccc(S(=O)(=O)[O-])cc5)c5ccc2[nH]5)C=C4)C=C3)cc1
REMARK SMILES IDX 4 1 3 2 2 3 1 4 27 5 28 6 86 7 29 8 85 9 30 10 31 11 32 12
REMARK SMILES IDX 79 13 33 14 84 15 78 16 80 17 34 18 83 19 77 20 76 21 35 23
REMARK SMILES IDX 65 24 46 25 64 26 47 27 50 28 63 29 81 30 48 31 49 32 62 34
REMARK SMILES IDX 82 35 51 36 36 37 37 38 45 39 38 40 44 41 39 42 40 43 41 44
REMARK SMILES IDX 42 45 43 46 66 47 67 48 75 49 68 50 74 51 69 52 70 53 71 54
REMARK SMILES IDX 72 55 73 56 52 57 53 58 61 59 54 60 60 61 55 62 56 63 57 64
REMARK SMILES IDX 58 65 59 66 5 67 6 68 7 69 8 70 9 71 10 72 25 73 11 74 24 75
REMARK SMILES IDX 23 76 26 77 12 79 13 80 14 81 15 82 16 84 17 85 22 86 18 87
REMARK SMILES IDX 20 88 19 89 21 90
REMARK H PARENT 80 22 50 33 26 78 15 83
REMARK Flexibility Score: inf
ROOT
ATOM      1  C   UNL A   1      32.141  29.343  26.505  1.00  0.00     0.275 C 
ENDROOT
BRANCH   1   2
ATOM      2  O   UNL A   1      33.554  29.572  26.641  1.00  0.00    -0.458 OA
BRANCH   2   3
ATOM      3  C   UNL A   1      34.247  30.429  27.427  1.00  0.00     0.338 C 
ATOM      4  O   UNL A   1      33.821  31.578  27.543  1.00  0.00    -0.246 OA
BRANCH   3   5
ATOM      5  C   UNL A   1      35.541  30.105  28.115  1.00  0.00     0.060 A 
ATOM      6  C   UNL A   1      35.683  29.638  29.422  1.00  0.00     0.016 A 
ATOM      7  C   UNL A   1      36.719  30.314  27.369  1.00  0.00     0.016 A 
ATOM      8  C   UNL A   1      36.939  29.319  29.945  1.00  0.00     0.010 A 
ATOM      9  C   UNL A   1      37.980  29.985  27.884  1.00  0.00     0.010 A 
ATOM     10  C   UNL A   1      38.094  29.474  29.179  1.00  0.00    -0.014 A 
BRANCH  10  11
ATOM     11  C   UNL A   1      39.408  29.173  29.791  1.00  0.00     0.031 A 
ATOM     12  C   UNL A   1      39.893  30.020  30.926  1.00  0.00     0.074 A 
ATOM     13  C   UNL A   1      40.107  28.090  29.399  1.00  0.00     0.049 A 
ATOM     14  N   UNL A   1      40.943  29.843  31.681  1.00  0.00    -0.248 NA
ATOM     15  C   UNL A   1      39.063  31.177  31.299  1.00  0.00     0.031 C 
ATOM     16  C   UNL A   1      39.665  27.125  28.395  1.00  0.00     0.029 A 
ATOM     17  N   UNL A   1      41.331  27.610  29.789  1.00  0.00    -0.354 N 
ATOM     18  C   UNL A   1      40.863  30.821  32.662  1.00  0.00     0.074 A 
ATOM     19  C   UNL A   1      39.709  31.640  32.359  1.00  0.00     0.031 C 
ATOM     20  C   UNL A   1      40.636  26.224  28.177  1.00  0.00     0.029 A 
ATOM     21  C   UNL A   1      41.752  26.517  29.065  1.00  0.00     0.049 A 
ATOM     22  H   UNL A   1      41.859  28.008  30.518  1.00  0.00     0.167 HD
ATOM     23  C   UNL A   1      41.656  30.989  33.745  1.00  0.00     0.031 A 
ATOM     24  C   UNL A   1      42.903  25.821  29.120  1.00  0.00     0.031 A 
ATOM     25  C   UNL A   1      42.831  30.203  34.002  1.00  0.00     0.049 A 
ATOM     26  C   UNL A   1      43.864  26.143  30.227  1.00  0.00     0.074 A 
ATOM     27  C   UNL A   1      43.736  30.318  35.041  1.00  0.00     0.029 A 
ATOM     28  N   UNL A   1      43.273  29.164  33.195  1.00  0.00    -0.354 N 
ATOM     29  N   UNL A   1      43.751  27.049  31.170  1.00  0.00    -0.248 NA
ATOM     30  C   UNL A   1      45.073  25.316  30.321  1.00  0.00     0.031 C 
ATOM     31  C   UNL A   1      44.755  29.382  34.833  1.00  0.00     0.029 A 
ATOM     32  C   UNL A   1      44.455  28.646  33.697  1.00  0.00     0.049 A 
ATOM     33  H   UNL A   1      42.815  28.841  32.386  1.00  0.00     0.167 HD
ATOM     34  C   UNL A   1      44.850  26.872  31.997  1.00  0.00     0.074 A 
ATOM     35  C   UNL A   1      45.610  25.766  31.446  1.00  0.00     0.031 C 
ATOM     36  C   UNL A   1      45.196  27.554  33.117  1.00  0.00     0.031 A 
BRANCH  23  37
ATOM     37  C   UNL A   1      41.265  32.070  34.713  1.00  0.00    -0.014 A 
ATOM     38  C   UNL A   1      40.383  31.796  35.775  1.00  0.00     0.010 A 
ATOM     39  C   UNL A   1      41.783  33.368  34.567  1.00  0.00     0.010 A 
ATOM     40  C   UNL A   1      40.002  32.809  36.657  1.00  0.00     0.020 A 
ATOM     41  C   UNL A   1      41.419  34.379  35.461  1.00  0.00     0.020 A 
ATOM     42  C   UNL A   1      40.521  34.096  36.493  1.00  0.00     0.054 A 
BRANCH  42  43
ATOM     43  S   UNL A   1      40.025  35.387  37.666  1.00  0.00     0.124 S 
ATOM     44  O   UNL A   1      38.802  34.827  38.234  1.00  0.00    -0.237 OA
ATOM     45  O   UNL A   1      41.167  35.449  38.575  1.00  0.00    -0.237 OA
ATOM     46  O   UNL A   1      39.838  36.567  36.824  1.00  0.00    -0.744 OA
ENDBRANCH  42  43
ENDBRANCH  23  37
BRANCH  24  47
ATOM     47  C   UNL A   1      43.197  24.762  28.116  1.00  0.00    -0.014 A 
ATOM     48  C   UNL A   1      42.812  23.426  28.320  1.00  0.00     0.010 A 
ATOM     49  C   UNL A   1      43.903  25.095  26.944  1.00  0.00     0.010 A 
ATOM     50  C   UNL A   1      43.162  22.437  27.393  1.00  0.00     0.020 A 
ATOM     51  C   UNL A   1      44.235  24.115  26.004  1.00  0.00     0.020 A 
ATOM     52  C   UNL A   1      43.878  22.787  26.244  1.00  0.00     0.054 A 
BRANCH  52  53
ATOM     53  S   UNL A   1      44.320  21.491  25.053  1.00  0.00     0.124 S 
ATOM     54  O   UNL A   1      45.684  21.165  25.452  1.00  0.00    -0.237 OA
ATOM     55  O   UNL A   1      43.316  20.465  25.321  1.00  0.00    -0.237 OA
ATOM     56  O   UNL A   1      44.186  22.161  23.761  1.00  0.00    -0.744 OA
ENDBRANCH  52  53
ENDBRANCH  24  47
BRANCH  36  57
ATOM     57  C   UNL A   1      46.443  27.101  33.824  1.00  0.00    -0.014 A 
ATOM     58  C   UNL A   1      46.379  26.198  34.899  1.00  0.00     0.010 A 
ATOM     59  C   UNL A   1      47.695  27.570  33.389  1.00  0.00     0.010 A 
ATOM     60  C   UNL A   1      47.546  25.807  35.558  1.00  0.00     0.020 A 
ATOM     61  C   UNL A   1      48.866  27.156  34.025  1.00  0.00     0.020 A 
ATOM     62  C   UNL A   1      48.781  26.291  35.119  1.00  0.00     0.054 A 
BRANCH  62  63
ATOM     63  S   UNL A   1      50.283  25.751  35.976  1.00  0.00     0.124 S 
ATOM     64  O   UNL A   1      50.392  26.739  37.046  1.00  0.00    -0.237 OA
ATOM     65  O   UNL A   1      49.939  24.397  36.403  1.00  0.00    -0.237 OA
ATOM     66  O   UNL A   1      51.316  25.829  34.946  1.00  0.00    -0.744 OA
ENDBRANCH  62  63
ENDBRANCH  36  57
ENDBRANCH  10  11
ENDBRANCH   3   5
ENDBRANCH   2   3
ENDBRANCH   1   2
BRANCH   1  67
ATOM     67  C   UNL A   1      31.591  29.563  25.096  1.00  0.00     0.275 C 
BRANCH  67  68
ATOM     68  O   UNL A   1      31.566  28.366  24.310  1.00  0.00    -0.458 OA
BRANCH  68  69
ATOM     69  C   UNL A   1      32.642  28.145  23.507  1.00  0.00     0.342 C 
ATOM     70  O   UNL A   1      33.354  28.986  22.986  1.00  0.00    -0.246 OA
BRANCH  69  71
ATOM     71  C   UNL A   1      32.930  26.695  23.496  1.00  0.00     0.103 A 
ATOM     72  C   UNL A   1      32.769  25.965  24.686  1.00  0.00     0.041 A 
ATOM     73  C   UNL A   1      33.274  26.037  22.313  1.00  0.00     0.130 A 
ATOM     74  C   UNL A   1      32.796  24.565  24.640  1.00  0.00     0.088 A 
ATOM     75  C   UNL A   1      33.308  24.648  22.279  1.00  0.00     0.048 A 
ATOM     76  C   UNL A   1      32.958  23.921  23.412  1.00  0.00     0.026 A 
BRANCH  73  77
ATOM     77  O   UNL A   1      33.553  26.741  21.177  1.00  0.00    -0.507 OA
ATOM     78  H   UNL A   1      34.408  26.695  20.795  1.00  0.00     0.293 HD
ENDBRANCH  73  77
BRANCH  74  79
ATOM     79  S   UNL A   1      32.466  23.604  26.099  1.00  0.00     0.261 S 
ATOM     80  O   UNL A   1      31.661  24.416  26.987  1.00  0.00    -0.201 OA
ATOM     81  O   UNL A   1      31.990  22.309  25.660  1.00  0.00    -0.201 OA
BRANCH  79  82
ATOM     82  N   UNL A   1      33.928  23.334  26.948  1.00  0.00    -0.280 N 
ATOM     83  H   UNL A   1      33.959  23.453  27.925  1.00  0.00     0.180 HD
BRANCH  82  84
ATOM     84  C   UNL A   1      35.104  22.934  26.234  1.00  0.00     0.050 A 
ATOM     85  C   UNL A   1      35.925  23.936  25.706  1.00  0.00     0.027 A 
ATOM     86  C   UNL A   1      35.399  21.590  25.997  1.00  0.00     0.047 A 
ATOM     87  C   UNL A   1      37.017  23.602  24.904  1.00  0.00     0.004 A 
ATOM     88  C   UNL A   1      36.517  21.264  25.223  1.00  0.00     0.043 A 
ATOM     89  C   UNL A   1      37.315  22.262  24.661  1.00  0.00     0.020 A 
ATOM     90  Cl  UNL A   1      36.916  19.612  24.950  1.00  0.00    -0.084 Cl
ENDBRANCH  82  84
ENDBRANCH  79  82
ENDBRANCH  74  79
ENDBRANCH  69  71
ENDBRANCH  68  69
ENDBRANCH  67  68
ENDBRANCH   1  67
TORSDOF 18
ENDMDL
