MODEL 1
REMARK VINA RESULT:     -10.2      0.000      0.000
REMARK SMILES C[C@@H]1SCCC[C@H]1Nc1cccc(C(=O)OCCOC(=O)c2ccc(-c3c4nc(c(-c5ccc(S(=O)(=O)[O-])cc5)c5ccc([nH]5)c(-c5ccc(S(=O)(=O)[O-])cc5)c5nc(c(-c6ccc(S(=O)(=O)[O-])cc6)c6ccc3[nH]6)C=C5)C=C4)cc2)c1
REMARK SMILES IDX 18 1 17 2 16 3 14 4 15 5 13 6 9 7 10 8 82 9 11 10 12 11 8 12
REMARK SMILES IDX 7 14 1 15 2 16 3 17 4 18 6 19 5 20 19 21 20 22 21 23 22 24
REMARK SMILES IDX 23 25 81 26 24 27 80 28 25 29 26 30 27 31 74 32 28 33 79 34
REMARK SMILES IDX 73 35 75 36 29 37 78 38 72 39 71 40 30 42 60 43 41 44 59 45
REMARK SMILES IDX 42 46 45 47 58 48 76 49 43 50 44 51 57 53 77 54 46 55 31 56
REMARK SMILES IDX 32 57 40 58 33 59 39 60 34 61 35 62 36 63 37 64 38 65 61 66
REMARK SMILES IDX 62 67 70 68 63 69 69 70 64 71 65 72 66 73 67 74 68 75 47 76
REMARK SMILES IDX 48 77 56 78 49 79 55 80 50 81 51 82 52 83 53 84 54 85
REMARK H PARENT 8 13 75 41 45 52
REMARK Flexibility Score: inf
ROOT
ATOM      1  C   UNL A   1      34.146  32.364  28.493  1.00  0.00     0.275 C 
ENDROOT
BRANCH   1   2
ATOM      2  C   UNL A   1      33.561  33.732  28.142  1.00  0.00     0.275 C 
BRANCH   2   3
ATOM      3  O   UNL A   1      32.752  34.232  29.225  1.00  0.00    -0.458 OA
BRANCH   3   4
ATOM      4  C   UNL A   1      32.807  35.574  29.449  1.00  0.00     0.338 C 
ATOM      5  O   UNL A   1      32.392  36.447  28.719  1.00  0.00    -0.246 OA
BRANCH   4   6
ATOM      6  C   UNL A   1      33.378  35.836  30.794  1.00  0.00     0.062 A 
ATOM      7  C   UNL A   1      34.650  35.116  32.730  1.00  0.00     0.035 A 
ATOM      8  C   UNL A   1      34.382  36.344  33.344  1.00  0.00     0.026 A 
ATOM      9  C   UNL A   1      34.109  34.857  31.468  1.00  0.00     0.041 A 
ATOM     10  C   UNL A   1      33.667  37.334  32.672  1.00  0.00     0.003 A 
ATOM     11  C   UNL A   1      33.208  37.094  31.380  1.00  0.00     0.016 A 
BRANCH   7  12
ATOM     12  N   UNL A   1      35.534  34.232  33.328  1.00  0.00    -0.381 N 
ATOM     13  H   UNL A   1      35.267  33.722  34.127  1.00  0.00     0.160 HD
BRANCH  12  14
ATOM     14  C   UNL A   1      36.877  34.066  32.755  1.00  0.00     0.092 C 
ATOM     15  C   UNL A   1      39.362  34.392  33.298  1.00  0.00     0.021 C 
ATOM     16  C   UNL A   1      37.940  34.298  33.854  1.00  0.00     0.066 C 
ATOM     17  S   UNL A   1      37.845  33.030  35.183  1.00  0.00    -0.157 SA
ATOM     18  C   UNL A   1      37.853  31.521  34.165  1.00  0.00     0.070 C 
ATOM     19  C   UNL A   1      36.971  32.695  32.084  1.00  0.00     0.027 C 
ATOM     20  C   UNL A   1      36.809  31.530  33.057  1.00  0.00     0.013 C 
ENDBRANCH  12  14
ENDBRANCH   7  12
ENDBRANCH   4   6
ENDBRANCH   3   4
ENDBRANCH   2   3
ENDBRANCH   1   2
BRANCH   1  21
ATOM     21  O   UNL A   1      34.071  31.494  27.351  1.00  0.00    -0.458 OA
BRANCH  21  22
ATOM     22  C   UNL A   1      34.295  30.182  27.596  1.00  0.00     0.338 C 
ATOM     23  O   UNL A   1      33.536  29.248  27.406  1.00  0.00    -0.246 OA
BRANCH  22  24
ATOM     24  C   UNL A   1      35.666  30.013  28.102  1.00  0.00     0.060 A 
ATOM     25  C   UNL A   1      36.726  30.197  27.219  1.00  0.00     0.016 A 
ATOM     26  C   UNL A   1      35.903  29.556  29.393  1.00  0.00     0.016 A 
ATOM     27  C   UNL A   1      38.020  29.840  27.584  1.00  0.00     0.010 A 
ATOM     28  C   UNL A   1      37.219  29.293  29.794  1.00  0.00     0.010 A 
ATOM     29  C   UNL A   1      38.290  29.398  28.885  1.00  0.00    -0.014 A 
BRANCH  29  30
ATOM     30  C   UNL A   1      39.675  29.017  29.287  1.00  0.00     0.031 A 
ATOM     31  C   UNL A   1      40.556  30.020  29.989  1.00  0.00     0.074 A 
ATOM     32  C   UNL A   1      40.157  27.786  29.014  1.00  0.00     0.049 A 
ATOM     33  N   UNL A   1      41.843  29.972  30.218  1.00  0.00    -0.248 NA
ATOM     34  C   UNL A   1      39.907  31.247  30.485  1.00  0.00     0.031 C 
ATOM     35  C   UNL A   1      39.408  26.695  28.385  1.00  0.00     0.029 A 
ATOM     36  N   UNL A   1      41.405  27.245  29.224  1.00  0.00    -0.354 N 
ATOM     37  C   UNL A   1      42.170  31.187  30.813  1.00  0.00     0.074 A 
ATOM     38  C   UNL A   1      40.945  31.947  30.924  1.00  0.00     0.031 C 
ATOM     39  C   UNL A   1      40.200  25.618  28.276  1.00  0.00     0.029 A 
ATOM     40  C   UNL A   1      41.539  25.964  28.738  1.00  0.00     0.049 A 
ATOM     41  H   UNL A   1      42.132  27.729  29.678  1.00  0.00     0.167 HD
ATOM     42  C   UNL A   1      43.385  31.628  31.217  1.00  0.00     0.031 A 
ATOM     43  C   UNL A   1      42.623  25.174  28.617  1.00  0.00     0.031 A 
ATOM     44  C   UNL A   1      44.589  30.842  31.163  1.00  0.00     0.049 A 
ATOM     45  C   UNL A   1      43.964  25.696  29.058  1.00  0.00     0.074 A 
ATOM     46  C   UNL A   1      45.860  31.188  31.590  1.00  0.00     0.029 A 
ATOM     47  N   UNL A   1      44.672  29.551  30.666  1.00  0.00    -0.354 N 
ATOM     48  N   UNL A   1      44.258  26.856  29.592  1.00  0.00    -0.248 NA
ATOM     49  C   UNL A   1      45.119  24.808  28.865  1.00  0.00     0.031 C 
ATOM     50  C   UNL A   1      46.720  30.125  31.308  1.00  0.00     0.029 A 
ATOM     51  C   UNL A   1      45.976  29.096  30.756  1.00  0.00     0.049 A 
ATOM     52  H   UNL A   1      43.916  29.035  30.302  1.00  0.00     0.167 HD
ATOM     53  C   UNL A   1      45.629  26.830  29.817  1.00  0.00     0.074 A 
ATOM     54  C   UNL A   1      46.103  25.533  29.379  1.00  0.00     0.031 C 
ATOM     55  C   UNL A   1      46.427  27.796  30.333  1.00  0.00     0.031 A 
BRANCH  42  56
ATOM     56  C   UNL A   1      43.498  33.043  31.721  1.00  0.00    -0.014 A 
ATOM     57  C   UNL A   1      43.522  33.340  33.094  1.00  0.00     0.010 A 
ATOM     58  C   UNL A   1      43.685  34.084  30.791  1.00  0.00     0.010 A 
ATOM     59  C   UNL A   1      43.717  34.655  33.526  1.00  0.00     0.020 A 
ATOM     60  C   UNL A   1      43.904  35.396  31.219  1.00  0.00     0.020 A 
ATOM     61  C   UNL A   1      43.911  35.674  32.586  1.00  0.00     0.054 A 
BRANCH  61  62
ATOM     62  S   UNL A   1      44.231  37.360  33.177  1.00  0.00     0.124 S 
ATOM     63  O   UNL A   1      44.459  38.080  31.926  1.00  0.00    -0.237 OA
ATOM     64  O   UNL A   1      42.994  37.695  33.877  1.00  0.00    -0.237 OA
ATOM     65  O   UNL A   1      45.406  37.213  34.032  1.00  0.00    -0.744 OA
ENDBRANCH  61  62
ENDBRANCH  42  56
BRANCH  43  66
ATOM     66  C   UNL A   1      42.506  23.834  27.975  1.00  0.00    -0.014 A 
ATOM     67  C   UNL A   1      42.133  22.703  28.721  1.00  0.00     0.010 A 
ATOM     68  C   UNL A   1      42.794  23.681  26.604  1.00  0.00     0.010 A 
ATOM     69  C   UNL A   1      42.079  21.442  28.118  1.00  0.00     0.020 A 
ATOM     70  C   UNL A   1      42.706  22.431  25.990  1.00  0.00     0.020 A 
ATOM     71  C   UNL A   1      42.369  21.314  26.756  1.00  0.00     0.054 A 
BRANCH  71  72
ATOM     72  S   UNL A   1      42.273  19.675  25.985  1.00  0.00     0.124 S 
ATOM     73  O   UNL A   1      42.785  18.812  27.044  1.00  0.00    -0.237 OA
ATOM     74  O   UNL A   1      40.847  19.542  25.694  1.00  0.00    -0.237 OA
ATOM     75  O   UNL A   1      43.131  19.802  24.808  1.00  0.00    -0.744 OA
ENDBRANCH  71  72
ENDBRANCH  43  66
BRANCH  55  76
ATOM     76  C   UNL A   1      47.886  27.474  30.504  1.00  0.00    -0.014 A 
ATOM     77  C   UNL A   1      48.387  26.990  31.725  1.00  0.00     0.010 A 
ATOM     78  C   UNL A   1      48.754  27.599  29.403  1.00  0.00     0.010 A 
ATOM     79  C   UNL A   1      49.738  26.656  31.847  1.00  0.00     0.020 A 
ATOM     80  C   UNL A   1      50.099  27.241  29.515  1.00  0.00     0.020 A 
ATOM     81  C   UNL A   1      50.585  26.782  30.742  1.00  0.00     0.054 A 
BRANCH  81  82
ATOM     82  S   UNL A   1      52.322  26.289  30.910  1.00  0.00     0.124 S 
ATOM     83  O   UNL A   1      52.758  26.233  29.517  1.00  0.00    -0.237 OA
ATOM     84  O   UNL A   1      52.891  27.376  31.703  1.00  0.00    -0.237 OA
ATOM     85  O   UNL A   1      52.252  24.999  31.593  1.00  0.00    -0.744 OA
ENDBRANCH  81  82
ENDBRANCH  55  76
ENDBRANCH  29  30
ENDBRANCH  22  24
ENDBRANCH  21  22
ENDBRANCH   1  21
TORSDOF 16
ENDMDL
MODEL 2
REMARK VINA RESULT:     -10.0      2.580     12.193
REMARK SMILES C[C@@H]1SCCC[C@H]1Nc1cccc(C(=O)OCCOC(=O)c2ccc(-c3c4nc(c(-c5ccc(S(=O)(=O)[O-])cc5)c5ccc([nH]5)c(-c5ccc(S(=O)(=O)[O-])cc5)c5nc(c(-c6ccc(S(=O)(=O)[O-])cc6)c6ccc3[nH]6)C=C5)C=C4)cc2)c1
REMARK SMILES IDX 18 1 17 2 16 3 14 4 15 5 13 6 9 7 10 8 82 9 11 10 12 11 8 12
REMARK SMILES IDX 7 14 1 15 2 16 3 17 4 18 6 19 5 20 19 21 20 22 21 23 22 24
REMARK SMILES IDX 23 25 81 26 24 27 80 28 25 29 26 30 27 31 74 32 28 33 79 34
REMARK SMILES IDX 73 35 75 36 29 37 78 38 72 39 71 40 30 42 60 43 41 44 59 45
REMARK SMILES IDX 42 46 45 47 58 48 76 49 43 50 44 51 57 53 77 54 46 55 31 56
REMARK SMILES IDX 32 57 40 58 33 59 39 60 34 61 35 62 36 63 37 64 38 65 61 66
REMARK SMILES IDX 62 67 70 68 63 69 69 70 64 71 65 72 66 73 67 74 68 75 47 76
REMARK SMILES IDX 48 77 56 78 49 79 55 80 50 81 51 82 52 83 53 84 54 85
REMARK H PARENT 8 13 75 41 45 52
REMARK Flexibility Score: inf
ROOT
ATOM      1  C   UNL A   1      39.664  20.735  25.994  1.00  0.00     0.275 C 
ENDROOT
BRANCH   1   2
ATOM      2  C   UNL A   1      40.816  19.864  26.493  1.00  0.00     0.275 C 
BRANCH   2   3
ATOM      3  O   UNL A   1      41.720  19.549  25.416  1.00  0.00    -0.458 OA
BRANCH   3   4
ATOM      4  C   UNL A   1      42.760  18.726  25.722  1.00  0.00     0.338 C 
ATOM      5  O   UNL A   1      42.687  17.580  26.110  1.00  0.00    -0.246 OA
BRANCH   4   6
ATOM      6  C   UNL A   1      44.045  19.405  25.419  1.00  0.00     0.062 A 
ATOM      7  C   UNL A   1      45.331  21.424  25.031  1.00  0.00     0.035 A 
ATOM      8  C   UNL A   1      46.463  20.639  24.789  1.00  0.00     0.026 A 
ATOM      9  C   UNL A   1      44.116  20.793  25.307  1.00  0.00     0.041 A 
ATOM     10  C   UNL A   1      46.407  19.252  24.914  1.00  0.00     0.003 A 
ATOM     11  C   UNL A   1      45.209  18.642  25.275  1.00  0.00     0.016 A 
BRANCH   7  12
ATOM     12  N   UNL A   1      45.460  22.802  25.106  1.00  0.00    -0.381 N 
ATOM     13  H   UNL A   1      45.651  23.331  24.298  1.00  0.00     0.160 HD
BRANCH  12  14
ATOM     14  C   UNL A   1      45.306  23.465  26.409  1.00  0.00     0.092 C 
ATOM     15  C   UNL A   1      46.593  24.869  28.126  1.00  0.00     0.021 C 
ATOM     16  C   UNL A   1      46.550  24.341  26.691  1.00  0.00     0.066 C 
ATOM     17  S   UNL A   1      46.708  25.721  25.486  1.00  0.00    -0.157 SA
ATOM     18  C   UNL A   1      45.025  26.409  25.587  1.00  0.00     0.070 C 
ATOM     19  C   UNL A   1      43.988  24.240  26.427  1.00  0.00     0.027 C 
ATOM     20  C   UNL A   1      43.931  25.367  25.399  1.00  0.00     0.013 C 
ENDBRANCH  12  14
ENDBRANCH   7  12
ENDBRANCH   4   6
ENDBRANCH   3   4
ENDBRANCH   2   3
ENDBRANCH   1   2
BRANCH   1  21
ATOM     21  O   UNL A   1      39.681  22.002  26.673  1.00  0.00    -0.458 OA
BRANCH  21  22
ATOM     22  C   UNL A   1      38.834  22.939  26.188  1.00  0.00     0.338 C 
ATOM     23  O   UNL A   1      37.922  22.781  25.395  1.00  0.00    -0.246 OA
BRANCH  22  24
ATOM     24  C   UNL A   1      39.138  24.235  26.814  1.00  0.00     0.060 A 
ATOM     25  C   UNL A   1      39.921  25.144  26.109  1.00  0.00     0.016 A 
ATOM     26  C   UNL A   1      38.766  24.503  28.126  1.00  0.00     0.016 A 
ATOM     27  C   UNL A   1      40.416  26.284  26.734  1.00  0.00     0.010 A 
ATOM     28  C   UNL A   1      39.181  25.700  28.723  1.00  0.00     0.010 A 
ATOM     29  C   UNL A   1      40.040  26.589  28.047  1.00  0.00    -0.014 A 
BRANCH  29  30
ATOM     30  C   UNL A   1      40.563  27.812  28.724  1.00  0.00     0.031 A 
ATOM     31  C   UNL A   1      41.960  27.816  29.293  1.00  0.00     0.074 A 
ATOM     32  C   UNL A   1      39.791  28.912  28.849  1.00  0.00     0.049 A 
ATOM     33  N   UNL A   1      42.518  28.677  30.104  1.00  0.00    -0.248 NA
ATOM     34  C   UNL A   1      42.839  26.696  28.912  1.00  0.00     0.031 C 
ATOM     35  C   UNL A   1      38.439  29.073  28.307  1.00  0.00     0.029 A 
ATOM     36  N   UNL A   1      40.032  30.108  29.484  1.00  0.00    -0.354 N 
ATOM     37  C   UNL A   1      43.781  28.166  30.390  1.00  0.00     0.074 A 
ATOM     38  C   UNL A   1      43.915  26.929  29.655  1.00  0.00     0.031 C 
ATOM     39  C   UNL A   1      37.980  30.296  28.617  1.00  0.00     0.029 A 
ATOM     40  C   UNL A   1      38.961  30.972  29.458  1.00  0.00     0.049 A 
ATOM     41  H   UNL A   1      40.889  30.325  29.917  1.00  0.00     0.167 HD
ATOM     42  C   UNL A   1      44.735  28.681  31.202  1.00  0.00     0.031 A 
ATOM     43  C   UNL A   1      38.757  32.147  30.085  1.00  0.00     0.031 A 
ATOM     44  C   UNL A   1      44.622  29.945  31.881  1.00  0.00     0.049 A 
ATOM     45  C   UNL A   1      39.826  32.688  30.995  1.00  0.00     0.074 A 
ATOM     46  C   UNL A   1      45.555  30.570  32.691  1.00  0.00     0.029 A 
ATOM     47  N   UNL A   1      43.520  30.783  31.820  1.00  0.00    -0.354 N 
ATOM     48  N   UNL A   1      41.002  32.178  31.274  1.00  0.00    -0.248 NA
ATOM     49  C   UNL A   1      39.535  33.951  31.685  1.00  0.00     0.031 C 
ATOM     50  C   UNL A   1      44.998  31.764  33.158  1.00  0.00     0.029 A 
ATOM     51  C   UNL A   1      43.741  31.908  32.594  1.00  0.00     0.049 A 
ATOM     52  H   UNL A   1      42.701  30.604  31.302  1.00  0.00     0.167 HD
ATOM     53  C   UNL A   1      41.597  33.070  32.158  1.00  0.00     0.074 A 
ATOM     54  C   UNL A   1      40.663  34.159  32.352  1.00  0.00     0.031 C 
ATOM     55  C   UNL A   1      42.808  32.992  32.762  1.00  0.00     0.031 A 
BRANCH  42  56
ATOM     56  C   UNL A   1      45.979  27.868  31.446  1.00  0.00    -0.014 A 
ATOM     57  C   UNL A   1      47.146  28.052  30.684  1.00  0.00     0.010 A 
ATOM     58  C   UNL A   1      46.004  26.970  32.530  1.00  0.00     0.010 A 
ATOM     59  C   UNL A   1      48.309  27.343  30.995  1.00  0.00     0.020 A 
ATOM     60  C   UNL A   1      47.172  26.276  32.859  1.00  0.00     0.020 A 
ATOM     61  C   UNL A   1      48.316  26.463  32.083  1.00  0.00     0.054 A 
BRANCH  61  62
ATOM     62  S   UNL A   1      49.860  25.607  32.506  1.00  0.00     0.124 S 
ATOM     63  O   UNL A   1      50.647  26.684  33.103  1.00  0.00    -0.237 OA
ATOM     64  O   UNL A   1      49.410  24.572  33.433  1.00  0.00    -0.237 OA
ATOM     65  O   UNL A   1      50.350  25.117  31.221  1.00  0.00    -0.744 OA
ENDBRANCH  61  62
ENDBRANCH  42  56
BRANCH  43  66
ATOM     66  C   UNL A   1      37.454  32.856  29.943  1.00  0.00    -0.014 A 
ATOM     67  C   UNL A   1      36.491  32.812  30.966  1.00  0.00     0.010 A 
ATOM     68  C   UNL A   1      37.161  33.565  28.762  1.00  0.00     0.010 A 
ATOM     69  C   UNL A   1      35.251  33.437  30.800  1.00  0.00     0.020 A 
ATOM     70  C   UNL A   1      35.938  34.220  28.606  1.00  0.00     0.020 A 
ATOM     71  C   UNL A   1      34.981  34.134  29.618  1.00  0.00     0.054 A 
BRANCH  71  72
ATOM     72  S   UNL A   1      33.376  34.957  29.427  1.00  0.00     0.124 S 
ATOM     73  O   UNL A   1      33.771  36.296  29.002  1.00  0.00    -0.237 OA
ATOM     74  O   UNL A   1      32.716  34.140  28.412  1.00  0.00    -0.237 OA
ATOM     75  O   UNL A   1      32.788  34.870  30.763  1.00  0.00    -0.744 OA
ENDBRANCH  71  72
ENDBRANCH  43  66
BRANCH  55  76
ATOM     76  C   UNL A   1      43.218  34.135  33.648  1.00  0.00    -0.014 A 
ATOM     77  C   UNL A   1      43.736  35.325  33.109  1.00  0.00     0.010 A 
ATOM     78  C   UNL A   1      43.020  34.036  35.037  1.00  0.00     0.010 A 
ATOM     79  C   UNL A   1      44.069  36.391  33.948  1.00  0.00     0.020 A 
ATOM     80  C   UNL A   1      43.328  35.110  35.876  1.00  0.00     0.020 A 
ATOM     81  C   UNL A   1      43.862  36.277  35.326  1.00  0.00     0.054 A 
BRANCH  81  82
ATOM     82  S   UNL A   1      44.249  37.695  36.389  1.00  0.00     0.124 S 
ATOM     83  O   UNL A   1      43.213  37.598  37.414  1.00  0.00    -0.237 OA
ATOM     84  O   UNL A   1      45.608  37.399  36.838  1.00  0.00    -0.237 OA
ATOM     85  O   UNL A   1      44.133  38.842  35.492  1.00  0.00    -0.744 OA
ENDBRANCH  81  82
ENDBRANCH  55  76
ENDBRANCH  29  30
ENDBRANCH  22  24
ENDBRANCH  21  22
ENDBRANCH   1  21
TORSDOF 16
ENDMDL
MODEL 3
REMARK VINA RESULT:      -9.9      4.096      6.723
REMARK SMILES C[C@@H]1SCCC[C@H]1Nc1cccc(C(=O)OCCOC(=O)c2ccc(-c3c4nc(c(-c5ccc(S(=O)(=O)[O-])cc5)c5ccc([nH]5)c(-c5ccc(S(=O)(=O)[O-])cc5)c5nc(c(-c6ccc(S(=O)(=O)[O-])cc6)c6ccc3[nH]6)C=C5)C=C4)cc2)c1
REMARK SMILES IDX 18 1 17 2 16 3 14 4 15 5 13 6 9 7 10 8 82 9 11 10 12 11 8 12
REMARK SMILES IDX 7 14 1 15 2 16 3 17 4 18 6 19 5 20 19 21 20 22 21 23 22 24
REMARK SMILES IDX 23 25 81 26 24 27 80 28 25 29 26 30 27 31 74 32 28 33 79 34
REMARK SMILES IDX 73 35 75 36 29 37 78 38 72 39 71 40 30 42 60 43 41 44 59 45
REMARK SMILES IDX 42 46 45 47 58 48 76 49 43 50 44 51 57 53 77 54 46 55 31 56
REMARK SMILES IDX 32 57 40 58 33 59 39 60 34 61 35 62 36 63 37 64 38 65 61 66
REMARK SMILES IDX 62 67 70 68 63 69 69 70 64 71 65 72 66 73 67 74 68 75 47 76
REMARK SMILES IDX 48 77 56 78 49 79 55 80 50 81 51 82 52 83 53 84 54 85
REMARK H PARENT 8 13 75 41 45 52
REMARK Flexibility Score: inf
ROOT
ATOM      1  C   UNL A   1      34.559  31.051  27.776  1.00  0.00     0.275 C 
ENDROOT
BRANCH   1   2
ATOM      2  C   UNL A   1      33.275  30.382  27.286  1.00  0.00     0.275 C 
BRANCH   2   3
ATOM      3  O   UNL A   1      33.567  29.118  26.658  1.00  0.00    -0.458 OA
BRANCH   3   4
ATOM      4  C   UNL A   1      32.815  28.797  25.570  1.00  0.00     0.338 C 
ATOM      5  O   UNL A   1      32.559  29.515  24.629  1.00  0.00    -0.246 OA
BRANCH   4   6
ATOM      6  C   UNL A   1      32.410  27.370  25.642  1.00  0.00     0.062 A 
ATOM      7  C   UNL A   1      32.955  25.008  25.547  1.00  0.00     0.035 A 
ATOM      8  C   UNL A   1      31.601  24.704  25.725  1.00  0.00     0.026 A 
ATOM      9  C   UNL A   1      33.343  26.348  25.468  1.00  0.00     0.041 A 
ATOM     10  C   UNL A   1      30.664  25.718  25.917  1.00  0.00     0.003 A 
ATOM     11  C   UNL A   1      31.078  27.047  25.923  1.00  0.00     0.016 A 
BRANCH   7  12
ATOM     12  N   UNL A   1      33.892  23.988  25.568  1.00  0.00    -0.381 N 
ATOM     13  H   UNL A   1      34.181  23.593  26.422  1.00  0.00     0.160 HD
BRANCH  12  14
ATOM     14  C   UNL A   1      34.450  23.502  24.298  1.00  0.00     0.092 C 
ATOM     15  C   UNL A   1      36.666  22.865  23.175  1.00  0.00     0.021 C 
ATOM     16  C   UNL A   1      35.941  23.140  24.494  1.00  0.00     0.066 C 
ATOM     17  S   UNL A   1      36.162  21.738  25.662  1.00  0.00    -0.157 SA
ATOM     18  C   UNL A   1      34.990  20.549  24.937  1.00  0.00     0.070 C 
ATOM     19  C   UNL A   1      33.595  22.342  23.785  1.00  0.00     0.027 C 
ATOM     20  C   UNL A   1      33.600  21.128  24.710  1.00  0.00     0.013 C 
ENDBRANCH  12  14
ENDBRANCH   7  12
ENDBRANCH   4   6
ENDBRANCH   3   4
ENDBRANCH   2   3
ENDBRANCH   1   2
BRANCH   1  21
ATOM     21  O   UNL A   1      35.451  30.059  28.314  1.00  0.00    -0.458 OA
BRANCH  21  22
ATOM     22  C   UNL A   1      36.331  30.503  29.241  1.00  0.00     0.338 C 
ATOM     23  O   UNL A   1      36.117  31.266  30.167  1.00  0.00    -0.246 OA
BRANCH  22  24
ATOM     24  C   UNL A   1      37.638  29.872  29.006  1.00  0.00     0.060 A 
ATOM     25  C   UNL A   1      38.410  29.513  30.107  1.00  0.00     0.016 A 
ATOM     26  C   UNL A   1      38.155  29.750  27.721  1.00  0.00     0.016 A 
ATOM     27  C   UNL A   1      39.733  29.118  29.945  1.00  0.00     0.010 A 
ATOM     28  C   UNL A   1      39.455  29.254  27.552  1.00  0.00     0.010 A 
ATOM     29  C   UNL A   1      40.273  28.965  28.662  1.00  0.00    -0.014 A 
BRANCH  29  30
ATOM     30  C   UNL A   1      41.690  28.537  28.478  1.00  0.00     0.031 A 
ATOM     31  C   UNL A   1      42.798  29.558  28.546  1.00  0.00     0.074 A 
ATOM     32  C   UNL A   1      41.992  27.244  28.234  1.00  0.00     0.049 A 
ATOM     33  N   UNL A   1      44.052  29.440  28.195  1.00  0.00    -0.248 NA
ATOM     34  C   UNL A   1      42.445  30.893  29.060  1.00  0.00     0.031 C 
ATOM     35  C   UNL A   1      41.033  26.137  28.188  1.00  0.00     0.029 A 
ATOM     36  N   UNL A   1      43.198  26.641  27.966  1.00  0.00    -0.354 N 
ATOM     37  C   UNL A   1      44.618  30.699  28.374  1.00  0.00     0.074 A 
ATOM     38  C   UNL A   1      43.576  31.564  28.879  1.00  0.00     0.031 C 
ATOM     39  C   UNL A   1      41.687  24.994  27.927  1.00  0.00     0.029 A 
ATOM     40  C   UNL A   1      43.094  25.296  27.694  1.00  0.00     0.049 A 
ATOM     41  H   UNL A   1      44.055  27.126  27.969  1.00  0.00     0.167 HD
ATOM     42  C   UNL A   1      45.890  31.095  28.127  1.00  0.00     0.031 A 
ATOM     43  C   UNL A   1      44.007  24.411  27.247  1.00  0.00     0.031 A 
ATOM     44  C   UNL A   1      46.939  30.214  27.686  1.00  0.00     0.049 A 
ATOM     45  C   UNL A   1      45.407  24.881  26.964  1.00  0.00     0.074 A 
ATOM     46  C   UNL A   1      48.270  30.516  27.452  1.00  0.00     0.029 A 
ATOM     47  N   UNL A   1      46.784  28.862  27.428  1.00  0.00    -0.354 N 
ATOM     48  N   UNL A   1      45.917  26.081  27.113  1.00  0.00    -0.248 NA
ATOM     49  C   UNL A   1      46.351  23.885  26.439  1.00  0.00     0.031 C 
ATOM     50  C   UNL A   1      48.908  29.356  27.006  1.00  0.00     0.029 A 
ATOM     51  C   UNL A   1      47.989  28.321  27.016  1.00  0.00     0.049 A 
ATOM     52  H   UNL A   1      45.941  28.361  27.523  1.00  0.00     0.167 HD
ATOM     53  C   UNL A   1      47.245  25.977  26.718  1.00  0.00     0.074 A 
ATOM     54  C   UNL A   1      47.466  24.596  26.343  1.00  0.00     0.031 C 
ATOM     55  C   UNL A   1      48.196  26.940  26.664  1.00  0.00     0.031 A 
BRANCH  42  56
ATOM     56  C   UNL A   1      46.225  32.555  28.285  1.00  0.00    -0.014 A 
ATOM     57  C   UNL A   1      46.740  33.071  29.487  1.00  0.00     0.010 A 
ATOM     58  C   UNL A   1      46.112  33.404  27.167  1.00  0.00     0.010 A 
ATOM     59  C   UNL A   1      47.123  34.413  29.569  1.00  0.00     0.020 A 
ATOM     60  C   UNL A   1      46.516  34.740  27.239  1.00  0.00     0.020 A 
ATOM     61  C   UNL A   1      47.012  35.237  28.444  1.00  0.00     0.054 A 
BRANCH  61  62
ATOM     62  S   UNL A   1      47.581  36.957  28.561  1.00  0.00     0.124 S 
ATOM     63  O   UNL A   1      46.406  37.695  28.103  1.00  0.00    -0.237 OA
ATOM     64  O   UNL A   1      47.895  37.096  29.980  1.00  0.00    -0.237 OA
ATOM     65  O   UNL A   1      48.733  37.004  27.665  1.00  0.00    -0.744 OA
ENDBRANCH  61  62
ENDBRANCH  42  56
BRANCH  43  66
ATOM     66  C   UNL A   1      43.607  23.005  26.956  1.00  0.00    -0.014 A 
ATOM     67  C   UNL A   1      42.928  22.232  27.913  1.00  0.00     0.010 A 
ATOM     68  C   UNL A   1      43.929  22.423  25.714  1.00  0.00     0.010 A 
ATOM     69  C   UNL A   1      42.606  20.897  27.647  1.00  0.00     0.020 A 
ATOM     70  C   UNL A   1      43.578  21.101  25.431  1.00  0.00     0.020 A 
ATOM     71  C   UNL A   1      42.936  20.340  26.408  1.00  0.00     0.054 A 
BRANCH  71  72
ATOM     72  S   UNL A   1      42.492  18.613  26.071  1.00  0.00     0.124 S 
ATOM     73  O   UNL A   1      41.082  18.729  25.713  1.00  0.00    -0.237 OA
ATOM     74  O   UNL A   1      43.395  18.257  24.980  1.00  0.00    -0.237 OA
ATOM     75  O   UNL A   1      42.764  17.939  27.339  1.00  0.00    -0.744 OA
ENDBRANCH  71  72
ENDBRANCH  43  66
BRANCH  55  76
ATOM     76  C   UNL A   1      49.577  26.530  26.233  1.00  0.00    -0.014 A 
ATOM     77  C   UNL A   1      50.010  26.712  24.908  1.00  0.00     0.010 A 
ATOM     78  C   UNL A   1      50.474  26.016  27.187  1.00  0.00     0.010 A 
ATOM     79  C   UNL A   1      51.312  26.365  24.540  1.00  0.00     0.020 A 
ATOM     80  C   UNL A   1      51.784  25.692  26.828  1.00  0.00     0.020 A 
ATOM     81  C   UNL A   1      52.191  25.858  25.502  1.00  0.00     0.054 A 
BRANCH  81  82
ATOM     82  S   UNL A   1      53.894  25.467  25.014  1.00  0.00     0.124 S 
ATOM     83  O   UNL A   1      54.655  25.922  26.174  1.00  0.00    -0.237 OA
ATOM     84  O   UNL A   1      53.848  24.020  24.818  1.00  0.00    -0.237 OA
ATOM     85  O   UNL A   1      54.092  26.248  23.794  1.00  0.00    -0.744 OA
ENDBRANCH  81  82
ENDBRANCH  55  76
ENDBRANCH  29  30
ENDBRANCH  22  24
ENDBRANCH  21  22
ENDBRANCH   1  21
TORSDOF 16
ENDMDL
