MODEL 1
REMARK VINA RESULT:     -13.0      0.000      0.000
REMARK SMILES O=C(OCCOC(=O)c1ccc(-c2c3nc(c(-c4ccc(S(=O)(=O)[O-])cc4)c4ccc([nH]4)c(-c4ccc(S(=O)(=O)[O-])cc4)c4nc(c(-c5ccc(S(=O)(=O)[O-])cc5)c5ccc2[nH]5)C=C4)C=C3)cc1)C1=Cc2c(ccc(Cl)c2Sc2ccccc2)O[C@H]1C(F)(F)F
REMARK SMILES IDX 5 1 4 2 3 3 2 4 1 5 69 6 70 7 86 8 71 9 85 10 72 11 77 12
REMARK SMILES IDX 73 13 75 14 74 15 76 16 87 17 88 18 89 19 90 20 78 21 79 22
REMARK SMILES IDX 80 23 84 24 81 25 83 26 82 27 6 28 7 29 8 30 9 31 10 32
REMARK SMILES IDX 68 33 11 34 67 35 12 36 13 37 14 38 61 39 15 40 66 41 60 42
REMARK SMILES IDX 62 43 16 44 65 45 59 46 58 47 17 49 47 50 28 51 46 52 29 53
REMARK SMILES IDX 32 54 45 55 63 56 30 57 31 58 44 60 64 61 33 62 18 63 19 64
REMARK SMILES IDX 27 65 20 66 26 67 21 68 22 69 23 70 24 71 25 72 48 73 49 74
REMARK SMILES IDX 57 75 50 76 56 77 51 78 52 79 53 80 54 81 55 82 34 83 35 84
REMARK SMILES IDX 43 85 36 86 42 87 37 88 38 89 39 90 40 91 41 92
REMARK H PARENT 62 48 32 59
REMARK Flexibility Score: inf
ROOT
ATOM      1  C   UNL A   1      33.460  30.300  27.686  1.00  0.00     0.275 C 
ENDROOT
BRANCH   1   2
ATOM      2  C   UNL A   1      32.880  28.772  26.867  1.00  0.00     0.275 C 
BRANCH   2   3
ATOM      3  O   UNL A   1      31.719  28.827  26.053  1.00  0.00    -0.459 OA
BRANCH   3   4
ATOM      4  C   UNL A   1      32.122  29.015  24.777  1.00  0.00     0.338 C 
ATOM      5  O   UNL A   1      33.032  29.723  24.395  1.00  0.00    -0.246 OA
BRANCH   4   6
ATOM      6  C   UNL A   1      31.210  28.275  23.915  1.00  0.00     0.087 C 
ATOM      7  C   UNL A   1      30.911  26.985  24.100  1.00  0.00     0.028 C 
ATOM      8  C   UNL A   1      30.758  28.788  22.637  1.00  0.00     0.316 C 
ATOM      9  C   UNL A   1      31.944  26.162  23.399  1.00  0.00     0.033 A 
ATOM     10  O   UNL A   1      30.823  27.611  21.676  1.00  0.00    -0.475 OA
ATOM     11  C   UNL A   1      31.677  26.518  22.034  1.00  0.00     0.129 A 
ATOM     12  C   UNL A   1      32.928  25.087  23.898  1.00  0.00     0.042 A 
ATOM     13  C   UNL A   1      32.182  25.680  21.075  1.00  0.00     0.049 A 
ATOM     14  C   UNL A   1      33.328  24.252  22.834  1.00  0.00     0.055 A 
ATOM     15  C   UNL A   1      32.944  24.550  21.479  1.00  0.00     0.025 A 
ATOM     16  Cl  UNL A   1      34.182  22.762  23.051  1.00  0.00    -0.083 Cl
BRANCH   8  17
ATOM     17  C   UNL A   1      29.392  29.441  23.054  1.00  0.00     0.430 C 
ATOM     18  F   UNL A   1      28.776  30.102  22.027  1.00  0.00    -0.167 F 
ATOM     19  F   UNL A   1      28.507  28.488  23.442  1.00  0.00    -0.167 F 
ATOM     20  F   UNL A   1      29.511  30.335  24.051  1.00  0.00    -0.167 F 
ENDBRANCH   8  17
BRANCH  12  21
ATOM     21  S   UNL A   1      33.897  24.554  25.757  1.00  0.00    -0.088 SA
BRANCH  21  22
ATOM     22  C   UNL A   1      35.681  23.447  26.098  1.00  0.00     0.012 A 
ATOM     23  C   UNL A   1      35.593  22.066  25.949  1.00  0.00     0.015 A 
ATOM     24  C   UNL A   1      37.065  23.863  26.179  1.00  0.00     0.015 A 
ATOM     25  C   UNL A   1      36.762  21.289  25.631  1.00  0.00     0.001 A 
ATOM     26  C   UNL A   1      38.168  23.167  25.653  1.00  0.00     0.001 A 
ATOM     27  C   UNL A   1      38.014  21.852  25.366  1.00  0.00     0.000 A 
ENDBRANCH  21  22
ENDBRANCH  12  21
ENDBRANCH   4   6
ENDBRANCH   3   4
ENDBRANCH   2   3
ENDBRANCH   1   2
BRANCH   1  28
ATOM     28  O   UNL A   1      34.788  30.271  28.157  1.00  0.00    -0.458 OA
BRANCH  28  29
ATOM     29  C   UNL A   1      35.122  31.345  28.949  1.00  0.00     0.338 C 
ATOM     30  O   UNL A   1      34.449  32.032  29.665  1.00  0.00    -0.246 OA
BRANCH  29  31
ATOM     31  C   UNL A   1      36.548  31.068  29.039  1.00  0.00     0.060 A 
ATOM     32  C   UNL A   1      37.012  30.678  30.304  1.00  0.00     0.016 A 
ATOM     33  C   UNL A   1      37.160  30.698  27.843  1.00  0.00     0.016 A 
ATOM     34  C   UNL A   1      38.067  29.791  30.366  1.00  0.00     0.010 A 
ATOM     35  C   UNL A   1      38.229  29.839  27.909  1.00  0.00     0.010 A 
ATOM     36  C   UNL A   1      38.685  29.406  29.168  1.00  0.00    -0.014 A 
BRANCH  36  37
ATOM     37  C   UNL A   1      40.080  28.978  29.217  1.00  0.00     0.031 A 
ATOM     38  C   UNL A   1      41.048  30.084  29.495  1.00  0.00     0.074 A 
ATOM     39  C   UNL A   1      40.449  27.728  28.908  1.00  0.00     0.049 A 
ATOM     40  N   UNL A   1      42.346  30.076  29.447  1.00  0.00    -0.248 NA
ATOM     41  C   UNL A   1      40.460  31.395  29.844  1.00  0.00     0.031 C 
ATOM     42  C   UNL A   1      39.553  26.604  28.642  1.00  0.00     0.029 A 
ATOM     43  N   UNL A   1      41.705  27.218  28.735  1.00  0.00    -0.354 N 
ATOM     44  C   UNL A   1      42.722  31.375  29.755  1.00  0.00     0.074 A 
ATOM     45  C   UNL A   1      41.528  32.156  29.946  1.00  0.00     0.031 C 
ATOM     46  C   UNL A   1      40.298  25.530  28.318  1.00  0.00     0.029 A 
ATOM     47  C   UNL A   1      41.709  25.914  28.312  1.00  0.00     0.049 A 
ATOM     48  H   UNL A   1      42.525  27.736  28.898  1.00  0.00     0.167 HD
ATOM     49  C   UNL A   1      43.964  31.883  29.856  1.00  0.00     0.031 A 
ATOM     50  C   UNL A   1      42.751  25.148  27.935  1.00  0.00     0.031 A 
ATOM     51  C   UNL A   1      45.130  31.118  29.554  1.00  0.00     0.049 A 
ATOM     52  C   UNL A   1      44.133  25.757  27.967  1.00  0.00     0.074 A 
ATOM     53  C   UNL A   1      46.448  31.517  29.572  1.00  0.00     0.029 A 
ATOM     54  N   UNL A   1      45.100  29.793  29.139  1.00  0.00    -0.354 N 
ATOM     55  N   UNL A   1      44.494  26.975  28.308  1.00  0.00    -0.248 NA
ATOM     56  C   UNL A   1      45.251  24.891  27.571  1.00  0.00     0.031 C 
ATOM     57  C   UNL A   1      47.215  30.448  29.100  1.00  0.00     0.029 A 
ATOM     58  C   UNL A   1      46.381  29.360  28.875  1.00  0.00     0.049 A 
ATOM     59  H   UNL A   1      44.287  29.246  29.047  1.00  0.00     0.167 HD
ATOM     60  C   UNL A   1      45.882  27.008  28.205  1.00  0.00     0.074 A 
ATOM     61  C   UNL A   1      46.293  25.689  27.767  1.00  0.00     0.031 C 
ATOM     62  C   UNL A   1      46.742  28.027  28.457  1.00  0.00     0.031 A 
BRANCH  49  63
ATOM     63  C   UNL A   1      44.054  33.339  30.208  1.00  0.00    -0.014 A 
ATOM     64  C   UNL A   1      44.191  34.321  29.206  1.00  0.00     0.010 A 
ATOM     65  C   UNL A   1      44.135  33.715  31.558  1.00  0.00     0.010 A 
ATOM     66  C   UNL A   1      44.481  35.642  29.550  1.00  0.00     0.020 A 
ATOM     67  C   UNL A   1      44.387  35.043  31.906  1.00  0.00     0.020 A 
ATOM     68  C   UNL A   1      44.586  35.991  30.899  1.00  0.00     0.054 A 
BRANCH  68  69
ATOM     69  S   UNL A   1      44.996  37.704  31.320  1.00  0.00     0.124 S 
ATOM     70  O   UNL A   1      46.175  37.532  32.165  1.00  0.00    -0.237 OA
ATOM     71  O   UNL A   1      45.243  38.303  30.012  1.00  0.00    -0.237 OA
ATOM     72  O   UNL A   1      43.802  38.187  32.008  1.00  0.00    -0.744 OA
ENDBRANCH  68  69
ENDBRANCH  49  63
BRANCH  50  73
ATOM     73  C   UNL A   1      42.527  23.745  27.491  1.00  0.00    -0.014 A 
ATOM     74  C   UNL A   1      42.311  23.450  26.133  1.00  0.00     0.010 A 
ATOM     75  C   UNL A   1      42.548  22.688  28.422  1.00  0.00     0.010 A 
ATOM     76  C   UNL A   1      42.109  22.129  25.717  1.00  0.00     0.020 A 
ATOM     77  C   UNL A   1      42.374  21.365  28.005  1.00  0.00     0.020 A 
ATOM     78  C   UNL A   1      42.150  21.094  26.655  1.00  0.00     0.054 A 
BRANCH  78  79
ATOM     79  S   UNL A   1      41.953  19.385  26.076  1.00  0.00     0.124 S 
ATOM     80  O   UNL A   1      42.792  19.367  24.881  1.00  0.00    -0.237 OA
ATOM     81  O   UNL A   1      42.453  18.612  27.211  1.00  0.00    -0.237 OA
ATOM     82  O   UNL A   1      40.517  19.266  25.834  1.00  0.00    -0.744 OA
ENDBRANCH  78  79
ENDBRANCH  50  73
BRANCH  62  83
ATOM     83  C   UNL A   1      48.217  27.754  28.344  1.00  0.00    -0.014 A 
ATOM     84  C   UNL A   1      48.943  27.173  29.396  1.00  0.00     0.010 A 
ATOM     85  C   UNL A   1      48.841  27.944  27.096  1.00  0.00     0.010 A 
ATOM     86  C   UNL A   1      50.272  26.788  29.200  1.00  0.00     0.020 A 
ATOM     87  C   UNL A   1      50.156  27.529  26.886  1.00  0.00     0.020 A 
ATOM     88  C   UNL A   1      50.865  26.957  27.943  1.00  0.00     0.054 A 
BRANCH  88  89
ATOM     89  S   UNL A   1      52.556  26.355  27.687  1.00  0.00     0.124 S 
ATOM     90  O   UNL A   1      52.327  25.108  26.962  1.00  0.00    -0.237 OA
ATOM     91  O   UNL A   1      53.163  27.432  26.910  1.00  0.00    -0.237 OA
ATOM     92  O   UNL A   1      53.079  26.200  29.042  1.00  0.00    -0.744 OA
ENDBRANCH  88  89
ENDBRANCH  62  83
ENDBRANCH  36  37
ENDBRANCH  29  31
ENDBRANCH  28  29
ENDBRANCH   1  28
TORSDOF 17
ENDMDL
MODEL 2
REMARK VINA RESULT:     -12.8      4.181      8.811
REMARK SMILES O=C(OCCOC(=O)c1ccc(-c2c3nc(c(-c4ccc(S(=O)(=O)[O-])cc4)c4ccc([nH]4)c(-c4ccc(S(=O)(=O)[O-])cc4)c4nc(c(-c5ccc(S(=O)(=O)[O-])cc5)c5ccc2[nH]5)C=C4)C=C3)cc1)C1=Cc2c(ccc(Cl)c2Sc2ccccc2)O[C@H]1C(F)(F)F
REMARK SMILES IDX 5 1 4 2 3 3 2 4 1 5 69 6 70 7 86 8 71 9 85 10 72 11 77 12
REMARK SMILES IDX 73 13 75 14 74 15 76 16 87 17 88 18 89 19 90 20 78 21 79 22
REMARK SMILES IDX 80 23 84 24 81 25 83 26 82 27 6 28 7 29 8 30 9 31 10 32
REMARK SMILES IDX 68 33 11 34 67 35 12 36 13 37 14 38 61 39 15 40 66 41 60 42
REMARK SMILES IDX 62 43 16 44 65 45 59 46 58 47 17 49 47 50 28 51 46 52 29 53
REMARK SMILES IDX 32 54 45 55 63 56 30 57 31 58 44 60 64 61 33 62 18 63 19 64
REMARK SMILES IDX 27 65 20 66 26 67 21 68 22 69 23 70 24 71 25 72 48 73 49 74
REMARK SMILES IDX 57 75 50 76 56 77 51 78 52 79 53 80 54 81 55 82 34 83 35 84
REMARK SMILES IDX 43 85 36 86 42 87 37 88 38 89 39 90 40 91 41 92
REMARK H PARENT 62 48 32 59
REMARK Flexibility Score: inf
ROOT
ATOM      1  C   UNL A   1      33.354  29.092  26.942  1.00  0.00     0.275 C 
ENDROOT
BRANCH   1   2
ATOM      2  C   UNL A   1      33.487  27.918  25.547  1.00  0.00     0.275 C 
BRANCH   2   3
ATOM      3  O   UNL A   1      33.459  26.526  25.816  1.00  0.00    -0.459 OA
BRANCH   3   4
ATOM      4  C   UNL A   1      33.390  25.880  24.631  1.00  0.00     0.338 C 
ATOM      5  O   UNL A   1      34.181  25.956  23.711  1.00  0.00    -0.246 OA
BRANCH   4   6
ATOM      6  C   UNL A   1      32.143  25.128  24.611  1.00  0.00     0.087 C 
ATOM      7  C   UNL A   1      31.937  24.032  25.347  1.00  0.00     0.028 C 
ATOM      8  C   UNL A   1      31.122  25.341  23.605  1.00  0.00     0.316 C 
ATOM      9  C   UNL A   1      32.441  22.853  24.578  1.00  0.00     0.033 A 
ATOM     10  O   UNL A   1      30.650  23.954  23.198  1.00  0.00    -0.475 OA
ATOM     11  C   UNL A   1      31.530  22.856  23.469  1.00  0.00     0.129 A 
ATOM     12  C   UNL A   1      33.507  21.786  24.895  1.00  0.00     0.042 A 
ATOM     13  C   UNL A   1      31.449  21.698  22.741  1.00  0.00     0.049 A 
ATOM     14  C   UNL A   1      33.281  20.622  24.131  1.00  0.00     0.055 A 
ATOM     15  C   UNL A   1      32.272  20.598  23.104  1.00  0.00     0.025 A 
ATOM     16  Cl  UNL A   1      34.077  19.112  24.423  1.00  0.00    -0.083 Cl
BRANCH   8  17
ATOM     17  C   UNL A   1      30.180  26.348  24.357  1.00  0.00     0.430 C 
ATOM     18  F   UNL A   1      30.327  26.311  25.716  1.00  0.00    -0.167 F 
ATOM     19  F   UNL A   1      30.470  27.626  24.004  1.00  0.00    -0.167 F 
ATOM     20  F   UNL A   1      28.873  26.134  24.119  1.00  0.00    -0.167 F 
ENDBRANCH   8  17
BRANCH  12  21
ATOM     21  S   UNL A   1      35.267  21.612  26.140  1.00  0.00    -0.088 SA
BRANCH  21  22
ATOM     22  C   UNL A   1      37.202  22.458  25.893  1.00  0.00     0.012 A 
ATOM     23  C   UNL A   1      37.301  23.838  26.047  1.00  0.00     0.015 A 
ATOM     24  C   UNL A   1      38.517  21.853  25.877  1.00  0.00     0.015 A 
ATOM     25  C   UNL A   1      38.550  24.444  26.427  1.00  0.00     0.001 A 
ATOM     26  C   UNL A   1      39.679  22.387  26.461  1.00  0.00     0.001 A 
ATOM     27  C   UNL A   1      39.697  23.712  26.748  1.00  0.00     0.000 A 
ENDBRANCH  21  22
ENDBRANCH  12  21
ENDBRANCH   4   6
ENDBRANCH   3   4
ENDBRANCH   2   3
ENDBRANCH   1   2
BRANCH   1  28
ATOM     28  O   UNL A   1      34.577  29.544  27.475  1.00  0.00    -0.458 OA
BRANCH  28  29
ATOM     29  C   UNL A   1      34.563  30.865  27.860  1.00  0.00     0.338 C 
ATOM     30  O   UNL A   1      33.675  31.671  27.867  1.00  0.00    -0.246 OA
BRANCH  29  31
ATOM     31  C   UNL A   1      35.755  30.824  28.694  1.00  0.00     0.060 A 
ATOM     32  C   UNL A   1      35.814  29.771  29.618  1.00  0.00     0.016 A 
ATOM     33  C   UNL A   1      36.881  31.444  28.155  1.00  0.00     0.016 A 
ATOM     34  C   UNL A   1      37.051  29.246  29.930  1.00  0.00     0.010 A 
ATOM     35  C   UNL A   1      38.113  30.939  28.490  1.00  0.00     0.010 A 
ATOM     36  C   UNL A   1      38.190  29.857  29.387  1.00  0.00    -0.014 A 
BRANCH  36  37
ATOM     37  C   UNL A   1      39.453  29.728  30.108  1.00  0.00     0.031 A 
ATOM     38  C   UNL A   1      40.314  28.600  29.634  1.00  0.00     0.074 A 
ATOM     39  C   UNL A   1      39.737  30.480  31.180  1.00  0.00     0.049 A 
ATOM     40  N   UNL A   1      41.404  28.120  30.153  1.00  0.00    -0.248 NA
ATOM     41  C   UNL A   1      39.856  27.895  28.417  1.00  0.00     0.031 C 
ATOM     42  C   UNL A   1      38.946  31.602  31.682  1.00  0.00     0.029 A 
ATOM     43  N   UNL A   1      40.776  30.368  32.060  1.00  0.00    -0.354 N 
ATOM     44  C   UNL A   1      41.752  27.060  29.328  1.00  0.00     0.074 A 
ATOM     45  C   UNL A   1      40.748  26.935  28.305  1.00  0.00     0.031 C 
ATOM     46  C   UNL A   1      39.527  32.067  32.804  1.00  0.00     0.029 A 
ATOM     47  C   UNL A   1      40.696  31.244  33.112  1.00  0.00     0.049 A 
ATOM     48  H   UNL A   1      41.511  29.723  31.948  1.00  0.00     0.167 HD
ATOM     49  C   UNL A   1      42.819  26.244  29.424  1.00  0.00     0.031 A 
ATOM     50  C   UNL A   1      41.475  31.328  34.207  1.00  0.00     0.031 A 
ATOM     51  C   UNL A   1      43.742  26.316  30.510  1.00  0.00     0.049 A 
ATOM     52  C   UNL A   1      42.616  30.348  34.348  1.00  0.00     0.074 A 
ATOM     53  C   UNL A   1      44.842  25.525  30.757  1.00  0.00     0.029 A 
ATOM     54  N   UNL A   1      43.637  27.225  31.555  1.00  0.00    -0.354 N 
ATOM     55  N   UNL A   1      42.977  29.374  33.541  1.00  0.00    -0.248 NA
ATOM     56  C   UNL A   1      43.460  30.477  35.543  1.00  0.00     0.031 C 
ATOM     57  C   UNL A   1      45.366  25.912  31.993  1.00  0.00     0.029 A 
ATOM     58  C   UNL A   1      44.646  27.001  32.468  1.00  0.00     0.049 A 
ATOM     59  H   UNL A   1      42.948  27.922  31.634  1.00  0.00     0.167 HD
ATOM     60  C   UNL A   1      44.111  28.803  34.109  1.00  0.00     0.074 A 
ATOM     61  C   UNL A   1      44.374  29.538  35.331  1.00  0.00     0.031 C 
ATOM     62  C   UNL A   1      44.876  27.774  33.663  1.00  0.00     0.031 A 
BRANCH  49  63
ATOM     63  C   UNL A   1      42.929  25.178  28.374  1.00  0.00    -0.014 A 
ATOM     64  C   UNL A   1      42.742  23.819  28.696  1.00  0.00     0.010 A 
ATOM     65  C   UNL A   1      43.354  25.529  27.082  1.00  0.00     0.010 A 
ATOM     66  C   UNL A   1      43.050  22.827  27.765  1.00  0.00     0.020 A 
ATOM     67  C   UNL A   1      43.625  24.540  26.136  1.00  0.00     0.020 A 
ATOM     68  C   UNL A   1      43.498  23.195  26.494  1.00  0.00     0.054 A 
BRANCH  68  69
ATOM     69  S   UNL A   1      43.923  21.889  25.312  1.00  0.00     0.124 S 
ATOM     70  O   UNL A   1      42.889  20.894  25.580  1.00  0.00    -0.237 OA
ATOM     71  O   UNL A   1      43.817  22.575  24.028  1.00  0.00    -0.237 OA
ATOM     72  O   UNL A   1      45.277  21.500  25.698  1.00  0.00    -0.744 OA
ENDBRANCH  68  69
ENDBRANCH  49  63
BRANCH  50  73
ATOM     73  C   UNL A   1      41.198  32.356  35.247  1.00  0.00    -0.014 A 
ATOM     74  C   UNL A   1      41.741  33.648  35.138  1.00  0.00     0.010 A 
ATOM     75  C   UNL A   1      40.371  32.057  36.347  1.00  0.00     0.010 A 
ATOM     76  C   UNL A   1      41.472  34.617  36.111  1.00  0.00     0.020 A 
ATOM     77  C   UNL A   1      40.079  33.030  37.308  1.00  0.00     0.020 A 
ATOM     78  C   UNL A   1      40.636  34.304  37.186  1.00  0.00     0.054 A 
BRANCH  78  79
ATOM     79  S   UNL A   1      40.250  35.599  38.398  1.00  0.00     0.124 S 
ATOM     80  O   UNL A   1      41.482  35.667  39.178  1.00  0.00    -0.237 OA
ATOM     81  O   UNL A   1      39.977  36.753  37.545  1.00  0.00    -0.237 OA
ATOM     82  O   UNL A   1      39.088  35.070  39.109  1.00  0.00    -0.744 OA
ENDBRANCH  78  79
ENDBRANCH  50  73
BRANCH  62  83
ATOM     83  C   UNL A   1      46.111  27.417  34.446  1.00  0.00    -0.014 A 
ATOM     84  C   UNL A   1      47.334  28.072  34.233  1.00  0.00     0.010 A 
ATOM     85  C   UNL A   1      45.987  26.515  35.520  1.00  0.00     0.010 A 
ATOM     86  C   UNL A   1      48.416  27.828  35.083  1.00  0.00     0.020 A 
ATOM     87  C   UNL A   1      47.053  26.295  36.391  1.00  0.00     0.020 A 
ATOM     88  C   UNL A   1      48.264  26.951  36.164  1.00  0.00     0.054 A 
BRANCH  88  89
ATOM     89  S   UNL A   1      49.650  26.731  37.311  1.00  0.00     0.124 S 
ATOM     90  O   UNL A   1      49.098  25.783  38.275  1.00  0.00    -0.237 OA
ATOM     91  O   UNL A   1      50.701  26.206  36.444  1.00  0.00    -0.237 OA
ATOM     92  O   UNL A   1      49.890  28.076  37.828  1.00  0.00    -0.744 OA
ENDBRANCH  88  89
ENDBRANCH  62  83
ENDBRANCH  36  37
ENDBRANCH  29  31
ENDBRANCH  28  29
ENDBRANCH   1  28
TORSDOF 17
ENDMDL
MODEL 3
REMARK VINA RESULT:     -12.8      5.541     10.449
REMARK SMILES O=C(OCCOC(=O)c1ccc(-c2c3nc(c(-c4ccc(S(=O)(=O)[O-])cc4)c4ccc([nH]4)c(-c4ccc(S(=O)(=O)[O-])cc4)c4nc(c(-c5ccc(S(=O)(=O)[O-])cc5)c5ccc2[nH]5)C=C4)C=C3)cc1)C1=Cc2c(ccc(Cl)c2Sc2ccccc2)O[C@H]1C(F)(F)F
REMARK SMILES IDX 5 1 4 2 3 3 2 4 1 5 69 6 70 7 86 8 71 9 85 10 72 11 77 12
REMARK SMILES IDX 73 13 75 14 74 15 76 16 87 17 88 18 89 19 90 20 78 21 79 22
REMARK SMILES IDX 80 23 84 24 81 25 83 26 82 27 6 28 7 29 8 30 9 31 10 32
REMARK SMILES IDX 68 33 11 34 67 35 12 36 13 37 14 38 61 39 15 40 66 41 60 42
REMARK SMILES IDX 62 43 16 44 65 45 59 46 58 47 17 49 47 50 28 51 46 52 29 53
REMARK SMILES IDX 32 54 45 55 63 56 30 57 31 58 44 60 64 61 33 62 18 63 19 64
REMARK SMILES IDX 27 65 20 66 26 67 21 68 22 69 23 70 24 71 25 72 48 73 49 74
REMARK SMILES IDX 57 75 50 76 56 77 51 78 52 79 53 80 54 81 55 82 34 83 35 84
REMARK SMILES IDX 43 85 36 86 42 87 37 88 38 89 39 90 40 91 41 92
REMARK H PARENT 62 48 32 59
REMARK Flexibility Score: inf
ROOT
ATOM      1  C   UNL A   1      32.165  33.392  27.104  1.00  0.00     0.275 C 
ENDROOT
BRANCH   1   2
ATOM      2  C   UNL A   1      31.241  31.856  26.747  1.00  0.00     0.275 C 
BRANCH   2   3
ATOM      3  O   UNL A   1      31.819  30.892  25.882  1.00  0.00    -0.459 OA
BRANCH   3   4
ATOM      4  C   UNL A   1      31.994  29.756  26.591  1.00  0.00     0.338 C 
ATOM      5  O   UNL A   1      31.242  29.293  27.426  1.00  0.00    -0.246 OA
BRANCH   4   6
ATOM      6  C   UNL A   1      33.300  29.214  26.240  1.00  0.00     0.087 C 
ATOM      7  C   UNL A   1      33.658  28.922  24.986  1.00  0.00     0.028 C 
ATOM      8  C   UNL A   1      34.221  28.696  27.232  1.00  0.00     0.316 C 
ATOM      9  C   UNL A   1      33.207  27.529  24.684  1.00  0.00     0.033 A 
ATOM     10  O   UNL A   1      34.785  27.414  26.639  1.00  0.00    -0.475 OA
ATOM     11  C   UNL A   1      34.030  26.786  25.595  1.00  0.00     0.129 A 
ATOM     12  C   UNL A   1      32.269  26.953  23.606  1.00  0.00     0.042 A 
ATOM     13  C   UNL A   1      34.162  25.445  25.346  1.00  0.00     0.049 A 
ATOM     14  C   UNL A   1      32.542  25.585  23.396  1.00  0.00     0.055 A 
ATOM     15  C   UNL A   1      33.470  24.880  24.240  1.00  0.00     0.025 A 
ATOM     16  Cl  UNL A   1      31.910  24.673  22.066  1.00  0.00    -0.083 Cl
BRANCH   8  17
ATOM     17  C   UNL A   1      35.120  29.959  27.480  1.00  0.00     0.430 C 
ATOM     18  F   UNL A   1      35.253  30.273  28.804  1.00  0.00    -0.167 F 
ATOM     19  F   UNL A   1      36.385  29.736  27.041  1.00  0.00    -0.167 F 
ATOM     20  F   UNL A   1      34.657  31.070  26.880  1.00  0.00    -0.167 F 
ENDBRANCH   8  17
BRANCH  12  21
ATOM     21  S   UNL A   1      30.629  27.651  22.382  1.00  0.00    -0.088 SA
BRANCH  21  22
ATOM     22  C   UNL A   1      29.289  29.274  22.691  1.00  0.00     0.012 A 
ATOM     23  C   UNL A   1      29.571  30.116  23.762  1.00  0.00     0.015 A 
ATOM     24  C   UNL A   1      28.284  29.862  21.832  1.00  0.00     0.015 A 
ATOM     25  C   UNL A   1      29.103  31.477  23.765  1.00  0.00     0.001 A 
ATOM     26  C   UNL A   1      28.008  31.235  21.704  1.00  0.00     0.001 A 
ATOM     27  C   UNL A   1      28.431  32.064  22.689  1.00  0.00     0.000 A 
ENDBRANCH  21  22
ENDBRANCH  12  21
ENDBRANCH   4   6
ENDBRANCH   3   4
ENDBRANCH   2   3
ENDBRANCH   1   2
BRANCH   1  28
ATOM     28  O   UNL A   1      33.349  33.230  27.850  1.00  0.00    -0.458 OA
BRANCH  28  29
ATOM     29  C   UNL A   1      33.462  34.096  28.913  1.00  0.00     0.338 C 
ATOM     30  O   UNL A   1      32.648  34.800  29.441  1.00  0.00    -0.246 OA
BRANCH  29  31
ATOM     31  C   UNL A   1      34.673  33.526  29.484  1.00  0.00     0.060 A 
ATOM     32  C   UNL A   1      35.872  34.155  29.118  1.00  0.00     0.016 A 
ATOM     33  C   UNL A   1      34.498  32.832  30.680  1.00  0.00     0.016 A 
ATOM     34  C   UNL A   1      36.901  34.182  30.037  1.00  0.00     0.010 A 
ATOM     35  C   UNL A   1      35.534  32.835  31.581  1.00  0.00     0.010 A 
ATOM     36  C   UNL A   1      36.732  33.494  31.246  1.00  0.00    -0.014 A 
BRANCH  36  37
ATOM     37  C   UNL A   1      37.924  33.021  31.944  1.00  0.00     0.031 A 
ATOM     38  C   UNL A   1      38.567  31.826  31.312  1.00  0.00     0.074 A 
ATOM     39  C   UNL A   1      38.314  33.541  33.115  1.00  0.00     0.049 A 
ATOM     40  N   UNL A   1      39.527  31.074  31.758  1.00  0.00    -0.248 NA
ATOM     41  C   UNL A   1      38.020  31.405  30.005  1.00  0.00     0.031 C 
ATOM     42  C   UNL A   1      37.738  34.713  33.773  1.00  0.00     0.029 A 
ATOM     43  N   UNL A   1      39.285  33.106  33.971  1.00  0.00    -0.354 N 
ATOM     44  C   UNL A   1      39.691  30.095  30.789  1.00  0.00     0.074 A 
ATOM     45  C   UNL A   1      38.714  30.315  29.756  1.00  0.00     0.031 C 
ATOM     46  C   UNL A   1      38.363  34.891  34.952  1.00  0.00     0.029 A 
ATOM     47  C   UNL A   1      39.342  33.821  35.140  1.00  0.00     0.049 A 
ATOM     48  H   UNL A   1      39.886  32.353  33.769  1.00  0.00     0.167 HD
ATOM     49  C   UNL A   1      40.577  29.082  30.767  1.00  0.00     0.031 A 
ATOM     50  C   UNL A   1      40.088  33.594  36.238  1.00  0.00     0.031 A 
ATOM     51  C   UNL A   1      41.463  28.817  31.854  1.00  0.00     0.049 A 
ATOM     52  C   UNL A   1      41.015  32.401  36.237  1.00  0.00     0.074 A 
ATOM     53  C   UNL A   1      42.382  27.800  31.986  1.00  0.00     0.029 A 
ATOM     54  N   UNL A   1      41.503  29.570  33.021  1.00  0.00    -0.354 N 
ATOM     55  N   UNL A   1      41.207  31.501  35.297  1.00  0.00    -0.248 NA
ATOM     56  C   UNL A   1      41.831  32.192  37.440  1.00  0.00     0.031 C 
ATOM     57  C   UNL A   1      42.933  27.897  33.266  1.00  0.00     0.029 A 
ATOM     58  C   UNL A   1      42.421  29.026  33.893  1.00  0.00     0.049 A 
ATOM     59  H   UNL A   1      40.959  30.370  33.198  1.00  0.00     0.167 HD
ATOM     60  C   UNL A   1      42.192  30.645  35.779  1.00  0.00     0.074 A 
ATOM     61  C   UNL A   1      42.553  31.132  37.095  1.00  0.00     0.031 C 
ATOM     62  C   UNL A   1      42.758  29.561  35.190  1.00  0.00     0.031 A 
BRANCH  49  63
ATOM     63  C   UNL A   1      40.513  28.176  29.573  1.00  0.00    -0.014 A 
ATOM     64  C   UNL A   1      39.662  27.053  29.558  1.00  0.00     0.010 A 
ATOM     65  C   UNL A   1      41.410  28.377  28.511  1.00  0.00     0.010 A 
ATOM     66  C   UNL A   1      39.763  26.108  28.536  1.00  0.00     0.020 A 
ATOM     67  C   UNL A   1      41.485  27.452  27.468  1.00  0.00     0.020 A 
ATOM     68  C   UNL A   1      40.681  26.311  27.503  1.00  0.00     0.054 A 
BRANCH  68  69
ATOM     69  S   UNL A   1      40.816  25.053  26.205  1.00  0.00     0.124 S 
ATOM     70  O   UNL A   1      41.267  25.846  25.065  1.00  0.00    -0.237 OA
ATOM     71  O   UNL A   1      41.804  24.131  26.759  1.00  0.00    -0.237 OA
ATOM     72  O   UNL A   1      39.461  24.520  26.097  1.00  0.00    -0.744 OA
ENDBRANCH  68  69
ENDBRANCH  49  63
BRANCH  50  73
ATOM     73  C   UNL A   1      39.982  34.498  37.416  1.00  0.00    -0.014 A 
ATOM     74  C   UNL A   1      40.727  35.689  37.474  1.00  0.00     0.010 A 
ATOM     75  C   UNL A   1      39.119  34.183  38.483  1.00  0.00     0.010 A 
ATOM     76  C   UNL A   1      40.619  36.541  38.578  1.00  0.00     0.020 A 
ATOM     77  C   UNL A   1      38.988  35.046  39.575  1.00  0.00     0.020 A 
ATOM     78  C   UNL A   1      39.744  36.218  39.618  1.00  0.00     0.054 A 
BRANCH  78  79
ATOM     79  S   UNL A   1      39.574  37.376  41.006  1.00  0.00     0.124 S 
ATOM     80  O   UNL A   1      38.644  38.365  40.468  1.00  0.00    -0.237 OA
ATOM     81  O   UNL A   1      39.043  36.520  42.064  1.00  0.00    -0.237 OA
ATOM     82  O   UNL A   1      40.937  37.854  41.225  1.00  0.00    -0.744 OA
ENDBRANCH  78  79
ENDBRANCH  50  73
BRANCH  62  83
ATOM     83  C   UNL A   1      43.876  28.863  35.914  1.00  0.00    -0.014 A 
ATOM     84  C   UNL A   1      45.182  29.378  35.928  1.00  0.00     0.010 A 
ATOM     85  C   UNL A   1      43.562  27.754  36.724  1.00  0.00     0.010 A 
ATOM     86  C   UNL A   1      46.157  28.792  36.740  1.00  0.00     0.020 A 
ATOM     87  C   UNL A   1      44.523  27.189  37.561  1.00  0.00     0.020 A 
ATOM     88  C   UNL A   1      45.817  27.710  37.560  1.00  0.00     0.054 A 
BRANCH  88  89
ATOM     89  S   UNL A   1      47.074  27.034  38.679  1.00  0.00     0.124 S 
ATOM     90  O   UNL A   1      48.247  27.832  38.334  1.00  0.00    -0.237 OA
ATOM     91  O   UNL A   1      46.500  27.296  39.997  1.00  0.00    -0.237 OA
ATOM     92  O   UNL A   1      47.149  25.623  38.307  1.00  0.00    -0.744 OA
ENDBRANCH  88  89
ENDBRANCH  62  83
ENDBRANCH  36  37
ENDBRANCH  29  31
ENDBRANCH  28  29
ENDBRANCH   1  28
TORSDOF 17
ENDMDL
