MODEL 1
REMARK VINA RESULT:     -10.2      0.000      0.000
REMARK SMILES Cc1cc2c(cc1C)O[C@H](C(=O)OCCOC(=O)c1ccc(-c3c4nc(c(-c5ccc(S(=O)(=O)[O-])cc5)c5ccc([nH]5)c(-c5ccc(S(=O)(=O)[O-])cc5)c5nc(c(-c6ccc(S(=O)(=O)[O-])cc6)c6ccc3[nH]6)C=C5)C=C4)cc1)C2
REMARK SMILES IDX 16 1 15 2 14 3 13 4 11 5 12 6 10 7 1 8 2 9 3 10 7 11 4 12
REMARK SMILES IDX 6 13 8 14 5 15 79 16 9 17 17 18 18 19 19 20 20 21 78 22
REMARK SMILES IDX 21 23 77 24 22 25 23 26 24 27 71 28 25 29 76 30 70 31 72 32
REMARK SMILES IDX 26 33 75 34 69 35 68 36 27 38 57 39 38 40 56 41 39 42 42 43
REMARK SMILES IDX 55 44 73 45 40 46 41 47 54 49 74 50 43 51 28 52 29 53 37 54
REMARK SMILES IDX 30 55 36 56 31 57 32 58 33 59 34 60 35 61 58 62 59 63 67 64
REMARK SMILES IDX 60 65 66 66 61 67 62 68 63 69 64 70 65 71 44 72 45 73 53 74
REMARK SMILES IDX 46 75 52 76 47 77 48 78 49 79 50 80 51 81
REMARK H PARENT 72 37 42 48
REMARK Flexibility Score: inf
ROOT
ATOM      1  O   UNL A   1      39.947  22.025  26.050  1.00  0.00    -0.458 OA
ENDROOT
BRANCH   1   2
ATOM      2  C   UNL A   1      40.417  21.376  27.247  1.00  0.00     0.275 C 
BRANCH   2   3
ATOM      3  C   UNL A   1      41.481  20.302  26.985  1.00  0.00     0.274 C 
BRANCH   3   4
ATOM      4  O   UNL A   1      42.019  20.364  25.648  1.00  0.00    -0.459 OA
BRANCH   4   5
ATOM      5  C   UNL A   1      43.368  20.529  25.599  1.00  0.00     0.347 C 
ATOM      6  O   UNL A   1      44.166  19.598  25.499  1.00  0.00    -0.248 OA
BRANCH   5   7
ATOM      7  C   UNL A   1      43.815  21.964  25.770  1.00  0.00     0.287 C 
ATOM      8  C   UNL A   1      45.333  27.655  25.624  1.00  0.00     0.044 C 
ATOM      9  C   UNL A   1      45.374  26.172  25.363  1.00  0.00    -0.048 A 
ATOM     10  C   UNL A   1      44.135  25.494  25.238  1.00  0.00     0.011 A 
ATOM     11  C   UNL A   1      46.592  25.436  25.352  1.00  0.00    -0.045 A 
ATOM     12  C   UNL A   1      44.131  24.114  25.162  1.00  0.00    -0.001 A 
ATOM     13  C   UNL A   1      46.555  24.042  25.208  1.00  0.00     0.050 A 
ATOM     14  C   UNL A   1      47.953  26.030  25.596  1.00  0.00     0.045 C 
ATOM     15  C   UNL A   1      45.331  23.422  25.170  1.00  0.00     0.124 A 
ATOM     16  C   UNL A   1      43.023  23.114  25.142  1.00  0.00     0.097 C 
ATOM     17  O   UNL A   1      45.175  22.067  25.274  1.00  0.00    -0.478 OA
ENDBRANCH   5   7
ENDBRANCH   4   5
ENDBRANCH   3   4
ENDBRANCH   2   3
ENDBRANCH   1   2
BRANCH   1  18
ATOM     18  C   UNL A   1      38.854  22.816  26.195  1.00  0.00     0.338 C 
ATOM     19  O   UNL A   1      37.703  22.517  25.930  1.00  0.00    -0.246 OA
BRANCH  18  20
ATOM     20  C   UNL A   1      39.253  24.112  26.790  1.00  0.00     0.060 A 
ATOM     21  C   UNL A   1      38.889  24.437  28.099  1.00  0.00     0.016 A 
ATOM     22  C   UNL A   1      40.055  24.983  26.048  1.00  0.00     0.016 A 
ATOM     23  C   UNL A   1      39.324  25.643  28.662  1.00  0.00     0.010 A 
ATOM     24  C   UNL A   1      40.492  26.186  26.614  1.00  0.00     0.010 A 
ATOM     25  C   UNL A   1      40.130  26.529  27.926  1.00  0.00    -0.014 A 
BRANCH  25  26
ATOM     26  C   UNL A   1      40.612  27.795  28.538  1.00  0.00     0.031 A 
ATOM     27  C   UNL A   1      42.056  27.957  28.927  1.00  0.00     0.074 A 
ATOM     28  C   UNL A   1      39.752  28.815  28.732  1.00  0.00     0.049 A 
ATOM     29  N   UNL A   1      42.658  29.006  29.430  1.00  0.00    -0.248 NA
ATOM     30  C   UNL A   1      42.942  26.800  28.720  1.00  0.00     0.031 C 
ATOM     31  C   UNL A   1      38.330  28.789  28.388  1.00  0.00     0.029 A 
ATOM     32  N   UNL A   1      39.945  30.073  29.251  1.00  0.00    -0.354 N 
ATOM     33  C   UNL A   1      43.991  28.646  29.578  1.00  0.00     0.074 A 
ATOM     34  C   UNL A   1      44.105  27.266  29.158  1.00  0.00     0.031 C 
ATOM     35  C   UNL A   1      37.789  29.985  28.671  1.00  0.00     0.029 A 
ATOM     36  C   UNL A   1      38.811  30.852  29.253  1.00  0.00     0.049 A 
ATOM     37  H   UNL A   1      40.815  30.386  29.590  1.00  0.00     0.167 HD
ATOM     38  C   UNL A   1      45.029  29.403  30.006  1.00  0.00     0.031 A 
ATOM     39  C   UNL A   1      38.611  32.121  29.670  1.00  0.00     0.031 A 
ATOM     40  C   UNL A   1      44.914  30.773  30.439  1.00  0.00     0.049 A 
ATOM     41  C   UNL A   1      39.767  32.913  30.220  1.00  0.00     0.074 A 
ATOM     42  C   UNL A   1      45.921  31.616  30.881  1.00  0.00     0.029 A 
ATOM     43  N   UNL A   1      43.737  31.502  30.485  1.00  0.00    -0.354 N 
ATOM     44  N   UNL A   1      41.027  32.564  30.323  1.00  0.00    -0.248 NA
ATOM     45  C   UNL A   1      39.479  34.273  30.704  1.00  0.00     0.031 C 
ATOM     46  C   UNL A   1      45.344  32.830  31.254  1.00  0.00     0.029 A 
ATOM     47  C   UNL A   1      43.988  32.773  30.974  1.00  0.00     0.049 A 
ATOM     48  H   UNL A   1      42.852  31.167  30.211  1.00  0.00     0.167 HD
ATOM     49  C   UNL A   1      41.685  33.669  30.854  1.00  0.00     0.074 A 
ATOM     50  C   UNL A   1      40.689  34.701  31.044  1.00  0.00     0.031 C 
ATOM     51  C   UNL A   1      42.999  33.807  31.153  1.00  0.00     0.031 A 
BRANCH  38  52
ATOM     52  C   UNL A   1      46.408  28.796  30.010  1.00  0.00    -0.014 A 
ATOM     53  C   UNL A   1      47.174  28.782  28.829  1.00  0.00     0.010 A 
ATOM     54  C   UNL A   1      46.875  28.098  31.137  1.00  0.00     0.010 A 
ATOM     55  C   UNL A   1      48.361  28.045  28.763  1.00  0.00     0.020 A 
ATOM     56  C   UNL A   1      48.073  27.381  31.083  1.00  0.00     0.020 A 
ATOM     57  C   UNL A   1      48.794  27.337  29.887  1.00  0.00     0.054 A 
BRANCH  57  58
ATOM     58  S   UNL A   1      50.306  26.341  29.766  1.00  0.00     0.124 S 
ATOM     59  O   UNL A   1      51.348  27.324  30.048  1.00  0.00    -0.237 OA
ATOM     60  O   UNL A   1      50.102  25.325  30.796  1.00  0.00    -0.237 OA
ATOM     61  O   UNL A   1      50.277  25.839  28.393  1.00  0.00    -0.744 OA
ENDBRANCH  57  58
ENDBRANCH  38  52
BRANCH  39  62
ATOM     62  C   UNL A   1      37.257  32.729  29.541  1.00  0.00    -0.014 A 
ATOM     63  C   UNL A   1      36.846  33.314  28.330  1.00  0.00     0.010 A 
ATOM     64  C   UNL A   1      36.390  32.772  30.647  1.00  0.00     0.010 A 
ATOM     65  C   UNL A   1      35.616  33.971  28.239  1.00  0.00     0.020 A 
ATOM     66  C   UNL A   1      35.145  33.403  30.552  1.00  0.00     0.020 A 
ATOM     67  C   UNL A   1      34.778  34.022  29.355  1.00  0.00     0.054 A 
BRANCH  67  68
ATOM     68  S   UNL A   1      33.199  34.907  29.223  1.00  0.00     0.124 S 
ATOM     69  O   UNL A   1      32.453  34.051  28.307  1.00  0.00    -0.237 OA
ATOM     70  O   UNL A   1      32.723  34.919  30.604  1.00  0.00    -0.237 OA
ATOM     71  O   UNL A   1      33.583  36.211  28.689  1.00  0.00    -0.744 OA
ENDBRANCH  67  68
ENDBRANCH  39  62
BRANCH  51  72
ATOM     72  C   UNL A   1      43.480  35.123  31.710  1.00  0.00    -0.014 A 
ATOM     73  C   UNL A   1      43.297  35.408  33.077  1.00  0.00     0.010 A 
ATOM     74  C   UNL A   1      43.965  36.133  30.862  1.00  0.00     0.010 A 
ATOM     75  C   UNL A   1      43.545  36.689  33.577  1.00  0.00     0.020 A 
ATOM     76  C   UNL A   1      44.242  37.410  31.364  1.00  0.00     0.020 A 
ATOM     77  C   UNL A   1      44.001  37.687  32.713  1.00  0.00     0.054 A 
BRANCH  77  78
ATOM     78  S   UNL A   1      44.262  39.359  33.366  1.00  0.00     0.124 S 
ATOM     79  O   UNL A   1      45.159  39.114  34.491  1.00  0.00    -0.237 OA
ATOM     80  O   UNL A   1      44.854  40.060  32.230  1.00  0.00    -0.237 OA
ATOM     81  O   UNL A   1      42.916  39.802  33.726  1.00  0.00    -0.744 OA
ENDBRANCH  77  78
ENDBRANCH  51  72
ENDBRANCH  25  26
ENDBRANCH  18  20
ENDBRANCH   1  18
TORSDOF 14
ENDMDL
MODEL 2
REMARK VINA RESULT:     -10.1      2.835     11.552
REMARK SMILES Cc1cc2c(cc1C)O[C@H](C(=O)OCCOC(=O)c1ccc(-c3c4nc(c(-c5ccc(S(=O)(=O)[O-])cc5)c5ccc([nH]5)c(-c5ccc(S(=O)(=O)[O-])cc5)c5nc(c(-c6ccc(S(=O)(=O)[O-])cc6)c6ccc3[nH]6)C=C5)C=C4)cc1)C2
REMARK SMILES IDX 16 1 15 2 14 3 13 4 11 5 12 6 10 7 1 8 2 9 3 10 7 11 4 12
REMARK SMILES IDX 6 13 8 14 5 15 79 16 9 17 17 18 18 19 19 20 20 21 78 22
REMARK SMILES IDX 21 23 77 24 22 25 23 26 24 27 71 28 25 29 76 30 70 31 72 32
REMARK SMILES IDX 26 33 75 34 69 35 68 36 27 38 57 39 38 40 56 41 39 42 42 43
REMARK SMILES IDX 55 44 73 45 40 46 41 47 54 49 74 50 43 51 28 52 29 53 37 54
REMARK SMILES IDX 30 55 36 56 31 57 32 58 33 59 34 60 35 61 58 62 59 63 67 64
REMARK SMILES IDX 60 65 66 66 61 67 62 68 63 69 64 70 65 71 44 72 45 73 53 74
REMARK SMILES IDX 46 75 52 76 47 77 48 78 49 79 50 80 51 81
REMARK H PARENT 72 37 42 48
REMARK Flexibility Score: inf
ROOT
ATOM      1  O   UNL A   1      33.968  31.539  28.396  1.00  0.00    -0.458 OA
ENDROOT
BRANCH   1   2
ATOM      2  C   UNL A   1      33.966  32.795  27.691  1.00  0.00     0.275 C 
BRANCH   2   3
ATOM      3  C   UNL A   1      34.908  33.842  28.299  1.00  0.00     0.274 C 
BRANCH   3   4
ATOM      4  O   UNL A   1      34.204  34.876  29.017  1.00  0.00    -0.459 OA
BRANCH   4   5
ATOM      5  C   UNL A   1      33.969  34.584  30.324  1.00  0.00     0.347 C 
ATOM      6  O   UNL A   1      32.985  34.982  30.946  1.00  0.00    -0.248 OA
BRANCH   5   7
ATOM      7  C   UNL A   1      35.079  33.795  30.984  1.00  0.00     0.287 C 
ATOM      8  C   UNL A   1      38.815  30.499  34.128  1.00  0.00     0.044 C 
ATOM      9  C   UNL A   1      37.914  31.644  33.747  1.00  0.00    -0.048 A 
ATOM     10  C   UNL A   1      36.755  31.342  32.989  1.00  0.00     0.011 A 
ATOM     11  C   UNL A   1      38.249  32.998  34.026  1.00  0.00    -0.045 A 
ATOM     12  C   UNL A   1      35.994  32.381  32.484  1.00  0.00    -0.001 A 
ATOM     13  C   UNL A   1      37.420  34.026  33.555  1.00  0.00     0.050 A 
ATOM     14  C   UNL A   1      39.511  33.445  34.714  1.00  0.00     0.045 C 
ATOM     15  C   UNL A   1      36.353  33.690  32.758  1.00  0.00     0.124 A 
ATOM     16  C   UNL A   1      34.812  32.408  31.573  1.00  0.00     0.097 C 
ATOM     17  O   UNL A   1      35.628  34.610  32.051  1.00  0.00    -0.478 OA
ENDBRANCH   5   7
ENDBRANCH   4   5
ENDBRANCH   3   4
ENDBRANCH   2   3
ENDBRANCH   1   2
BRANCH   1  18
ATOM     18  C   UNL A   1      34.415  30.466  27.694  1.00  0.00     0.338 C 
ATOM     19  O   UNL A   1      33.823  29.889  26.798  1.00  0.00    -0.246 OA
BRANCH  18  20
ATOM     20  C   UNL A   1      35.782  30.115  28.139  1.00  0.00     0.060 A 
ATOM     21  C   UNL A   1      36.011  29.654  29.438  1.00  0.00     0.016 A 
ATOM     22  C   UNL A   1      36.836  30.188  27.225  1.00  0.00     0.016 A 
ATOM     23  C   UNL A   1      37.303  29.274  29.822  1.00  0.00     0.010 A 
ATOM     24  C   UNL A   1      38.125  29.804  27.609  1.00  0.00     0.010 A 
ATOM     25  C   UNL A   1      38.373  29.344  28.912  1.00  0.00    -0.014 A 
BRANCH  25  26
ATOM     26  C   UNL A   1      39.737  28.913  29.316  1.00  0.00     0.031 A 
ATOM     27  C   UNL A   1      40.600  29.800  30.170  1.00  0.00     0.074 A 
ATOM     28  C   UNL A   1      40.200  27.707  28.927  1.00  0.00     0.049 A 
ATOM     29  N   UNL A   1      41.795  29.564  30.652  1.00  0.00    -0.248 NA
ATOM     30  C   UNL A   1      40.054  31.116  30.537  1.00  0.00     0.031 C 
ATOM     31  C   UNL A   1      39.458  26.749  28.109  1.00  0.00     0.029 A 
ATOM     32  N   UNL A   1      41.394  27.076  29.178  1.00  0.00    -0.354 N 
ATOM     33  C   UNL A   1      42.134  30.688  31.395  1.00  0.00     0.074 A 
ATOM     34  C   UNL A   1      41.041  31.627  31.263  1.00  0.00     0.031 C 
ATOM     35  C   UNL A   1      40.198  25.638  27.955  1.00  0.00     0.029 A 
ATOM     36  C   UNL A   1      41.482  25.817  28.629  1.00  0.00     0.049 A 
ATOM     37  H   UNL A   1      42.120  27.486  29.703  1.00  0.00     0.167 HD
ATOM     38  C   UNL A   1      43.246  30.907  32.138  1.00  0.00     0.031 A 
ATOM     39  C   UNL A   1      42.477  24.905  28.663  1.00  0.00     0.031 A 
ATOM     40  C   UNL A   1      44.341  29.978  32.257  1.00  0.00     0.049 A 
ATOM     41  C   UNL A   1      43.738  25.209  29.426  1.00  0.00     0.074 A 
ATOM     42  C   UNL A   1      45.504  30.121  32.997  1.00  0.00     0.029 A 
ATOM     43  N   UNL A   1      44.416  28.743  31.633  1.00  0.00    -0.354 N 
ATOM     44  N   UNL A   1      44.027  26.265  30.149  1.00  0.00    -0.248 NA
ATOM     45  C   UNL A   1      44.807  24.198  29.389  1.00  0.00     0.031 C 
ATOM     46  C   UNL A   1      46.309  29.004  32.769  1.00  0.00     0.029 A 
ATOM     47  C   UNL A   1      45.617  28.129  31.948  1.00  0.00     0.049 A 
ATOM     48  H   UNL A   1      43.720  28.361  31.051  1.00  0.00     0.167 HD
ATOM     49  C   UNL A   1      45.293  26.033  30.673  1.00  0.00     0.074 A 
ATOM     50  C   UNL A   1      45.716  24.734  30.194  1.00  0.00     0.031 C 
ATOM     51  C   UNL A   1      46.034  26.830  31.480  1.00  0.00     0.031 A 
BRANCH  38  52
ATOM     52  C   UNL A   1      43.347  32.192  32.917  1.00  0.00    -0.014 A 
ATOM     53  C   UNL A   1      42.983  32.221  34.276  1.00  0.00     0.010 A 
ATOM     54  C   UNL A   1      43.647  33.400  32.262  1.00  0.00     0.010 A 
ATOM     55  C   UNL A   1      42.875  33.439  34.955  1.00  0.00     0.020 A 
ATOM     56  C   UNL A   1      43.564  34.617  32.945  1.00  0.00     0.020 A 
ATOM     57  C   UNL A   1      43.152  34.630  34.280  1.00  0.00     0.054 A 
BRANCH  57  58
ATOM     58  S   UNL A   1      42.952  36.204  35.161  1.00  0.00     0.124 S 
ATOM     59  O   UNL A   1      41.724  35.981  35.918  1.00  0.00    -0.237 OA
ATOM     60  O   UNL A   1      44.177  36.284  35.953  1.00  0.00    -0.237 OA
ATOM     61  O   UNL A   1      42.853  37.188  34.084  1.00  0.00    -0.744 OA
ENDBRANCH  57  58
ENDBRANCH  38  52
BRANCH  39  62
ATOM     62  C   UNL A   1      42.294  23.595  27.978  1.00  0.00    -0.014 A 
ATOM     63  C   UNL A   1      41.577  22.555  28.597  1.00  0.00     0.010 A 
ATOM     64  C   UNL A   1      42.880  23.363  26.721  1.00  0.00     0.010 A 
ATOM     65  C   UNL A   1      41.489  21.296  27.997  1.00  0.00     0.020 A 
ATOM     66  C   UNL A   1      42.769  22.113  26.103  1.00  0.00     0.020 A 
ATOM     67  C   UNL A   1      42.097  21.079  26.759  1.00  0.00     0.054 A 
BRANCH  67  68
ATOM     68  S   UNL A   1      41.997  19.428  26.013  1.00  0.00     0.124 S 
ATOM     69  O   UNL A   1      42.820  19.590  24.818  1.00  0.00    -0.237 OA
ATOM     70  O   UNL A   1      42.560  18.572  27.053  1.00  0.00    -0.237 OA
ATOM     71  O   UNL A   1      40.568  19.250  25.770  1.00  0.00    -0.744 OA
ENDBRANCH  67  68
ENDBRANCH  39  62
BRANCH  51  72
ATOM     72  C   UNL A   1      47.388  26.343  31.935  1.00  0.00    -0.014 A 
ATOM     73  C   UNL A   1      48.487  26.430  31.059  1.00  0.00     0.010 A 
ATOM     74  C   UNL A   1      47.540  25.663  33.154  1.00  0.00     0.010 A 
ATOM     75  C   UNL A   1      49.698  25.807  31.372  1.00  0.00     0.020 A 
ATOM     76  C   UNL A   1      48.759  25.061  33.485  1.00  0.00     0.020 A 
ATOM     77  C   UNL A   1      49.820  25.112  32.577  1.00  0.00     0.054 A 
BRANCH  77  78
ATOM     78  S   UNL A   1      51.380  24.260  32.941  1.00  0.00     0.124 S 
ATOM     79  O   UNL A   1      51.299  24.073  34.387  1.00  0.00    -0.237 OA
ATOM     80  O   UNL A   1      51.277  23.042  32.143  1.00  0.00    -0.237 OA
ATOM     81  O   UNL A   1      52.401  25.204  32.491  1.00  0.00    -0.744 OA
ENDBRANCH  77  78
ENDBRANCH  51  72
ENDBRANCH  25  26
ENDBRANCH  18  20
ENDBRANCH   1  18
TORSDOF 14
ENDMDL
MODEL 3
REMARK VINA RESULT:     -10.1      2.577      9.000
REMARK SMILES Cc1cc2c(cc1C)O[C@H](C(=O)OCCOC(=O)c1ccc(-c3c4nc(c(-c5ccc(S(=O)(=O)[O-])cc5)c5ccc([nH]5)c(-c5ccc(S(=O)(=O)[O-])cc5)c5nc(c(-c6ccc(S(=O)(=O)[O-])cc6)c6ccc3[nH]6)C=C5)C=C4)cc1)C2
REMARK SMILES IDX 16 1 15 2 14 3 13 4 11 5 12 6 10 7 1 8 2 9 3 10 7 11 4 12
REMARK SMILES IDX 6 13 8 14 5 15 79 16 9 17 17 18 18 19 19 20 20 21 78 22
REMARK SMILES IDX 21 23 77 24 22 25 23 26 24 27 71 28 25 29 76 30 70 31 72 32
REMARK SMILES IDX 26 33 75 34 69 35 68 36 27 38 57 39 38 40 56 41 39 42 42 43
REMARK SMILES IDX 55 44 73 45 40 46 41 47 54 49 74 50 43 51 28 52 29 53 37 54
REMARK SMILES IDX 30 55 36 56 31 57 32 58 33 59 34 60 35 61 58 62 59 63 67 64
REMARK SMILES IDX 60 65 66 66 61 67 62 68 63 69 64 70 65 71 44 72 45 73 53 74
REMARK SMILES IDX 46 75 52 76 47 77 48 78 49 79 50 80 51 81
REMARK H PARENT 72 37 42 48
REMARK Flexibility Score: inf
ROOT
ATOM      1  O   UNL A   1      42.342  19.496  25.231  1.00  0.00    -0.458 OA
ENDROOT
BRANCH   1   2
ATOM      2  C   UNL A   1      43.185  18.584  25.960  1.00  0.00     0.275 C 
BRANCH   2   3
ATOM      3  C   UNL A   1      44.627  18.530  25.440  1.00  0.00     0.274 C 
BRANCH   3   4
ATOM      4  O   UNL A   1      44.878  19.490  24.393  1.00  0.00    -0.459 OA
BRANCH   4   5
ATOM      5  C   UNL A   1      45.896  20.351  24.660  1.00  0.00     0.347 C 
ATOM      6  O   UNL A   1      47.084  20.031  24.635  1.00  0.00    -0.248 OA
BRANCH   5   7
ATOM      7  C   UNL A   1      45.437  21.728  25.085  1.00  0.00     0.287 C 
ATOM      8  C   UNL A   1      43.925  27.352  25.979  1.00  0.00     0.044 C 
ATOM      9  C   UNL A   1      44.786  26.128  25.805  1.00  0.00    -0.048 A 
ATOM     10  C   UNL A   1      44.338  25.134  24.899  1.00  0.00     0.011 A 
ATOM     11  C   UNL A   1      45.949  25.900  26.594  1.00  0.00    -0.045 A 
ATOM     12  C   UNL A   1      45.015  23.930  24.836  1.00  0.00    -0.001 A 
ATOM     13  C   UNL A   1      46.649  24.693  26.458  1.00  0.00     0.050 A 
ATOM     14  C   UNL A   1      46.449  26.824  27.671  1.00  0.00     0.045 C 
ATOM     15  C   UNL A   1      46.133  23.729  25.627  1.00  0.00     0.124 A 
ATOM     16  C   UNL A   1      44.741  22.664  24.094  1.00  0.00     0.097 C 
ATOM     17  O   UNL A   1      46.591  22.440  25.600  1.00  0.00    -0.478 OA
ENDBRANCH   5   7
ENDBRANCH   4   5
ENDBRANCH   3   4
ENDBRANCH   2   3
ENDBRANCH   1   2
BRANCH   1  18
ATOM     18  C   UNL A   1      41.180  19.846  25.839  1.00  0.00     0.338 C 
ATOM     19  O   UNL A   1      40.147  19.200  25.854  1.00  0.00    -0.246 OA
BRANCH  18  20
ATOM     20  C   UNL A   1      41.359  21.131  26.551  1.00  0.00     0.060 A 
ATOM     21  C   UNL A   1      41.257  21.195  27.943  1.00  0.00     0.016 A 
ATOM     22  C   UNL A   1      41.697  22.273  25.820  1.00  0.00     0.016 A 
ATOM     23  C   UNL A   1      41.485  22.409  28.601  1.00  0.00     0.010 A 
ATOM     24  C   UNL A   1      41.929  23.485  26.480  1.00  0.00     0.010 A 
ATOM     25  C   UNL A   1      41.824  23.566  27.877  1.00  0.00    -0.014 A 
BRANCH  25  26
ATOM     26  C   UNL A   1      42.093  24.846  28.583  1.00  0.00     0.031 A 
ATOM     27  C   UNL A   1      41.086  25.963  28.557  1.00  0.00     0.074 A 
ATOM     28  C   UNL A   1      43.244  25.003  29.268  1.00  0.00     0.049 A 
ATOM     29  N   UNL A   1      41.136  27.128  29.153  1.00  0.00    -0.248 NA
ATOM     30  C   UNL A   1      39.863  25.746  27.767  1.00  0.00     0.031 C 
ATOM     31  C   UNL A   1      44.296  23.993  29.382  1.00  0.00     0.029 A 
ATOM     32  N   UNL A   1      43.716  26.061  30.009  1.00  0.00    -0.354 N 
ATOM     33  C   UNL A   1      39.948  27.772  28.832  1.00  0.00     0.074 A 
ATOM     34  C   UNL A   1      39.216  26.891  27.949  1.00  0.00     0.031 C 
ATOM     35  C   UNL A   1      45.272  24.465  30.175  1.00  0.00     0.029 A 
ATOM     36  C   UNL A   1      44.938  25.824  30.595  1.00  0.00     0.049 A 
ATOM     37  H   UNL A   1      43.225  26.908  30.110  1.00  0.00     0.167 HD
ATOM     38  C   UNL A   1      39.500  28.979  29.252  1.00  0.00     0.031 A 
ATOM     39  C   UNL A   1      45.705  26.605  31.386  1.00  0.00     0.031 A 
ATOM     40  C   UNL A   1      40.236  29.864  30.120  1.00  0.00     0.049 A 
ATOM     41  C   UNL A   1      45.220  27.978  31.769  1.00  0.00     0.074 A 
ATOM     42  C   UNL A   1      39.849  31.104  30.600  1.00  0.00     0.029 A 
ATOM     43  N   UNL A   1      41.496  29.612  30.638  1.00  0.00    -0.354 N 
ATOM     44  N   UNL A   1      44.079  28.557  31.481  1.00  0.00    -0.248 NA
ATOM     45  C   UNL A   1      46.119  28.802  32.592  1.00  0.00     0.031 C 
ATOM     46  C   UNL A   1      40.899  31.630  31.354  1.00  0.00     0.029 A 
ATOM     47  C   UNL A   1      41.911  30.685  31.408  1.00  0.00     0.049 A 
ATOM     48  H   UNL A   1      42.019  28.793  30.481  1.00  0.00     0.167 HD
ATOM     49  C   UNL A   1      44.112  29.797  32.109  1.00  0.00     0.074 A 
ATOM     50  C   UNL A   1      45.380  29.885  32.800  1.00  0.00     0.031 C 
ATOM     51  C   UNL A   1      43.170  30.770  32.108  1.00  0.00     0.031 A 
BRANCH  38  52
ATOM     52  C   UNL A   1      38.131  29.429  28.814  1.00  0.00    -0.014 A 
ATOM     53  C   UNL A   1      37.019  29.221  29.651  1.00  0.00     0.010 A 
ATOM     54  C   UNL A   1      37.924  29.910  27.509  1.00  0.00     0.010 A 
ATOM     55  C   UNL A   1      35.723  29.443  29.177  1.00  0.00     0.020 A 
ATOM     56  C   UNL A   1      36.631  30.158  27.039  1.00  0.00     0.020 A 
ATOM     57  C   UNL A   1      35.537  29.896  27.869  1.00  0.00     0.054 A 
BRANCH  57  58
ATOM     58  S   UNL A   1      33.846  30.125  27.252  1.00  0.00     0.124 S 
ATOM     59  O   UNL A   1      33.108  29.101  27.985  1.00  0.00    -0.237 OA
ATOM     60  O   UNL A   1      33.553  31.507  27.630  1.00  0.00    -0.237 OA
ATOM     61  O   UNL A   1      33.972  29.897  25.814  1.00  0.00    -0.744 OA
ENDBRANCH  57  58
ENDBRANCH  38  52
BRANCH  39  62
ATOM     62  C   UNL A   1      47.002  26.080  31.898  1.00  0.00    -0.014 A 
ATOM     63  C   UNL A   1      48.152  26.094  31.087  1.00  0.00     0.010 A 
ATOM     64  C   UNL A   1      47.082  25.516  33.184  1.00  0.00     0.010 A 
ATOM     65  C   UNL A   1      49.342  25.513  31.531  1.00  0.00     0.020 A 
ATOM     66  C   UNL A   1      48.280  24.960  33.644  1.00  0.00     0.020 A 
ATOM     67  C   UNL A   1      49.395  24.938  32.803  1.00  0.00     0.054 A 
BRANCH  67  68
ATOM     68  S   UNL A   1      50.942  24.161  33.347  1.00  0.00     0.124 S 
ATOM     69  O   UNL A   1      50.495  23.377  34.494  1.00  0.00    -0.237 OA
ATOM     70  O   UNL A   1      51.344  23.390  32.174  1.00  0.00    -0.237 OA
ATOM     71  O   UNL A   1      51.802  25.299  33.664  1.00  0.00    -0.744 OA
ENDBRANCH  67  68
ENDBRANCH  39  62
BRANCH  51  72
ATOM     72  C   UNL A   1      43.434  32.034  32.887  1.00  0.00    -0.014 A 
ATOM     73  C   UNL A   1      42.987  32.136  34.219  1.00  0.00     0.010 A 
ATOM     74  C   UNL A   1      43.978  33.169  32.262  1.00  0.00     0.010 A 
ATOM     75  C   UNL A   1      43.035  33.358  34.895  1.00  0.00     0.020 A 
ATOM     76  C   UNL A   1      44.054  34.388  32.945  1.00  0.00     0.020 A 
ATOM     77  C   UNL A   1      43.554  34.481  34.247  1.00  0.00     0.054 A 
BRANCH  77  78
ATOM     78  S   UNL A   1      43.556  36.072  35.118  1.00  0.00     0.124 S 
ATOM     79  O   UNL A   1      43.285  37.016  34.038  1.00  0.00    -0.237 OA
ATOM     80  O   UNL A   1      42.481  35.907  36.093  1.00  0.00    -0.237 OA
ATOM     81  O   UNL A   1      44.898  36.148  35.691  1.00  0.00    -0.744 OA
ENDBRANCH  77  78
ENDBRANCH  51  72
ENDBRANCH  25  26
ENDBRANCH  18  20
ENDBRANCH   1  18
TORSDOF 14
ENDMDL
