MODEL 1
REMARK VINA RESULT:      -9.4      0.000      0.000
REMARK SMILES O=C(C[NH2+]C[C@@H]1CCCO1)OCCOC(=O)c1ccc(-c2c3nc(c(-c4ccc(S(=O)(=O)[O-])cc4)c4ccc([nH]4)c(-c4ccc(S(=O)(=O)[O-])cc4)c4nc(c(-c5ccc(S(=O)(=O)[O-])cc5)c5ccc2[nH]5)C=C4)C=C3)cc1
REMARK SMILES IDX 12 1 11 2 2 3 1 4 3 5 4 6 5 9 6 10 7 11 10 12 8 13 9 14
REMARK SMILES IDX 13 15 14 16 15 17 16 18 17 19 18 20 76 21 19 22 75 23 20 24
REMARK SMILES IDX 21 25 22 26 69 27 23 28 74 29 68 30 70 31 24 32 73 33 67 34
REMARK SMILES IDX 66 35 25 37 55 38 36 39 54 40 37 41 40 42 53 43 71 44 38 45
REMARK SMILES IDX 39 46 52 48 72 49 41 50 26 51 27 52 35 53 28 54 34 55 29 56
REMARK SMILES IDX 30 57 31 58 32 59 33 60 56 61 57 62 65 63 58 64 64 65 59 66
REMARK SMILES IDX 60 67 61 68 62 69 63 70 42 71 43 72 51 73 44 74 50 75 45 76
REMARK SMILES IDX 46 77 47 78 48 79 49 80
REMARK H PARENT 4 7 4 8 70 36 40 47
REMARK Flexibility Score: inf
ROOT
ATOM      1  C   UNL A   1      42.248  21.718  27.744  1.00  0.00     0.274 C 
ENDROOT
BRANCH   1   2
ATOM      2  O   UNL A   1      41.265  20.753  27.312  1.00  0.00    -0.458 OA
BRANCH   2   3
ATOM      3  C   UNL A   1      41.496  19.818  26.351  1.00  0.00     0.361 C 
ATOM      4  O   UNL A   1      40.914  19.877  25.269  1.00  0.00    -0.245 OA
BRANCH   3   5
ATOM      5  C   UNL A   1      42.454  18.682  26.683  1.00  0.00     0.384 C 
BRANCH   5   6
ATOM      6  N   UNL A   1      43.843  19.036  26.381  1.00  0.00    -0.335 N 
ATOM      7  H   UNL A   1      44.454  18.487  26.986  1.00  0.00     0.346 HD
ATOM      8  H   UNL A   1      43.932  20.040  26.540  1.00  0.00     0.346 HD
BRANCH   6   9
ATOM      9  C   UNL A   1      44.234  18.792  24.985  1.00  0.00     0.293 C 
BRANCH   9  10
ATOM     10  C   UNL A   1      44.845  19.939  24.155  1.00  0.00     0.173 C 
ATOM     11  C   UNL A   1      46.256  20.347  24.547  1.00  0.00     0.040 C 
ATOM     12  O   UNL A   1      44.049  21.127  24.333  1.00  0.00    -0.372 OA
ATOM     13  C   UNL A   1      46.239  21.856  24.628  1.00  0.00     0.031 C 
ATOM     14  C   UNL A   1      44.904  22.241  24.051  1.00  0.00     0.161 C 
ENDBRANCH   9  10
ENDBRANCH   6   9
ENDBRANCH   5   6
ENDBRANCH   3   5
ENDBRANCH   2   3
ENDBRANCH   1   2
BRANCH   1  15
ATOM     15  C   UNL A   1      42.382  22.885  26.756  1.00  0.00     0.275 C 
BRANCH  15  16
ATOM     16  O   UNL A   1      41.232  23.755  26.783  1.00  0.00    -0.458 OA
BRANCH  16  17
ATOM     17  C   UNL A   1      41.426  25.023  26.324  1.00  0.00     0.338 C 
ATOM     18  O   UNL A   1      41.561  25.358  25.168  1.00  0.00    -0.246 OA
BRANCH  17  19
ATOM     19  C   UNL A   1      41.286  25.985  27.452  1.00  0.00     0.060 A 
ATOM     20  C   UNL A   1      42.233  27.010  27.580  1.00  0.00     0.016 A 
ATOM     21  C   UNL A   1      40.227  25.912  28.359  1.00  0.00     0.016 A 
ATOM     22  C   UNL A   1      42.112  27.972  28.596  1.00  0.00     0.010 A 
ATOM     23  C   UNL A   1      40.101  26.885  29.362  1.00  0.00     0.010 A 
ATOM     24  C   UNL A   1      41.039  27.928  29.497  1.00  0.00    -0.014 A 
BRANCH  24  25
ATOM     25  C   UNL A   1      40.886  28.922  30.605  1.00  0.00     0.031 A 
ATOM     26  C   UNL A   1      41.626  28.712  31.903  1.00  0.00     0.074 A 
ATOM     27  C   UNL A   1      40.032  29.965  30.516  1.00  0.00     0.049 A 
ATOM     28  N   UNL A   1      41.575  29.416  33.006  1.00  0.00    -0.248 NA
ATOM     29  C   UNL A   1      42.543  27.561  31.967  1.00  0.00     0.031 C 
ATOM     30  C   UNL A   1      39.246  30.335  29.341  1.00  0.00     0.029 A 
ATOM     31  N   UNL A   1      39.639  30.881  31.467  1.00  0.00    -0.354 N 
ATOM     32  C   UNL A   1      42.477  28.819  33.877  1.00  0.00     0.074 A 
ATOM     33  C   UNL A   1      42.984  27.638  33.213  1.00  0.00     0.031 C 
ATOM     34  C   UNL A   1      38.392  31.321  29.667  1.00  0.00     0.029 A 
ATOM     35  C   UNL A   1      38.601  31.690  31.063  1.00  0.00     0.049 A 
ATOM     36  H   UNL A   1      40.062  30.950  32.353  1.00  0.00     0.167 HD
ATOM     37  C   UNL A   1      42.896  29.240  35.095  1.00  0.00     0.031 A 
ATOM     38  C   UNL A   1      37.895  32.626  31.729  1.00  0.00     0.031 A 
ATOM     39  C   UNL A   1      42.406  30.408  35.775  1.00  0.00     0.049 A 
ATOM     40  C   UNL A   1      38.292  33.012  33.129  1.00  0.00     0.074 A 
ATOM     41  C   UNL A   1      42.839  30.951  36.973  1.00  0.00     0.029 A 
ATOM     42  N   UNL A   1      41.368  31.206  35.328  1.00  0.00    -0.354 N 
ATOM     43  N   UNL A   1      39.242  32.514  33.881  1.00  0.00    -0.248 NA
ATOM     44  C   UNL A   1      37.559  34.130  33.744  1.00  0.00     0.031 C 
ATOM     45  C   UNL A   1      42.031  32.053  37.273  1.00  0.00     0.029 A 
ATOM     46  C   UNL A   1      41.127  32.222  36.238  1.00  0.00     0.049 A 
ATOM     47  H   UNL A   1      40.874  31.072  34.487  1.00  0.00     0.167 HD
ATOM     48  C   UNL A   1      39.269  33.306  35.026  1.00  0.00     0.074 A 
ATOM     49  C   UNL A   1      38.228  34.299  34.877  1.00  0.00     0.031 C 
ATOM     50  C   UNL A   1      40.105  33.227  36.089  1.00  0.00     0.031 A 
BRANCH  37  51
ATOM     51  C   UNL A   1      43.990  28.440  35.750  1.00  0.00    -0.014 A 
ATOM     52  C   UNL A   1      43.667  27.383  36.623  1.00  0.00     0.010 A 
ATOM     53  C   UNL A   1      45.339  28.719  35.476  1.00  0.00     0.010 A 
ATOM     54  C   UNL A   1      44.676  26.654  37.251  1.00  0.00     0.020 A 
ATOM     55  C   UNL A   1      46.352  27.972  36.084  1.00  0.00     0.020 A 
ATOM     56  C   UNL A   1      46.013  26.957  36.983  1.00  0.00     0.054 A 
BRANCH  56  57
ATOM     57  S   UNL A   1      47.302  25.988  37.812  1.00  0.00     0.124 S 
ATOM     58  O   UNL A   1      47.907  26.987  38.690  1.00  0.00    -0.237 OA
ATOM     59  O   UNL A   1      46.534  24.944  38.486  1.00  0.00    -0.237 OA
ATOM     60  O   UNL A   1      48.147  25.527  36.715  1.00  0.00    -0.744 OA
ENDBRANCH  56  57
ENDBRANCH  37  51
BRANCH  38  61
ATOM     61  C   UNL A   1      36.749  33.313  31.071  1.00  0.00    -0.014 A 
ATOM     62  C   UNL A   1      35.529  33.475  31.749  1.00  0.00     0.010 A 
ATOM     63  C   UNL A   1      36.860  33.759  29.741  1.00  0.00     0.010 A 
ATOM     64  C   UNL A   1      34.426  34.033  31.097  1.00  0.00     0.020 A 
ATOM     65  C   UNL A   1      35.764  34.337  29.092  1.00  0.00     0.020 A 
ATOM     66  C   UNL A   1      34.549  34.454  29.770  1.00  0.00     0.054 A 
BRANCH  66  67
ATOM     67  S   UNL A   1      33.102  35.180  28.948  1.00  0.00     0.124 S 
ATOM     68  O   UNL A   1      32.185  35.375  30.065  1.00  0.00    -0.237 OA
ATOM     69  O   UNL A   1      33.654  36.399  28.360  1.00  0.00    -0.237 OA
ATOM     70  O   UNL A   1      32.708  34.155  27.984  1.00  0.00    -0.744 OA
ENDBRANCH  66  67
ENDBRANCH  38  61
BRANCH  50  71
ATOM     71  C   UNL A   1      39.990  34.286  37.154  1.00  0.00    -0.014 A 
ATOM     72  C   UNL A   1      40.617  35.536  37.022  1.00  0.00     0.010 A 
ATOM     73  C   UNL A   1      39.197  34.036  38.290  1.00  0.00     0.010 A 
ATOM     74  C   UNL A   1      40.477  36.507  38.019  1.00  0.00     0.020 A 
ATOM     75  C   UNL A   1      39.032  35.013  39.276  1.00  0.00     0.020 A 
ATOM     76  C   UNL A   1      39.684  36.239  39.141  1.00  0.00     0.054 A 
BRANCH  76  77
ATOM     77  S   UNL A   1      39.477  37.530  40.398  1.00  0.00     0.124 S 
ATOM     78  O   UNL A   1      40.861  37.862  40.724  1.00  0.00    -0.237 OA
ATOM     79  O   UNL A   1      38.737  38.564  39.679  1.00  0.00    -0.237 OA
ATOM     80  O   UNL A   1      38.728  36.862  41.460  1.00  0.00    -0.744 OA
ENDBRANCH  76  77
ENDBRANCH  50  71
ENDBRANCH  24  25
ENDBRANCH  17  19
ENDBRANCH  16  17
ENDBRANCH  15  16
ENDBRANCH   1  15
TORSDOF 17
ENDMDL
MODEL 2
REMARK VINA RESULT:      -9.4      6.749     14.842
REMARK SMILES O=C(C[NH2+]C[C@@H]1CCCO1)OCCOC(=O)c1ccc(-c2c3nc(c(-c4ccc(S(=O)(=O)[O-])cc4)c4ccc([nH]4)c(-c4ccc(S(=O)(=O)[O-])cc4)c4nc(c(-c5ccc(S(=O)(=O)[O-])cc5)c5ccc2[nH]5)C=C4)C=C3)cc1
REMARK SMILES IDX 12 1 11 2 2 3 1 4 3 5 4 6 5 9 6 10 7 11 10 12 8 13 9 14
REMARK SMILES IDX 13 15 14 16 15 17 16 18 17 19 18 20 76 21 19 22 75 23 20 24
REMARK SMILES IDX 21 25 22 26 69 27 23 28 74 29 68 30 70 31 24 32 73 33 67 34
REMARK SMILES IDX 66 35 25 37 55 38 36 39 54 40 37 41 40 42 53 43 71 44 38 45
REMARK SMILES IDX 39 46 52 48 72 49 41 50 26 51 27 52 35 53 28 54 34 55 29 56
REMARK SMILES IDX 30 57 31 58 32 59 33 60 56 61 57 62 65 63 58 64 64 65 59 66
REMARK SMILES IDX 60 67 61 68 62 69 63 70 42 71 43 72 51 73 44 74 50 75 45 76
REMARK SMILES IDX 46 77 47 78 48 79 49 80
REMARK H PARENT 4 7 4 8 70 36 40 47
REMARK Flexibility Score: inf
ROOT
ATOM      1  C   UNL A   1      34.630  31.215  27.450  1.00  0.00     0.274 C 
ENDROOT
BRANCH   1   2
ATOM      2  O   UNL A   1      34.070  32.092  28.451  1.00  0.00    -0.458 OA
BRANCH   2   3
ATOM      3  C   UNL A   1      33.788  33.404  28.232  1.00  0.00     0.361 C 
ATOM      4  O   UNL A   1      32.829  33.730  27.534  1.00  0.00    -0.245 OA
BRANCH   3   5
ATOM      5  C   UNL A   1      34.725  34.442  28.837  1.00  0.00     0.384 C 
BRANCH   5   6
ATOM      6  N   UNL A   1      33.990  35.589  29.376  1.00  0.00    -0.335 N 
ATOM      7  H   UNL A   1      33.520  36.061  28.604  1.00  0.00     0.346 HD
ATOM      8  H   UNL A   1      34.674  36.185  29.843  1.00  0.00     0.346 HD
BRANCH   6   9
ATOM      9  C   UNL A   1      32.979  35.234  30.383  1.00  0.00     0.293 C 
BRANCH   9  10
ATOM     10  C   UNL A   1      32.768  36.153  31.605  1.00  0.00     0.173 C 
ATOM     11  C   UNL A   1      33.239  37.588  31.430  1.00  0.00     0.040 C 
ATOM     12  O   UNL A   1      33.528  35.642  32.718  1.00  0.00    -0.372 OA
ATOM     13  C   UNL A   1      34.030  37.914  32.676  1.00  0.00     0.031 C 
ATOM     14  C   UNL A   1      33.770  36.750  33.592  1.00  0.00     0.161 C 
ENDBRANCH   9  10
ENDBRANCH   6   9
ENDBRANCH   5   6
ENDBRANCH   3   5
ENDBRANCH   2   3
ENDBRANCH   1   2
BRANCH   1  15
ATOM     15  C   UNL A   1      34.939  29.822  28.014  1.00  0.00     0.275 C 
BRANCH  15  16
ATOM     16  O   UNL A   1      36.339  29.492  27.919  1.00  0.00    -0.458 OA
BRANCH  16  17
ATOM     17  C   UNL A   1      37.024  29.426  29.095  1.00  0.00     0.338 C 
ATOM     18  O   UNL A   1      36.546  29.436  30.208  1.00  0.00    -0.246 OA
BRANCH  17  19
ATOM     19  C   UNL A   1      38.465  29.172  28.816  1.00  0.00     0.060 A 
ATOM     20  C   UNL A   1      38.905  29.200  27.486  1.00  0.00     0.016 A 
ATOM     21  C   UNL A   1      39.386  28.942  29.840  1.00  0.00     0.016 A 
ATOM     22  C   UNL A   1      40.263  29.019  27.180  1.00  0.00     0.010 A 
ATOM     23  C   UNL A   1      40.744  28.778  29.530  1.00  0.00     0.010 A 
ATOM     24  C   UNL A   1      41.204  28.814  28.199  1.00  0.00    -0.014 A 
BRANCH  24  25
ATOM     25  C   UNL A   1      42.657  28.597  27.911  1.00  0.00     0.031 A 
ATOM     26  C   UNL A   1      43.605  29.771  27.930  1.00  0.00     0.074 A 
ATOM     27  C   UNL A   1      43.139  27.389  27.544  1.00  0.00     0.049 A 
ATOM     28  N   UNL A   1      44.881  29.805  27.641  1.00  0.00    -0.248 NA
ATOM     29  C   UNL A   1      43.044  31.072  28.328  1.00  0.00     0.031 C 
ATOM     30  C   UNL A   1      42.381  26.142  27.483  1.00  0.00     0.029 A 
ATOM     31  N   UNL A   1      44.390  27.027  27.093  1.00  0.00    -0.354 N 
ATOM     32  C   UNL A   1      45.283  31.117  27.858  1.00  0.00     0.074 A 
ATOM     33  C   UNL A   1      44.095  31.868  28.203  1.00  0.00     0.031 C 
ATOM     34  C   UNL A   1      43.139  25.184  26.925  1.00  0.00     0.029 A 
ATOM     35  C   UNL A   1      44.459  25.733  26.630  1.00  0.00     0.049 A 
ATOM     36  H   UNL A   1      45.162  27.637  27.102  1.00  0.00     0.167 HD
ATOM     37  C   UNL A   1      46.530  31.646  27.832  1.00  0.00     0.031 A 
ATOM     38  C   UNL A   1      45.463  25.054  26.037  1.00  0.00     0.031 A 
ATOM     39  C   UNL A   1      47.723  30.921  27.492  1.00  0.00     0.049 A 
ATOM     40  C   UNL A   1      46.822  25.688  25.906  1.00  0.00     0.074 A 
ATOM     41  C   UNL A   1      49.036  31.361  27.525  1.00  0.00     0.029 A 
ATOM     42  N   UNL A   1      47.753  29.613  27.042  1.00  0.00    -0.354 N 
ATOM     43  N   UNL A   1      47.203  26.895  26.245  1.00  0.00    -0.248 NA
ATOM     44  C   UNL A   1      47.901  24.844  25.370  1.00  0.00     0.031 C 
ATOM     45  C   UNL A   1      49.856  30.331  27.051  1.00  0.00     0.029 A 
ATOM     46  C   UNL A   1      49.058  29.236  26.769  1.00  0.00     0.049 A 
ATOM     47  H   UNL A   1      46.963  29.035  26.933  1.00  0.00     0.167 HD
ATOM     48  C   UNL A   1      48.578  26.929  26.032  1.00  0.00     0.074 A 
ATOM     49  C   UNL A   1      48.958  25.632  25.515  1.00  0.00     0.031 C 
ATOM     50  C   UNL A   1      49.447  27.941  26.272  1.00  0.00     0.031 A 
BRANCH  37  51
ATOM     51  C   UNL A   1      46.664  33.088  28.241  1.00  0.00    -0.014 A 
ATOM     52  C   UNL A   1      46.594  34.107  27.271  1.00  0.00     0.010 A 
ATOM     53  C   UNL A   1      46.829  33.434  29.592  1.00  0.00     0.010 A 
ATOM     54  C   UNL A   1      46.742  35.444  27.640  1.00  0.00     0.020 A 
ATOM     55  C   UNL A   1      46.950  34.775  29.968  1.00  0.00     0.020 A 
ATOM     56  C   UNL A   1      46.926  35.770  28.986  1.00  0.00     0.054 A 
BRANCH  56  57
ATOM     57  S   UNL A   1      47.110  37.517  29.435  1.00  0.00     0.124 S 
ATOM     58  O   UNL A   1      47.770  37.422  30.735  1.00  0.00    -0.237 OA
ATOM     59  O   UNL A   1      47.935  38.041  28.350  1.00  0.00    -0.237 OA
ATOM     60  O   UNL A   1      45.737  38.012  29.467  1.00  0.00    -0.744 OA
ENDBRANCH  56  57
ENDBRANCH  37  51
BRANCH  38  61
ATOM     61  C   UNL A   1      45.247  23.664  25.551  1.00  0.00    -0.014 A 
ATOM     62  C   UNL A   1      45.604  22.564  26.350  1.00  0.00     0.010 A 
ATOM     63  C   UNL A   1      44.735  23.437  24.260  1.00  0.00     0.010 A 
ATOM     64  C   UNL A   1      45.491  21.263  25.854  1.00  0.00     0.020 A 
ATOM     65  C   UNL A   1      44.600  22.134  23.768  1.00  0.00     0.020 A 
ATOM     66  C   UNL A   1      44.996  21.057  24.563  1.00  0.00     0.054 A 
BRANCH  66  67
ATOM     67  S   UNL A   1      44.855  19.356  23.944  1.00  0.00     0.124 S 
ATOM     68  O   UNL A   1      44.419  19.569  22.568  1.00  0.00    -0.237 OA
ATOM     69  O   UNL A   1      46.216  18.850  24.107  1.00  0.00    -0.237 OA
ATOM     70  O   UNL A   1      43.863  18.752  24.830  1.00  0.00    -0.744 OA
ENDBRANCH  66  67
ENDBRANCH  38  61
BRANCH  50  71
ATOM     71  C   UNL A   1      50.913  27.675  26.055  1.00  0.00    -0.014 A 
ATOM     72  C   UNL A   1      51.669  26.917  26.965  1.00  0.00     0.010 A 
ATOM     73  C   UNL A   1      51.535  28.159  24.888  1.00  0.00     0.010 A 
ATOM     74  C   UNL A   1      53.025  26.670  26.726  1.00  0.00     0.020 A 
ATOM     75  C   UNL A   1      52.883  27.893  24.632  1.00  0.00     0.020 A 
ATOM     76  C   UNL A   1      53.624  27.161  25.561  1.00  0.00     0.054 A 
BRANCH  76  77
ATOM     77  S   UNL A   1      55.371  26.789  25.248  1.00  0.00     0.124 S 
ATOM     78  O   UNL A   1      55.951  26.903  26.584  1.00  0.00    -0.237 OA
ATOM     79  O   UNL A   1      55.320  25.436  24.701  1.00  0.00    -0.237 OA
ATOM     80  O   UNL A   1      55.781  27.822  24.299  1.00  0.00    -0.744 OA
ENDBRANCH  76  77
ENDBRANCH  50  71
ENDBRANCH  24  25
ENDBRANCH  17  19
ENDBRANCH  16  17
ENDBRANCH  15  16
ENDBRANCH   1  15
TORSDOF 17
ENDMDL
MODEL 3
REMARK VINA RESULT:      -9.4      3.072     12.198
REMARK SMILES O=C(C[NH2+]C[C@@H]1CCCO1)OCCOC(=O)c1ccc(-c2c3nc(c(-c4ccc(S(=O)(=O)[O-])cc4)c4ccc([nH]4)c(-c4ccc(S(=O)(=O)[O-])cc4)c4nc(c(-c5ccc(S(=O)(=O)[O-])cc5)c5ccc2[nH]5)C=C4)C=C3)cc1
REMARK SMILES IDX 12 1 11 2 2 3 1 4 3 5 4 6 5 9 6 10 7 11 10 12 8 13 9 14
REMARK SMILES IDX 13 15 14 16 15 17 16 18 17 19 18 20 76 21 19 22 75 23 20 24
REMARK SMILES IDX 21 25 22 26 69 27 23 28 74 29 68 30 70 31 24 32 73 33 67 34
REMARK SMILES IDX 66 35 25 37 55 38 36 39 54 40 37 41 40 42 53 43 71 44 38 45
REMARK SMILES IDX 39 46 52 48 72 49 41 50 26 51 27 52 35 53 28 54 34 55 29 56
REMARK SMILES IDX 30 57 31 58 32 59 33 60 56 61 57 62 65 63 58 64 64 65 59 66
REMARK SMILES IDX 60 67 61 68 62 69 63 70 42 71 43 72 51 73 44 74 50 75 45 76
REMARK SMILES IDX 46 77 47 78 48 79 49 80
REMARK H PARENT 4 7 4 8 70 36 40 47
REMARK Flexibility Score: inf
ROOT
ATOM      1  C   UNL A   1      34.157  34.091  28.586  1.00  0.00     0.274 C 
ENDROOT
BRANCH   1   2
ATOM      2  O   UNL A   1      33.454  34.598  29.741  1.00  0.00    -0.458 OA
BRANCH   2   3
ATOM      3  C   UNL A   1      32.899  35.837  29.803  1.00  0.00     0.361 C 
ATOM      4  O   UNL A   1      32.425  36.362  28.797  1.00  0.00    -0.245 OA
BRANCH   3   5
ATOM      5  C   UNL A   1      32.931  36.563  31.143  1.00  0.00     0.384 C 
BRANCH   5   6
ATOM      6  N   UNL A   1      32.727  35.642  32.264  1.00  0.00    -0.335 N 
ATOM      7  H   UNL A   1      32.604  34.702  31.890  1.00  0.00     0.346 HD
ATOM      8  H   UNL A   1      31.906  35.973  32.772  1.00  0.00     0.346 HD
BRANCH   6   9
ATOM      9  C   UNL A   1      33.837  35.615  33.227  1.00  0.00     0.293 C 
BRANCH   9  10
ATOM     10  C   UNL A   1      34.821  34.426  33.220  1.00  0.00     0.173 C 
ATOM     11  C   UNL A   1      35.592  34.210  34.512  1.00  0.00     0.040 C 
ATOM     12  O   UNL A   1      35.829  34.653  32.215  1.00  0.00    -0.372 OA
ATOM     13  C   UNL A   1      37.033  34.013  34.101  1.00  0.00     0.031 C 
ATOM     14  C   UNL A   1      36.975  33.887  32.603  1.00  0.00     0.161 C 
ENDBRANCH   9  10
ENDBRANCH   6   9
ENDBRANCH   5   6
ENDBRANCH   3   5
ENDBRANCH   2   3
ENDBRANCH   1   2
BRANCH   1  15
ATOM     15  C   UNL A   1      33.500  32.825  28.022  1.00  0.00     0.275 C 
BRANCH  15  16
ATOM     16  O   UNL A   1      34.414  32.043  27.227  1.00  0.00    -0.458 OA
BRANCH  16  17
ATOM     17  C   UNL A   1      34.419  30.701  27.459  1.00  0.00     0.338 C 
ATOM     18  O   UNL A   1      33.587  29.903  27.086  1.00  0.00    -0.246 OA
BRANCH  17  19
ATOM     19  C   UNL A   1      35.699  30.315  28.114  1.00  0.00     0.060 A 
ATOM     20  C   UNL A   1      35.655  29.775  29.406  1.00  0.00     0.016 A 
ATOM     21  C   UNL A   1      36.929  30.445  27.465  1.00  0.00     0.016 A 
ATOM     22  C   UNL A   1      36.832  29.347  30.042  1.00  0.00     0.010 A 
ATOM     23  C   UNL A   1      38.100  30.001  28.098  1.00  0.00     0.010 A 
ATOM     24  C   UNL A   1      38.071  29.446  29.393  1.00  0.00    -0.014 A 
BRANCH  24  25
ATOM     25  C   UNL A   1      39.349  29.020  30.045  1.00  0.00     0.031 A 
ATOM     26  C   UNL A   1      39.921  29.843  31.174  1.00  0.00     0.074 A 
ATOM     27  C   UNL A   1      40.062  27.964  29.596  1.00  0.00     0.049 A 
ATOM     28  N   UNL A   1      41.048  29.684  31.822  1.00  0.00    -0.248 NA
ATOM     29  C   UNL A   1      39.120  30.990  31.633  1.00  0.00     0.031 C 
ATOM     30  C   UNL A   1      39.664  27.048  28.530  1.00  0.00     0.029 A 
ATOM     31  N   UNL A   1      41.316  27.517  29.952  1.00  0.00    -0.354 N 
ATOM     32  C   UNL A   1      41.073  30.683  32.786  1.00  0.00     0.074 A 
ATOM     33  C   UNL A   1      39.900  31.503  32.572  1.00  0.00     0.031 C 
ATOM     34  C   UNL A   1      40.686  26.223  28.244  1.00  0.00     0.029 A 
ATOM     35  C   UNL A   1      41.800  26.517  29.140  1.00  0.00     0.049 A 
ATOM     36  H   UNL A   1      41.819  27.880  30.717  1.00  0.00     0.167 HD
ATOM     37  C   UNL A   1      41.954  30.875  33.797  1.00  0.00     0.031 A 
ATOM     38  C   UNL A   1      42.998  25.898  29.111  1.00  0.00     0.031 A 
ATOM     39  C   UNL A   1      43.125  30.074  34.030  1.00  0.00     0.049 A 
ATOM     40  C   UNL A   1      44.022  26.198  30.173  1.00  0.00     0.074 A 
ATOM     41  C   UNL A   1      44.023  30.149  35.082  1.00  0.00     0.029 A 
ATOM     42  N   UNL A   1      43.572  29.065  33.194  1.00  0.00    -0.354 N 
ATOM     43  N   UNL A   1      43.961  27.061  31.156  1.00  0.00    -0.248 NA
ATOM     44  C   UNL A   1      45.253  25.391  30.156  1.00  0.00     0.031 C 
ATOM     45  C   UNL A   1      45.039  29.212  34.858  1.00  0.00     0.029 A 
ATOM     46  C   UNL A   1      44.747  28.525  33.692  1.00  0.00     0.049 A 
ATOM     47  H   UNL A   1      43.121  28.774  32.369  1.00  0.00     0.167 HD
ATOM     48  C   UNL A   1      45.108  26.850  31.915  1.00  0.00     0.074 A 
ATOM     49  C   UNL A   1      45.855  25.795  31.266  1.00  0.00     0.031 C 
ATOM     50  C   UNL A   1      45.488  27.462  33.063  1.00  0.00     0.031 A 
BRANCH  37  51
ATOM     51  C   UNL A   1      41.642  31.980  34.769  1.00  0.00    -0.014 A 
ATOM     52  C   UNL A   1      42.104  33.287  34.524  1.00  0.00     0.010 A 
ATOM     53  C   UNL A   1      40.864  31.728  35.912  1.00  0.00     0.010 A 
ATOM     54  C   UNL A   1      41.839  34.312  35.433  1.00  0.00     0.020 A 
ATOM     55  C   UNL A   1      40.574  32.758  36.810  1.00  0.00     0.020 A 
ATOM     56  C   UNL A   1      41.081  34.040  36.574  1.00  0.00     0.054 A 
BRANCH  56  57
ATOM     57  S   UNL A   1      40.749  35.393  37.735  1.00  0.00     0.124 S 
ATOM     58  O   UNL A   1      39.800  34.770  38.655  1.00  0.00    -0.237 OA
ATOM     59  O   UNL A   1      42.071  35.670  38.290  1.00  0.00    -0.237 OA
ATOM     60  O   UNL A   1      40.197  36.446  36.889  1.00  0.00    -0.744 OA
ENDBRANCH  56  57
ENDBRANCH  37  51
BRANCH  38  61
ATOM     61  C   UNL A   1      43.298  24.887  28.061  1.00  0.00    -0.014 A 
ATOM     62  C   UNL A   1      42.999  23.529  28.270  1.00  0.00     0.010 A 
ATOM     63  C   UNL A   1      43.935  25.274  26.867  1.00  0.00     0.010 A 
ATOM     64  C   UNL A   1      43.369  22.570  27.323  1.00  0.00     0.020 A 
ATOM     65  C   UNL A   1      44.288  24.319  25.909  1.00  0.00     0.020 A 
ATOM     66  C   UNL A   1      44.018  22.971  26.151  1.00  0.00     0.054 A 
BRANCH  66  67
ATOM     67  S   UNL A   1      44.484  21.705  24.936  1.00  0.00     0.124 S 
ATOM     68  O   UNL A   1      44.409  22.446  23.682  1.00  0.00    -0.237 OA
ATOM     69  O   UNL A   1      45.827  21.331  25.373  1.00  0.00    -0.237 OA
ATOM     70  O   UNL A   1      43.468  20.671  25.116  1.00  0.00    -0.744 OA
ENDBRANCH  66  67
ENDBRANCH  38  61
BRANCH  50  71
ATOM     71  C   UNL A   1      46.733  26.963  33.747  1.00  0.00    -0.014 A 
ATOM     72  C   UNL A   1      46.696  25.896  34.661  1.00  0.00     0.010 A 
ATOM     73  C   UNL A   1      47.974  27.548  33.431  1.00  0.00     0.010 A 
ATOM     74  C   UNL A   1      47.872  25.441  35.266  1.00  0.00     0.020 A 
ATOM     75  C   UNL A   1      49.155  27.080  34.014  1.00  0.00     0.020 A 
ATOM     76  C   UNL A   1      49.095  26.038  34.939  1.00  0.00     0.054 A 
BRANCH  76  77
ATOM     77  S   UNL A   1      50.613  25.401  35.700  1.00  0.00     0.124 S 
ATOM     78  O   UNL A   1      51.598  26.402  35.299  1.00  0.00    -0.237 OA
ATOM     79  O   UNL A   1      50.278  25.384  37.122  1.00  0.00    -0.237 OA
ATOM     80  O   UNL A   1      50.779  24.083  35.091  1.00  0.00    -0.744 OA
ENDBRANCH  76  77
ENDBRANCH  50  71
ENDBRANCH  24  25
ENDBRANCH  17  19
ENDBRANCH  16  17
ENDBRANCH  15  16
ENDBRANCH   1  15
TORSDOF 17
ENDMDL
