MODEL 1
REMARK VINA RESULT:     -11.0      0.000      0.000
REMARK SMILES O=C(OCCOC(=O)c1cc(-c2ccn(C(F)F)c(=O)c2)ccc1O)c1ccc(-c2c3nc(c(-c4ccc(S(=O)(=O)[O-])cc4)c4ccc([nH]4)c(-c4ccc(S(=O)(=O)[O-])cc4)c4nc(c(-c5ccc(S(=O)(=O)[O-])cc5)c5ccc2[nH]5)C=C4)C=C3)cc1
REMARK SMILES IDX 4 1 3 2 2 3 1 4 26 5 27 6 85 7 28 8 84 9 29 10 30 11 31 12
REMARK SMILES IDX 78 13 32 14 83 15 77 16 79 17 33 18 82 19 76 20 75 21 34 23
REMARK SMILES IDX 64 24 45 25 63 26 46 27 49 28 62 29 80 30 47 31 48 32 61 34
REMARK SMILES IDX 81 35 50 36 35 37 36 38 44 39 37 40 43 41 38 42 39 43 40 44
REMARK SMILES IDX 41 45 42 46 65 47 66 48 74 49 67 50 73 51 68 52 69 53 70 54
REMARK SMILES IDX 71 55 72 56 51 57 52 58 60 59 53 60 59 61 54 62 55 63 56 64
REMARK SMILES IDX 57 65 58 66 5 67 6 68 7 69 8 70 9 71 10 72 24 73 11 74 23 75
REMARK SMILES IDX 22 76 25 77 12 79 13 80 21 81 14 82 19 83 15 84 20 85 16 86
REMARK SMILES IDX 17 87 18 88
REMARK H PARENT 79 22 49 33 25 78
REMARK Flexibility Score: inf
ROOT
ATOM      1  C   UNL A   1      34.413  32.732  28.411  1.00  0.00     0.275 C 
ENDROOT
BRANCH   1   2
ATOM      2  O   UNL A   1      33.939  31.581  27.698  1.00  0.00    -0.458 OA
BRANCH   2   3
ATOM      3  C   UNL A   1      34.540  30.390  27.476  1.00  0.00     0.338 C 
ATOM      4  O   UNL A   1      33.918  29.540  26.838  1.00  0.00    -0.246 OA
BRANCH   3   5
ATOM      5  C   UNL A   1      35.860  29.988  28.070  1.00  0.00     0.060 A 
ATOM      6  C   UNL A   1      36.972  30.174  27.238  1.00  0.00     0.016 A 
ATOM      7  C   UNL A   1      36.094  29.440  29.333  1.00  0.00     0.016 A 
ATOM      8  C   UNL A   1      38.237  29.696  27.590  1.00  0.00     0.010 A 
ATOM      9  C   UNL A   1      37.370  28.989  29.709  1.00  0.00     0.010 A 
ATOM     10  C   UNL A   1      38.448  29.080  28.828  1.00  0.00    -0.014 A 
BRANCH  10  11
ATOM     11  C   UNL A   1      39.821  28.695  29.242  1.00  0.00     0.031 A 
ATOM     12  C   UNL A   1      40.697  29.594  30.068  1.00  0.00     0.074 A 
ATOM     13  C   UNL A   1      40.266  27.483  28.858  1.00  0.00     0.049 A 
ATOM     14  N   UNL A   1      41.787  29.290  30.725  1.00  0.00    -0.248 NA
ATOM     15  C   UNL A   1      40.304  31.005  30.204  1.00  0.00     0.031 C 
ATOM     16  C   UNL A   1      39.509  26.540  28.031  1.00  0.00     0.029 A 
ATOM     17  N   UNL A   1      41.442  26.830  29.118  1.00  0.00    -0.354 N 
ATOM     18  C   UNL A   1      42.161  30.439  31.411  1.00  0.00     0.074 A 
ATOM     19  C   UNL A   1      41.215  31.470  31.052  1.00  0.00     0.031 C 
ATOM     20  C   UNL A   1      40.222  25.416  27.882  1.00  0.00     0.029 A 
ATOM     21  C   UNL A   1      41.503  25.575  28.559  1.00  0.00     0.049 A 
ATOM     22  H   UNL A   1      42.171  27.221  29.651  1.00  0.00     0.167 HD
ATOM     23  C   UNL A   1      43.205  30.610  32.257  1.00  0.00     0.031 A 
ATOM     24  C   UNL A   1      42.481  24.650  28.585  1.00  0.00     0.031 A 
ATOM     25  C   UNL A   1      44.239  29.625  32.449  1.00  0.00     0.049 A 
ATOM     26  C   UNL A   1      43.712  24.934  29.393  1.00  0.00     0.074 A 
ATOM     27  C   UNL A   1      45.368  29.713  33.246  1.00  0.00     0.029 A 
ATOM     28  N   UNL A   1      44.310  28.406  31.789  1.00  0.00    -0.354 N 
ATOM     29  N   UNL A   1      43.971  25.972  30.154  1.00  0.00    -0.248 NA
ATOM     30  C   UNL A   1      44.773  23.922  29.366  1.00  0.00     0.031 C 
ATOM     31  C   UNL A   1      46.177  28.609  32.972  1.00  0.00     0.029 A 
ATOM     32  C   UNL A   1      45.501  27.772  32.098  1.00  0.00     0.049 A 
ATOM     33  H   UNL A   1      43.618  28.047  31.189  1.00  0.00     0.167 HD
ATOM     34  C   UNL A   1      45.213  25.723  30.723  1.00  0.00     0.074 A 
ATOM     35  C   UNL A   1      45.644  24.431  30.227  1.00  0.00     0.031 C 
ATOM     36  C   UNL A   1      45.925  26.492  31.583  1.00  0.00     0.031 A 
BRANCH  23  37
ATOM     37  C   UNL A   1      43.325  31.900  33.031  1.00  0.00    -0.014 A 
ATOM     38  C   UNL A   1      42.656  32.053  34.260  1.00  0.00     0.010 A 
ATOM     39  C   UNL A   1      43.927  33.027  32.440  1.00  0.00     0.010 A 
ATOM     40  C   UNL A   1      42.535  33.314  34.854  1.00  0.00     0.020 A 
ATOM     41  C   UNL A   1      43.826  34.287  33.041  1.00  0.00     0.020 A 
ATOM     42  C   UNL A   1      43.105  34.427  34.230  1.00  0.00     0.054 A 
BRANCH  42  43
ATOM     43  S   UNL A   1      42.847  36.067  34.966  1.00  0.00     0.124 S 
ATOM     44  O   UNL A   1      43.271  36.958  33.891  1.00  0.00    -0.237 OA
ATOM     45  O   UNL A   1      41.416  36.058  35.255  1.00  0.00    -0.237 OA
ATOM     46  O   UNL A   1      43.712  36.053  36.144  1.00  0.00    -0.744 OA
ENDBRANCH  42  43
ENDBRANCH  23  37
BRANCH  24  47
ATOM     47  C   UNL A   1      42.279  23.368  27.855  1.00  0.00    -0.014 A 
ATOM     48  C   UNL A   1      41.638  22.284  28.488  1.00  0.00     0.010 A 
ATOM     49  C   UNL A   1      42.824  23.182  26.573  1.00  0.00     0.010 A 
ATOM     50  C   UNL A   1      41.606  21.025  27.884  1.00  0.00     0.020 A 
ATOM     51  C   UNL A   1      42.760  21.932  25.949  1.00  0.00     0.020 A 
ATOM     52  C   UNL A   1      42.179  20.855  26.623  1.00  0.00     0.054 A 
BRANCH  52  53
ATOM     53  S   UNL A   1      42.168  19.199  25.882  1.00  0.00     0.124 S 
ATOM     54  O   UNL A   1      40.755  19.026  25.558  1.00  0.00    -0.237 OA
ATOM     55  O   UNL A   1      43.062  19.359  24.738  1.00  0.00    -0.237 OA
ATOM     56  O   UNL A   1      42.677  18.343  26.951  1.00  0.00    -0.744 OA
ENDBRANCH  52  53
ENDBRANCH  24  47
BRANCH  36  57
ATOM     57  C   UNL A   1      47.255  25.968  32.058  1.00  0.00    -0.014 A 
ATOM     58  C   UNL A   1      48.361  25.991  31.186  1.00  0.00     0.010 A 
ATOM     59  C   UNL A   1      47.389  25.356  33.317  1.00  0.00     0.010 A 
ATOM     60  C   UNL A   1      49.563  25.383  31.547  1.00  0.00     0.020 A 
ATOM     61  C   UNL A   1      48.605  24.782  33.698  1.00  0.00     0.020 A 
ATOM     62  C   UNL A   1      49.676  24.777  32.799  1.00  0.00     0.054 A 
BRANCH  62  63
ATOM     63  S   UNL A   1      51.242  23.983  33.246  1.00  0.00     0.124 S 
ATOM     64  O   UNL A   1      51.484  23.114  32.098  1.00  0.00    -0.237 OA
ATOM     65  O   UNL A   1      52.152  25.119  33.379  1.00  0.00    -0.237 OA
ATOM     66  O   UNL A   1      50.933  23.294  34.497  1.00  0.00    -0.744 OA
ENDBRANCH  62  63
ENDBRANCH  36  57
ENDBRANCH  10  11
ENDBRANCH   3   5
ENDBRANCH   2   3
ENDBRANCH   1   2
BRANCH   1  67
ATOM     67  C   UNL A   1      33.807  34.063  27.959  1.00  0.00     0.275 C 
BRANCH  67  68
ATOM     68  O   UNL A   1      34.245  35.184  28.737  1.00  0.00    -0.458 OA
BRANCH  68  69
ATOM     69  C   UNL A   1      33.313  35.753  29.549  1.00  0.00     0.342 C 
ATOM     70  O   UNL A   1      32.192  36.113  29.225  1.00  0.00    -0.246 OA
BRANCH  69  71
ATOM     71  C   UNL A   1      33.788  35.745  30.951  1.00  0.00     0.102 A 
ATOM     72  C   UNL A   1      34.591  34.670  31.378  1.00  0.00     0.028 A 
ATOM     73  C   UNL A   1      33.451  36.762  31.848  1.00  0.00     0.130 A 
ATOM     74  C   UNL A   1      35.119  34.655  32.679  1.00  0.00    -0.017 A 
ATOM     75  C   UNL A   1      33.960  36.742  33.147  1.00  0.00     0.048 A 
ATOM     76  C   UNL A   1      34.808  35.708  33.549  1.00  0.00     0.012 A 
BRANCH  73  77
ATOM     77  O   UNL A   1      32.610  37.772  31.474  1.00  0.00    -0.507 OA
ATOM     78  H   UNL A   1      32.854  38.352  30.780  1.00  0.00     0.293 HD
ENDBRANCH  73  77
BRANCH  74  79
ATOM     79  C   UNL A   1      35.959  33.550  33.186  1.00  0.00    -0.011 A 
ATOM     80  C   UNL A   1      36.981  33.779  34.190  1.00  0.00     0.027 A 
ATOM     81  C   UNL A   1      35.851  32.318  32.658  1.00  0.00     0.080 A 
ATOM     82  C   UNL A   1      37.805  32.796  34.568  1.00  0.00     0.095 A 
ATOM     83  C   UNL A   1      36.742  31.203  33.084  1.00  0.00     0.255 A 
ATOM     84  N   UNL A   1      37.696  31.527  34.032  1.00  0.00    -0.258 N 
ATOM     85  O   UNL A   1      36.584  30.097  32.580  1.00  0.00    -0.269 OA
BRANCH  84  86
ATOM     86  C   UNL A   1      38.595  30.478  34.435  1.00  0.00     0.451 C 
ATOM     87  F   UNL A   1      39.238  29.942  33.369  1.00  0.00    -0.185 F 
ATOM     88  F   UNL A   1      39.529  30.935  35.304  1.00  0.00    -0.185 F 
ENDBRANCH  84  86
ENDBRANCH  74  79
ENDBRANCH  69  71
ENDBRANCH  68  69
ENDBRANCH  67  68
ENDBRANCH   1  67
TORSDOF 17
ENDMDL
MODEL 2
REMARK VINA RESULT:     -10.8      3.327     11.640
REMARK SMILES O=C(OCCOC(=O)c1cc(-c2ccn(C(F)F)c(=O)c2)ccc1O)c1ccc(-c2c3nc(c(-c4ccc(S(=O)(=O)[O-])cc4)c4ccc([nH]4)c(-c4ccc(S(=O)(=O)[O-])cc4)c4nc(c(-c5ccc(S(=O)(=O)[O-])cc5)c5ccc2[nH]5)C=C4)C=C3)cc1
REMARK SMILES IDX 4 1 3 2 2 3 1 4 26 5 27 6 85 7 28 8 84 9 29 10 30 11 31 12
REMARK SMILES IDX 78 13 32 14 83 15 77 16 79 17 33 18 82 19 76 20 75 21 34 23
REMARK SMILES IDX 64 24 45 25 63 26 46 27 49 28 62 29 80 30 47 31 48 32 61 34
REMARK SMILES IDX 81 35 50 36 35 37 36 38 44 39 37 40 43 41 38 42 39 43 40 44
REMARK SMILES IDX 41 45 42 46 65 47 66 48 74 49 67 50 73 51 68 52 69 53 70 54
REMARK SMILES IDX 71 55 72 56 51 57 52 58 60 59 53 60 59 61 54 62 55 63 56 64
REMARK SMILES IDX 57 65 58 66 5 67 6 68 7 69 8 70 9 71 10 72 24 73 11 74 23 75
REMARK SMILES IDX 22 76 25 77 12 79 13 80 21 81 14 82 19 83 15 84 20 85 16 86
REMARK SMILES IDX 17 87 18 88
REMARK H PARENT 79 22 49 33 25 78
REMARK Flexibility Score: inf
ROOT
ATOM      1  C   UNL A   1      40.581  21.192  26.904  1.00  0.00     0.275 C 
ENDROOT
BRANCH   1   2
ATOM      2  O   UNL A   1      39.525  21.716  26.086  1.00  0.00    -0.458 OA
BRANCH   2   3
ATOM      3  C   UNL A   1      38.854  22.886  26.182  1.00  0.00     0.338 C 
ATOM      4  O   UNL A   1      37.747  22.961  25.647  1.00  0.00    -0.246 OA
BRANCH   3   5
ATOM      5  C   UNL A   1      39.424  24.139  26.782  1.00  0.00     0.060 A 
ATOM      6  C   UNL A   1      39.108  24.356  28.129  1.00  0.00     0.016 A 
ATOM      7  C   UNL A   1      40.209  25.106  26.148  1.00  0.00     0.016 A 
ATOM      8  C   UNL A   1      39.429  25.555  28.772  1.00  0.00     0.010 A 
ATOM      9  C   UNL A   1      40.567  26.298  26.799  1.00  0.00     0.010 A 
ATOM     10  C   UNL A   1      40.151  26.551  28.106  1.00  0.00    -0.014 A 
BRANCH  10  11
ATOM     11  C   UNL A   1      40.598  27.761  28.840  1.00  0.00     0.031 A 
ATOM     12  C   UNL A   1      41.974  27.885  29.432  1.00  0.00     0.074 A 
ATOM     13  C   UNL A   1      39.719  28.776  28.953  1.00  0.00     0.049 A 
ATOM     14  N   UNL A   1      42.587  28.962  29.851  1.00  0.00    -0.248 NA
ATOM     15  C   UNL A   1      42.783  26.663  29.556  1.00  0.00     0.031 C 
ATOM     16  C   UNL A   1      38.347  28.753  28.440  1.00  0.00     0.029 A 
ATOM     17  N   UNL A   1      39.844  30.019  29.516  1.00  0.00    -0.354 N 
ATOM     18  C   UNL A   1      43.870  28.566  30.207  1.00  0.00     0.074 A 
ATOM     19  C   UNL A   1      43.939  27.136  30.010  1.00  0.00     0.031 C 
ATOM     20  C   UNL A   1      37.770  29.937  28.676  1.00  0.00     0.029 A 
ATOM     21  C   UNL A   1      38.708  30.786  29.400  1.00  0.00     0.049 A 
ATOM     22  H   UNL A   1      40.665  30.332  29.959  1.00  0.00     0.167 HD
ATOM     23  C   UNL A   1      44.890  29.332  30.662  1.00  0.00     0.031 A 
ATOM     24  C   UNL A   1      38.447  32.035  29.827  1.00  0.00     0.031 A 
ATOM     25  C   UNL A   1      44.738  30.717  31.028  1.00  0.00     0.049 A 
ATOM     26  C   UNL A   1      39.547  32.810  30.488  1.00  0.00     0.074 A 
ATOM     27  C   UNL A   1      45.694  31.576  31.545  1.00  0.00     0.029 A 
ATOM     28  N   UNL A   1      43.546  31.426  30.984  1.00  0.00    -0.354 N 
ATOM     29  N   UNL A   1      40.798  32.457  30.676  1.00  0.00    -0.248 NA
ATOM     30  C   UNL A   1      39.214  34.152  30.976  1.00  0.00     0.031 C 
ATOM     31  C   UNL A   1      45.053  32.755  31.928  1.00  0.00     0.029 A 
ATOM     32  C   UNL A   1      43.724  32.682  31.540  1.00  0.00     0.049 A 
ATOM     33  H   UNL A   1      42.700  31.088  30.614  1.00  0.00     0.167 HD
ATOM     34  C   UNL A   1      41.411  33.549  31.278  1.00  0.00     0.074 A 
ATOM     35  C   UNL A   1      40.395  34.575  31.408  1.00  0.00     0.031 C 
ATOM     36  C   UNL A   1      42.699  33.689  31.678  1.00  0.00     0.031 A 
BRANCH  23  37
ATOM     37  C   UNL A   1      46.260  28.719  30.824  1.00  0.00    -0.014 A 
ATOM     38  C   UNL A   1      46.967  28.259  29.698  1.00  0.00     0.010 A 
ATOM     39  C   UNL A   1      46.750  28.412  32.108  1.00  0.00     0.010 A 
ATOM     40  C   UNL A   1      48.102  27.455  29.849  1.00  0.00     0.020 A 
ATOM     41  C   UNL A   1      47.897  27.624  32.263  1.00  0.00     0.020 A 
ATOM     42  C   UNL A   1      48.549  27.127  31.132  1.00  0.00     0.054 A 
BRANCH  42  43
ATOM     43  S   UNL A   1      49.962  25.999  31.302  1.00  0.00     0.124 S 
ATOM     44  O   UNL A   1      50.374  25.807  29.915  1.00  0.00    -0.237 OA
ATOM     45  O   UNL A   1      50.880  26.771  32.135  1.00  0.00    -0.237 OA
ATOM     46  O   UNL A   1      49.385  24.823  31.951  1.00  0.00    -0.744 OA
ENDBRANCH  42  43
ENDBRANCH  23  37
BRANCH  24  47
ATOM     47  C   UNL A   1      37.096  32.612  29.580  1.00  0.00    -0.014 A 
ATOM     48  C   UNL A   1      36.777  33.161  28.321  1.00  0.00     0.010 A 
ATOM     49  C   UNL A   1      36.165  32.723  30.626  1.00  0.00     0.010 A 
ATOM     50  C   UNL A   1      35.586  33.866  28.133  1.00  0.00     0.020 A 
ATOM     51  C   UNL A   1      34.954  33.395  30.431  1.00  0.00     0.020 A 
ATOM     52  C   UNL A   1      34.688  33.989  29.195  1.00  0.00     0.054 A 
BRANCH  52  53
ATOM     53  S   UNL A   1      33.172  34.952  28.939  1.00  0.00     0.124 S 
ATOM     54  O   UNL A   1      32.491  34.171  27.910  1.00  0.00    -0.237 OA
ATOM     55  O   UNL A   1      32.553  34.924  30.262  1.00  0.00    -0.237 OA
ATOM     56  O   UNL A   1      33.664  36.259  28.512  1.00  0.00    -0.744 OA
ENDBRANCH  52  53
ENDBRANCH  24  47
BRANCH  36  57
ATOM     57  C   UNL A   1      43.105  35.000  32.298  1.00  0.00    -0.014 A 
ATOM     58  C   UNL A   1      42.762  35.268  33.638  1.00  0.00     0.010 A 
ATOM     59  C   UNL A   1      43.721  36.007  31.535  1.00  0.00     0.010 A 
ATOM     60  C   UNL A   1      42.997  36.527  34.193  1.00  0.00     0.020 A 
ATOM     61  C   UNL A   1      43.995  37.255  32.100  1.00  0.00     0.020 A 
ATOM     62  C   UNL A   1      43.607  37.514  33.418  1.00  0.00     0.054 A 
BRANCH  62  63
ATOM     63  S   UNL A   1      43.894  39.145  34.152  1.00  0.00     0.124 S 
ATOM     64  O   UNL A   1      45.089  39.595  33.444  1.00  0.00    -0.237 OA
ATOM     65  O   UNL A   1      42.663  39.864  33.829  1.00  0.00    -0.237 OA
ATOM     66  O   UNL A   1      44.081  38.855  35.572  1.00  0.00    -0.744 OA
ENDBRANCH  62  63
ENDBRANCH  36  57
ENDBRANCH  10  11
ENDBRANCH   3   5
ENDBRANCH   2   3
ENDBRANCH   1   2
BRANCH   1  67
ATOM     67  C   UNL A   1      41.971  21.235  26.264  1.00  0.00     0.275 C 
BRANCH  67  68
ATOM     68  O   UNL A   1      42.645  22.487  26.445  1.00  0.00    -0.458 OA
BRANCH  68  69
ATOM     69  C   UNL A   1      43.361  22.943  25.382  1.00  0.00     0.342 C 
ATOM     70  O   UNL A   1      43.092  22.778  24.202  1.00  0.00    -0.246 OA
BRANCH  69  71
ATOM     71  C   UNL A   1      44.462  23.816  25.848  1.00  0.00     0.102 A 
ATOM     72  C   UNL A   1      44.253  25.209  25.850  1.00  0.00     0.028 A 
ATOM     73  C   UNL A   1      45.688  23.295  26.269  1.00  0.00     0.130 A 
ATOM     74  C   UNL A   1      45.244  26.072  26.345  1.00  0.00    -0.017 A 
ATOM     75  C   UNL A   1      46.681  24.150  26.746  1.00  0.00     0.048 A 
ATOM     76  C   UNL A   1      46.449  25.526  26.807  1.00  0.00     0.012 A 
BRANCH  73  77
ATOM     77  O   UNL A   1      45.936  21.953  26.201  1.00  0.00    -0.507 OA
ATOM     78  H   UNL A   1      45.251  21.362  25.956  1.00  0.00     0.293 HD
ENDBRANCH  73  77
BRANCH  74  79
ATOM     79  C   UNL A   1      45.087  27.541  26.363  1.00  0.00    -0.011 A 
ATOM     80  C   UNL A   1      46.239  28.423  26.364  1.00  0.00     0.027 A 
ATOM     81  C   UNL A   1      43.864  28.091  26.469  1.00  0.00     0.080 A 
ATOM     82  C   UNL A   1      46.089  29.747  26.484  1.00  0.00     0.095 A 
ATOM     83  C   UNL A   1      43.676  29.564  26.578  1.00  0.00     0.255 A 
ATOM     84  N   UNL A   1      44.835  30.318  26.590  1.00  0.00    -0.258 N 
ATOM     85  O   UNL A   1      42.535  30.009  26.653  1.00  0.00    -0.269 OA
BRANCH  84  86
ATOM     86  C   UNL A   1      44.685  31.742  26.732  1.00  0.00     0.451 C 
ATOM     87  F   UNL A   1      43.897  32.254  25.755  1.00  0.00    -0.185 F 
ATOM     88  F   UNL A   1      44.138  32.064  27.928  1.00  0.00    -0.185 F 
ENDBRANCH  84  86
ENDBRANCH  74  79
ENDBRANCH  69  71
ENDBRANCH  68  69
ENDBRANCH  67  68
ENDBRANCH   1  67
TORSDOF 17
ENDMDL
MODEL 3
REMARK VINA RESULT:     -10.8      1.529      2.239
REMARK SMILES O=C(OCCOC(=O)c1cc(-c2ccn(C(F)F)c(=O)c2)ccc1O)c1ccc(-c2c3nc(c(-c4ccc(S(=O)(=O)[O-])cc4)c4ccc([nH]4)c(-c4ccc(S(=O)(=O)[O-])cc4)c4nc(c(-c5ccc(S(=O)(=O)[O-])cc5)c5ccc2[nH]5)C=C4)C=C3)cc1
REMARK SMILES IDX 4 1 3 2 2 3 1 4 26 5 27 6 85 7 28 8 84 9 29 10 30 11 31 12
REMARK SMILES IDX 78 13 32 14 83 15 77 16 79 17 33 18 82 19 76 20 75 21 34 23
REMARK SMILES IDX 64 24 45 25 63 26 46 27 49 28 62 29 80 30 47 31 48 32 61 34
REMARK SMILES IDX 81 35 50 36 35 37 36 38 44 39 37 40 43 41 38 42 39 43 40 44
REMARK SMILES IDX 41 45 42 46 65 47 66 48 74 49 67 50 73 51 68 52 69 53 70 54
REMARK SMILES IDX 71 55 72 56 51 57 52 58 60 59 53 60 59 61 54 62 55 63 56 64
REMARK SMILES IDX 57 65 58 66 5 67 6 68 7 69 8 70 9 71 10 72 24 73 11 74 23 75
REMARK SMILES IDX 22 76 25 77 12 79 13 80 21 81 14 82 19 83 15 84 20 85 16 86
REMARK SMILES IDX 17 87 18 88
REMARK H PARENT 79 22 49 33 25 78
REMARK Flexibility Score: inf
ROOT
ATOM      1  C   UNL A   1      33.666  32.925  28.235  1.00  0.00     0.275 C 
ENDROOT
BRANCH   1   2
ATOM      2  O   UNL A   1      33.847  31.537  28.549  1.00  0.00    -0.458 OA
BRANCH   2   3
ATOM      3  C   UNL A   1      34.454  30.559  27.838  1.00  0.00     0.338 C 
ATOM      4  O   UNL A   1      33.764  29.896  27.063  1.00  0.00    -0.246 OA
BRANCH   3   5
ATOM      5  C   UNL A   1      35.884  30.142  28.028  1.00  0.00     0.060 A 
ATOM      6  C   UNL A   1      36.223  29.738  29.326  1.00  0.00     0.016 A 
ATOM      7  C   UNL A   1      36.902  30.130  27.072  1.00  0.00     0.016 A 
ATOM      8  C   UNL A   1      37.548  29.482  29.690  1.00  0.00     0.010 A 
ATOM      9  C   UNL A   1      38.231  29.838  27.422  1.00  0.00     0.010 A 
ATOM     10  C   UNL A   1      38.574  29.545  28.741  1.00  0.00    -0.014 A 
BRANCH  10  11
ATOM     11  C   UNL A   1      39.953  29.143  29.112  1.00  0.00     0.031 A 
ATOM     12  C   UNL A   1      40.888  30.056  29.857  1.00  0.00     0.074 A 
ATOM     13  C   UNL A   1      40.351  27.904  28.767  1.00  0.00     0.049 A 
ATOM     14  N   UNL A   1      41.998  29.753  30.479  1.00  0.00    -0.248 NA
ATOM     15  C   UNL A   1      40.536  31.481  29.944  1.00  0.00     0.031 C 
ATOM     16  C   UNL A   1      39.536  26.944  28.018  1.00  0.00     0.029 A 
ATOM     17  N   UNL A   1      41.521  27.232  29.006  1.00  0.00    -0.354 N 
ATOM     18  C   UNL A   1      42.431  30.921  31.094  1.00  0.00     0.074 A 
ATOM     19  C   UNL A   1      41.495  31.960  30.729  1.00  0.00     0.031 C 
ATOM     20  C   UNL A   1      40.213  25.796  27.892  1.00  0.00     0.029 A 
ATOM     21  C   UNL A   1      41.527  25.952  28.504  1.00  0.00     0.049 A 
ATOM     22  H   UNL A   1      42.283  27.627  29.488  1.00  0.00     0.167 HD
ATOM     23  C   UNL A   1      43.514  31.103  31.886  1.00  0.00     0.031 A 
ATOM     24  C   UNL A   1      42.482  25.003  28.531  1.00  0.00     0.031 A 
ATOM     25  C   UNL A   1      44.531  30.100  32.079  1.00  0.00     0.049 A 
ATOM     26  C   UNL A   1      43.753  25.291  29.271  1.00  0.00     0.074 A 
ATOM     27  C   UNL A   1      45.696  30.195  32.821  1.00  0.00     0.029 A 
ATOM     28  N   UNL A   1      44.543  28.852  31.473  1.00  0.00    -0.354 N 
ATOM     29  N   UNL A   1      44.071  26.356  29.971  1.00  0.00    -0.248 NA
ATOM     30  C   UNL A   1      44.787  24.251  29.245  1.00  0.00     0.031 C 
ATOM     31  C   UNL A   1      46.466  29.059  32.564  1.00  0.00     0.029 A 
ATOM     32  C   UNL A   1      45.731  28.201  31.760  1.00  0.00     0.049 A 
ATOM     33  H   UNL A   1      43.816  28.484  30.922  1.00  0.00     0.167 HD
ATOM     34  C   UNL A   1      45.331  26.099  30.497  1.00  0.00     0.074 A 
ATOM     35  C   UNL A   1      45.708  24.775  30.043  1.00  0.00     0.031 C 
ATOM     36  C   UNL A   1      46.100  26.887  31.288  1.00  0.00     0.031 A 
BRANCH  23  37
ATOM     37  C   UNL A   1      43.700  32.423  32.593  1.00  0.00    -0.014 A 
ATOM     38  C   UNL A   1      43.087  32.652  33.838  1.00  0.00     0.010 A 
ATOM     39  C   UNL A   1      44.309  33.504  31.926  1.00  0.00     0.010 A 
ATOM     40  C   UNL A   1      43.024  33.942  34.377  1.00  0.00     0.020 A 
ATOM     41  C   UNL A   1      44.266  34.793  32.470  1.00  0.00     0.020 A 
ATOM     42  C   UNL A   1      43.598  35.008  33.678  1.00  0.00     0.054 A 
BRANCH  42  43
ATOM     43  S   UNL A   1      43.415  36.687  34.346  1.00  0.00     0.124 S 
ATOM     44  O   UNL A   1      44.535  36.774  35.277  1.00  0.00    -0.237 OA
ATOM     45  O   UNL A   1      43.521  37.513  33.146  1.00  0.00    -0.237 OA
ATOM     46  O   UNL A   1      42.090  36.667  34.962  1.00  0.00    -0.744 OA
ENDBRANCH  42  43
ENDBRANCH  23  37
BRANCH  24  47
ATOM     47  C   UNL A   1      42.216  23.695  27.871  1.00  0.00    -0.014 A 
ATOM     48  C   UNL A   1      41.676  22.623  28.611  1.00  0.00     0.010 A 
ATOM     49  C   UNL A   1      42.605  23.475  26.539  1.00  0.00     0.010 A 
ATOM     50  C   UNL A   1      41.593  21.345  28.055  1.00  0.00     0.020 A 
ATOM     51  C   UNL A   1      42.488  22.204  25.967  1.00  0.00     0.020 A 
ATOM     52  C   UNL A   1      42.013  21.141  26.739  1.00  0.00     0.054 A 
BRANCH  52  53
ATOM     53  S   UNL A   1      41.942  19.462  26.057  1.00  0.00     0.124 S 
ATOM     54  O   UNL A   1      42.835  19.569  24.906  1.00  0.00    -0.237 OA
ATOM     55  O   UNL A   1      42.438  18.650  27.165  1.00  0.00    -0.237 OA
ATOM     56  O   UNL A   1      40.528  19.281  25.739  1.00  0.00    -0.744 OA
ENDBRANCH  52  53
ENDBRANCH  24  47
BRANCH  36  57
ATOM     57  C   UNL A   1      47.437  26.351  31.729  1.00  0.00    -0.014 A 
ATOM     58  C   UNL A   1      48.564  26.536  30.905  1.00  0.00     0.010 A 
ATOM     59  C   UNL A   1      47.560  25.572  32.893  1.00  0.00     0.010 A 
ATOM     60  C   UNL A   1      49.780  25.927  31.218  1.00  0.00     0.020 A 
ATOM     61  C   UNL A   1      48.787  24.995  33.230  1.00  0.00     0.020 A 
ATOM     62  C   UNL A   1      49.882  25.156  32.376  1.00  0.00     0.054 A 
BRANCH  62  63
ATOM     63  S   UNL A   1      51.466  24.364  32.759  1.00  0.00     0.124 S 
ATOM     64  O   UNL A   1      51.195  22.965  32.441  1.00  0.00    -0.237 OA
ATOM     65  O   UNL A   1      52.392  25.047  31.859  1.00  0.00    -0.237 OA
ATOM     66  O   UNL A   1      51.661  24.655  34.178  1.00  0.00    -0.744 OA
ENDBRANCH  62  63
ENDBRANCH  36  57
ENDBRANCH  10  11
ENDBRANCH   3   5
ENDBRANCH   2   3
ENDBRANCH   1   2
BRANCH   1  67
ATOM     67  C   UNL A   1      34.255  33.898  29.258  1.00  0.00     0.275 C 
BRANCH  67  68
ATOM     68  O   UNL A   1      35.346  33.348  30.009  1.00  0.00    -0.458 OA
BRANCH  68  69
ATOM     69  C   UNL A   1      35.083  33.025  31.303  1.00  0.00     0.342 C 
ATOM     70  O   UNL A   1      34.029  32.592  31.742  1.00  0.00    -0.246 OA
BRANCH  69  71
ATOM     71  C   UNL A   1      36.317  33.127  32.113  1.00  0.00     0.102 A 
ATOM     72  C   UNL A   1      37.051  31.952  32.363  1.00  0.00     0.028 A 
ATOM     73  C   UNL A   1      36.756  34.346  32.637  1.00  0.00     0.130 A 
ATOM     74  C   UNL A   1      38.263  32.011  33.070  1.00  0.00    -0.017 A 
ATOM     75  C   UNL A   1      37.951  34.407  33.354  1.00  0.00     0.048 A 
ATOM     76  C   UNL A   1      38.710  33.251  33.546  1.00  0.00     0.012 A 
BRANCH  73  77
ATOM     77  O   UNL A   1      36.016  35.483  32.471  1.00  0.00    -0.507 OA
ATOM     78  H   UNL A   1      36.281  36.280  32.887  1.00  0.00     0.293 HD
ENDBRANCH  73  77
BRANCH  74  79
ATOM     79  C   UNL A   1      39.071  30.811  33.371  1.00  0.00    -0.011 A 
ATOM     80  C   UNL A   1      40.205  30.872  34.274  1.00  0.00     0.027 A 
ATOM     81  C   UNL A   1      38.822  29.650  32.739  1.00  0.00     0.080 A 
ATOM     82  C   UNL A   1      40.992  29.806  34.461  1.00  0.00     0.095 A 
ATOM     83  C   UNL A   1      39.672  28.445  32.953  1.00  0.00     0.255 A 
ATOM     84  N   UNL A   1      40.739  28.610  33.817  1.00  0.00    -0.258 N 
ATOM     85  O   UNL A   1      39.384  27.409  32.364  1.00  0.00    -0.269 OA
BRANCH  84  86
ATOM     86  C   UNL A   1      41.599  27.473  34.014  1.00  0.00     0.451 C 
ATOM     87  F   UNL A   1      42.667  27.512  33.180  1.00  0.00    -0.185 F 
ATOM     88  F   UNL A   1      42.060  27.417  35.287  1.00  0.00    -0.185 F 
ENDBRANCH  84  86
ENDBRANCH  74  79
ENDBRANCH  69  71
ENDBRANCH  68  69
ENDBRANCH  67  68
ENDBRANCH   1  67
TORSDOF 17
ENDMDL
