MODEL 1
REMARK VINA RESULT:     -10.0      0.000      0.000
REMARK SMILES CC(=O)c1ccc(C(F)(F)C(=O)OCCOC(=O)c2ccc(-c3c4nc(c(-c5ccc(S(=O)(=O)[O-])cc5)c5ccc([nH]5)c(-c5ccc(S(=O)(=O)[O-])cc5)c5nc(c(-c6ccc(S(=O)(=O)[O-])cc6)c6ccc3[nH]6)C=C5)C=C4)cc2)n1C
REMARK SMILES IDX 15 1 14 2 13 3 11 4 12 5 8 6 9 7 10 8 7 9 4 10 5 11 79 12
REMARK SMILES IDX 6 13 80 14 2 15 1 16 3 17 16 18 17 19 18 20 19 21 20 22
REMARK SMILES IDX 78 23 21 24 77 25 22 26 23 27 24 28 71 29 25 30 76 31 70 32
REMARK SMILES IDX 72 33 26 34 75 35 69 36 68 37 27 39 57 40 38 41 56 42 39 43
REMARK SMILES IDX 42 44 55 45 73 46 40 47 41 48 54 50 74 51 43 52 28 53 29 54
REMARK SMILES IDX 37 55 30 56 36 57 31 58 32 59 33 60 34 61 35 62 58 63 59 64
REMARK SMILES IDX 67 65 60 66 66 67 61 68 62 69 63 70 64 71 65 72 44 73 45 74
REMARK SMILES IDX 53 75 46 76 52 77 47 78 48 79 49 80 50 81 51 82
REMARK H PARENT 72 38 42 49
REMARK Flexibility Score: inf
ROOT
ATOM      1  C   UNL A   1      32.361  29.455  27.093  1.00  0.00     0.275 C 
ENDROOT
BRANCH   1   2
ATOM      2  C   UNL A   1      32.118  29.120  25.620  1.00  0.00     0.274 C 
BRANCH   2   3
ATOM      3  O   UNL A   1      32.076  27.694  25.475  1.00  0.00    -0.457 OA
BRANCH   3   4
ATOM      4  C   UNL A   1      32.599  27.193  24.321  1.00  0.00     0.383 C 
ATOM      5  O   UNL A   1      33.798  27.227  24.054  1.00  0.00    -0.244 OA
BRANCH   4   6
ATOM      6  C   UNL A   1      31.516  26.486  23.490  1.00  0.00     0.382 C 
ATOM      7  F   UNL A   1      31.176  25.286  24.058  1.00  0.00    -0.186 F 
ATOM      8  F   UNL A   1      32.020  26.150  22.259  1.00  0.00    -0.186 F 
BRANCH   6   9
ATOM      9  C   UNL A   1      30.243  27.296  23.289  1.00  0.00     0.100 A 
ATOM     10  C   UNL A   1      28.747  28.900  22.675  1.00  0.00     0.084 A 
ATOM     11  C   UNL A   1      28.070  27.927  23.393  1.00  0.00     0.032 A 
ATOM     12  N   UNL A   1      30.087  28.537  22.686  1.00  0.00    -0.340 N 
ATOM     13  C   UNL A   1      28.989  26.929  23.757  1.00  0.00     0.031 A 
ATOM     14  C   UNL A   1      31.133  29.415  22.210  1.00  0.00     0.150 C 
BRANCH  10  15
ATOM     15  C   UNL A   1      28.120  30.087  22.098  1.00  0.00     0.176 C 
ATOM     16  C   UNL A   1      27.696  31.227  22.995  1.00  0.00     0.095 C 
ATOM     17  O   UNL A   1      28.023  30.221  20.879  1.00  0.00    -0.293 OA
ENDBRANCH  10  15
ENDBRANCH   6   9
ENDBRANCH   4   6
ENDBRANCH   3   4
ENDBRANCH   2   3
ENDBRANCH   1   2
BRANCH   1  18
ATOM     18  O   UNL A   1      33.740  29.230  27.466  1.00  0.00    -0.458 OA
BRANCH  18  19
ATOM     19  C   UNL A   1      34.451  30.348  27.777  1.00  0.00     0.338 C 
ATOM     20  O   UNL A   1      34.030  31.494  27.787  1.00  0.00    -0.246 OA
BRANCH  19  21
ATOM     21  C   UNL A   1      35.820  29.980  28.212  1.00  0.00     0.060 A 
ATOM     22  C   UNL A   1      36.866  30.105  27.294  1.00  0.00     0.016 A 
ATOM     23  C   UNL A   1      36.084  29.492  29.497  1.00  0.00     0.016 A 
ATOM     24  C   UNL A   1      38.180  29.803  27.676  1.00  0.00     0.010 A 
ATOM     25  C   UNL A   1      37.398  29.151  29.866  1.00  0.00     0.010 A 
ATOM     26  C   UNL A   1      38.461  29.319  28.966  1.00  0.00    -0.014 A 
BRANCH  26  27
ATOM     27  C   UNL A   1      39.852  28.888  29.297  1.00  0.00     0.031 A 
ATOM     28  C   UNL A   1      40.684  29.770  30.169  1.00  0.00     0.074 A 
ATOM     29  C   UNL A   1      40.372  27.720  28.870  1.00  0.00     0.049 A 
ATOM     30  N   UNL A   1      41.893  29.570  30.620  1.00  0.00    -0.248 NA
ATOM     31  C   UNL A   1      40.096  31.065  30.534  1.00  0.00     0.031 C 
ATOM     32  C   UNL A   1      39.711  26.829  27.942  1.00  0.00     0.029 A 
ATOM     33  N   UNL A   1      41.542  27.060  29.163  1.00  0.00    -0.354 N 
ATOM     34  C   UNL A   1      42.230  30.731  31.294  1.00  0.00     0.074 A 
ATOM     35  C   UNL A   1      41.093  31.623  31.202  1.00  0.00     0.031 C 
ATOM     36  C   UNL A   1      40.378  25.671  27.856  1.00  0.00     0.029 A 
ATOM     37  C   UNL A   1      41.619  25.799  28.604  1.00  0.00     0.049 A 
ATOM     38  H   UNL A   1      42.256  27.449  29.718  1.00  0.00     0.167 HD
ATOM     39  C   UNL A   1      43.403  31.040  31.896  1.00  0.00     0.031 A 
ATOM     40  C   UNL A   1      42.596  24.868  28.632  1.00  0.00     0.031 A 
ATOM     41  C   UNL A   1      44.554  30.179  31.907  1.00  0.00     0.049 A 
ATOM     42  C   UNL A   1      43.883  25.226  29.314  1.00  0.00     0.074 A 
ATOM     43  C   UNL A   1      45.799  30.414  32.462  1.00  0.00     0.029 A 
ATOM     44  N   UNL A   1      44.613  28.925  31.310  1.00  0.00    -0.354 N 
ATOM     45  N   UNL A   1      44.184  26.331  29.956  1.00  0.00    -0.248 NA
ATOM     46  C   UNL A   1      44.979  24.253  29.233  1.00  0.00     0.031 C 
ATOM     47  C   UNL A   1      46.626  29.328  32.154  1.00  0.00     0.029 A 
ATOM     48  C   UNL A   1      45.880  28.385  31.464  1.00  0.00     0.049 A 
ATOM     49  H   UNL A   1      43.865  28.485  30.845  1.00  0.00     0.167 HD
ATOM     50  C   UNL A   1      45.511  26.196  30.339  1.00  0.00     0.074 A 
ATOM     51  C   UNL A   1      45.943  24.887  29.890  1.00  0.00     0.031 C 
ATOM     52  C   UNL A   1      46.299  27.086  30.989  1.00  0.00     0.031 A 
BRANCH  39  53
ATOM     53  C   UNL A   1      43.496  32.421  32.480  1.00  0.00    -0.014 A 
ATOM     54  C   UNL A   1      43.122  32.680  33.812  1.00  0.00     0.010 A 
ATOM     55  C   UNL A   1      43.877  33.492  31.651  1.00  0.00     0.010 A 
ATOM     56  C   UNL A   1      43.050  33.995  34.278  1.00  0.00     0.020 A 
ATOM     57  C   UNL A   1      43.837  34.804  32.125  1.00  0.00     0.020 A 
ATOM     58  C   UNL A   1      43.392  35.049  33.425  1.00  0.00     0.054 A 
BRANCH  58  59
ATOM     59  S   UNL A   1      43.236  36.750  34.033  1.00  0.00     0.124 S 
ATOM     60  O   UNL A   1      44.286  36.803  35.047  1.00  0.00    -0.237 OA
ATOM     61  O   UNL A   1      43.481  37.544  32.833  1.00  0.00    -0.237 OA
ATOM     62  O   UNL A   1      41.870  36.809  34.548  1.00  0.00    -0.744 OA
ENDBRANCH  58  59
ENDBRANCH  39  53
BRANCH  40  63
ATOM     63  C   UNL A   1      42.422  23.568  27.913  1.00  0.00    -0.014 A 
ATOM     64  C   UNL A   1      43.034  23.334  26.668  1.00  0.00     0.010 A 
ATOM     65  C   UNL A   1      41.687  22.524  28.507  1.00  0.00     0.010 A 
ATOM     66  C   UNL A   1      42.944  22.076  26.054  1.00  0.00     0.020 A 
ATOM     67  C   UNL A   1      41.625  21.258  27.917  1.00  0.00     0.020 A 
ATOM     68  C   UNL A   1      42.256  21.039  26.692  1.00  0.00     0.054 A 
BRANCH  68  69
ATOM     69  S   UNL A   1      42.264  19.380  25.955  1.00  0.00     0.124 S 
ATOM     70  O   UNL A   1      42.818  18.567  27.033  1.00  0.00    -0.237 OA
ATOM     71  O   UNL A   1      40.852  19.155  25.654  1.00  0.00    -0.237 OA
ATOM     72  O   UNL A   1      43.122  19.532  24.781  1.00  0.00    -0.744 OA
ENDBRANCH  68  69
ENDBRANCH  40  63
BRANCH  52  73
ATOM     73  C   UNL A   1      47.713  26.662  31.273  1.00  0.00    -0.014 A 
ATOM     74  C   UNL A   1      48.767  27.009  30.409  1.00  0.00     0.010 A 
ATOM     75  C   UNL A   1      47.992  25.946  32.450  1.00  0.00     0.010 A 
ATOM     76  C   UNL A   1      50.076  26.625  30.708  1.00  0.00     0.020 A 
ATOM     77  C   UNL A   1      49.303  25.583  32.764  1.00  0.00     0.020 A 
ATOM     78  C   UNL A   1      50.336  25.914  31.885  1.00  0.00     0.054 A 
BRANCH  78  79
ATOM     79  S   UNL A   1      52.048  25.466  32.277  1.00  0.00     0.124 S 
ATOM     80  O   UNL A   1      52.710  25.639  30.988  1.00  0.00    -0.237 OA
ATOM     81  O   UNL A   1      52.407  26.439  33.305  1.00  0.00    -0.237 OA
ATOM     82  O   UNL A   1      51.946  24.085  32.745  1.00  0.00    -0.744 OA
ENDBRANCH  78  79
ENDBRANCH  52  73
ENDBRANCH  26  27
ENDBRANCH  19  21
ENDBRANCH  18  19
ENDBRANCH   1  18
TORSDOF 16
ENDMDL
MODEL 2
REMARK VINA RESULT:     -10.0      3.380      4.520
REMARK SMILES CC(=O)c1ccc(C(F)(F)C(=O)OCCOC(=O)c2ccc(-c3c4nc(c(-c5ccc(S(=O)(=O)[O-])cc5)c5ccc([nH]5)c(-c5ccc(S(=O)(=O)[O-])cc5)c5nc(c(-c6ccc(S(=O)(=O)[O-])cc6)c6ccc3[nH]6)C=C5)C=C4)cc2)n1C
REMARK SMILES IDX 15 1 14 2 13 3 11 4 12 5 8 6 9 7 10 8 7 9 4 10 5 11 79 12
REMARK SMILES IDX 6 13 80 14 2 15 1 16 3 17 16 18 17 19 18 20 19 21 20 22
REMARK SMILES IDX 78 23 21 24 77 25 22 26 23 27 24 28 71 29 25 30 76 31 70 32
REMARK SMILES IDX 72 33 26 34 75 35 69 36 68 37 27 39 57 40 38 41 56 42 39 43
REMARK SMILES IDX 42 44 55 45 73 46 40 47 41 48 54 50 74 51 43 52 28 53 29 54
REMARK SMILES IDX 37 55 30 56 36 57 31 58 32 59 33 60 34 61 35 62 58 63 59 64
REMARK SMILES IDX 67 65 60 66 66 67 61 68 62 69 63 70 64 71 65 72 44 73 45 74
REMARK SMILES IDX 53 75 46 76 52 77 47 78 48 79 49 80 50 81 51 82
REMARK H PARENT 72 38 42 49
REMARK Flexibility Score: inf
ROOT
ATOM      1  C   UNL A   1      34.236  30.468  27.826  1.00  0.00     0.275 C 
ENDROOT
BRANCH   1   2
ATOM      2  C   UNL A   1      33.160  29.607  27.162  1.00  0.00     0.274 C 
BRANCH   2   3
ATOM      3  O   UNL A   1      33.368  29.627  25.743  1.00  0.00    -0.457 OA
BRANCH   3   4
ATOM      4  C   UNL A   1      32.305  29.256  24.976  1.00  0.00     0.383 C 
ATOM      5  O   UNL A   1      31.239  29.869  24.959  1.00  0.00    -0.244 OA
BRANCH   4   6
ATOM      6  C   UNL A   1      32.670  28.071  24.068  1.00  0.00     0.382 C 
ATOM      7  F   UNL A   1      33.864  28.297  23.434  1.00  0.00    -0.186 F 
ATOM      8  F   UNL A   1      31.757  27.967  23.049  1.00  0.00    -0.186 F 
BRANCH   6   9
ATOM      9  C   UNL A   1      32.756  26.729  24.782  1.00  0.00     0.100 A 
ATOM     10  C   UNL A   1      32.239  24.763  25.808  1.00  0.00     0.084 A 
ATOM     11  C   UNL A   1      33.619  24.895  25.793  1.00  0.00     0.032 A 
ATOM     12  N   UNL A   1      31.725  25.928  25.256  1.00  0.00    -0.340 N 
ATOM     13  C   UNL A   1      33.939  26.099  25.144  1.00  0.00     0.031 A 
ATOM     14  C   UNL A   1      30.315  26.246  25.288  1.00  0.00     0.150 C 
BRANCH  10  15
ATOM     15  C   UNL A   1      31.526  23.619  26.372  1.00  0.00     0.176 C 
ATOM     16  C   UNL A   1      31.283  22.390  25.526  1.00  0.00     0.095 C 
ATOM     17  O   UNL A   1      31.207  23.597  27.561  1.00  0.00    -0.293 OA
ENDBRANCH  10  15
ENDBRANCH   6   9
ENDBRANCH   4   6
ENDBRANCH   3   4
ENDBRANCH   2   3
ENDBRANCH   1   2
BRANCH   1  18
ATOM     18  O   UNL A   1      35.431  29.702  28.104  1.00  0.00    -0.458 OA
BRANCH  18  19
ATOM     19  C   UNL A   1      36.176  30.141  29.154  1.00  0.00     0.338 C 
ATOM     20  O   UNL A   1      35.755  30.682  30.165  1.00  0.00    -0.246 OA
BRANCH  19  21
ATOM     21  C   UNL A   1      37.601  29.782  28.957  1.00  0.00     0.060 A 
ATOM     22  C   UNL A   1      38.108  29.757  27.655  1.00  0.00     0.016 A 
ATOM     23  C   UNL A   1      38.436  29.446  30.029  1.00  0.00     0.016 A 
ATOM     24  C   UNL A   1      39.458  29.458  27.429  1.00  0.00     0.010 A 
ATOM     25  C   UNL A   1      39.781  29.107  29.796  1.00  0.00     0.010 A 
ATOM     26  C   UNL A   1      40.311  29.127  28.497  1.00  0.00    -0.014 A 
BRANCH  26  27
ATOM     27  C   UNL A   1      41.708  28.691  28.206  1.00  0.00     0.031 A 
ATOM     28  C   UNL A   1      42.818  29.669  28.412  1.00  0.00     0.074 A 
ATOM     29  C   UNL A   1      42.011  27.441  27.801  1.00  0.00     0.049 A 
ATOM     30  N   UNL A   1      44.104  29.490  28.270  1.00  0.00    -0.248 NA
ATOM     31  C   UNL A   1      42.421  31.036  28.773  1.00  0.00     0.031 C 
ATOM     32  C   UNL A   1      41.027  26.435  27.468  1.00  0.00     0.029 A 
ATOM     33  N   UNL A   1      43.206  26.785  27.622  1.00  0.00    -0.354 N 
ATOM     34  C   UNL A   1      44.674  30.734  28.488  1.00  0.00     0.074 A 
ATOM     35  C   UNL A   1      43.593  31.652  28.783  1.00  0.00     0.031 C 
ATOM     36  C   UNL A   1      41.619  25.249  27.286  1.00  0.00     0.029 A 
ATOM     37  C   UNL A   1      43.061  25.443  27.327  1.00  0.00     0.049 A 
ATOM     38  H   UNL A   1      44.082  27.229  27.697  1.00  0.00     0.167 HD
ATOM     39  C   UNL A   1      45.978  31.084  28.402  1.00  0.00     0.031 A 
ATOM     40  C   UNL A   1      43.971  24.483  27.058  1.00  0.00     0.031 A 
ATOM     41  C   UNL A   1      47.032  30.181  28.024  1.00  0.00     0.049 A 
ATOM     42  C   UNL A   1      45.413  24.891  26.979  1.00  0.00     0.074 A 
ATOM     43  C   UNL A   1      48.381  30.448  27.877  1.00  0.00     0.029 A 
ATOM     44  N   UNL A   1      46.851  28.841  27.703  1.00  0.00    -0.354 N 
ATOM     45  N   UNL A   1      45.937  26.074  27.196  1.00  0.00    -0.248 NA
ATOM     46  C   UNL A   1      46.378  23.865  26.568  1.00  0.00     0.031 C 
ATOM     47  C   UNL A   1      49.007  29.285  27.416  1.00  0.00     0.029 A 
ATOM     48  C   UNL A   1      48.061  28.273  27.338  1.00  0.00     0.049 A 
ATOM     49  H   UNL A   1      45.991  28.365  27.731  1.00  0.00     0.167 HD
ATOM     50  C   UNL A   1      47.291  25.943  26.928  1.00  0.00     0.074 A 
ATOM     51  C   UNL A   1      47.513  24.555  26.570  1.00  0.00     0.031 C 
ATOM     52  C   UNL A   1      48.258  26.892  26.962  1.00  0.00     0.031 A 
BRANCH  39  53
ATOM     53  C   UNL A   1      46.282  32.540  28.617  1.00  0.00    -0.014 A 
ATOM     54  C   UNL A   1      46.288  33.453  27.546  1.00  0.00     0.010 A 
ATOM     55  C   UNL A   1      46.658  32.979  29.899  1.00  0.00     0.010 A 
ATOM     56  C   UNL A   1      46.743  34.760  27.739  1.00  0.00     0.020 A 
ATOM     57  C   UNL A   1      47.083  34.294  30.101  1.00  0.00     0.020 A 
ATOM     58  C   UNL A   1      47.153  35.166  29.013  1.00  0.00     0.054 A 
BRANCH  58  59
ATOM     59  S   UNL A   1      47.794  36.847  29.229  1.00  0.00     0.124 S 
ATOM     60  O   UNL A   1      47.540  37.435  27.916  1.00  0.00    -0.237 OA
ATOM     61  O   UNL A   1      46.973  37.367  30.319  1.00  0.00    -0.237 OA
ATOM     62  O   UNL A   1      49.203  36.641  29.557  1.00  0.00    -0.744 OA
ENDBRANCH  58  59
ENDBRANCH  39  53
BRANCH  40  63
ATOM     63  C   UNL A   1      43.529  23.088  26.750  1.00  0.00    -0.014 A 
ATOM     64  C   UNL A   1      43.931  22.438  25.569  1.00  0.00     0.010 A 
ATOM     65  C   UNL A   1      42.748  22.372  27.678  1.00  0.00     0.010 A 
ATOM     66  C   UNL A   1      43.592  21.097  25.341  1.00  0.00     0.020 A 
ATOM     67  C   UNL A   1      42.439  21.024  27.473  1.00  0.00     0.020 A 
ATOM     68  C   UNL A   1      42.865  20.391  26.305  1.00  0.00     0.054 A 
BRANCH  68  69
ATOM     69  S   UNL A   1      42.551  18.619  26.063  1.00  0.00     0.124 S 
ATOM     70  O   UNL A   1      41.122  18.597  25.767  1.00  0.00    -0.237 OA
ATOM     71  O   UNL A   1      43.433  18.286  24.948  1.00  0.00    -0.237 OA
ATOM     72  O   UNL A   1      42.935  18.027  27.343  1.00  0.00    -0.744 OA
ENDBRANCH  68  69
ENDBRANCH  40  63
BRANCH  52  73
ATOM     73  C   UNL A   1      49.654  26.454  26.618  1.00  0.00    -0.014 A 
ATOM     74  C   UNL A   1      50.146  26.547  25.305  1.00  0.00     0.010 A 
ATOM     75  C   UNL A   1      50.499  25.988  27.641  1.00  0.00     0.010 A 
ATOM     76  C   UNL A   1      51.456  26.157  25.015  1.00  0.00     0.020 A 
ATOM     77  C   UNL A   1      51.816  25.622  27.360  1.00  0.00     0.020 A 
ATOM     78  C   UNL A   1      52.283  25.697  26.046  1.00  0.00     0.054 A 
BRANCH  78  79
ATOM     79  S   UNL A   1      53.994  25.240  25.657  1.00  0.00     0.124 S 
ATOM     80  O   UNL A   1      53.809  24.093  24.774  1.00  0.00    -0.237 OA
ATOM     81  O   UNL A   1      54.512  26.449  25.020  1.00  0.00    -0.237 OA
ATOM     82  O   UNL A   1      54.576  24.935  26.962  1.00  0.00    -0.744 OA
ENDBRANCH  78  79
ENDBRANCH  52  73
ENDBRANCH  26  27
ENDBRANCH  19  21
ENDBRANCH  18  19
ENDBRANCH   1  18
TORSDOF 16
ENDMDL
MODEL 3
REMARK VINA RESULT:      -9.9      2.305      2.918
REMARK SMILES CC(=O)c1ccc(C(F)(F)C(=O)OCCOC(=O)c2ccc(-c3c4nc(c(-c5ccc(S(=O)(=O)[O-])cc5)c5ccc([nH]5)c(-c5ccc(S(=O)(=O)[O-])cc5)c5nc(c(-c6ccc(S(=O)(=O)[O-])cc6)c6ccc3[nH]6)C=C5)C=C4)cc2)n1C
REMARK SMILES IDX 15 1 14 2 13 3 11 4 12 5 8 6 9 7 10 8 7 9 4 10 5 11 79 12
REMARK SMILES IDX 6 13 80 14 2 15 1 16 3 17 16 18 17 19 18 20 19 21 20 22
REMARK SMILES IDX 78 23 21 24 77 25 22 26 23 27 24 28 71 29 25 30 76 31 70 32
REMARK SMILES IDX 72 33 26 34 75 35 69 36 68 37 27 39 57 40 38 41 56 42 39 43
REMARK SMILES IDX 42 44 55 45 73 46 40 47 41 48 54 50 74 51 43 52 28 53 29 54
REMARK SMILES IDX 37 55 30 56 36 57 31 58 32 59 33 60 34 61 35 62 58 63 59 64
REMARK SMILES IDX 67 65 60 66 66 67 61 68 62 69 63 70 64 71 65 72 44 73 45 74
REMARK SMILES IDX 53 75 46 76 52 77 47 78 48 79 49 80 50 81 51 82
REMARK H PARENT 72 38 42 49
REMARK Flexibility Score: inf
ROOT
ATOM      1  C   UNL A   1      32.128  29.853  26.744  1.00  0.00     0.275 C 
ENDROOT
BRANCH   1   2
ATOM      2  C   UNL A   1      32.037  28.454  27.356  1.00  0.00     0.274 C 
BRANCH   2   3
ATOM      3  O   UNL A   1      31.417  27.577  26.405  1.00  0.00    -0.457 OA
BRANCH   3   4
ATOM      4  C   UNL A   1      32.243  27.020  25.476  1.00  0.00     0.383 C 
ATOM      5  O   UNL A   1      33.469  27.037  25.566  1.00  0.00    -0.244 OA
BRANCH   4   6
ATOM      6  C   UNL A   1      31.436  26.277  24.399  1.00  0.00     0.382 C 
ATOM      7  F   UNL A   1      31.071  25.032  24.840  1.00  0.00    -0.186 F 
ATOM      8  F   UNL A   1      32.230  26.032  23.308  1.00  0.00    -0.186 F 
BRANCH   6   9
ATOM      9  C   UNL A   1      30.182  27.004  23.934  1.00  0.00     0.100 A 
ATOM     10  C   UNL A   1      28.741  28.538  23.063  1.00  0.00     0.084 A 
ATOM     11  C   UNL A   1      28.001  27.462  23.527  1.00  0.00     0.032 A 
ATOM     12  N   UNL A   1      30.065  28.276  23.389  1.00  0.00    -0.340 N 
ATOM     13  C   UNL A   1      28.890  26.508  24.048  1.00  0.00     0.031 A 
ATOM     14  C   UNL A   1      31.110  29.265  23.247  1.00  0.00     0.150 C 
BRANCH  10  15
ATOM     15  C   UNL A   1      28.168  29.719  22.421  1.00  0.00     0.176 C 
ATOM     16  C   UNL A   1      27.629  30.850  23.266  1.00  0.00     0.095 C 
ATOM     17  O   UNL A   1      28.209  29.856  21.199  1.00  0.00    -0.293 OA
ENDBRANCH  10  15
ENDBRANCH   6   9
ENDBRANCH   4   6
ENDBRANCH   3   4
ENDBRANCH   2   3
ENDBRANCH   1   2
BRANCH   1  18
ATOM     18  O   UNL A   1      33.502  30.269  26.575  1.00  0.00    -0.458 OA
BRANCH  18  19
ATOM     19  C   UNL A   1      33.923  31.255  27.413  1.00  0.00     0.338 C 
ATOM     20  O   UNL A   1      33.297  32.257  27.722  1.00  0.00    -0.246 OA
BRANCH  19  21
ATOM     21  C   UNL A   1      35.238  30.903  28.000  1.00  0.00     0.060 A 
ATOM     22  C   UNL A   1      35.428  29.604  28.477  1.00  0.00     0.016 A 
ATOM     23  C   UNL A   1      36.275  31.837  28.109  1.00  0.00     0.016 A 
ATOM     24  C   UNL A   1      36.668  29.221  29.006  1.00  0.00     0.010 A 
ATOM     25  C   UNL A   1      37.506  31.463  28.677  1.00  0.00     0.010 A 
ATOM     26  C   UNL A   1      37.721  30.147  29.115  1.00  0.00    -0.014 A 
BRANCH  26  27
ATOM     27  C   UNL A   1      38.984  29.738  29.798  1.00  0.00     0.031 A 
ATOM     28  C   UNL A   1      39.316  30.359  31.115  1.00  0.00     0.074 A 
ATOM     29  C   UNL A   1      39.816  28.806  29.292  1.00  0.00     0.049 A 
ATOM     30  N   UNL A   1      40.329  30.117  31.902  1.00  0.00    -0.248 NA
ATOM     31  C   UNL A   1      38.418  31.425  31.576  1.00  0.00     0.031 C 
ATOM     32  C   UNL A   1      39.664  28.206  27.984  1.00  0.00     0.029 A 
ATOM     33  N   UNL A   1      40.928  28.176  29.800  1.00  0.00    -0.354 N 
ATOM     34  C   UNL A   1      40.215  31.028  32.939  1.00  0.00     0.074 A 
ATOM     35  C   UNL A   1      39.027  31.816  32.684  1.00  0.00     0.031 C 
ATOM     36  C   UNL A   1      40.520  27.188  27.838  1.00  0.00     0.029 A 
ATOM     37  C   UNL A   1      41.408  27.165  28.990  1.00  0.00     0.049 A 
ATOM     38  H   UNL A   1      41.342  28.422  30.659  1.00  0.00     0.167 HD
ATOM     39  C   UNL A   1      41.053  31.218  33.984  1.00  0.00     0.031 A 
ATOM     40  C   UNL A   1      42.475  26.348  29.119  1.00  0.00     0.031 A 
ATOM     41  C   UNL A   1      42.275  30.485  34.180  1.00  0.00     0.049 A 
ATOM     42  C   UNL A   1      43.385  26.568  30.291  1.00  0.00     0.074 A 
ATOM     43  C   UNL A   1      43.209  30.625  35.190  1.00  0.00     0.029 A 
ATOM     44  N   UNL A   1      42.749  29.491  33.331  1.00  0.00    -0.354 N 
ATOM     45  N   UNL A   1      43.258  27.432  31.270  1.00  0.00    -0.248 NA
ATOM     46  C   UNL A   1      44.605  25.754  30.355  1.00  0.00     0.031 C 
ATOM     47  C   UNL A   1      44.273  29.756  34.924  1.00  0.00     0.029 A 
ATOM     48  C   UNL A   1      43.974  29.025  33.784  1.00  0.00     0.049 A 
ATOM     49  H   UNL A   1      42.284  29.166  32.528  1.00  0.00     0.167 HD
ATOM     50  C   UNL A   1      44.390  27.283  32.057  1.00  0.00     0.074 A 
ATOM     51  C   UNL A   1      45.174  26.218  31.461  1.00  0.00     0.031 C 
ATOM     52  C   UNL A   1      44.751  27.978  33.163  1.00  0.00     0.031 A 
BRANCH  39  53
ATOM     53  C   UNL A   1      40.702  32.347  34.911  1.00  0.00    -0.014 A 
ATOM     54  C   UNL A   1      41.250  33.632  34.741  1.00  0.00     0.010 A 
ATOM     55  C   UNL A   1      39.882  32.090  36.024  1.00  0.00     0.010 A 
ATOM     56  C   UNL A   1      41.049  34.616  35.712  1.00  0.00     0.020 A 
ATOM     57  C   UNL A   1      39.652  33.081  36.979  1.00  0.00     0.020 A 
ATOM     58  C   UNL A   1      40.264  34.328  36.833  1.00  0.00     0.054 A 
BRANCH  58  59
ATOM     59  S   UNL A   1      40.064  35.600  38.109  1.00  0.00     0.124 S 
ATOM     60  O   UNL A   1      41.372  35.580  38.759  1.00  0.00    -0.237 OA
ATOM     61  O   UNL A   1      39.771  36.797  37.325  1.00  0.00    -0.237 OA
ATOM     62  O   UNL A   1      38.956  35.104  38.922  1.00  0.00    -0.744 OA
ENDBRANCH  58  59
ENDBRANCH  39  53
BRANCH  40  63
ATOM     63  C   UNL A   1      42.780  25.332  28.065  1.00  0.00    -0.014 A 
ATOM     64  C   UNL A   1      43.617  25.638  26.976  1.00  0.00     0.010 A 
ATOM     65  C   UNL A   1      42.281  24.020  28.181  1.00  0.00     0.010 A 
ATOM     66  C   UNL A   1      43.974  24.647  26.050  1.00  0.00     0.020 A 
ATOM     67  C   UNL A   1      42.664  23.021  27.282  1.00  0.00     0.020 A 
ATOM     68  C   UNL A   1      43.512  23.339  26.220  1.00  0.00     0.054 A 
BRANCH  68  69
ATOM     69  S   UNL A   1      44.092  22.036  25.096  1.00  0.00     0.124 S 
ATOM     70  O   UNL A   1      45.450  21.800  25.574  1.00  0.00    -0.237 OA
ATOM     71  O   UNL A   1      43.139  20.956  25.336  1.00  0.00    -0.237 OA
ATOM     72  O   UNL A   1      43.993  22.656  23.775  1.00  0.00    -0.744 OA
ENDBRANCH  68  69
ENDBRANCH  40  63
BRANCH  52  73
ATOM     73  C   UNL A   1      46.050  27.593  33.815  1.00  0.00    -0.014 A 
ATOM     74  C   UNL A   1      47.256  28.228  33.472  1.00  0.00     0.010 A 
ATOM     75  C   UNL A   1      46.048  26.611  34.821  1.00  0.00     0.010 A 
ATOM     76  C   UNL A   1      48.446  27.870  34.111  1.00  0.00     0.020 A 
ATOM     77  C   UNL A   1      47.230  26.268  35.479  1.00  0.00     0.020 A 
ATOM     78  C   UNL A   1      48.425  26.891  35.111  1.00  0.00     0.054 A 
BRANCH  78  79
ATOM     79  S   UNL A   1      49.971  26.474  35.959  1.00  0.00     0.124 S 
ATOM     80  O   UNL A   1      49.692  26.901  37.327  1.00  0.00    -0.237 OA
ATOM     81  O   UNL A   1      50.069  25.031  35.758  1.00  0.00    -0.237 OA
ATOM     82  O   UNL A   1      50.978  27.264  35.253  1.00  0.00    -0.744 OA
ENDBRANCH  78  79
ENDBRANCH  52  73
ENDBRANCH  26  27
ENDBRANCH  19  21
ENDBRANCH  18  19
ENDBRANCH   1  18
TORSDOF 16
ENDMDL
