MODEL 1
REMARK VINA RESULT:     -11.4      0.000      0.000
REMARK SMILES Cc1ccc(C[C@@H](Cc2cc(F)cc(Br)c2)C(=O)OCCOC(=O)c2ccc(-c3c4nc(c(-c5ccc(S(=O)(=O)[O-])cc5)c5ccc([nH]5)c(-c5ccc(S(=O)(=O)[O-])cc5)c5nc(c(-c6ccc(S(=O)(=O)[O-])cc6)c6ccc3[nH]6)C=C5)C=C4)cc2)cc1
REMARK SMILES IDX 21 1 20 2 19 3 17 4 18 5 7 6 6 7 5 8 1 9 2 10 3 11 86 12
REMARK SMILES IDX 4 13 85 14 8 15 9 16 10 17 16 18 11 19 14 20 12 21 13 22
REMARK SMILES IDX 15 23 22 24 23 25 24 26 25 27 26 28 84 29 27 30 83 31 28 32
REMARK SMILES IDX 29 33 30 34 77 35 31 36 82 37 76 38 78 39 32 40 81 41 75 42
REMARK SMILES IDX 74 43 33 45 63 46 44 47 62 48 45 49 48 50 61 51 79 52 46 53
REMARK SMILES IDX 47 54 60 56 80 57 49 58 34 59 35 60 43 61 36 62 42 63 37 64
REMARK SMILES IDX 38 65 39 66 40 67 41 68 64 69 65 70 73 71 66 72 72 73 67 74
REMARK SMILES IDX 68 75 69 76 70 77 71 78 50 79 51 80 59 81 52 82 58 83 53 84
REMARK SMILES IDX 54 85 55 86 56 87 57 88
REMARK H PARENT 78 44 48 55
REMARK Flexibility Score: inf
ROOT
ATOM      1  C   UNL A   1      46.261  28.046  26.139  1.00  0.00     0.275 C 
ENDROOT
BRANCH   1   2
ATOM      2  C   UNL A   1      45.083  28.808  26.753  1.00  0.00     0.274 C 
BRANCH   2   3
ATOM      3  O   UNL A   1      44.600  28.015  27.820  1.00  0.00    -0.462 OA
BRANCH   3   4
ATOM      4  C   UNL A   1      43.198  28.218  28.186  1.00  0.00     0.309 C 
ATOM      5  O   UNL A   1      43.223  29.291  28.857  1.00  0.00    -0.252 OA
BRANCH   4   6
ATOM      6  C   UNL A   1      41.616  26.794  27.716  1.00  0.00     0.108 C 
BRANCH   6   7
ATOM      7  C   UNL A   1      41.248  25.143  28.309  1.00  0.00     0.051 C 
BRANCH   7   8
ATOM      8  C   UNL A   1      41.860  23.887  27.645  1.00  0.00    -0.047 A 
ATOM      9  C   UNL A   1      42.972  20.125  25.739  1.00  0.00     0.044 C 
ATOM     10  C   UNL A   1      42.602  21.418  26.408  1.00  0.00    -0.051 A 
ATOM     11  C   UNL A   1      42.690  22.622  25.708  1.00  0.00     0.004 A 
ATOM     12  C   UNL A   1      42.163  21.455  27.733  1.00  0.00     0.004 A 
ATOM     13  C   UNL A   1      42.308  23.833  26.311  1.00  0.00     0.004 A 
ATOM     14  C   UNL A   1      41.810  22.670  28.343  1.00  0.00     0.004 A 
ENDBRANCH   7   8
ENDBRANCH   6   7
BRANCH   6  15
ATOM     15  C   UNL A   1      39.832  27.144  27.659  1.00  0.00     0.051 C 
BRANCH  15  16
ATOM     16  C   UNL A   1      39.199  28.200  28.549  1.00  0.00    -0.043 A 
ATOM     17  C   UNL A   1      39.147  27.616  30.257  1.00  0.00     0.043 A 
ATOM     18  C   UNL A   1      37.974  29.525  28.000  1.00  0.00     0.019 A 
ATOM     19  C   UNL A   1      37.975  28.305  31.382  1.00  0.00     0.124 A 
ATOM     20  C   UNL A   1      36.866  30.265  29.193  1.00  0.00     0.021 A 
ATOM     21  F   UNL A   1      38.136  27.962  32.664  1.00  0.00    -0.207 F 
ATOM     22  C   UNL A   1      36.889  29.662  30.881  1.00  0.00     0.055 A 
ATOM     23  Br  UNL A   1      35.607  31.530  28.557  1.00  0.00    -0.051 Br
ENDBRANCH  15  16
ENDBRANCH   6  15
ENDBRANCH   4   6
ENDBRANCH   3   4
ENDBRANCH   2   3
ENDBRANCH   1   2
BRANCH   1  24
ATOM     24  O   UNL A   1      46.283  26.573  26.248  1.00  0.00    -0.458 OA
BRANCH  24  25
ATOM     25  C   UNL A   1      47.304  25.694  26.534  1.00  0.00     0.338 C 
ATOM     26  O   UNL A   1      48.277  25.564  25.803  1.00  0.00    -0.246 OA
BRANCH  25  27
ATOM     27  C   UNL A   1      47.209  24.865  27.782  1.00  0.00     0.060 A 
ATOM     28  C   UNL A   1      45.686  23.991  28.097  1.00  0.00     0.016 A 
ATOM     29  C   UNL A   1      48.072  25.651  29.087  1.00  0.00     0.016 A 
ATOM     30  C   UNL A   1      44.847  24.142  29.710  1.00  0.00     0.010 A 
ATOM     31  C   UNL A   1      47.332  25.748  30.700  1.00  0.00     0.010 A 
ATOM     32  C   UNL A   1      45.589  25.160  30.996  1.00  0.00    -0.014 A 
BRANCH  32  33
ATOM     33  C   UNL A   1      44.773  25.462  32.529  1.00  0.00     0.031 A 
ATOM     34  C   UNL A   1      44.265  27.455  33.165  1.00  0.00     0.074 A 
ATOM     35  C   UNL A   1      44.452  24.072  32.855  1.00  0.00     0.049 A 
ATOM     36  N   UNL A   1      44.208  28.066  34.376  1.00  0.00    -0.248 NA
ATOM     37  C   UNL A   1      43.914  28.864  32.252  1.00  0.00     0.031 C 
ATOM     38  C   UNL A   1      43.338  23.445  33.669  1.00  0.00     0.029 A 
ATOM     39  N   UNL A   1      45.444  23.075  33.039  1.00  0.00    -0.354 N 
ATOM     40  C   UNL A   1      43.396  29.167  34.386  1.00  0.00     0.074 A 
ATOM     41  C   UNL A   1      43.518  29.778  33.114  1.00  0.00     0.031 C 
ATOM     42  C   UNL A   1      43.806  22.541  34.533  1.00  0.00     0.029 A 
ATOM     43  C   UNL A   1      45.199  22.413  34.271  1.00  0.00     0.049 A 
ATOM     44  H   UNL A   1      46.180  22.877  32.416  1.00  0.00     0.167 HD
ATOM     45  C   UNL A   1      42.475  29.293  35.382  1.00  0.00     0.031 A 
ATOM     46  C   UNL A   1      46.121  22.167  35.227  1.00  0.00     0.031 A 
ATOM     47  C   UNL A   1      42.492  28.143  36.330  1.00  0.00     0.049 A 
ATOM     48  C   UNL A   1      45.848  22.970  36.514  1.00  0.00     0.074 A 
ATOM     49  C   UNL A   1      41.566  27.145  36.605  1.00  0.00     0.029 A 
ATOM     50  N   UNL A   1      43.683  27.705  36.932  1.00  0.00    -0.354 N 
ATOM     51  N   UNL A   1      44.967  23.951  36.643  1.00  0.00    -0.248 NA
ATOM     52  C   UNL A   1      46.518  22.682  37.783  1.00  0.00     0.031 C 
ATOM     53  C   UNL A   1      42.206  26.110  37.352  1.00  0.00     0.029 A 
ATOM     54  C   UNL A   1      43.543  26.437  37.514  1.00  0.00     0.049 A 
ATOM     55  H   UNL A   1      44.518  28.226  36.943  1.00  0.00     0.167 HD
ATOM     56  C   UNL A   1      45.131  24.564  37.882  1.00  0.00     0.074 A 
ATOM     57  C   UNL A   1      46.005  23.633  38.584  1.00  0.00     0.031 C 
ATOM     58  C   UNL A   1      44.649  25.808  38.263  1.00  0.00     0.031 A 
BRANCH  45  59
ATOM     59  C   UNL A   1      41.329  30.294  35.275  1.00  0.00    -0.014 A 
ATOM     60  C   UNL A   1      40.126  29.892  34.674  1.00  0.00     0.010 A 
ATOM     61  C   UNL A   1      41.355  31.632  35.736  1.00  0.00     0.010 A 
ATOM     62  C   UNL A   1      39.046  30.770  34.505  1.00  0.00     0.020 A 
ATOM     63  C   UNL A   1      40.303  32.537  35.540  1.00  0.00     0.020 A 
ATOM     64  C   UNL A   1      39.142  32.090  34.937  1.00  0.00     0.054 A 
BRANCH  64  65
ATOM     65  S   UNL A   1      37.707  33.174  34.785  1.00  0.00     0.124 S 
ATOM     66  O   UNL A   1      38.266  34.482  35.109  1.00  0.00    -0.237 OA
ATOM     67  O   UNL A   1      37.321  32.976  33.391  1.00  0.00    -0.237 OA
ATOM     68  O   UNL A   1      36.763  32.644  35.769  1.00  0.00    -0.744 OA
ENDBRANCH  64  65
ENDBRANCH  45  59
BRANCH  46  69
ATOM     69  C   UNL A   1      47.349  21.620  34.565  1.00  0.00    -0.014 A 
ATOM     70  C   UNL A   1      48.523  22.412  34.760  1.00  0.00     0.010 A 
ATOM     71  C   UNL A   1      47.524  20.243  34.370  1.00  0.00     0.010 A 
ATOM     72  C   UNL A   1      49.776  21.825  34.988  1.00  0.00     0.020 A 
ATOM     73  C   UNL A   1      48.805  19.660  34.528  1.00  0.00     0.020 A 
ATOM     74  C   UNL A   1      49.906  20.444  34.900  1.00  0.00     0.054 A 
BRANCH  74  75
ATOM     75  S   UNL A   1      51.513  19.698  35.339  1.00  0.00     0.124 S 
ATOM     76  O   UNL A   1      52.012  19.249  34.044  1.00  0.00    -0.237 OA
ATOM     77  O   UNL A   1      52.253  20.810  35.926  1.00  0.00    -0.237 OA
ATOM     78  O   UNL A   1      51.148  18.626  36.264  1.00  0.00    -0.744 OA
ENDBRANCH  74  75
ENDBRANCH  46  69
BRANCH  58  79
ATOM     79  C   UNL A   1      45.154  26.583  39.488  1.00  0.00    -0.014 A 
ATOM     80  C   UNL A   1      46.285  27.415  39.505  1.00  0.00     0.010 A 
ATOM     81  C   UNL A   1      44.401  26.549  40.691  1.00  0.00     0.010 A 
ATOM     82  C   UNL A   1      46.729  28.034  40.684  1.00  0.00     0.020 A 
ATOM     83  C   UNL A   1      44.781  27.233  41.850  1.00  0.00     0.020 A 
ATOM     84  C   UNL A   1      45.983  27.922  41.854  1.00  0.00     0.054 A 
BRANCH  84  85
ATOM     85  S   UNL A   1      46.604  28.673  43.374  1.00  0.00     0.124 S 
ATOM     86  O   UNL A   1      47.947  28.102  43.460  1.00  0.00    -0.237 OA
ATOM     87  O   UNL A   1      46.549  30.101  43.073  1.00  0.00    -0.237 OA
ATOM     88  O   UNL A   1      45.667  28.220  44.398  1.00  0.00    -0.744 OA
ENDBRANCH  84  85
ENDBRANCH  58  79
ENDBRANCH  32  33
ENDBRANCH  25  27
ENDBRANCH  24  25
ENDBRANCH   1  24
TORSDOF 18
ENDMDL
MODEL 2
REMARK VINA RESULT:     -11.2      8.217     11.707
REMARK SMILES Cc1ccc(C[C@@H](Cc2cc(F)cc(Br)c2)C(=O)OCCOC(=O)c2ccc(-c3c4nc(c(-c5ccc(S(=O)(=O)[O-])cc5)c5ccc([nH]5)c(-c5ccc(S(=O)(=O)[O-])cc5)c5nc(c(-c6ccc(S(=O)(=O)[O-])cc6)c6ccc3[nH]6)C=C5)C=C4)cc2)cc1
REMARK SMILES IDX 21 1 20 2 19 3 17 4 18 5 7 6 6 7 5 8 1 9 2 10 3 11 86 12
REMARK SMILES IDX 4 13 85 14 8 15 9 16 10 17 16 18 11 19 14 20 12 21 13 22
REMARK SMILES IDX 15 23 22 24 23 25 24 26 25 27 26 28 84 29 27 30 83 31 28 32
REMARK SMILES IDX 29 33 30 34 77 35 31 36 82 37 76 38 78 39 32 40 81 41 75 42
REMARK SMILES IDX 74 43 33 45 63 46 44 47 62 48 45 49 48 50 61 51 79 52 46 53
REMARK SMILES IDX 47 54 60 56 80 57 49 58 34 59 35 60 43 61 36 62 42 63 37 64
REMARK SMILES IDX 38 65 39 66 40 67 41 68 64 69 65 70 73 71 66 72 72 73 67 74
REMARK SMILES IDX 68 75 69 76 70 77 71 78 50 79 51 80 59 81 52 82 58 83 53 84
REMARK SMILES IDX 54 85 55 86 56 87 57 88
REMARK H PARENT 78 44 48 55
REMARK Flexibility Score: inf
ROOT
ATOM      1  C   UNL A   1      33.926  29.553  26.661  1.00  0.00     0.275 C 
ENDROOT
BRANCH   1   2
ATOM      2  C   UNL A   1      32.893  28.943  25.711  1.00  0.00     0.274 C 
BRANCH   2   3
ATOM      3  O   UNL A   1      32.696  27.606  26.131  1.00  0.00    -0.462 OA
BRANCH   3   4
ATOM      4  C   UNL A   1      31.326  27.242  26.491  1.00  0.00     0.309 C 
ATOM      5  O   UNL A   1      31.182  27.747  27.643  1.00  0.00    -0.252 OA
BRANCH   4   6
ATOM      6  C   UNL A   1      30.053  25.980  25.251  1.00  0.00     0.108 C 
BRANCH   6   7
ATOM      7  C   UNL A   1      28.882  26.342  23.943  1.00  0.00     0.051 C 
BRANCH   7   8
ATOM      8  C   UNL A   1      28.846  27.721  23.246  1.00  0.00    -0.047 A 
ATOM      9  C   UNL A   1      28.674  31.858  21.877  1.00  0.00     0.044 C 
ATOM     10  C   UNL A   1      28.721  30.430  22.336  1.00  0.00    -0.051 A 
ATOM     11  C   UNL A   1      29.916  29.712  22.279  1.00  0.00     0.004 A 
ATOM     12  C   UNL A   1      27.585  29.782  22.827  1.00  0.00     0.004 A 
ATOM     13  C   UNL A   1      29.981  28.386  22.743  1.00  0.00     0.004 A 
ATOM     14  C   UNL A   1      27.645  28.448  23.263  1.00  0.00     0.004 A 
ENDBRANCH   7   8
ENDBRANCH   6   7
BRANCH   6  15
ATOM     15  C   UNL A   1      30.569  24.490  24.344  1.00  0.00     0.051 C 
BRANCH  15  16
ATOM     16  C   UNL A   1      31.687  23.595  24.851  1.00  0.00    -0.043 A 
ATOM     17  C   UNL A   1      33.286  24.375  24.549  1.00  0.00     0.043 A 
ATOM     18  C   UNL A   1      31.607  21.720  25.042  1.00  0.00     0.019 A 
ATOM     19  C   UNL A   1      34.742  23.381  24.458  1.00  0.00     0.124 A 
ATOM     20  C   UNL A   1      33.115  20.758  25.039  1.00  0.00     0.021 A 
ATOM     21  F   UNL A   1      35.898  24.053  24.430  1.00  0.00    -0.207 F 
ATOM     22  C   UNL A   1      34.674  21.600  24.766  1.00  0.00     0.055 A 
ATOM     23  Br  UNL A   1      32.956  18.874  25.153  1.00  0.00    -0.051 Br
ENDBRANCH  15  16
ENDBRANCH   6  15
ENDBRANCH   4   6
ENDBRANCH   3   4
ENDBRANCH   2   3
ENDBRANCH   1   2
BRANCH   1  24
ATOM     24  O   UNL A   1      33.767  30.966  27.065  1.00  0.00    -0.458 OA
BRANCH  24  25
ATOM     25  C   UNL A   1      34.484  31.751  27.940  1.00  0.00     0.338 C 
ATOM     26  O   UNL A   1      34.003  32.743  28.472  1.00  0.00    -0.246 OA
BRANCH  25  27
ATOM     27  C   UNL A   1      35.906  31.377  28.240  1.00  0.00     0.060 A 
ATOM     28  C   UNL A   1      36.200  29.989  29.322  1.00  0.00     0.016 A 
ATOM     29  C   UNL A   1      36.892  32.820  28.354  1.00  0.00     0.016 A 
ATOM     30  C   UNL A   1      37.324  30.148  30.750  1.00  0.00     0.010 A 
ATOM     31  C   UNL A   1      38.063  32.985  29.680  1.00  0.00     0.010 A 
ATOM     32  C   UNL A   1      38.161  31.715  31.040  1.00  0.00    -0.014 A 
BRANCH  32  33
ATOM     33  C   UNL A   1      39.155  31.988  32.472  1.00  0.00     0.031 A 
ATOM     34  C   UNL A   1      38.394  33.035  34.192  1.00  0.00     0.074 A 
ATOM     35  C   UNL A   1      40.274  31.123  32.097  1.00  0.00     0.049 A 
ATOM     36  N   UNL A   1      38.955  33.871  35.103  1.00  0.00    -0.248 NA
ATOM     37  C   UNL A   1      36.795  33.182  34.794  1.00  0.00     0.031 C 
ATOM     38  C   UNL A   1      41.284  30.347  32.918  1.00  0.00     0.029 A 
ATOM     39  N   UNL A   1      41.057  31.336  30.934  1.00  0.00    -0.354 N 
ATOM     40  C   UNL A   1      38.261  33.928  36.280  1.00  0.00     0.074 A 
ATOM     41  C   UNL A   1      36.889  33.799  35.955  1.00  0.00     0.031 C 
ATOM     42  C   UNL A   1      42.531  30.544  32.484  1.00  0.00     0.029 A 
ATOM     43  C   UNL A   1      42.428  31.332  31.303  1.00  0.00     0.049 A 
ATOM     44  H   UNL A   1      40.707  31.466  30.023  1.00  0.00     0.167 HD
ATOM     45  C   UNL A   1      38.944  33.792  37.451  1.00  0.00     0.031 A 
ATOM     46  C   UNL A   1      43.342  32.258  30.939  1.00  0.00     0.031 A 
ATOM     47  C   UNL A   1      40.404  33.571  37.243  1.00  0.00     0.049 A 
ATOM     48  C   UNL A   1      43.837  33.085  32.141  1.00  0.00     0.074 A 
ATOM     49  C   UNL A   1      41.228  32.481  37.490  1.00  0.00     0.029 A 
ATOM     50  N   UNL A   1      41.165  34.423  36.425  1.00  0.00    -0.354 N 
ATOM     51  N   UNL A   1      43.310  33.078  33.357  1.00  0.00    -0.248 NA
ATOM     52  C   UNL A   1      45.017  33.949  32.075  1.00  0.00     0.031 C 
ATOM     53  C   UNL A   1      42.470  32.674  36.808  1.00  0.00     0.029 A 
ATOM     54  C   UNL A   1      42.411  33.865  36.102  1.00  0.00     0.049 A 
ATOM     55  H   UNL A   1      40.861  35.305  36.115  1.00  0.00     0.167 HD
ATOM     56  C   UNL A   1      43.894  34.082  34.123  1.00  0.00     0.074 A 
ATOM     57  C   UNL A   1      45.038  34.477  33.311  1.00  0.00     0.031 C 
ATOM     58  C   UNL A   1      43.406  34.613  35.308  1.00  0.00     0.031 A 
BRANCH  45  59
ATOM     59  C   UNL A   1      38.217  33.507  38.761  1.00  0.00    -0.014 A 
ATOM     60  C   UNL A   1      38.481  34.315  39.878  1.00  0.00     0.010 A 
ATOM     61  C   UNL A   1      37.270  32.477  38.973  1.00  0.00     0.010 A 
ATOM     62  C   UNL A   1      37.880  34.087  41.124  1.00  0.00     0.020 A 
ATOM     63  C   UNL A   1      36.689  32.205  40.219  1.00  0.00     0.020 A 
ATOM     64  C   UNL A   1      36.989  33.030  41.288  1.00  0.00     0.054 A 
BRANCH  64  65
ATOM     65  S   UNL A   1      36.165  32.811  42.879  1.00  0.00     0.124 S 
ATOM     66  O   UNL A   1      35.505  34.098  43.070  1.00  0.00    -0.237 OA
ATOM     67  O   UNL A   1      35.282  31.678  42.613  1.00  0.00    -0.237 OA
ATOM     68  O   UNL A   1      37.262  32.535  43.806  1.00  0.00    -0.744 OA
ENDBRANCH  64  65
ENDBRANCH  45  59
BRANCH  46  69
ATOM     69  C   UNL A   1      43.187  32.519  29.471  1.00  0.00    -0.014 A 
ATOM     70  C   UNL A   1      43.028  33.899  29.133  1.00  0.00     0.010 A 
ATOM     71  C   UNL A   1      43.777  31.683  28.513  1.00  0.00     0.010 A 
ATOM     72  C   UNL A   1      43.644  34.454  28.003  1.00  0.00     0.020 A 
ATOM     73  C   UNL A   1      44.334  32.236  27.335  1.00  0.00     0.020 A 
ATOM     74  C   UNL A   1      44.322  33.622  27.120  1.00  0.00     0.054 A 
BRANCH  74  75
ATOM     75  S   UNL A   1      45.232  34.388  25.736  1.00  0.00     0.124 S 
ATOM     76  O   UNL A   1      44.347  34.134  24.604  1.00  0.00    -0.237 OA
ATOM     77  O   UNL A   1      45.331  35.789  26.130  1.00  0.00    -0.237 OA
ATOM     78  O   UNL A   1      46.493  33.651  25.709  1.00  0.00    -0.744 OA
ENDBRANCH  74  75
ENDBRANCH  46  69
BRANCH  58  79
ATOM     79  C   UNL A   1      43.883  35.942  35.912  1.00  0.00    -0.014 A 
ATOM     80  C   UNL A   1      43.730  37.201  35.311  1.00  0.00     0.010 A 
ATOM     81  C   UNL A   1      44.452  35.948  37.214  1.00  0.00     0.010 A 
ATOM     82  C   UNL A   1      44.259  38.364  35.890  1.00  0.00     0.020 A 
ATOM     83  C   UNL A   1      44.902  37.113  37.843  1.00  0.00     0.020 A 
ATOM     84  C   UNL A   1      44.860  38.308  37.145  1.00  0.00     0.054 A 
BRANCH  84  85
ATOM     85  S   UNL A   1      45.590  39.805  37.844  1.00  0.00     0.124 S 
ATOM     86  O   UNL A   1      45.869  39.385  39.216  1.00  0.00    -0.237 OA
ATOM     87  O   UNL A   1      46.765  40.014  37.002  1.00  0.00    -0.237 OA
ATOM     88  O   UNL A   1      44.539  40.808  37.700  1.00  0.00    -0.744 OA
ENDBRANCH  84  85
ENDBRANCH  58  79
ENDBRANCH  32  33
ENDBRANCH  25  27
ENDBRANCH  24  25
ENDBRANCH   1  24
TORSDOF 18
ENDMDL
MODEL 3
REMARK VINA RESULT:     -11.1      5.254     11.156
REMARK SMILES Cc1ccc(C[C@@H](Cc2cc(F)cc(Br)c2)C(=O)OCCOC(=O)c2ccc(-c3c4nc(c(-c5ccc(S(=O)(=O)[O-])cc5)c5ccc([nH]5)c(-c5ccc(S(=O)(=O)[O-])cc5)c5nc(c(-c6ccc(S(=O)(=O)[O-])cc6)c6ccc3[nH]6)C=C5)C=C4)cc2)cc1
REMARK SMILES IDX 21 1 20 2 19 3 17 4 18 5 7 6 6 7 5 8 1 9 2 10 3 11 86 12
REMARK SMILES IDX 4 13 85 14 8 15 9 16 10 17 16 18 11 19 14 20 12 21 13 22
REMARK SMILES IDX 15 23 22 24 23 25 24 26 25 27 26 28 84 29 27 30 83 31 28 32
REMARK SMILES IDX 29 33 30 34 77 35 31 36 82 37 76 38 78 39 32 40 81 41 75 42
REMARK SMILES IDX 74 43 33 45 63 46 44 47 62 48 45 49 48 50 61 51 79 52 46 53
REMARK SMILES IDX 47 54 60 56 80 57 49 58 34 59 35 60 43 61 36 62 42 63 37 64
REMARK SMILES IDX 38 65 39 66 40 67 41 68 64 69 65 70 73 71 66 72 72 73 67 74
REMARK SMILES IDX 68 75 69 76 70 77 71 78 50 79 51 80 59 81 52 82 58 83 53 84
REMARK SMILES IDX 54 85 55 86 56 87 57 88
REMARK H PARENT 78 44 48 55
REMARK Flexibility Score: inf
ROOT
ATOM      1  C   UNL A   1      31.922  31.858  26.721  1.00  0.00     0.275 C 
ENDROOT
BRANCH   1   2
ATOM      2  C   UNL A   1      31.149  30.621  26.259  1.00  0.00     0.274 C 
BRANCH   2   3
ATOM      3  O   UNL A   1      31.823  30.123  25.119  1.00  0.00    -0.462 OA
BRANCH   3   4
ATOM      4  C   UNL A   1      31.341  28.843  24.597  1.00  0.00     0.309 C 
ATOM      5  O   UNL A   1      30.364  29.176  23.865  1.00  0.00    -0.252 OA
BRANCH   4   6
ATOM      6  C   UNL A   1      32.163  26.916  25.197  1.00  0.00     0.108 C 
BRANCH   6   7
ATOM      7  C   UNL A   1      33.725  26.432  25.930  1.00  0.00     0.051 C 
BRANCH   7   8
ATOM      8  C   UNL A   1      34.611  25.333  25.300  1.00  0.00    -0.047 A 
ATOM      9  C   UNL A   1      36.776  21.817  23.895  1.00  0.00     0.044 C 
ATOM     10  C   UNL A   1      36.047  23.036  24.382  1.00  0.00    -0.051 A 
ATOM     11  C   UNL A   1      35.158  23.707  23.540  1.00  0.00     0.004 A 
ATOM     12  C   UNL A   1      36.231  23.531  25.675  1.00  0.00     0.004 A 
ATOM     13  C   UNL A   1      34.439  24.825  23.998  1.00  0.00     0.004 A 
ATOM     14  C   UNL A   1      35.535  24.666  26.120  1.00  0.00     0.004 A 
ENDBRANCH   7   8
ENDBRANCH   6   7
BRANCH   6  15
ATOM     15  C   UNL A   1      31.326  25.656  26.209  1.00  0.00     0.051 C 
BRANCH  15  16
ATOM     16  C   UNL A   1      31.416  24.177  25.874  1.00  0.00    -0.043 A 
ATOM     17  C   UNL A   1      32.369  23.314  27.141  1.00  0.00     0.043 A 
ATOM     18  C   UNL A   1      31.294  23.420  24.149  1.00  0.00     0.019 A 
ATOM     19  C   UNL A   1      33.148  21.778  26.756  1.00  0.00     0.124 A 
ATOM     20  C   UNL A   1      32.017  21.816  23.826  1.00  0.00     0.021 A 
ATOM     21  F   UNL A   1      33.662  21.115  27.797  1.00  0.00    -0.207 F 
ATOM     22  C   UNL A   1      32.923  20.998  25.139  1.00  0.00     0.055 A 
ATOM     23  Br  UNL A   1      31.928  21.154  22.053  1.00  0.00    -0.051 Br
ENDBRANCH  15  16
ENDBRANCH   6  15
ENDBRANCH   4   6
ENDBRANCH   3   4
ENDBRANCH   2   3
ENDBRANCH   1   2
BRANCH   1  24
ATOM     24  O   UNL A   1      32.957  31.696  27.764  1.00  0.00    -0.458 OA
BRANCH  24  25
ATOM     25  C   UNL A   1      34.199  31.104  27.732  1.00  0.00     0.338 C 
ATOM     26  O   UNL A   1      34.534  30.335  26.841  1.00  0.00    -0.246 OA
BRANCH  25  27
ATOM     27  C   UNL A   1      35.169  31.411  28.836  1.00  0.00     0.060 A 
ATOM     28  C   UNL A   1      36.556  32.471  28.468  1.00  0.00     0.016 A 
ATOM     29  C   UNL A   1      35.369  30.005  29.861  1.00  0.00     0.016 A 
ATOM     30  C   UNL A   1      38.253  31.962  28.901  1.00  0.00     0.010 A 
ATOM     31  C   UNL A   1      36.998  29.518  30.380  1.00  0.00     0.010 A 
ATOM     32  C   UNL A   1      38.514  30.388  29.734  1.00  0.00    -0.014 A 
BRANCH  32  33
ATOM     33  C   UNL A   1      40.131  29.767  30.064  1.00  0.00     0.031 A 
ATOM     34  C   UNL A   1      40.757  27.825  29.376  1.00  0.00     0.074 A 
ATOM     35  C   UNL A   1      40.710  31.003  30.589  1.00  0.00     0.049 A 
ATOM     36  N   UNL A   1      41.577  26.871  29.885  1.00  0.00    -0.248 NA
ATOM     37  C   UNL A   1      40.254  26.904  28.019  1.00  0.00     0.031 C 
ATOM     38  C   UNL A   1      42.127  31.538  30.612  1.00  0.00     0.029 A 
ATOM     39  N   UNL A   1      40.213  31.656  31.746  1.00  0.00    -0.354 N 
ATOM     40  C   UNL A   1      42.070  26.020  28.933  1.00  0.00     0.074 A 
ATOM     41  C   UNL A   1      41.052  25.857  27.963  1.00  0.00     0.031 C 
ATOM     42  C   UNL A   1      42.468  31.986  31.823  1.00  0.00     0.029 A 
ATOM     43  C   UNL A   1      41.297  31.906  32.628  1.00  0.00     0.049 A 
ATOM     44  H   UNL A   1      39.272  31.895  31.910  1.00  0.00     0.167 HD
ATOM     45  C   UNL A   1      43.408  25.762  28.914  1.00  0.00     0.031 A 
ATOM     46  C   UNL A   1      41.316  31.624  33.949  1.00  0.00     0.031 A 
ATOM     47  C   UNL A   1      44.152  26.502  29.973  1.00  0.00     0.049 A 
ATOM     48  C   UNL A   1      42.327  30.513  34.290  1.00  0.00     0.074 A 
ATOM     49  C   UNL A   1      45.096  27.518  29.914  1.00  0.00     0.029 A 
ATOM     50  N   UNL A   1      43.749  26.459  31.318  1.00  0.00    -0.354 N 
ATOM     51  N   UNL A   1      42.962  29.747  33.414  1.00  0.00    -0.248 NA
ATOM     52  C   UNL A   1      42.746  30.217  35.661  1.00  0.00     0.031 C 
ATOM     53  C   UNL A   1      45.243  28.091  31.215  1.00  0.00     0.029 A 
ATOM     54  C   UNL A   1      44.364  27.462  32.083  1.00  0.00     0.049 A 
ATOM     55  H   UNL A   1      43.110  25.805  31.681  1.00  0.00     0.167 HD
ATOM     56  C   UNL A   1      43.643  28.737  34.086  1.00  0.00     0.074 A 
ATOM     57  C   UNL A   1      43.582  29.181  35.473  1.00  0.00     0.031 C 
ATOM     58  C   UNL A   1      44.142  27.565  33.538  1.00  0.00     0.031 A 
BRANCH  45  59
ATOM     59  C   UNL A   1      44.068  25.111  27.703  1.00  0.00    -0.014 A 
ATOM     60  C   UNL A   1      44.539  23.793  27.808  1.00  0.00     0.010 A 
ATOM     61  C   UNL A   1      44.262  25.721  26.441  1.00  0.00     0.010 A 
ATOM     62  C   UNL A   1      45.192  23.147  26.750  1.00  0.00     0.020 A 
ATOM     63  C   UNL A   1      44.949  25.109  25.384  1.00  0.00     0.020 A 
ATOM     64  C   UNL A   1      45.396  23.810  25.543  1.00  0.00     0.054 A 
BRANCH  64  65
ATOM     65  S   UNL A   1      46.163  22.926  24.169  1.00  0.00     0.124 S 
ATOM     66  O   UNL A   1      46.630  21.699  24.807  1.00  0.00    -0.237 OA
ATOM     67  O   UNL A   1      45.046  22.774  23.242  1.00  0.00    -0.237 OA
ATOM     68  O   UNL A   1      47.222  23.830  23.719  1.00  0.00    -0.744 OA
ENDBRANCH  64  65
ENDBRANCH  45  59
BRANCH  46  69
ATOM     69  C   UNL A   1      40.025  32.096  34.548  1.00  0.00    -0.014 A 
ATOM     70  C   UNL A   1      39.067  31.059  34.771  1.00  0.00     0.010 A 
ATOM     71  C   UNL A   1      39.975  33.215  35.391  1.00  0.00     0.010 A 
ATOM     72  C   UNL A   1      38.268  31.032  35.923  1.00  0.00     0.020 A 
ATOM     73  C   UNL A   1      39.112  33.219  36.514  1.00  0.00     0.020 A 
ATOM     74  C   UNL A   1      38.315  32.104  36.808  1.00  0.00     0.054 A 
BRANCH  74  75
ATOM     75  S   UNL A   1      37.372  31.979  38.365  1.00  0.00     0.124 S 
ATOM     76  O   UNL A   1      37.014  30.565  38.400  1.00  0.00    -0.237 OA
ATOM     77  O   UNL A   1      38.337  32.390  39.379  1.00  0.00    -0.237 OA
ATOM     78  O   UNL A   1      36.250  32.892  38.157  1.00  0.00    -0.744 OA
ENDBRANCH  74  75
ENDBRANCH  46  69
BRANCH  58  79
ATOM     79  C   UNL A   1      44.554  26.339  34.367  1.00  0.00    -0.014 A 
ATOM     80  C   UNL A   1      43.673  25.532  35.104  1.00  0.00     0.010 A 
ATOM     81  C   UNL A   1      45.907  25.908  34.344  1.00  0.00     0.010 A 
ATOM     82  C   UNL A   1      44.134  24.471  35.898  1.00  0.00     0.020 A 
ATOM     83  C   UNL A   1      46.367  24.798  35.059  1.00  0.00     0.020 A 
ATOM     84  C   UNL A   1      45.483  24.124  35.885  1.00  0.00     0.054 A 
BRANCH  84  85
ATOM     85  S   UNL A   1      46.065  22.796  36.962  1.00  0.00     0.124 S 
ATOM     86  O   UNL A   1      47.511  22.865  36.762  1.00  0.00    -0.237 OA
ATOM     87  O   UNL A   1      45.594  23.220  38.278  1.00  0.00    -0.237 OA
ATOM     88  O   UNL A   1      45.417  21.602  36.428  1.00  0.00    -0.744 OA
ENDBRANCH  84  85
ENDBRANCH  58  79
ENDBRANCH  32  33
ENDBRANCH  25  27
ENDBRANCH  24  25
ENDBRANCH   1  24
TORSDOF 18
ENDMDL
