MODEL 1
REMARK VINA RESULT:     -11.3      0.000      0.000
REMARK SMILES C[C@H]1OCC[C@@H]1C(=O)Nc1ccc(Cl)c(C(=O)OCCOC(=O)c2ccc(-c3c4nc(c(-c5ccc(S(=O)(=O)[O-])cc5)c5ccc([nH]5)c(-c5ccc(S(=O)(=O)[O-])cc5)c5nc(c(-c6ccc(S(=O)(=O)[O-])cc6)c6ccc3[nH]6)C=C5)C=C4)cc2)c1
REMARK SMILES IDX 20 1 19 2 18 3 16 4 17 5 15 6 10 7 11 8 84 9 12 10 13 11
REMARK SMILES IDX 14 12 9 13 7 14 8 15 6 17 1 18 2 19 3 20 4 21 5 22 21 23
REMARK SMILES IDX 22 24 23 25 24 26 25 27 83 28 26 29 82 30 27 31 28 32 29 33
REMARK SMILES IDX 76 34 30 35 81 36 75 37 77 38 31 39 80 40 74 41 73 42 32 44
REMARK SMILES IDX 62 45 43 46 61 47 44 48 47 49 60 50 78 51 45 52 46 53 59 55
REMARK SMILES IDX 79 56 48 57 33 58 34 59 42 60 35 61 41 62 36 63 37 64 38 65
REMARK SMILES IDX 39 66 40 67 63 68 64 69 72 70 65 71 71 72 66 73 67 74 68 75
REMARK SMILES IDX 69 76 70 77 49 78 50 79 58 80 51 81 57 82 52 83 53 84 54 85
REMARK SMILES IDX 55 86 56 87
REMARK H PARENT 9 16 77 43 47 54
REMARK Flexibility Score: inf
ROOT
ATOM      1  C   UNL A   1      34.308  29.580  27.519  1.00  0.00     0.275 C 
ENDROOT
BRANCH   1   2
ATOM      2  C   UNL A   1      33.257  30.441  26.821  1.00  0.00     0.275 C 
BRANCH   2   3
ATOM      3  O   UNL A   1      32.235  29.595  26.259  1.00  0.00    -0.458 OA
BRANCH   3   4
ATOM      4  C   UNL A   1      32.543  28.927  25.121  1.00  0.00     0.339 C 
ATOM      5  O   UNL A   1      33.604  28.955  24.527  1.00  0.00    -0.246 OA
BRANCH   4   6
ATOM      6  C   UNL A   1      31.463  27.968  24.796  1.00  0.00     0.080 A 
ATOM      7  C   UNL A   1      30.274  25.971  25.509  1.00  0.00     0.042 A 
ATOM      8  C   UNL A   1      29.357  26.152  24.479  1.00  0.00     0.028 A 
ATOM      9  C   UNL A   1      31.317  26.878  25.669  1.00  0.00     0.043 A 
ATOM     10  C   UNL A   1      29.534  27.197  23.566  1.00  0.00     0.023 A 
ATOM     11  C   UNL A   1      30.591  28.104  23.715  1.00  0.00     0.055 A 
ATOM     12  Cl  UNL A   1      30.774  29.313  22.495  1.00  0.00    -0.083 Cl
BRANCH   7  13
ATOM     13  N   UNL A   1      30.075  24.995  26.485  1.00  0.00    -0.326 N 
ATOM     14  C   UNL A   1      30.738  23.823  26.697  1.00  0.00     0.230 C 
ATOM     15  O   UNL A   1      30.320  23.092  27.600  1.00  0.00    -0.274 OA
ATOM     16  H   UNL A   1      29.344  25.181  27.117  1.00  0.00     0.169 HD
BRANCH  14  17
ATOM     17  C   UNL A   1      31.976  23.401  25.915  1.00  0.00     0.110 C 
ATOM     18  C   UNL A   1      32.297  22.934  23.442  1.00  0.00     0.039 C 
ATOM     19  C   UNL A   1      31.663  22.473  24.749  1.00  0.00     0.127 C 
ATOM     20  O   UNL A   1      32.199  21.187  25.096  1.00  0.00    -0.378 OA
ATOM     21  C   UNL A   1      33.263  21.377  26.028  1.00  0.00     0.161 C 
ATOM     22  C   UNL A   1      33.033  22.697  26.733  1.00  0.00     0.044 C 
ENDBRANCH  14  17
ENDBRANCH   7  13
ENDBRANCH   4   6
ENDBRANCH   3   4
ENDBRANCH   2   3
ENDBRANCH   1   2
BRANCH   1  23
ATOM     23  O   UNL A   1      35.558  30.294  27.579  1.00  0.00    -0.458 OA
BRANCH  23  24
ATOM     24  C   UNL A   1      36.125  30.378  28.803  1.00  0.00     0.338 C 
ATOM     25  O   UNL A   1      35.573  30.547  29.876  1.00  0.00    -0.246 OA
BRANCH  24  26
ATOM     26  C   UNL A   1      37.566  30.115  28.677  1.00  0.00     0.060 A 
ATOM     27  C   UNL A   1      38.058  29.796  27.415  1.00  0.00     0.016 A 
ATOM     28  C   UNL A   1      38.400  30.068  29.788  1.00  0.00     0.016 A 
ATOM     29  C   UNL A   1      39.363  29.337  27.263  1.00  0.00     0.010 A 
ATOM     30  C   UNL A   1      39.743  29.706  29.618  1.00  0.00     0.010 A 
ATOM     31  C   UNL A   1      40.235  29.306  28.360  1.00  0.00    -0.014 A 
BRANCH  31  32
ATOM     32  C   UNL A   1      41.647  28.857  28.192  1.00  0.00     0.031 A 
ATOM     33  C   UNL A   1      42.783  29.844  28.307  1.00  0.00     0.074 A 
ATOM     34  C   UNL A   1      41.924  27.560  27.937  1.00  0.00     0.049 A 
ATOM     35  N   UNL A   1      44.051  29.681  28.028  1.00  0.00    -0.248 NA
ATOM     36  C   UNL A   1      42.445  31.194  28.786  1.00  0.00     0.031 C 
ATOM     37  C   UNL A   1      40.937  26.481  27.843  1.00  0.00     0.029 A 
ATOM     38  N   UNL A   1      43.123  26.925  27.716  1.00  0.00    -0.354 N 
ATOM     39  C   UNL A   1      44.653  30.916  28.246  1.00  0.00     0.074 A 
ATOM     40  C   UNL A   1      43.608  31.820  28.677  1.00  0.00     0.031 C 
ATOM     41  C   UNL A   1      41.569  25.319  27.625  1.00  0.00     0.029 A 
ATOM     42  C   UNL A   1      42.996  25.578  27.467  1.00  0.00     0.049 A 
ATOM     43  H   UNL A   1      43.990  27.390  27.732  1.00  0.00     0.167 HD
ATOM     44  C   UNL A   1      45.954  31.266  28.098  1.00  0.00     0.031 A 
ATOM     45  C   UNL A   1      43.909  24.655  27.106  1.00  0.00     0.031 A 
ATOM     46  C   UNL A   1      46.998  30.356  27.703  1.00  0.00     0.049 A 
ATOM     47  C   UNL A   1      45.336  25.076  26.900  1.00  0.00     0.074 A 
ATOM     48  C   UNL A   1      48.348  30.616  27.535  1.00  0.00     0.029 A 
ATOM     49  N   UNL A   1      46.814  29.010  27.425  1.00  0.00    -0.354 N 
ATOM     50  N   UNL A   1      45.875  26.261  27.062  1.00  0.00    -0.248 NA
ATOM     51  C   UNL A   1      46.273  24.040  26.444  1.00  0.00     0.031 C 
ATOM     52  C   UNL A   1      48.972  29.438  27.110  1.00  0.00     0.029 A 
ATOM     53  C   UNL A   1      48.021  28.432  27.065  1.00  0.00     0.049 A 
ATOM     54  H   UNL A   1      45.953  28.536  27.475  1.00  0.00     0.167 HD
ATOM     55  C   UNL A   1      47.217  26.111  26.734  1.00  0.00     0.074 A 
ATOM     56  C   UNL A   1      47.413  24.717  26.389  1.00  0.00     0.031 C 
ATOM     57  C   UNL A   1      48.198  27.046  26.714  1.00  0.00     0.031 A 
BRANCH  44  58
ATOM     58  C   UNL A   1      46.319  32.712  28.318  1.00  0.00    -0.014 A 
ATOM     59  C   UNL A   1      46.752  33.180  29.571  1.00  0.00     0.010 A 
ATOM     60  C   UNL A   1      46.264  33.609  27.235  1.00  0.00     0.010 A 
ATOM     61  C   UNL A   1      47.085  34.529  29.745  1.00  0.00     0.020 A 
ATOM     62  C   UNL A   1      46.621  34.951  27.398  1.00  0.00     0.020 A 
ATOM     63  C   UNL A   1      47.012  35.406  28.658  1.00  0.00     0.054 A 
BRANCH  63  64
ATOM     64  S   UNL A   1      47.462  37.146  28.907  1.00  0.00     0.124 S 
ATOM     65  O   UNL A   1      46.572  37.824  27.968  1.00  0.00    -0.237 OA
ATOM     66  O   UNL A   1      47.161  37.359  30.321  1.00  0.00    -0.237 OA
ATOM     67  O   UNL A   1      48.881  37.191  28.562  1.00  0.00    -0.744 OA
ENDBRANCH  63  64
ENDBRANCH  44  58
BRANCH  45  68
ATOM     68  C   UNL A   1      43.482  23.250  26.856  1.00  0.00    -0.014 A 
ATOM     69  C   UNL A   1      43.579  22.688  25.571  1.00  0.00     0.010 A 
ATOM     70  C   UNL A   1      42.997  22.458  27.914  1.00  0.00     0.010 A 
ATOM     71  C   UNL A   1      43.192  21.362  25.348  1.00  0.00     0.020 A 
ATOM     72  C   UNL A   1      42.639  21.124  27.701  1.00  0.00     0.020 A 
ATOM     73  C   UNL A   1      42.730  20.588  26.416  1.00  0.00     0.054 A 
BRANCH  73  74
ATOM     74  S   UNL A   1      42.298  18.850  26.121  1.00  0.00     0.124 S 
ATOM     75  O   UNL A   1      43.213  18.490  25.043  1.00  0.00    -0.237 OA
ATOM     76  O   UNL A   1      42.570  18.232  27.417  1.00  0.00    -0.237 OA
ATOM     77  O   UNL A   1      40.885  18.908  25.753  1.00  0.00    -0.744 OA
ENDBRANCH  73  74
ENDBRANCH  45  68
BRANCH  57  78
ATOM     78  C   UNL A   1      49.577  26.587  26.323  1.00  0.00    -0.014 A 
ATOM     79  C   UNL A   1      50.463  26.059  27.278  1.00  0.00     0.010 A 
ATOM     80  C   UNL A   1      49.974  26.648  24.976  1.00  0.00     0.010 A 
ATOM     81  C   UNL A   1      51.738  25.630  26.896  1.00  0.00     0.020 A 
ATOM     82  C   UNL A   1      51.238  26.197  24.586  1.00  0.00     0.020 A 
ATOM     83  C   UNL A   1      52.118  25.704  25.553  1.00  0.00     0.054 A 
BRANCH  83  84
ATOM     84  S   UNL A   1      53.762  25.106  25.075  1.00  0.00     0.124 S 
ATOM     85  O   UNL A   1      54.056  25.931  23.905  1.00  0.00    -0.237 OA
ATOM     86  O   UNL A   1      54.566  25.391  26.261  1.00  0.00    -0.237 OA
ATOM     87  O   UNL A   1      53.549  23.687  24.799  1.00  0.00    -0.744 OA
ENDBRANCH  83  84
ENDBRANCH  57  78
ENDBRANCH  31  32
ENDBRANCH  24  26
ENDBRANCH  23  24
ENDBRANCH   1  23
TORSDOF 16
ENDMDL
MODEL 2
REMARK VINA RESULT:     -11.2      6.848     12.202
REMARK SMILES C[C@H]1OCC[C@@H]1C(=O)Nc1ccc(Cl)c(C(=O)OCCOC(=O)c2ccc(-c3c4nc(c(-c5ccc(S(=O)(=O)[O-])cc5)c5ccc([nH]5)c(-c5ccc(S(=O)(=O)[O-])cc5)c5nc(c(-c6ccc(S(=O)(=O)[O-])cc6)c6ccc3[nH]6)C=C5)C=C4)cc2)c1
REMARK SMILES IDX 20 1 19 2 18 3 16 4 17 5 15 6 10 7 11 8 84 9 12 10 13 11
REMARK SMILES IDX 14 12 9 13 7 14 8 15 6 17 1 18 2 19 3 20 4 21 5 22 21 23
REMARK SMILES IDX 22 24 23 25 24 26 25 27 83 28 26 29 82 30 27 31 28 32 29 33
REMARK SMILES IDX 76 34 30 35 81 36 75 37 77 38 31 39 80 40 74 41 73 42 32 44
REMARK SMILES IDX 62 45 43 46 61 47 44 48 47 49 60 50 78 51 45 52 46 53 59 55
REMARK SMILES IDX 79 56 48 57 33 58 34 59 42 60 35 61 41 62 36 63 37 64 38 65
REMARK SMILES IDX 39 66 40 67 63 68 64 69 72 70 65 71 71 72 66 73 67 74 68 75
REMARK SMILES IDX 69 76 70 77 49 78 50 79 58 80 51 81 57 82 52 83 53 84 54 85
REMARK SMILES IDX 55 86 56 87
REMARK H PARENT 9 16 77 43 47 54
REMARK Flexibility Score: inf
ROOT
ATOM      1  C   UNL A   1      38.447  22.977  25.964  1.00  0.00     0.275 C 
ENDROOT
BRANCH   1   2
ATOM      2  C   UNL A   1      36.942  22.795  25.778  1.00  0.00     0.275 C 
BRANCH   2   3
ATOM      3  O   UNL A   1      36.461  23.722  24.785  1.00  0.00    -0.458 OA
BRANCH   3   4
ATOM      4  C   UNL A   1      36.089  23.207  23.589  1.00  0.00     0.339 C 
ATOM      5  O   UNL A   1      36.824  22.762  22.729  1.00  0.00    -0.246 OA
BRANCH   4   6
ATOM      6  C   UNL A   1      34.616  23.060  23.544  1.00  0.00     0.080 A 
ATOM      7  C   UNL A   1      32.523  24.058  22.813  1.00  0.00     0.042 A 
ATOM      8  C   UNL A   1      31.845  22.899  23.179  1.00  0.00     0.028 A 
ATOM      9  C   UNL A   1      33.901  24.135  22.990  1.00  0.00     0.043 A 
ATOM     10  C   UNL A   1      32.541  21.851  23.792  1.00  0.00     0.023 A 
ATOM     11  C   UNL A   1      33.926  21.929  23.984  1.00  0.00     0.055 A 
ATOM     12  Cl  UNL A   1      34.683  20.621  24.819  1.00  0.00    -0.083 Cl
BRANCH   7  13
ATOM     13  N   UNL A   1      31.876  25.081  22.122  1.00  0.00    -0.326 N 
ATOM     14  C   UNL A   1      31.742  26.401  22.437  1.00  0.00     0.230 C 
ATOM     15  O   UNL A   1      31.055  27.095  21.681  1.00  0.00    -0.274 OA
ATOM     16  H   UNL A   1      31.450  24.809  21.277  1.00  0.00     0.169 HD
BRANCH  14  17
ATOM     17  C   UNL A   1      32.425  27.056  23.631  1.00  0.00     0.110 C 
ATOM     18  C   UNL A   1      32.369  26.474  26.100  1.00  0.00     0.039 C 
ATOM     19  C   UNL A   1      31.589  27.006  24.902  1.00  0.00     0.127 C 
ATOM     20  O   UNL A   1      31.182  28.355  25.178  1.00  0.00    -0.378 OA
ATOM     21  C   UNL A   1      32.125  29.243  24.577  1.00  0.00     0.161 C 
ATOM     22  C   UNL A   1      32.792  28.508  23.433  1.00  0.00     0.044 C 
ENDBRANCH  14  17
ENDBRANCH   7  13
ENDBRANCH   4   6
ENDBRANCH   3   4
ENDBRANCH   2   3
ENDBRANCH   1   2
BRANCH   1  23
ATOM     23  O   UNL A   1      38.706  24.219  26.646  1.00  0.00    -0.458 OA
BRANCH  23  24
ATOM     24  C   UNL A   1      39.993  24.632  26.640  1.00  0.00     0.338 C 
ATOM     25  O   UNL A   1      40.872  24.340  25.847  1.00  0.00    -0.246 OA
BRANCH  24  26
ATOM     26  C   UNL A   1      40.178  25.620  27.712  1.00  0.00     0.060 A 
ATOM     27  C   UNL A   1      39.285  25.593  28.779  1.00  0.00     0.016 A 
ATOM     28  C   UNL A   1      41.134  26.626  27.621  1.00  0.00     0.016 A 
ATOM     29  C   UNL A   1      39.277  26.622  29.716  1.00  0.00     0.010 A 
ATOM     30  C   UNL A   1      41.192  27.605  28.623  1.00  0.00     0.010 A 
ATOM     31  C   UNL A   1      40.246  27.634  29.666  1.00  0.00    -0.014 A 
BRANCH  31  32
ATOM     32  C   UNL A   1      40.266  28.714  30.695  1.00  0.00     0.031 A 
ATOM     33  C   UNL A   1      41.269  28.677  31.823  1.00  0.00     0.074 A 
ATOM     34  C   UNL A   1      39.389  29.738  30.626  1.00  0.00     0.049 A 
ATOM     35  N   UNL A   1      41.334  29.423  32.896  1.00  0.00    -0.248 NA
ATOM     36  C   UNL A   1      42.329  27.659  31.738  1.00  0.00     0.031 C 
ATOM     37  C   UNL A   1      38.392  29.934  29.571  1.00  0.00     0.029 A 
ATOM     38  N   UNL A   1      39.197  30.813  31.460  1.00  0.00    -0.354 N 
ATOM     39  C   UNL A   1      42.404  28.935  33.638  1.00  0.00     0.074 A 
ATOM     40  C   UNL A   1      42.957  27.823  32.893  1.00  0.00     0.031 C 
ATOM     41  C   UNL A   1      37.725  31.076  29.798  1.00  0.00     0.029 A 
ATOM     42  C   UNL A   1      38.177  31.645  31.062  1.00  0.00     0.049 A 
ATOM     43  H   UNL A   1      39.739  30.972  32.267  1.00  0.00     0.167 HD
ATOM     44  C   UNL A   1      42.880  29.368  34.831  1.00  0.00     0.031 A 
ATOM     45  C   UNL A   1      37.627  32.719  31.661  1.00  0.00     0.031 A 
ATOM     46  C   UNL A   1      42.350  30.496  35.554  1.00  0.00     0.049 A 
ATOM     47  C   UNL A   1      38.137  33.152  33.005  1.00  0.00     0.074 A 
ATOM     48  C   UNL A   1      42.772  31.017  36.765  1.00  0.00     0.029 A 
ATOM     49  N   UNL A   1      41.291  31.284  35.128  1.00  0.00    -0.354 N 
ATOM     50  N   UNL A   1      39.117  32.644  33.714  1.00  0.00    -0.248 NA
ATOM     51  C   UNL A   1      37.456  34.289  33.639  1.00  0.00     0.031 C 
ATOM     52  C   UNL A   1      41.938  32.092  37.095  1.00  0.00     0.029 A 
ATOM     53  C   UNL A   1      41.031  32.272  36.064  1.00  0.00     0.049 A 
ATOM     54  H   UNL A   1      40.797  31.159  34.286  1.00  0.00     0.167 HD
ATOM     55  C   UNL A   1      39.175  33.406  34.876  1.00  0.00     0.074 A 
ATOM     56  C   UNL A   1      38.148  34.422  34.763  1.00  0.00     0.031 C 
ATOM     57  C   UNL A   1      40.000  33.271  35.943  1.00  0.00     0.031 A 
BRANCH  44  58
ATOM     58  C   UNL A   1      44.007  28.589  35.459  1.00  0.00    -0.014 A 
ATOM     59  C   UNL A   1      45.353  28.922  35.226  1.00  0.00     0.010 A 
ATOM     60  C   UNL A   1      43.707  27.528  36.333  1.00  0.00     0.010 A 
ATOM     61  C   UNL A   1      46.379  28.181  35.824  1.00  0.00     0.020 A 
ATOM     62  C   UNL A   1      44.728  26.802  36.953  1.00  0.00     0.020 A 
ATOM     63  C   UNL A   1      46.059  27.122  36.680  1.00  0.00     0.054 A 
BRANCH  63  64
ATOM     64  S   UNL A   1      47.407  26.186  37.454  1.00  0.00     0.124 S 
ATOM     65  O   UNL A   1      47.353  24.923  36.722  1.00  0.00    -0.237 OA
ATOM     66  O   UNL A   1      48.576  27.018  37.182  1.00  0.00    -0.237 OA
ATOM     67  O   UNL A   1      47.015  26.109  38.858  1.00  0.00    -0.744 OA
ENDBRANCH  63  64
ENDBRANCH  44  58
BRANCH  45  68
ATOM     68  C   UNL A   1      36.482  33.422  31.016  1.00  0.00    -0.014 A 
ATOM     69  C   UNL A   1      35.284  33.638  31.717  1.00  0.00     0.010 A 
ATOM     70  C   UNL A   1      36.599  33.900  29.696  1.00  0.00     0.010 A 
ATOM     71  C   UNL A   1      34.221  34.315  31.109  1.00  0.00     0.020 A 
ATOM     72  C   UNL A   1      35.550  34.603  29.097  1.00  0.00     0.020 A 
ATOM     73  C   UNL A   1      34.363  34.796  29.805  1.00  0.00     0.054 A 
BRANCH  73  74
ATOM     74  S   UNL A   1      32.999  35.731  29.058  1.00  0.00     0.124 S 
ATOM     75  O   UNL A   1      33.708  36.805  28.370  1.00  0.00    -0.237 OA
ATOM     76  O   UNL A   1      32.367  34.735  28.196  1.00  0.00    -0.237 OA
ATOM     77  O   UNL A   1      32.198  36.143  30.209  1.00  0.00    -0.744 OA
ENDBRANCH  73  74
ENDBRANCH  45  68
BRANCH  57  78
ATOM     78  C   UNL A   1      39.837  34.259  37.066  1.00  0.00    -0.014 A 
ATOM     79  C   UNL A   1      40.394  35.548  36.984  1.00  0.00     0.010 A 
ATOM     80  C   UNL A   1      39.084  33.905  38.199  1.00  0.00     0.010 A 
ATOM     81  C   UNL A   1      40.226  36.456  38.034  1.00  0.00     0.020 A 
ATOM     82  C   UNL A   1      38.894  34.819  39.240  1.00  0.00     0.020 A 
ATOM     83  C   UNL A   1      39.480  36.084  39.156  1.00  0.00     0.054 A 
BRANCH  83  84
ATOM     84  S   UNL A   1      39.244  37.292  40.489  1.00  0.00     0.124 S 
ATOM     85  O   UNL A   1      40.587  37.850  40.633  1.00  0.00    -0.237 OA
ATOM     86  O   UNL A   1      38.245  38.199  39.929  1.00  0.00    -0.237 OA
ATOM     87  O   UNL A   1      38.781  36.482  41.614  1.00  0.00    -0.744 OA
ENDBRANCH  83  84
ENDBRANCH  57  78
ENDBRANCH  31  32
ENDBRANCH  24  26
ENDBRANCH  23  24
ENDBRANCH   1  23
TORSDOF 16
ENDMDL
MODEL 3
REMARK VINA RESULT:     -11.1      2.821      8.441
REMARK SMILES C[C@H]1OCC[C@@H]1C(=O)Nc1ccc(Cl)c(C(=O)OCCOC(=O)c2ccc(-c3c4nc(c(-c5ccc(S(=O)(=O)[O-])cc5)c5ccc([nH]5)c(-c5ccc(S(=O)(=O)[O-])cc5)c5nc(c(-c6ccc(S(=O)(=O)[O-])cc6)c6ccc3[nH]6)C=C5)C=C4)cc2)c1
REMARK SMILES IDX 20 1 19 2 18 3 16 4 17 5 15 6 10 7 11 8 84 9 12 10 13 11
REMARK SMILES IDX 14 12 9 13 7 14 8 15 6 17 1 18 2 19 3 20 4 21 5 22 21 23
REMARK SMILES IDX 22 24 23 25 24 26 25 27 83 28 26 29 82 30 27 31 28 32 29 33
REMARK SMILES IDX 76 34 30 35 81 36 75 37 77 38 31 39 80 40 74 41 73 42 32 44
REMARK SMILES IDX 62 45 43 46 61 47 44 48 47 49 60 50 78 51 45 52 46 53 59 55
REMARK SMILES IDX 79 56 48 57 33 58 34 59 42 60 35 61 41 62 36 63 37 64 38 65
REMARK SMILES IDX 39 66 40 67 63 68 64 69 72 70 65 71 71 72 66 73 67 74 68 75
REMARK SMILES IDX 69 76 70 77 49 78 50 79 58 80 51 81 57 82 52 83 53 84 54 85
REMARK SMILES IDX 55 86 56 87
REMARK H PARENT 9 16 77 43 47 54
REMARK Flexibility Score: inf
ROOT
ATOM      1  C   UNL A   1      39.156  20.391  25.746  1.00  0.00     0.275 C 
ENDROOT
BRANCH   1   2
ATOM      2  C   UNL A   1      38.714  21.853  25.756  1.00  0.00     0.275 C 
BRANCH   2   3
ATOM      3  O   UNL A   1      37.289  21.927  25.959  1.00  0.00    -0.458 OA
BRANCH   3   4
ATOM      4  C   UNL A   1      36.574  22.647  25.062  1.00  0.00     0.339 C 
ATOM      5  O   UNL A   1      36.992  23.156  24.040  1.00  0.00    -0.246 OA
BRANCH   4   6
ATOM      6  C   UNL A   1      35.132  22.558  25.385  1.00  0.00     0.080 A 
ATOM      7  C   UNL A   1      33.307  21.082  26.022  1.00  0.00     0.042 A 
ATOM      8  C   UNL A   1      32.482  22.187  26.209  1.00  0.00     0.028 A 
ATOM      9  C   UNL A   1      34.625  21.268  25.617  1.00  0.00     0.043 A 
ATOM     10  C   UNL A   1      32.960  23.468  25.916  1.00  0.00     0.023 A 
ATOM     11  C   UNL A   1      34.281  23.660  25.495  1.00  0.00     0.055 A 
ATOM     12  Cl  UNL A   1      34.756  25.268  25.082  1.00  0.00    -0.083 Cl
BRANCH   7  13
ATOM     13  N   UNL A   1      32.890  19.803  26.388  1.00  0.00    -0.326 N 
ATOM     14  C   UNL A   1      32.864  18.650  25.662  1.00  0.00     0.230 C 
ATOM     15  O   UNL A   1      32.379  17.652  26.204  1.00  0.00    -0.274 OA
ATOM     16  H   UNL A   1      32.565  19.721  27.314  1.00  0.00     0.169 HD
BRANCH  14  17
ATOM     17  C   UNL A   1      33.433  18.527  24.254  1.00  0.00     0.110 C 
ATOM     18  C   UNL A   1      32.302  18.674  21.987  1.00  0.00     0.039 C 
ATOM     19  C   UNL A   1      32.471  17.871  23.273  1.00  0.00     0.127 C 
ATOM     20  O   UNL A   1      33.031  16.589  22.947  1.00  0.00    -0.378 OA
ATOM     21  C   UNL A   1      34.443  16.648  23.151  1.00  0.00     0.161 C 
ATOM     22  C   UNL A   1      34.722  17.745  24.158  1.00  0.00     0.044 C 
ENDBRANCH  14  17
ENDBRANCH   7  13
ENDBRANCH   4   6
ENDBRANCH   3   4
ENDBRANCH   2   3
ENDBRANCH   1   2
BRANCH   1  23
ATOM     23  O   UNL A   1      40.149  20.177  26.767  1.00  0.00    -0.458 OA
BRANCH  23  24
ATOM     24  C   UNL A   1      41.412  19.988  26.324  1.00  0.00     0.338 C 
ATOM     25  O   UNL A   1      41.870  19.011  25.757  1.00  0.00    -0.246 OA
BRANCH  24  26
ATOM     26  C   UNL A   1      42.176  21.226  26.530  1.00  0.00     0.060 A 
ATOM     27  C   UNL A   1      42.559  21.542  27.830  1.00  0.00     0.016 A 
ATOM     28  C   UNL A   1      42.415  22.119  25.491  1.00  0.00     0.016 A 
ATOM     29  C   UNL A   1      43.100  22.791  28.122  1.00  0.00     0.010 A 
ATOM     30  C   UNL A   1      43.055  23.335  25.770  1.00  0.00     0.010 A 
ATOM     31  C   UNL A   1      43.377  23.700  27.092  1.00  0.00    -0.014 A 
BRANCH  31  32
ATOM     32  C   UNL A   1      43.998  25.023  27.396  1.00  0.00     0.031 A 
ATOM     33  C   UNL A   1      43.170  26.139  27.983  1.00  0.00     0.074 A 
ATOM     34  C   UNL A   1      45.309  25.233  27.151  1.00  0.00     0.049 A 
ATOM     35  N   UNL A   1      43.483  27.397  28.156  1.00  0.00    -0.248 NA
ATOM     36  C   UNL A   1      41.806  25.797  28.420  1.00  0.00     0.031 C 
ATOM     37  C   UNL A   1      46.247  24.236  26.628  1.00  0.00     0.029 A 
ATOM     38  N   UNL A   1      46.084  26.356  27.315  1.00  0.00    -0.354 N 
ATOM     39  C   UNL A   1      42.345  28.009  28.672  1.00  0.00     0.074 A 
ATOM     40  C   UNL A   1      41.330  26.981  28.778  1.00  0.00     0.031 C 
ATOM     41  C   UNL A   1      47.472  24.777  26.554  1.00  0.00     0.029 A 
ATOM     42  C   UNL A   1      47.393  26.184  26.930  1.00  0.00     0.049 A 
ATOM     43  H   UNL A   1      45.735  27.203  27.674  1.00  0.00     0.167 HD
ATOM     44  C   UNL A   1      42.159  29.305  29.020  1.00  0.00     0.031 A 
ATOM     45  C   UNL A   1      48.411  27.062  26.840  1.00  0.00     0.031 A 
ATOM     46  C   UNL A   1      43.180  30.319  28.946  1.00  0.00     0.049 A 
ATOM     47  C   UNL A   1      48.170  28.503  27.184  1.00  0.00     0.074 A 
ATOM     48  C   UNL A   1      43.090  31.658  29.286  1.00  0.00     0.029 A 
ATOM     49  N   UNL A   1      44.480  30.104  28.513  1.00  0.00    -0.354 N 
ATOM     50  N   UNL A   1      47.071  29.071  27.621  1.00  0.00    -0.248 NA
ATOM     51  C   UNL A   1      49.299  29.426  27.006  1.00  0.00     0.031 C 
ATOM     52  C   UNL A   1      44.322  32.264  29.014  1.00  0.00     0.029 A 
ATOM     53  C   UNL A   1      45.195  31.291  28.555  1.00  0.00     0.049 A 
ATOM     54  H   UNL A   1      44.841  29.238  28.218  1.00  0.00     0.167 HD
ATOM     55  C   UNL A   1      47.379  30.418  27.776  1.00  0.00     0.074 A 
ATOM     56  C   UNL A   1      48.772  30.574  27.410  1.00  0.00     0.031 C 
ATOM     57  C   UNL A   1      46.578  31.434  28.179  1.00  0.00     0.031 A 
BRANCH  44  58
ATOM     58  C   UNL A   1      40.781  29.719  29.471  1.00  0.00    -0.014 A 
ATOM     59  C   UNL A   1      39.704  29.796  28.571  1.00  0.00     0.010 A 
ATOM     60  C   UNL A   1      40.556  29.995  30.833  1.00  0.00     0.010 A 
ATOM     61  C   UNL A   1      38.435  30.183  29.019  1.00  0.00     0.020 A 
ATOM     62  C   UNL A   1      39.285  30.356  31.288  1.00  0.00     0.020 A 
ATOM     63  C   UNL A   1      38.236  30.465  30.374  1.00  0.00     0.054 A 
BRANCH  63  64
ATOM     64  S   UNL A   1      36.579  30.950  30.932  1.00  0.00     0.124 S 
ATOM     65  O   UNL A   1      35.975  31.433  29.693  1.00  0.00    -0.237 OA
ATOM     66  O   UNL A   1      36.032  29.698  31.449  1.00  0.00    -0.237 OA
ATOM     67  O   UNL A   1      36.838  31.976  31.939  1.00  0.00    -0.744 OA
ENDBRANCH  63  64
ENDBRANCH  44  58
BRANCH  45  68
ATOM     68  C   UNL A   1      49.740  26.606  26.343  1.00  0.00    -0.014 A 
ATOM     69  C   UNL A   1      50.143  26.875  25.024  1.00  0.00     0.010 A 
ATOM     70  C   UNL A   1      50.619  25.919  27.200  1.00  0.00     0.010 A 
ATOM     71  C   UNL A   1      51.399  26.459  24.570  1.00  0.00     0.020 A 
ATOM     72  C   UNL A   1      51.887  25.529  26.760  1.00  0.00     0.020 A 
ATOM     73  C   UNL A   1      52.264  25.793  25.443  1.00  0.00     0.054 A 
BRANCH  73  74
ATOM     74  S   UNL A   1      53.916  25.323  24.857  1.00  0.00     0.124 S 
ATOM     75  O   UNL A   1      53.945  25.918  23.524  1.00  0.00    -0.237 OA
ATOM     76  O   UNL A   1      54.793  25.943  25.847  1.00  0.00    -0.237 OA
ATOM     77  O   UNL A   1      53.887  23.862  24.891  1.00  0.00    -0.744 OA
ENDBRANCH  73  74
ENDBRANCH  45  68
BRANCH  57  78
ATOM     78  C   UNL A   1      47.195  32.803  28.263  1.00  0.00    -0.014 A 
ATOM     79  C   UNL A   1      47.775  33.266  29.457  1.00  0.00     0.010 A 
ATOM     80  C   UNL A   1      47.231  33.621  27.119  1.00  0.00     0.010 A 
ATOM     81  C   UNL A   1      48.351  34.538  29.516  1.00  0.00     0.020 A 
ATOM     82  C   UNL A   1      47.828  34.884  27.167  1.00  0.00     0.020 A 
ATOM     83  C   UNL A   1      48.371  35.340  28.370  1.00  0.00     0.054 A 
BRANCH  83  84
ATOM     84  S   UNL A   1      49.158  36.972  28.459  1.00  0.00     0.124 S 
ATOM     85  O   UNL A   1      50.551  36.654  28.152  1.00  0.00    -0.237 OA
ATOM     86  O   UNL A   1      48.447  37.730  27.433  1.00  0.00    -0.237 OA
ATOM     87  O   UNL A   1      48.905  37.405  29.832  1.00  0.00    -0.744 OA
ENDBRANCH  83  84
ENDBRANCH  57  78
ENDBRANCH  31  32
ENDBRANCH  24  26
ENDBRANCH  23  24
ENDBRANCH   1  23
TORSDOF 16
ENDMDL
