MODEL 1
REMARK VINA RESULT:     -12.6      0.000      0.000
REMARK SMILES CS(=O)(=O)c1ccc(C2=NN(c3ccc(C(=O)OCCOC(=O)c4ccc(-c5c6nc(c(-c7ccc(S(=O)(=O)[O-])cc7)c7ccc([nH]7)c(-c7ccc(S(=O)(=O)[O-])cc7)c7nc(c(-c8ccc(S(=O)(=O)[O-])cc8)c8ccc5[nH]8)C=C7)C=C6)cc4)cc3)[C@H](c3ccc(Cl)cc3)C2)cc1
REMARK SMILES IDX 19 1 18 2 16 3 17 4 15 5 12 6 13 7 85 8 14 9 84 10 11 11
REMARK SMILES IDX 9 12 10 13 94 14 86 15 8 16 5 17 6 18 96 19 7 20 95 21 2 22
REMARK SMILES IDX 1 23 3 24 4 25 87 26 88 27 93 28 89 29 92 30 90 31 91 32
REMARK SMILES IDX 20 33 21 34 22 35 23 36 24 37 25 38 83 39 26 40 82 41 27 42
REMARK SMILES IDX 28 43 29 44 76 45 30 46 81 47 75 48 77 49 31 50 80 51 74 52
REMARK SMILES IDX 73 53 32 55 62 56 43 57 61 58 44 59 47 60 60 61 78 62 45 63
REMARK SMILES IDX 46 64 59 66 79 67 48 68 33 69 34 70 42 71 35 72 41 73 36 74
REMARK SMILES IDX 37 75 38 76 39 77 40 78 63 79 64 80 72 81 65 82 71 83 66 84
REMARK SMILES IDX 67 85 68 86 69 87 70 88 49 89 50 90 58 91 51 92 57 93 52 94
REMARK SMILES IDX 53 95 54 96 55 97 56 98
REMARK H PARENT 77 54 47 65
REMARK Flexibility Score: inf
ROOT
ATOM      1  C   UNL A   1      41.292  23.007  27.027  1.00  0.00     0.275 C 
ENDROOT
BRANCH   1   2
ATOM      2  O   UNL A   1      39.952  23.203  26.537  1.00  0.00    -0.458 OA
BRANCH   2   3
ATOM      3  C   UNL A   1      39.307  22.085  26.126  1.00  0.00     0.338 C 
ATOM      4  O   UNL A   1      39.717  20.939  26.216  1.00  0.00    -0.246 OA
BRANCH   3   5
ATOM      5  C   UNL A   1      37.963  22.412  25.586  1.00  0.00     0.060 A 
ATOM      6  C   UNL A   1      35.369  23.050  24.713  1.00  0.00     0.060 A 
ATOM      7  C   UNL A   1      35.970  23.790  25.734  1.00  0.00     0.029 A 
ATOM      8  C   UNL A   1      36.099  22.022  24.100  1.00  0.00     0.029 A 
ATOM      9  C   UNL A   1      37.244  23.453  26.189  1.00  0.00     0.018 A 
ATOM     10  C   UNL A   1      37.391  21.704  24.526  1.00  0.00     0.018 A 
BRANCH   6  11
ATOM     11  N   UNL A   1      34.021  23.231  24.390  1.00  0.00    -0.257 N 
ATOM     12  C   UNL A   1      32.405  24.621  24.264  1.00  0.00     0.071 C 
ATOM     13  N   UNL A   1      33.628  24.423  23.877  1.00  0.00    -0.176 NA
ATOM     14  C   UNL A   1      31.836  23.579  25.188  1.00  0.00     0.091 C 
ATOM     15  C   UNL A   1      33.020  22.607  25.267  1.00  0.00     0.144 C 
BRANCH  12  16
ATOM     16  C   UNL A   1      31.612  25.779  23.811  1.00  0.00    -0.002 A 
ATOM     17  C   UNL A   1      30.104  28.005  23.068  1.00  0.00     0.067 A 
ATOM     18  C   UNL A   1      30.123  27.604  24.404  1.00  0.00     0.021 A 
ATOM     19  C   UNL A   1      30.824  27.290  22.100  1.00  0.00     0.021 A 
ATOM     20  C   UNL A   1      30.873  26.484  24.770  1.00  0.00     0.011 A 
ATOM     21  C   UNL A   1      31.585  26.177  22.472  1.00  0.00     0.011 A 
BRANCH  17  22
ATOM     22  S   UNL A   1      29.211  29.445  22.531  1.00  0.00     0.175 S 
ATOM     23  C   UNL A   1      29.485  30.715  23.736  1.00  0.00     0.163 C 
ATOM     24  O   UNL A   1      27.805  29.097  22.559  1.00  0.00    -0.224 OA
ATOM     25  O   UNL A   1      29.853  29.882  21.304  1.00  0.00    -0.224 OA
ENDBRANCH  17  22
ENDBRANCH  12  16
BRANCH  15  26
ATOM     26  C   UNL A   1      32.815  21.166  24.819  1.00  0.00    -0.023 A 
ATOM     27  C   UNL A   1      32.417  20.813  23.522  1.00  0.00     0.007 A 
ATOM     28  C   UNL A   1      33.188  20.134  25.706  1.00  0.00     0.007 A 
ATOM     29  C   UNL A   1      32.397  19.470  23.124  1.00  0.00     0.021 A 
ATOM     30  C   UNL A   1      33.194  18.799  25.301  1.00  0.00     0.021 A 
ATOM     31  C   UNL A   1      32.798  18.473  24.009  1.00  0.00     0.041 A 
ATOM     32  Cl  UNL A   1      32.836  16.832  23.492  1.00  0.00    -0.084 Cl
ENDBRANCH  15  26
ENDBRANCH   6  11
ENDBRANCH   3   5
ENDBRANCH   2   3
ENDBRANCH   1   2
BRANCH   1  33
ATOM     33  C   UNL A   1      42.314  23.629  26.077  1.00  0.00     0.275 C 
BRANCH  33  34
ATOM     34  O   UNL A   1      42.733  24.917  26.558  1.00  0.00    -0.458 OA
BRANCH  34  35
ATOM     35  C   UNL A   1      41.993  25.968  26.134  1.00  0.00     0.338 C 
ATOM     36  O   UNL A   1      41.656  26.230  24.994  1.00  0.00    -0.246 OA
BRANCH  35  37
ATOM     37  C   UNL A   1      41.601  26.778  27.297  1.00  0.00     0.060 A 
ATOM     38  C   UNL A   1      42.247  27.992  27.519  1.00  0.00     0.016 A 
ATOM     39  C   UNL A   1      40.678  26.292  28.219  1.00  0.00     0.016 A 
ATOM     40  C   UNL A   1      42.014  28.707  28.690  1.00  0.00     0.010 A 
ATOM     41  C   UNL A   1      40.393  27.046  29.363  1.00  0.00     0.010 A 
ATOM     42  C   UNL A   1      41.074  28.251  29.622  1.00  0.00    -0.014 A 
BRANCH  42  43
ATOM     43  C   UNL A   1      40.819  29.005  30.880  1.00  0.00     0.031 A 
ATOM     44  C   UNL A   1      39.704  30.016  30.935  1.00  0.00     0.074 A 
ATOM     45  C   UNL A   1      41.586  28.798  31.970  1.00  0.00     0.049 A 
ATOM     46  N   UNL A   1      39.446  30.915  31.850  1.00  0.00    -0.248 NA
ATOM     47  C   UNL A   1      38.763  30.022  29.804  1.00  0.00     0.031 C 
ATOM     48  C   UNL A   1      42.653  27.802  32.083  1.00  0.00     0.029 A 
ATOM     49  N   UNL A   1      41.582  29.418  33.195  1.00  0.00    -0.354 N 
ATOM     50  C   UNL A   1      38.351  31.631  31.379  1.00  0.00     0.074 A 
ATOM     51  C   UNL A   1      37.993  31.060  30.099  1.00  0.00     0.031 C 
ATOM     52  C   UNL A   1      43.179  27.858  33.317  1.00  0.00     0.029 A 
ATOM     53  C   UNL A   1      42.552  28.952  34.051  1.00  0.00     0.049 A 
ATOM     54  H   UNL A   1      40.947  30.130  33.438  1.00  0.00     0.167 HD
ATOM     55  C   UNL A   1      37.709  32.676  31.959  1.00  0.00     0.031 A 
ATOM     56  C   UNL A   1      42.929  29.381  35.271  1.00  0.00     0.031 A 
ATOM     57  C   UNL A   1      38.054  33.218  33.247  1.00  0.00     0.049 A 
ATOM     58  C   UNL A   1      42.248  30.580  35.868  1.00  0.00     0.074 A 
ATOM     59  C   UNL A   1      37.465  34.271  33.924  1.00  0.00     0.029 A 
ATOM     60  N   UNL A   1      39.072  32.741  34.059  1.00  0.00    -0.354 N 
ATOM     61  N   UNL A   1      41.255  31.287  35.385  1.00  0.00    -0.248 NA
ATOM     62  C   UNL A   1      42.751  31.052  37.165  1.00  0.00     0.031 C 
ATOM     63  C   UNL A   1      38.154  34.458  35.128  1.00  0.00     0.029 A 
ATOM     64  C   UNL A   1      39.140  33.488  35.223  1.00  0.00     0.049 A 
ATOM     65  H   UNL A   1      39.661  31.982  33.840  1.00  0.00     0.167 HD
ATOM     66  C   UNL A   1      41.003  32.277  36.327  1.00  0.00     0.074 A 
ATOM     67  C   UNL A   1      41.939  32.071  37.413  1.00  0.00     0.031 C 
ATOM     68  C   UNL A   1      40.077  33.267  36.295  1.00  0.00     0.031 A 
BRANCH  55  69
ATOM     69  C   UNL A   1      36.607  33.335  31.172  1.00  0.00    -0.014 A 
ATOM     70  C   UNL A   1      36.839  33.897  29.903  1.00  0.00     0.010 A 
ATOM     71  C   UNL A   1      35.309  33.382  31.713  1.00  0.00     0.010 A 
ATOM     72  C   UNL A   1      35.804  34.541  29.217  1.00  0.00     0.020 A 
ATOM     73  C   UNL A   1      34.266  34.002  31.018  1.00  0.00     0.020 A 
ATOM     74  C   UNL A   1      34.527  34.599  29.783  1.00  0.00     0.054 A 
BRANCH  74  75
ATOM     75  S   UNL A   1      33.204  35.451  28.879  1.00  0.00     0.124 S 
ATOM     76  O   UNL A   1      32.590  34.351  28.140  1.00  0.00    -0.237 OA
ATOM     77  O   UNL A   1      32.392  36.016  29.952  1.00  0.00    -0.237 OA
ATOM     78  O   UNL A   1      33.919  36.428  28.061  1.00  0.00    -0.744 OA
ENDBRANCH  74  75
ENDBRANCH  55  69
BRANCH  56  79
ATOM     79  C   UNL A   1      44.038  28.692  35.989  1.00  0.00    -0.014 A 
ATOM     80  C   UNL A   1      45.363  29.135  35.842  1.00  0.00     0.010 A 
ATOM     81  C   UNL A   1      43.768  27.609  36.847  1.00  0.00     0.010 A 
ATOM     82  C   UNL A   1      46.400  28.507  36.539  1.00  0.00     0.020 A 
ATOM     83  C   UNL A   1      44.798  26.997  37.566  1.00  0.00     0.020 A 
ATOM     84  C   UNL A   1      46.109  27.445  37.402  1.00  0.00     0.054 A 
BRANCH  84  85
ATOM     85  S   UNL A   1      47.459  26.693  38.354  1.00  0.00     0.124 S 
ATOM     86  O   UNL A   1      48.614  26.954  37.502  1.00  0.00    -0.237 OA
ATOM     87  O   UNL A   1      47.416  27.441  39.609  1.00  0.00    -0.237 OA
ATOM     88  O   UNL A   1      47.061  25.291  38.461  1.00  0.00    -0.744 OA
ENDBRANCH  84  85
ENDBRANCH  56  79
BRANCH  68  89
ATOM     89  C   UNL A   1      40.001  34.180  37.488  1.00  0.00    -0.014 A 
ATOM     90  C   UNL A   1      40.730  35.380  37.533  1.00  0.00     0.010 A 
ATOM     91  C   UNL A   1      39.138  33.857  38.551  1.00  0.00     0.010 A 
ATOM     92  C   UNL A   1      40.613  36.234  38.633  1.00  0.00     0.020 A 
ATOM     93  C   UNL A   1      39.001  34.719  39.642  1.00  0.00     0.020 A 
ATOM     94  C   UNL A   1      39.748  35.899  39.681  1.00  0.00     0.054 A 
BRANCH  94  95
ATOM     95  S   UNL A   1      39.568  37.050  41.071  1.00  0.00     0.124 S 
ATOM     96  O   UNL A   1      38.653  38.047  40.523  1.00  0.00    -0.237 OA
ATOM     97  O   UNL A   1      39.015  36.199  42.122  1.00  0.00    -0.237 OA
ATOM     98  O   UNL A   1      40.931  37.518  41.311  1.00  0.00    -0.744 OA
ENDBRANCH  94  95
ENDBRANCH  68  89
ENDBRANCH  42  43
ENDBRANCH  35  37
ENDBRANCH  34  35
ENDBRANCH  33  34
ENDBRANCH   1  33
TORSDOF 18
ENDMDL
MODEL 2
REMARK VINA RESULT:     -12.1      6.295     12.075
REMARK SMILES CS(=O)(=O)c1ccc(C2=NN(c3ccc(C(=O)OCCOC(=O)c4ccc(-c5c6nc(c(-c7ccc(S(=O)(=O)[O-])cc7)c7ccc([nH]7)c(-c7ccc(S(=O)(=O)[O-])cc7)c7nc(c(-c8ccc(S(=O)(=O)[O-])cc8)c8ccc5[nH]8)C=C7)C=C6)cc4)cc3)[C@H](c3ccc(Cl)cc3)C2)cc1
REMARK SMILES IDX 19 1 18 2 16 3 17 4 15 5 12 6 13 7 85 8 14 9 84 10 11 11
REMARK SMILES IDX 9 12 10 13 94 14 86 15 8 16 5 17 6 18 96 19 7 20 95 21 2 22
REMARK SMILES IDX 1 23 3 24 4 25 87 26 88 27 93 28 89 29 92 30 90 31 91 32
REMARK SMILES IDX 20 33 21 34 22 35 23 36 24 37 25 38 83 39 26 40 82 41 27 42
REMARK SMILES IDX 28 43 29 44 76 45 30 46 81 47 75 48 77 49 31 50 80 51 74 52
REMARK SMILES IDX 73 53 32 55 62 56 43 57 61 58 44 59 47 60 60 61 78 62 45 63
REMARK SMILES IDX 46 64 59 66 79 67 48 68 33 69 34 70 42 71 35 72 41 73 36 74
REMARK SMILES IDX 37 75 38 76 39 77 40 78 63 79 64 80 72 81 65 82 71 83 66 84
REMARK SMILES IDX 67 85 68 86 69 87 70 88 49 89 50 90 58 91 51 92 57 93 52 94
REMARK SMILES IDX 53 95 54 96 55 97 56 98
REMARK H PARENT 77 54 47 65
REMARK Flexibility Score: inf
ROOT
ATOM      1  C   UNL A   1      35.625  32.277  29.578  1.00  0.00     0.275 C 
ENDROOT
BRANCH   1   2
ATOM      2  O   UNL A   1      35.223  31.307  28.592  1.00  0.00    -0.458 OA
BRANCH   2   3
ATOM      3  C   UNL A   1      34.071  31.580  27.934  1.00  0.00     0.338 C 
ATOM      4  O   UNL A   1      33.544  32.676  27.825  1.00  0.00    -0.246 OA
BRANCH   3   5
ATOM      5  C   UNL A   1      33.528  30.363  27.281  1.00  0.00     0.060 A 
ATOM      6  C   UNL A   1      32.627  28.057  25.951  1.00  0.00     0.060 A 
ATOM      7  C   UNL A   1      33.965  28.171  26.337  1.00  0.00     0.029 A 
ATOM      8  C   UNL A   1      31.736  29.087  26.283  1.00  0.00     0.029 A 
ATOM      9  C   UNL A   1      34.418  29.327  26.967  1.00  0.00     0.018 A 
ATOM     10  C   UNL A   1      32.176  30.233  26.949  1.00  0.00     0.018 A 
BRANCH   6  11
ATOM     11  N   UNL A   1      32.201  27.007  25.133  1.00  0.00    -0.257 N 
ATOM     12  C   UNL A   1      32.587  25.015  24.468  1.00  0.00     0.071 C 
ATOM     13  N   UNL A   1      32.426  25.732  25.537  1.00  0.00    -0.176 NA
ATOM     14  C   UNL A   1      32.567  25.770  23.166  1.00  0.00     0.091 C 
ATOM     15  C   UNL A   1      32.301  27.191  23.678  1.00  0.00     0.144 C 
BRANCH  12  16
ATOM     16  C   UNL A   1      32.755  23.550  24.518  1.00  0.00    -0.002 A 
ATOM     17  C   UNL A   1      32.963  20.773  24.660  1.00  0.00     0.067 A 
ATOM     18  C   UNL A   1      31.986  21.427  25.410  1.00  0.00     0.021 A 
ATOM     19  C   UNL A   1      33.845  21.501  23.849  1.00  0.00     0.021 A 
ATOM     20  C   UNL A   1      31.891  22.818  25.342  1.00  0.00     0.011 A 
ATOM     21  C   UNL A   1      33.738  22.894  23.773  1.00  0.00     0.011 A 
BRANCH  17  22
ATOM     22  S   UNL A   1      33.118  19.002  24.658  1.00  0.00     0.175 S 
ATOM     23  C   UNL A   1      32.506  18.420  23.101  1.00  0.00     0.163 C 
ATOM     24  O   UNL A   1      32.239  18.506  25.698  1.00  0.00    -0.224 OA
ATOM     25  O   UNL A   1      34.543  18.723  24.682  1.00  0.00    -0.224 OA
ENDBRANCH  17  22
ENDBRANCH  12  16
BRANCH  15  26
ATOM     26  C   UNL A   1      31.055  27.921  23.195  1.00  0.00    -0.023 A 
ATOM     27  C   UNL A   1      29.756  27.566  23.586  1.00  0.00     0.007 A 
ATOM     28  C   UNL A   1      31.226  29.102  22.441  1.00  0.00     0.007 A 
ATOM     29  C   UNL A   1      28.663  28.369  23.235  1.00  0.00     0.021 A 
ATOM     30  C   UNL A   1      30.140  29.916  22.116  1.00  0.00     0.021 A 
ATOM     31  C   UNL A   1      28.862  29.545  22.515  1.00  0.00     0.041 A 
ATOM     32  Cl  UNL A   1      27.523  30.562  22.148  1.00  0.00    -0.084 Cl
ENDBRANCH  15  26
ENDBRANCH   6  11
ENDBRANCH   3   5
ENDBRANCH   2   3
ENDBRANCH   1   2
BRANCH   1  33
ATOM     33  C   UNL A   1      35.406  31.738  30.991  1.00  0.00     0.275 C 
BRANCH  33  34
ATOM     34  O   UNL A   1      36.121  30.504  31.177  1.00  0.00    -0.458 OA
BRANCH  34  35
ATOM     35  C   UNL A   1      37.203  30.573  31.988  1.00  0.00     0.338 C 
ATOM     36  O   UNL A   1      37.234  30.887  33.163  1.00  0.00    -0.246 OA
BRANCH  35  37
ATOM     37  C   UNL A   1      38.395  30.166  31.229  1.00  0.00     0.060 A 
ATOM     38  C   UNL A   1      39.429  29.516  31.899  1.00  0.00     0.016 A 
ATOM     39  C   UNL A   1      38.536  30.518  29.889  1.00  0.00     0.016 A 
ATOM     40  C   UNL A   1      40.633  29.257  31.251  1.00  0.00     0.010 A 
ATOM     41  C   UNL A   1      39.720  30.195  29.219  1.00  0.00     0.010 A 
ATOM     42  C   UNL A   1      40.791  29.581  29.897  1.00  0.00    -0.014 A 
BRANCH  42  43
ATOM     43  C   UNL A   1      42.075  29.313  29.194  1.00  0.00     0.031 A 
ATOM     44  C   UNL A   1      42.336  27.953  28.602  1.00  0.00     0.074 A 
ATOM     45  C   UNL A   1      43.013  30.276  29.090  1.00  0.00     0.049 A 
ATOM     46  N   UNL A   1      43.451  27.453  28.136  1.00  0.00    -0.248 NA
ATOM     47  C   UNL A   1      41.190  27.031  28.538  1.00  0.00     0.031 C 
ATOM     48  C   UNL A   1      42.868  31.658  29.552  1.00  0.00     0.029 A 
ATOM     49  N   UNL A   1      44.279  30.237  28.559  1.00  0.00    -0.354 N 
ATOM     50  C   UNL A   1      43.159  26.141  27.779  1.00  0.00     0.074 A 
ATOM     51  C   UNL A   1      41.760  25.924  28.080  1.00  0.00     0.031 C 
ATOM     52  C   UNL A   1      43.987  32.340  29.258  1.00  0.00     0.029 A 
ATOM     53  C   UNL A   1      44.960  31.426  28.670  1.00  0.00     0.049 A 
ATOM     54  H   UNL A   1      44.662  29.433  28.138  1.00  0.00     0.167 HD
ATOM     55  C   UNL A   1      43.984  25.201  27.255  1.00  0.00     0.031 A 
ATOM     56  C   UNL A   1      46.238  31.739  28.377  1.00  0.00     0.031 A 
ATOM     57  C   UNL A   1      45.367  25.435  26.930  1.00  0.00     0.049 A 
ATOM     58  C   UNL A   1      47.153  30.666  27.858  1.00  0.00     0.074 A 
ATOM     59  C   UNL A   1      46.287  24.552  26.393  1.00  0.00     0.029 A 
ATOM     60  N   UNL A   1      46.026  26.643  27.101  1.00  0.00    -0.354 N 
ATOM     61  N   UNL A   1      46.880  29.414  27.583  1.00  0.00    -0.248 NA
ATOM     62  C   UNL A   1      48.554  31.044  27.630  1.00  0.00     0.031 C 
ATOM     63  C   UNL A   1      47.515  25.214  26.279  1.00  0.00     0.029 A 
ATOM     64  C   UNL A   1      47.345  26.525  26.697  1.00  0.00     0.049 A 
ATOM     65  H   UNL A   1      45.616  27.465  27.459  1.00  0.00     0.167 HD
ATOM     66  C   UNL A   1      48.071  28.858  27.132  1.00  0.00     0.074 A 
ATOM     67  C   UNL A   1      49.063  29.912  27.160  1.00  0.00     0.031 C 
ATOM     68  C   UNL A   1      48.319  27.587  26.728  1.00  0.00     0.031 A 
BRANCH  55  69
ATOM     69  C   UNL A   1      43.422  23.818  27.059  1.00  0.00    -0.014 A 
ATOM     70  C   UNL A   1      43.136  22.975  28.147  1.00  0.00     0.010 A 
ATOM     71  C   UNL A   1      43.166  23.359  25.753  1.00  0.00     0.010 A 
ATOM     72  C   UNL A   1      42.656  21.679  27.930  1.00  0.00     0.020 A 
ATOM     73  C   UNL A   1      42.662  22.074  25.533  1.00  0.00     0.020 A 
ATOM     74  C   UNL A   1      42.432  21.233  26.623  1.00  0.00     0.054 A 
BRANCH  74  75
ATOM     75  S   UNL A   1      41.822  19.543  26.366  1.00  0.00     0.124 S 
ATOM     76  O   UNL A   1      42.462  19.182  25.104  1.00  0.00    -0.237 OA
ATOM     77  O   UNL A   1      42.315  18.838  27.545  1.00  0.00    -0.237 OA
ATOM     78  O   UNL A   1      40.371  19.706  26.303  1.00  0.00    -0.744 OA
ENDBRANCH  74  75
ENDBRANCH  55  69
BRANCH  56  79
ATOM     79  C   UNL A   1      46.733  33.124  28.610  1.00  0.00    -0.014 A 
ATOM     80  C   UNL A   1      46.780  34.048  27.554  1.00  0.00     0.010 A 
ATOM     81  C   UNL A   1      47.131  33.533  29.897  1.00  0.00     0.010 A 
ATOM     82  C   UNL A   1      47.218  35.358  27.778  1.00  0.00     0.020 A 
ATOM     83  C   UNL A   1      47.542  34.848  30.131  1.00  0.00     0.020 A 
ATOM     84  C   UNL A   1      47.590  35.751  29.067  1.00  0.00     0.054 A 
BRANCH  84  85
ATOM     85  S   UNL A   1      48.082  37.474  29.352  1.00  0.00     0.124 S 
ATOM     86  O   UNL A   1      49.358  37.545  28.649  1.00  0.00    -0.237 OA
ATOM     87  O   UNL A   1      46.982  38.222  28.745  1.00  0.00    -0.237 OA
ATOM     88  O   UNL A   1      48.160  37.571  30.808  1.00  0.00    -0.744 OA
ENDBRANCH  84  85
ENDBRANCH  56  79
BRANCH  68  89
ATOM     89  C   UNL A   1      49.708  27.275  26.246  1.00  0.00    -0.014 A 
ATOM     90  C   UNL A   1      50.046  27.380  24.885  1.00  0.00     0.010 A 
ATOM     91  C   UNL A   1      50.703  26.932  27.179  1.00  0.00     0.010 A 
ATOM     92  C   UNL A   1      51.355  27.125  24.464  1.00  0.00     0.020 A 
ATOM     93  C   UNL A   1      52.016  26.699  26.765  1.00  0.00     0.020 A 
ATOM     94  C   UNL A   1      52.332  26.787  25.407  1.00  0.00     0.054 A 
BRANCH  94  95
ATOM     95  S   UNL A   1      54.036  26.519  24.844  1.00  0.00     0.124 S 
ATOM     96  O   UNL A   1      53.976  25.151  24.337  1.00  0.00    -0.237 OA
ATOM     97  O   UNL A   1      54.207  27.558  23.832  1.00  0.00    -0.237 OA
ATOM     98  O   UNL A   1      54.833  26.702  26.055  1.00  0.00    -0.744 OA
ENDBRANCH  94  95
ENDBRANCH  68  89
ENDBRANCH  42  43
ENDBRANCH  35  37
ENDBRANCH  34  35
ENDBRANCH  33  34
ENDBRANCH   1  33
TORSDOF 18
ENDMDL
MODEL 3
REMARK VINA RESULT:     -12.1      3.617      4.713
REMARK SMILES CS(=O)(=O)c1ccc(C2=NN(c3ccc(C(=O)OCCOC(=O)c4ccc(-c5c6nc(c(-c7ccc(S(=O)(=O)[O-])cc7)c7ccc([nH]7)c(-c7ccc(S(=O)(=O)[O-])cc7)c7nc(c(-c8ccc(S(=O)(=O)[O-])cc8)c8ccc5[nH]8)C=C7)C=C6)cc4)cc3)[C@H](c3ccc(Cl)cc3)C2)cc1
REMARK SMILES IDX 19 1 18 2 16 3 17 4 15 5 12 6 13 7 85 8 14 9 84 10 11 11
REMARK SMILES IDX 9 12 10 13 94 14 86 15 8 16 5 17 6 18 96 19 7 20 95 21 2 22
REMARK SMILES IDX 1 23 3 24 4 25 87 26 88 27 93 28 89 29 92 30 90 31 91 32
REMARK SMILES IDX 20 33 21 34 22 35 23 36 24 37 25 38 83 39 26 40 82 41 27 42
REMARK SMILES IDX 28 43 29 44 76 45 30 46 81 47 75 48 77 49 31 50 80 51 74 52
REMARK SMILES IDX 73 53 32 55 62 56 43 57 61 58 44 59 47 60 60 61 78 62 45 63
REMARK SMILES IDX 46 64 59 66 79 67 48 68 33 69 34 70 42 71 35 72 41 73 36 74
REMARK SMILES IDX 37 75 38 76 39 77 40 78 63 79 64 80 72 81 65 82 71 83 66 84
REMARK SMILES IDX 67 85 68 86 69 87 70 88 49 89 50 90 58 91 51 92 57 93 52 94
REMARK SMILES IDX 53 95 54 96 55 97 56 98
REMARK H PARENT 77 54 47 65
REMARK Flexibility Score: inf
ROOT
ATOM      1  C   UNL A   1      40.125  20.441  26.749  1.00  0.00     0.275 C 
ENDROOT
BRANCH   1   2
ATOM      2  O   UNL A   1      39.480  21.216  25.721  1.00  0.00    -0.458 OA
BRANCH   2   3
ATOM      3  C   UNL A   1      39.079  22.457  26.084  1.00  0.00     0.338 C 
ATOM      4  O   UNL A   1      39.728  23.267  26.727  1.00  0.00    -0.246 OA
BRANCH   3   5
ATOM      5  C   UNL A   1      37.732  22.764  25.541  1.00  0.00     0.060 A 
ATOM      6  C   UNL A   1      35.128  23.349  24.663  1.00  0.00     0.060 A 
ATOM      7  C   UNL A   1      35.672  24.029  25.755  1.00  0.00     0.029 A 
ATOM      8  C   UNL A   1      35.919  22.411  23.984  1.00  0.00     0.029 A 
ATOM      9  C   UNL A   1      36.951  23.717  26.210  1.00  0.00     0.018 A 
ATOM     10  C   UNL A   1      37.217  22.120  24.413  1.00  0.00     0.018 A 
BRANCH   6  11
ATOM     11  N   UNL A   1      33.779  23.493  24.324  1.00  0.00    -0.257 N 
ATOM     12  C   UNL A   1      32.120  24.831  24.203  1.00  0.00     0.071 C 
ATOM     13  N   UNL A   1      33.353  24.682  23.829  1.00  0.00    -0.176 NA
ATOM     14  C   UNL A   1      31.573  23.752  25.097  1.00  0.00     0.091 C 
ATOM     15  C   UNL A   1      32.787  22.818  25.174  1.00  0.00     0.144 C 
BRANCH  12  16
ATOM     16  C   UNL A   1      31.295  25.972  23.761  1.00  0.00    -0.002 A 
ATOM     17  C   UNL A   1      29.648  28.090  23.000  1.00  0.00     0.067 A 
ATOM     18  C   UNL A   1      29.090  26.981  23.635  1.00  0.00     0.021 A 
ATOM     19  C   UNL A   1      31.023  28.139  22.731  1.00  0.00     0.021 A 
ATOM     20  C   UNL A   1      29.917  25.919  24.007  1.00  0.00     0.011 A 
ATOM     21  C   UNL A   1      31.851  27.080  23.118  1.00  0.00     0.011 A 
BRANCH  17  22
ATOM     22  S   UNL A   1      28.669  29.500  22.536  1.00  0.00     0.175 S 
ATOM     23  C   UNL A   1      29.138  30.839  23.596  1.00  0.00     0.163 C 
ATOM     24  O   UNL A   1      27.290  29.161  22.825  1.00  0.00    -0.224 OA
ATOM     25  O   UNL A   1      29.089  29.856  21.193  1.00  0.00    -0.224 OA
ENDBRANCH  17  22
ENDBRANCH  12  16
BRANCH  15  26
ATOM     26  C   UNL A   1      32.636  21.381  24.694  1.00  0.00    -0.023 A 
ATOM     27  C   UNL A   1      32.234  21.042  23.394  1.00  0.00     0.007 A 
ATOM     28  C   UNL A   1      33.065  20.345  25.550  1.00  0.00     0.007 A 
ATOM     29  C   UNL A   1      32.264  19.710  22.964  1.00  0.00     0.021 A 
ATOM     30  C   UNL A   1      33.121  19.021  25.113  1.00  0.00     0.021 A 
ATOM     31  C   UNL A   1      32.720  18.709  23.820  1.00  0.00     0.041 A 
ATOM     32  Cl  UNL A   1      32.819  17.084  23.262  1.00  0.00    -0.084 Cl
ENDBRANCH  15  26
ENDBRANCH   6  11
ENDBRANCH   3   5
ENDBRANCH   2   3
ENDBRANCH   1   2
BRANCH   1  33
ATOM     33  C   UNL A   1      41.321  19.676  26.183  1.00  0.00     0.275 C 
BRANCH  33  34
ATOM     34  O   UNL A   1      42.551  20.186  26.727  1.00  0.00    -0.458 OA
BRANCH  34  35
ATOM     35  C   UNL A   1      43.175  21.124  25.977  1.00  0.00     0.338 C 
ATOM     36  O   UNL A   1      43.562  21.022  24.827  1.00  0.00    -0.246 OA
BRANCH  35  37
ATOM     37  C   UNL A   1      43.305  22.358  26.766  1.00  0.00     0.060 A 
ATOM     38  C   UNL A   1      42.957  22.334  28.114  1.00  0.00     0.016 A 
ATOM     39  C   UNL A   1      43.667  23.555  26.153  1.00  0.00     0.016 A 
ATOM     40  C   UNL A   1      42.916  23.514  28.851  1.00  0.00     0.010 A 
ATOM     41  C   UNL A   1      43.694  24.730  26.913  1.00  0.00     0.010 A 
ATOM     42  C   UNL A   1      43.297  24.727  28.264  1.00  0.00    -0.014 A 
BRANCH  42  43
ATOM     43  C   UNL A   1      43.255  25.996  29.041  1.00  0.00     0.031 A 
ATOM     44  C   UNL A   1      41.996  26.821  29.061  1.00  0.00     0.074 A 
ATOM     45  C   UNL A   1      44.341  26.419  29.720  1.00  0.00     0.049 A 
ATOM     46  N   UNL A   1      41.813  28.041  29.497  1.00  0.00    -0.248 NA
ATOM     47  C   UNL A   1      40.787  26.193  28.505  1.00  0.00     0.031 C 
ATOM     48  C   UNL A   1      45.603  25.688  29.848  1.00  0.00     0.029 A 
ATOM     49  N   UNL A   1      44.554  27.572  30.434  1.00  0.00    -0.354 N 
ATOM     50  C   UNL A   1      40.486  28.349  29.216  1.00  0.00     0.074 A 
ATOM     51  C   UNL A   1      39.911  27.186  28.574  1.00  0.00     0.031 C 
ATOM     52  C   UNL A   1      46.445  26.395  30.618  1.00  0.00     0.029 A 
ATOM     53  C   UNL A   1      45.820  27.667  30.963  1.00  0.00     0.049 A 
ATOM     54  H   UNL A   1      43.866  28.266  30.556  1.00  0.00     0.167 HD
ATOM     55  C   UNL A   1      39.812  29.499  29.463  1.00  0.00     0.031 A 
ATOM     56  C   UNL A   1      46.429  28.679  31.612  1.00  0.00     0.031 A 
ATOM     57  C   UNL A   1      40.383  30.640  30.130  1.00  0.00     0.049 A 
ATOM     58  C   UNL A   1      45.686  29.968  31.819  1.00  0.00     0.074 A 
ATOM     59  C   UNL A   1      39.785  31.851  30.431  1.00  0.00     0.029 A 
ATOM     60  N   UNL A   1      41.684  30.706  30.609  1.00  0.00    -0.354 N 
ATOM     61  N   UNL A   1      44.451  30.268  31.493  1.00  0.00    -0.248 NA
ATOM     62  C   UNL A   1      46.424  31.063  32.464  1.00  0.00     0.031 C 
ATOM     63  C   UNL A   1      40.737  32.665  31.056  1.00  0.00     0.029 A 
ATOM     64  C   UNL A   1      41.913  31.943  31.188  1.00  0.00     0.049 A 
ATOM     65  H   UNL A   1      42.347  29.980  30.545  1.00  0.00     0.167 HD
ATOM     66  C   UNL A   1      44.259  31.579  31.909  1.00  0.00     0.074 A 
ATOM     67  C   UNL A   1      45.499  32.012  32.520  1.00  0.00     0.031 C 
ATOM     68  C   UNL A   1      43.153  32.355  31.795  1.00  0.00     0.031 A 
BRANCH  55  69
ATOM     69  C   UNL A   1      38.397  29.597  28.954  1.00  0.00    -0.014 A 
ATOM     70  C   UNL A   1      37.292  29.484  29.816  1.00  0.00     0.010 A 
ATOM     71  C   UNL A   1      38.174  29.819  27.583  1.00  0.00     0.010 A 
ATOM     72  C   UNL A   1      35.991  29.535  29.307  1.00  0.00     0.020 A 
ATOM     73  C   UNL A   1      36.875  29.897  27.073  1.00  0.00     0.020 A 
ATOM     74  C   UNL A   1      35.790  29.731  27.937  1.00  0.00     0.054 A 
BRANCH  74  75
ATOM     75  S   UNL A   1      34.093  29.782  27.297  1.00  0.00     0.124 S 
ATOM     76  O   UNL A   1      33.509  28.586  27.899  1.00  0.00    -0.237 OA
ATOM     77  O   UNL A   1      33.591  31.052  27.812  1.00  0.00    -0.237 OA
ATOM     78  O   UNL A   1      34.268  29.727  25.847  1.00  0.00    -0.744 OA
ENDBRANCH  74  75
ENDBRANCH  55  69
BRANCH  56  79
ATOM     79  C   UNL A   1      47.835  28.521  32.076  1.00  0.00    -0.014 A 
ATOM     80  C   UNL A   1      48.108  28.030  33.363  1.00  0.00     0.010 A 
ATOM     81  C   UNL A   1      48.909  28.833  31.219  1.00  0.00     0.010 A 
ATOM     82  C   UNL A   1      49.429  27.853  33.788  1.00  0.00     0.020 A 
ATOM     83  C   UNL A   1      50.229  28.632  31.631  1.00  0.00     0.020 A 
ATOM     84  C   UNL A   1      50.481  28.150  32.916  1.00  0.00     0.054 A 
BRANCH  84  85
ATOM     85  S   UNL A   1      52.185  27.843  33.460  1.00  0.00     0.124 S 
ATOM     86  O   UNL A   1      51.989  27.400  34.836  1.00  0.00    -0.237 OA
ATOM     87  O   UNL A   1      52.637  26.816  32.522  1.00  0.00    -0.237 OA
ATOM     88  O   UNL A   1      52.833  29.144  33.304  1.00  0.00    -0.744 OA
ENDBRANCH  84  85
ENDBRANCH  56  79
BRANCH  68  89
ATOM     89  C   UNL A   1      43.217  33.739  32.380  1.00  0.00    -0.014 A 
ATOM     90  C   UNL A   1      43.694  34.826  31.626  1.00  0.00     0.010 A 
ATOM     91  C   UNL A   1      42.735  33.963  33.682  1.00  0.00     0.010 A 
ATOM     92  C   UNL A   1      43.707  36.111  32.176  1.00  0.00     0.020 A 
ATOM     93  C   UNL A   1      42.724  35.249  34.225  1.00  0.00     0.020 A 
ATOM     94  C   UNL A   1      43.221  36.315  33.471  1.00  0.00     0.054 A 
BRANCH  94  95
ATOM     95  S   UNL A   1      43.192  38.001  34.141  1.00  0.00     0.124 S 
ATOM     96  O   UNL A   1      43.066  38.807  32.930  1.00  0.00    -0.237 OA
ATOM     97  O   UNL A   1      42.017  37.981  35.009  1.00  0.00    -0.237 OA
ATOM     98  O   UNL A   1      44.471  38.117  34.839  1.00  0.00    -0.744 OA
ENDBRANCH  94  95
ENDBRANCH  68  89
ENDBRANCH  42  43
ENDBRANCH  35  37
ENDBRANCH  34  35
ENDBRANCH  33  34
ENDBRANCH   1  33
TORSDOF 18
ENDMDL
