MODEL 1
REMARK VINA RESULT:     -11.4      0.000      0.000
REMARK SMILES O=C(OCCOC(=O)[C@H]1O[C@@H](Oc2c(-c3cc(O)c(O)c(O)c3)oc3cc(O)cc(O)c3c2=O)[C@H](O)[C@@H](O)[C@@H]1O)c1ccc(-c2c3nc(c(-c4ccc(S(=O)(=O)[O-])cc4)c4ccc([nH]4)c(-c4ccc(S(=O)(=O)[O-])cc4)c4nc(c(-c5ccc(S(=O)(=O)[O-])cc5)c5ccc2[nH]5)C=C4)C=C3)cc1
REMARK SMILES IDX 5 1 4 2 3 3 2 4 1 5 41 6 42 7 100 8 43 9 99 10 44 11 45 12
REMARK SMILES IDX 46 13 93 14 47 15 98 16 92 17 94 18 48 19 97 20 91 21 90 22
REMARK SMILES IDX 49 24 79 25 60 26 78 27 61 28 64 29 77 30 95 31 62 32 63 33
REMARK SMILES IDX 76 35 96 36 65 37 50 38 51 39 59 40 52 41 58 42 53 43 54 44
REMARK SMILES IDX 55 45 56 46 57 47 80 48 81 49 89 50 82 51 88 52 83 53 84 54
REMARK SMILES IDX 85 55 86 56 87 57 66 58 67 59 75 60 68 61 74 62 69 63 70 64
REMARK SMILES IDX 71 65 72 66 73 67 6 68 7 69 8 70 9 71 10 72 39 73 11 74
REMARK SMILES IDX 37 75 35 76 40 77 12 79 13 80 14 81 33 82 24 83 32 84 34 85
REMARK SMILES IDX 25 86 30 87 26 88 29 89 27 90 15 91 16 92 23 93 17 94 21 95
REMARK SMILES IDX 19 96 18 97 22 99 20 101 31 103 28 105 38 107 36 109
REMARK H PARENT 94 23 64 34 40 78 18 98 22 100 20 102 31 104 28 106 38 108
REMARK H PARENT 36 110
REMARK Flexibility Score: inf
ROOT
ATOM      1  C   UNL A   1      32.726  29.841  25.562  1.00  0.00     0.274 C 
ENDROOT
BRANCH   1   2
ATOM      2  C   UNL A   1      33.694  29.575  26.719  1.00  0.00     0.275 C 
BRANCH   2   3
ATOM      3  O   UNL A   1      33.852  30.707  27.593  1.00  0.00    -0.458 OA
BRANCH   3   4
ATOM      4  C   UNL A   1      34.971  31.372  27.966  1.00  0.00     0.338 C 
ATOM      5  O   UNL A   1      35.101  32.539  27.591  1.00  0.00    -0.246 OA
BRANCH   4   6
ATOM      6  C   UNL A   1      36.152  30.743  28.653  1.00  0.00     0.060 A 
ATOM      7  C   UNL A   1      36.131  29.767  29.656  1.00  0.00     0.016 A 
ATOM      8  C   UNL A   1      37.414  31.141  28.170  1.00  0.00     0.016 A 
ATOM      9  C   UNL A   1      37.310  29.168  30.128  1.00  0.00     0.010 A 
ATOM     10  C   UNL A   1      38.591  30.533  28.620  1.00  0.00     0.010 A 
ATOM     11  C   UNL A   1      38.547  29.551  29.621  1.00  0.00    -0.014 A 
BRANCH  11  12
ATOM     12  C   UNL A   1      39.812  29.131  30.266  1.00  0.00     0.031 A 
ATOM     13  C   UNL A   1      40.367  30.042  31.318  1.00  0.00     0.074 A 
ATOM     14  C   UNL A   1      40.474  28.006  29.939  1.00  0.00     0.049 A 
ATOM     15  N   UNL A   1      41.500  29.968  31.957  1.00  0.00    -0.248 NA
ATOM     16  C   UNL A   1      39.505  31.163  31.735  1.00  0.00     0.031 C 
ATOM     17  C   UNL A   1      39.973  26.936  29.088  1.00  0.00     0.029 A 
ATOM     18  N   UNL A   1      41.757  27.610  30.233  1.00  0.00    -0.354 N 
ATOM     19  C   UNL A   1      41.464  30.997  32.884  1.00  0.00     0.074 A 
ATOM     20  C   UNL A   1      40.249  31.744  32.658  1.00  0.00     0.031 C 
ATOM     21  C   UNL A   1      40.983  26.106  28.777  1.00  0.00     0.029 A 
ATOM     22  C   UNL A   1      42.187  26.559  29.452  1.00  0.00     0.049 A 
ATOM     23  H   UNL A   1      42.310  28.032  30.929  1.00  0.00     0.167 HD
ATOM     24  C   UNL A   1      42.345  31.257  33.874  1.00  0.00     0.031 A 
ATOM     25  C   UNL A   1      43.416  26.036  29.283  1.00  0.00     0.031 A 
ATOM     26  C   UNL A   1      43.571  30.534  34.042  1.00  0.00     0.049 A 
ATOM     27  C   UNL A   1      44.498  26.488  30.218  1.00  0.00     0.074 A 
ATOM     28  C   UNL A   1      44.549  30.700  35.003  1.00  0.00     0.029 A 
ATOM     29  N   UNL A   1      44.002  29.518  33.196  1.00  0.00    -0.354 N 
ATOM     30  N   UNL A   1      44.439  27.426  31.135  1.00  0.00    -0.248 NA
ATOM     31  C   UNL A   1      45.772  25.763  30.172  1.00  0.00     0.031 C 
ATOM     32  C   UNL A   1      45.604  29.837  34.694  1.00  0.00     0.029 A 
ATOM     33  C   UNL A   1      45.252  29.077  33.586  1.00  0.00     0.049 A 
ATOM     34  H   UNL A   1      43.491  29.165  32.432  1.00  0.00     0.167 HD
ATOM     35  C   UNL A   1      45.630  27.341  31.839  1.00  0.00     0.074 A 
ATOM     36  C   UNL A   1      46.414  26.296  31.206  1.00  0.00     0.031 C 
ATOM     37  C   UNL A   1      46.011  28.032  32.940  1.00  0.00     0.031 A 
BRANCH  24  38
ATOM     38  C   UNL A   1      42.001  32.397  34.790  1.00  0.00    -0.014 A 
ATOM     39  C   UNL A   1      41.148  32.207  35.897  1.00  0.00     0.010 A 
ATOM     40  C   UNL A   1      42.461  33.689  34.493  1.00  0.00     0.010 A 
ATOM     41  C   UNL A   1      40.698  33.302  36.637  1.00  0.00     0.020 A 
ATOM     42  C   UNL A   1      42.040  34.782  35.252  1.00  0.00     0.020 A 
ATOM     43  C   UNL A   1      41.137  34.585  36.299  1.00  0.00     0.054 A 
BRANCH  43  44
ATOM     44  S   UNL A   1      40.495  35.996  37.239  1.00  0.00     0.124 S 
ATOM     45  O   UNL A   1      41.724  36.677  37.636  1.00  0.00    -0.237 OA
ATOM     46  O   UNL A   1      39.682  36.697  36.249  1.00  0.00    -0.237 OA
ATOM     47  O   UNL A   1      39.747  35.375  38.329  1.00  0.00    -0.744 OA
ENDBRANCH  43  44
ENDBRANCH  24  38
BRANCH  25  48
ATOM     48  C   UNL A   1      43.654  25.016  28.225  1.00  0.00    -0.014 A 
ATOM     49  C   UNL A   1      43.534  23.642  28.492  1.00  0.00     0.010 A 
ATOM     50  C   UNL A   1      43.954  25.429  26.911  1.00  0.00     0.010 A 
ATOM     51  C   UNL A   1      43.698  22.701  27.466  1.00  0.00     0.020 A 
ATOM     52  C   UNL A   1      44.110  24.491  25.881  1.00  0.00     0.020 A 
ATOM     53  C   UNL A   1      43.974  23.133  26.165  1.00  0.00     0.054 A 
BRANCH  53  54
ATOM     54  S   UNL A   1      44.088  21.895  24.840  1.00  0.00     0.124 S 
ATOM     55  O   UNL A   1      45.483  21.472  24.932  1.00  0.00    -0.237 OA
ATOM     56  O   UNL A   1      43.098  20.903  25.256  1.00  0.00    -0.237 OA
ATOM     57  O   UNL A   1      43.738  22.645  23.637  1.00  0.00    -0.744 OA
ENDBRANCH  53  54
ENDBRANCH  25  48
BRANCH  37  58
ATOM     58  C   UNL A   1      47.308  27.645  33.591  1.00  0.00    -0.014 A 
ATOM     59  C   UNL A   1      48.508  28.302  33.281  1.00  0.00     0.010 A 
ATOM     60  C   UNL A   1      47.283  26.696  34.632  1.00  0.00     0.010 A 
ATOM     61  C   UNL A   1      49.666  28.022  34.010  1.00  0.00     0.020 A 
ATOM     62  C   UNL A   1      48.429  26.435  35.380  1.00  0.00     0.020 A 
ATOM     63  C   UNL A   1      49.614  27.101  35.065  1.00  0.00     0.054 A 
BRANCH  63  64
ATOM     64  S   UNL A   1      51.100  26.850  36.073  1.00  0.00     0.124 S 
ATOM     65  O   UNL A   1      52.002  26.200  35.127  1.00  0.00    -0.237 OA
ATOM     66  O   UNL A   1      51.461  28.214  36.452  1.00  0.00    -0.237 OA
ATOM     67  O   UNL A   1      50.635  26.007  37.171  1.00  0.00    -0.744 OA
ENDBRANCH  63  64
ENDBRANCH  37  58
ENDBRANCH  11  12
ENDBRANCH   4   6
ENDBRANCH   3   4
ENDBRANCH   2   3
ENDBRANCH   1   2
BRANCH   1  68
ATOM     68  O   UNL A   1      32.805  28.799  24.582  1.00  0.00    -0.460 OA
BRANCH  68  69
ATOM     69  C   UNL A   1      31.980  27.712  24.742  1.00  0.00     0.338 C 
ATOM     70  O   UNL A   1      30.889  27.733  25.285  1.00  0.00    -0.249 OA
BRANCH  69  71
ATOM     71  C   UNL A   1      32.643  26.510  24.065  1.00  0.00     0.263 C 
ATOM     72  O   UNL A   1      32.405  25.261  24.706  1.00  0.00    -0.322 OA
ATOM     73  C   UNL A   1      32.299  26.363  22.584  1.00  0.00     0.186 C 
ATOM     74  C   UNL A   1      33.443  24.342  24.357  1.00  0.00     0.340 C 
ATOM     75  C   UNL A   1      33.285  25.356  21.956  1.00  0.00     0.181 C 
ATOM     76  C   UNL A   1      33.551  24.129  22.830  1.00  0.00     0.214 C 
BRANCH  73  77
ATOM     77  O   UNL A   1      32.351  27.596  21.865  1.00  0.00    -0.387 OA
ATOM     78  H   UNL A   1      31.784  28.249  22.302  1.00  0.00     0.211 HD
ENDBRANCH  73  77
BRANCH  74  79
ATOM     79  O   UNL A   1      33.359  23.043  24.974  1.00  0.00    -0.454 OA
BRANCH  79  80
ATOM     80  C   UNL A   1      34.550  22.394  25.239  1.00  0.00     0.214 A 
ATOM     81  C   UNL A   1      34.777  21.112  24.894  1.00  0.00     0.181 A 
ATOM     82  C   UNL A   1      35.680  23.180  25.820  1.00  0.00     0.239 A 
ATOM     83  O   UNL A   1      35.942  20.423  25.142  1.00  0.00    -0.452 OA
ATOM     84  C   UNL A   1      37.004  22.510  25.829  1.00  0.00     0.111 A 
ATOM     85  O   UNL A   1      35.490  24.302  26.278  1.00  0.00    -0.285 OA
ATOM     86  C   UNL A   1      37.045  21.147  25.523  1.00  0.00     0.146 A 
ATOM     87  C   UNL A   1      38.205  23.167  26.135  1.00  0.00     0.134 A 
ATOM     88  C   UNL A   1      38.244  20.434  25.586  1.00  0.00     0.094 A 
ATOM     89  C   UNL A   1      39.414  22.464  26.175  1.00  0.00     0.093 A 
ATOM     90  C   UNL A   1      39.416  21.098  25.915  1.00  0.00     0.123 A 
BRANCH  81  91
ATOM     91  C   UNL A   1      33.693  20.285  24.336  1.00  0.00     0.029 A 
ATOM     92  C   UNL A   1      32.914  20.817  23.293  1.00  0.00     0.062 A 
ATOM     93  C   UNL A   1      33.616  18.912  24.643  1.00  0.00     0.062 A 
ATOM     94  C   UNL A   1      32.184  19.953  22.483  1.00  0.00     0.162 A 
ATOM     95  C   UNL A   1      32.892  18.064  23.813  1.00  0.00     0.162 A 
ATOM     96  C   UNL A   1      32.212  18.580  22.715  1.00  0.00     0.200 A 
BRANCH  94  97
ATOM     97  O   UNL A   1      31.581  20.442  21.359  1.00  0.00    -0.504 OA
ATOM     98  H   UNL A   1      31.613  19.953  20.561  1.00  0.00     0.293 HD
ENDBRANCH  94  97
BRANCH  95  99
ATOM     99  O   UNL A   1      33.010  16.716  23.986  1.00  0.00    -0.504 OA
ATOM    100  H   UNL A   1      32.971  16.349  24.848  1.00  0.00     0.293 HD
ENDBRANCH  95  99
BRANCH  96 101
ATOM    101  O   UNL A   1      31.779  17.732  21.728  1.00  0.00    -0.502 OA
ATOM    102  H   UNL A   1      30.884  17.754  21.451  1.00  0.00     0.293 HD
ENDBRANCH  96 101
ENDBRANCH  81  91
BRANCH  87 103
ATOM    103  O   UNL A   1      38.237  24.507  26.406  1.00  0.00    -0.507 OA
ATOM    104  H   UNL A   1      38.752  25.080  25.873  1.00  0.00     0.293 HD
ENDBRANCH  87 103
BRANCH  90 105
ATOM    105  O   UNL A   1      40.567  20.369  25.976  1.00  0.00    -0.508 OA
ATOM    106  H   UNL A   1      40.669  19.607  25.440  1.00  0.00     0.293 HD
ENDBRANCH  90 105
ENDBRANCH  79  80
ENDBRANCH  74  79
BRANCH  75 107
ATOM    107  O   UNL A   1      32.810  24.925  20.653  1.00  0.00    -0.387 OA
ATOM    108  H   UNL A   1      32.004  24.396  20.763  1.00  0.00     0.211 HD
ENDBRANCH  75 107
BRANCH  76 109
ATOM    109  O   UNL A   1      34.814  23.553  22.454  1.00  0.00    -0.384 OA
ATOM    110  H   UNL A   1      35.362  23.430  23.245  1.00  0.00     0.211 HD
ENDBRANCH  76 109
ENDBRANCH  69  71
ENDBRANCH  68  69
ENDBRANCH   1  68
TORSDOF 25
ENDMDL
MODEL 2
REMARK VINA RESULT:     -11.1     10.088     16.041
REMARK SMILES O=C(OCCOC(=O)[C@H]1O[C@@H](Oc2c(-c3cc(O)c(O)c(O)c3)oc3cc(O)cc(O)c3c2=O)[C@H](O)[C@@H](O)[C@@H]1O)c1ccc(-c2c3nc(c(-c4ccc(S(=O)(=O)[O-])cc4)c4ccc([nH]4)c(-c4ccc(S(=O)(=O)[O-])cc4)c4nc(c(-c5ccc(S(=O)(=O)[O-])cc5)c5ccc2[nH]5)C=C4)C=C3)cc1
REMARK SMILES IDX 5 1 4 2 3 3 2 4 1 5 41 6 42 7 100 8 43 9 99 10 44 11 45 12
REMARK SMILES IDX 46 13 93 14 47 15 98 16 92 17 94 18 48 19 97 20 91 21 90 22
REMARK SMILES IDX 49 24 79 25 60 26 78 27 61 28 64 29 77 30 95 31 62 32 63 33
REMARK SMILES IDX 76 35 96 36 65 37 50 38 51 39 59 40 52 41 58 42 53 43 54 44
REMARK SMILES IDX 55 45 56 46 57 47 80 48 81 49 89 50 82 51 88 52 83 53 84 54
REMARK SMILES IDX 85 55 86 56 87 57 66 58 67 59 75 60 68 61 74 62 69 63 70 64
REMARK SMILES IDX 71 65 72 66 73 67 6 68 7 69 8 70 9 71 10 72 39 73 11 74
REMARK SMILES IDX 37 75 35 76 40 77 12 79 13 80 14 81 33 82 24 83 32 84 34 85
REMARK SMILES IDX 25 86 30 87 26 88 29 89 27 90 15 91 16 92 23 93 17 94 21 95
REMARK SMILES IDX 19 96 18 97 22 99 20 101 31 103 28 105 38 107 36 109
REMARK H PARENT 94 23 64 34 40 78 18 98 22 100 20 102 31 104 28 106 38 108
REMARK H PARENT 36 110
REMARK Flexibility Score: inf
ROOT
ATOM      1  C   UNL A   1      46.769  40.873  27.674  1.00  0.00     0.274 C 
ENDROOT
BRANCH   1   2
ATOM      2  C   UNL A   1      45.977  40.395  28.896  1.00  0.00     0.275 C 
BRANCH   2   3
ATOM      3  O   UNL A   1      46.444  39.136  29.412  1.00  0.00    -0.458 OA
BRANCH   3   4
ATOM      4  C   UNL A   1      45.796  38.201  30.146  1.00  0.00     0.338 C 
ATOM      5  O   UNL A   1      45.664  38.405  31.354  1.00  0.00    -0.246 OA
BRANCH   4   6
ATOM      6  C   UNL A   1      45.381  36.847  29.636  1.00  0.00     0.060 A 
ATOM      7  C   UNL A   1      44.828  36.544  28.386  1.00  0.00     0.016 A 
ATOM      8  C   UNL A   1      45.652  35.767  30.498  1.00  0.00     0.016 A 
ATOM      9  C   UNL A   1      44.599  35.219  27.982  1.00  0.00     0.010 A 
ATOM     10  C   UNL A   1      45.448  34.444  30.093  1.00  0.00     0.010 A 
ATOM     11  C   UNL A   1      44.900  34.161  28.833  1.00  0.00    -0.014 A 
BRANCH  11  12
ATOM     12  C   UNL A   1      44.441  32.782  28.546  1.00  0.00     0.031 A 
ATOM     13  C   UNL A   1      43.141  32.362  29.160  1.00  0.00     0.074 A 
ATOM     14  C   UNL A   1      45.139  31.911  27.794  1.00  0.00     0.049 A 
ATOM     15  N   UNL A   1      42.570  31.192  29.157  1.00  0.00    -0.248 NA
ATOM     16  C   UNL A   1      42.361  33.420  29.828  1.00  0.00     0.031 C 
ATOM     17  C   UNL A   1      46.306  32.223  26.983  1.00  0.00     0.029 A 
ATOM     18  N   UNL A   1      45.002  30.551  27.651  1.00  0.00    -0.354 N 
ATOM     19  C   UNL A   1      41.343  31.383  29.773  1.00  0.00     0.074 A 
ATOM     20  C   UNL A   1      41.295  32.752  30.231  1.00  0.00     0.031 C 
ATOM     21  C   UNL A   1      46.887  31.081  26.580  1.00  0.00     0.029 A 
ATOM     22  C   UNL A   1      46.099  29.959  27.062  1.00  0.00     0.049 A 
ATOM     23  H   UNL A   1      44.204  30.051  27.939  1.00  0.00     0.167 HD
ATOM     24  C   UNL A   1      40.326  30.503  29.896  1.00  0.00     0.031 A 
ATOM     25  C   UNL A   1      46.441  28.662  26.945  1.00  0.00     0.031 A 
ATOM     26  C   UNL A   1      40.421  29.134  29.483  1.00  0.00     0.049 A 
ATOM     27  C   UNL A   1      45.409  27.636  27.309  1.00  0.00     0.074 A 
ATOM     28  C   UNL A   1      39.464  28.141  29.553  1.00  0.00     0.029 A 
ATOM     29  N   UNL A   1      41.567  28.556  28.947  1.00  0.00    -0.354 N 
ATOM     30  N   UNL A   1      44.225  27.830  27.841  1.00  0.00    -0.248 NA
ATOM     31  C   UNL A   1      45.706  26.238  26.978  1.00  0.00     0.031 C 
ATOM     32  C   UNL A   1      40.054  26.946  29.130  1.00  0.00     0.029 A 
ATOM     33  C   UNL A   1      41.355  27.210  28.723  1.00  0.00     0.049 A 
ATOM     34  H   UNL A   1      42.404  29.036  28.756  1.00  0.00     0.167 HD
ATOM     35  C   UNL A   1      43.595  26.594  27.821  1.00  0.00     0.074 A 
ATOM     36  C   UNL A   1      44.552  25.649  27.275  1.00  0.00     0.031 C 
ATOM     37  C   UNL A   1      42.324  26.289  28.175  1.00  0.00     0.031 A 
BRANCH  24  38
ATOM     38  C   UNL A   1      39.072  31.020  30.542  1.00  0.00    -0.014 A 
ATOM     39  C   UNL A   1      38.015  31.536  29.765  1.00  0.00     0.010 A 
ATOM     40  C   UNL A   1      38.984  31.073  31.941  1.00  0.00     0.010 A 
ATOM     41  C   UNL A   1      36.932  32.169  30.378  1.00  0.00     0.020 A 
ATOM     42  C   UNL A   1      37.886  31.675  32.559  1.00  0.00     0.020 A 
ATOM     43  C   UNL A   1      36.883  32.247  31.773  1.00  0.00     0.054 A 
BRANCH  43  44
ATOM     44  S   UNL A   1      35.497  33.123  32.545  1.00  0.00     0.124 S 
ATOM     45  O   UNL A   1      35.600  32.685  33.934  1.00  0.00    -0.237 OA
ATOM     46  O   UNL A   1      35.829  34.525  32.303  1.00  0.00    -0.237 OA
ATOM     47  O   UNL A   1      34.329  32.628  31.820  1.00  0.00    -0.744 OA
ENDBRANCH  43  44
ENDBRANCH  24  38
BRANCH  25  48
ATOM     48  C   UNL A   1      47.787  28.288  26.429  1.00  0.00    -0.014 A 
ATOM     49  C   UNL A   1      48.923  28.328  27.253  1.00  0.00     0.010 A 
ATOM     50  C   UNL A   1      47.925  27.832  25.103  1.00  0.00     0.010 A 
ATOM     51  C   UNL A   1      50.170  27.911  26.766  1.00  0.00     0.020 A 
ATOM     52  C   UNL A   1      49.167  27.406  24.616  1.00  0.00     0.020 A 
ATOM     53  C   UNL A   1      50.281  27.442  25.454  1.00  0.00     0.054 A 
BRANCH  53  54
ATOM     54  S   UNL A   1      51.890  26.819  24.883  1.00  0.00     0.124 S 
ATOM     55  O   UNL A   1      51.776  26.956  23.434  1.00  0.00    -0.237 OA
ATOM     56  O   UNL A   1      52.826  27.734  25.534  1.00  0.00    -0.237 OA
ATOM     57  O   UNL A   1      51.925  25.446  25.381  1.00  0.00    -0.744 OA
ENDBRANCH  53  54
ENDBRANCH  25  48
BRANCH  37  58
ATOM     58  C   UNL A   1      41.849  24.887  27.923  1.00  0.00    -0.014 A 
ATOM     59  C   UNL A   1      41.036  24.575  26.823  1.00  0.00     0.010 A 
ATOM     60  C   UNL A   1      42.347  23.851  28.737  1.00  0.00     0.010 A 
ATOM     61  C   UNL A   1      40.735  23.242  26.534  1.00  0.00     0.020 A 
ATOM     62  C   UNL A   1      42.073  22.518  28.433  1.00  0.00     0.020 A 
ATOM     63  C   UNL A   1      41.269  22.222  27.332  1.00  0.00     0.054 A 
BRANCH  63  64
ATOM     64  S   UNL A   1      40.964  20.499  26.859  1.00  0.00     0.124 S 
ATOM     65  O   UNL A   1      42.131  20.199  26.034  1.00  0.00    -0.237 OA
ATOM     66  O   UNL A   1      40.914  19.819  28.150  1.00  0.00    -0.237 OA
ATOM     67  O   UNL A   1      39.692  20.557  26.142  1.00  0.00    -0.744 OA
ENDBRANCH  63  64
ENDBRANCH  37  58
ENDBRANCH  11  12
ENDBRANCH   4   6
ENDBRANCH   3   4
ENDBRANCH   2   3
ENDBRANCH   1   2
BRANCH   1  68
ATOM     68  O   UNL A   1      45.910  41.024  26.538  1.00  0.00    -0.460 OA
BRANCH  68  69
ATOM     69  C   UNL A   1      45.600  42.303  26.142  1.00  0.00     0.338 C 
ATOM     70  O   UNL A   1      46.295  43.285  26.333  1.00  0.00    -0.249 OA
BRANCH  69  71
ATOM     71  C   UNL A   1      44.278  42.252  25.371  1.00  0.00     0.263 C 
ATOM     72  O   UNL A   1      44.402  41.882  24.001  1.00  0.00    -0.322 OA
ATOM     73  C   UNL A   1      43.216  41.362  26.015  1.00  0.00     0.186 C 
ATOM     74  C   UNL A   1      43.273  42.371  23.273  1.00  0.00     0.340 C 
ATOM     75  C   UNL A   1      41.857  41.675  25.354  1.00  0.00     0.181 C 
ATOM     76  C   UNL A   1      41.935  41.838  23.835  1.00  0.00     0.214 C 
BRANCH  73  77
ATOM     77  O   UNL A   1      43.113  41.536  27.428  1.00  0.00    -0.387 OA
ATOM     78  H   UNL A   1      43.998  41.518  27.822  1.00  0.00     0.211 HD
ENDBRANCH  73  77
BRANCH  74  79
ATOM     79  O   UNL A   1      43.285  42.111  21.857  1.00  0.00    -0.454 OA
BRANCH  79  80
ATOM     80  C   UNL A   1      43.273  43.208  21.016  1.00  0.00     0.214 A 
ATOM     81  C   UNL A   1      44.384  43.903  20.705  1.00  0.00     0.181 A 
ATOM     82  C   UNL A   1      41.999  43.565  20.322  1.00  0.00     0.239 A 
ATOM     83  O   UNL A   1      44.421  45.003  19.878  1.00  0.00    -0.452 OA
ATOM     84  C   UNL A   1      42.108  44.568  19.235  1.00  0.00     0.111 A 
ATOM     85  O   UNL A   1      40.936  43.060  20.670  1.00  0.00    -0.285 OA
ATOM     86  C   UNL A   1      43.315  45.259  19.106  1.00  0.00     0.146 A 
ATOM     87  C   UNL A   1      41.065  44.862  18.343  1.00  0.00     0.134 A 
ATOM     88  C   UNL A   1      43.463  46.271  18.155  1.00  0.00     0.094 A 
ATOM     89  C   UNL A   1      41.216  45.857  17.371  1.00  0.00     0.093 A 
ATOM     90  C   UNL A   1      42.413  46.564  17.299  1.00  0.00     0.123 A 
BRANCH  81  91
ATOM     91  C   UNL A   1      45.663  43.607  21.373  1.00  0.00     0.029 A 
ATOM     92  C   UNL A   1      46.555  42.716  20.750  1.00  0.00     0.062 A 
ATOM     93  C   UNL A   1      46.098  44.395  22.457  1.00  0.00     0.062 A 
ATOM     94  C   UNL A   1      47.895  42.729  21.117  1.00  0.00     0.162 A 
ATOM     95  C   UNL A   1      47.445  44.405  22.800  1.00  0.00     0.162 A 
ATOM     96  C   UNL A   1      48.345  43.604  22.104  1.00  0.00     0.200 A 
BRANCH  94  97
ATOM     97  O   UNL A   1      48.795  42.006  20.388  1.00  0.00    -0.504 OA
ATOM     98  H   UNL A   1      49.591  41.710  20.785  1.00  0.00     0.293 HD
ENDBRANCH  94  97
BRANCH  95  99
ATOM     99  O   UNL A   1      47.890  45.336  23.693  1.00  0.00    -0.504 OA
ATOM    100  H   UNL A   1      47.818  45.174  24.613  1.00  0.00     0.293 HD
ENDBRANCH  95  99
BRANCH  96 101
ATOM    101  O   UNL A   1      49.690  43.846  22.213  1.00  0.00    -0.502 OA
ATOM    102  H   UNL A   1      50.110  43.789  23.049  1.00  0.00     0.293 HD
ENDBRANCH  96 101
ENDBRANCH  81  91
BRANCH  87 103
ATOM    103  O   UNL A   1      39.872  44.195  18.392  1.00  0.00    -0.507 OA
ATOM    104  H   UNL A   1      39.098  44.641  18.672  1.00  0.00     0.293 HD
ENDBRANCH  87 103
BRANCH  90 105
ATOM    105  O   UNL A   1      42.589  47.563  16.389  1.00  0.00    -0.508 OA
ATOM    106  H   UNL A   1      43.355  48.102  16.427  1.00  0.00     0.293 HD
ENDBRANCH  90 105
ENDBRANCH  79  80
ENDBRANCH  74  79
BRANCH  75 107
ATOM    107  O   UNL A   1      40.887  40.646  25.679  1.00  0.00    -0.387 OA
ATOM    108  H   UNL A   1      41.329  39.782  25.708  1.00  0.00     0.211 HD
ENDBRANCH  75 107
BRANCH  76 109
ATOM    109  O   UNL A   1      40.814  42.622  23.392  1.00  0.00    -0.384 OA
ATOM    110  H   UNL A   1      39.992  42.135  23.559  1.00  0.00     0.211 HD
ENDBRANCH  76 109
ENDBRANCH  69  71
ENDBRANCH  68  69
ENDBRANCH   1  68
TORSDOF 25
ENDMDL
MODEL 3
REMARK VINA RESULT:     -10.8      6.070     12.639
REMARK SMILES O=C(OCCOC(=O)[C@H]1O[C@@H](Oc2c(-c3cc(O)c(O)c(O)c3)oc3cc(O)cc(O)c3c2=O)[C@H](O)[C@@H](O)[C@@H]1O)c1ccc(-c2c3nc(c(-c4ccc(S(=O)(=O)[O-])cc4)c4ccc([nH]4)c(-c4ccc(S(=O)(=O)[O-])cc4)c4nc(c(-c5ccc(S(=O)(=O)[O-])cc5)c5ccc2[nH]5)C=C4)C=C3)cc1
REMARK SMILES IDX 5 1 4 2 3 3 2 4 1 5 41 6 42 7 100 8 43 9 99 10 44 11 45 12
REMARK SMILES IDX 46 13 93 14 47 15 98 16 92 17 94 18 48 19 97 20 91 21 90 22
REMARK SMILES IDX 49 24 79 25 60 26 78 27 61 28 64 29 77 30 95 31 62 32 63 33
REMARK SMILES IDX 76 35 96 36 65 37 50 38 51 39 59 40 52 41 58 42 53 43 54 44
REMARK SMILES IDX 55 45 56 46 57 47 80 48 81 49 89 50 82 51 88 52 83 53 84 54
REMARK SMILES IDX 85 55 86 56 87 57 66 58 67 59 75 60 68 61 74 62 69 63 70 64
REMARK SMILES IDX 71 65 72 66 73 67 6 68 7 69 8 70 9 71 10 72 39 73 11 74
REMARK SMILES IDX 37 75 35 76 40 77 12 79 13 80 14 81 33 82 24 83 32 84 34 85
REMARK SMILES IDX 25 86 30 87 26 88 29 89 27 90 15 91 16 92 23 93 17 94 21 95
REMARK SMILES IDX 19 96 18 97 22 99 20 101 31 103 28 105 38 107 36 109
REMARK H PARENT 94 23 64 34 40 78 18 98 22 100 20 102 31 104 28 106 38 108
REMARK H PARENT 36 110
REMARK Flexibility Score: inf
ROOT
ATOM      1  C   UNL A   1      49.304  26.075  37.012  1.00  0.00     0.274 C 
ENDROOT
BRANCH   1   2
ATOM      2  C   UNL A   1      48.316  26.125  38.181  1.00  0.00     0.275 C 
BRANCH   2   3
ATOM      3  O   UNL A   1      48.093  27.459  38.673  1.00  0.00    -0.458 OA
BRANCH   3   4
ATOM      4  C   UNL A   1      48.217  28.652  38.045  1.00  0.00     0.338 C 
ATOM      5  O   UNL A   1      49.168  29.371  38.357  1.00  0.00    -0.246 OA
BRANCH   4   6
ATOM      6  C   UNL A   1      47.188  29.248  37.124  1.00  0.00     0.060 A 
ATOM      7  C   UNL A   1      47.314  30.402  36.342  1.00  0.00     0.016 A 
ATOM      8  C   UNL A   1      45.997  28.508  36.989  1.00  0.00     0.016 A 
ATOM      9  C   UNL A   1      46.323  30.784  35.424  1.00  0.00     0.010 A 
ATOM     10  C   UNL A   1      45.016  28.870  36.061  1.00  0.00     0.010 A 
ATOM     11  C   UNL A   1      45.166  30.027  35.282  1.00  0.00    -0.014 A 
BRANCH  11  12
ATOM     12  C   UNL A   1      44.000  30.532  34.520  1.00  0.00     0.031 A 
ATOM     13  C   UNL A   1      43.028  31.394  35.265  1.00  0.00     0.074 A 
ATOM     14  C   UNL A   1      43.777  30.236  33.225  1.00  0.00     0.049 A 
ATOM     15  N   UNL A   1      41.882  31.873  34.871  1.00  0.00    -0.248 NA
ATOM     16  C   UNL A   1      43.426  31.805  36.624  1.00  0.00     0.031 C 
ATOM     17  C   UNL A   1      44.713  29.581  32.323  1.00  0.00     0.029 A 
ATOM     18  N   UNL A   1      42.645  30.389  32.460  1.00  0.00    -0.354 N 
ATOM     19  C   UNL A   1      41.450  32.682  35.909  1.00  0.00     0.074 A 
ATOM     20  C   UNL A   1      42.399  32.550  36.989  1.00  0.00     0.031 C 
ATOM     21  C   UNL A   1      44.069  29.221  31.200  1.00  0.00     0.029 A 
ATOM     22  C   UNL A   1      42.690  29.671  31.285  1.00  0.00     0.049 A 
ATOM     23  H   UNL A   1      41.882  30.953  32.724  1.00  0.00     0.167 HD
ATOM     24  C   UNL A   1      40.380  33.507  35.932  1.00  0.00     0.031 A 
ATOM     25  C   UNL A   1      41.725  29.389  30.390  1.00  0.00     0.031 A 
ATOM     26  C   UNL A   1      39.423  33.578  34.867  1.00  0.00     0.049 A 
ATOM     27  C   UNL A   1      40.418  30.112  30.527  1.00  0.00     0.074 A 
ATOM     28  C   UNL A   1      38.297  34.370  34.769  1.00  0.00     0.029 A 
ATOM     29  N   UNL A   1      39.468  32.793  33.721  1.00  0.00    -0.354 N 
ATOM     30  N   UNL A   1      40.036  30.923  31.485  1.00  0.00    -0.248 NA
ATOM     31  C   UNL A   1      39.451  29.965  29.433  1.00  0.00     0.031 C 
ATOM     32  C   UNL A   1      37.621  34.011  33.599  1.00  0.00     0.029 A 
ATOM     33  C   UNL A   1      38.366  33.049  32.929  1.00  0.00     0.049 A 
ATOM     34  H   UNL A   1      40.181  32.149  33.506  1.00  0.00     0.167 HD
ATOM     35  C   UNL A   1      38.828  31.460  31.067  1.00  0.00     0.074 A 
ATOM     36  C   UNL A   1      38.516  30.838  29.793  1.00  0.00     0.031 C 
ATOM     37  C   UNL A   1      38.079  32.418  31.662  1.00  0.00     0.031 A 
BRANCH  24  38
ATOM     38  C   UNL A   1      40.205  34.337  37.172  1.00  0.00    -0.014 A 
ATOM     39  C   UNL A   1      39.420  33.876  38.249  1.00  0.00     0.010 A 
ATOM     40  C   UNL A   1      40.757  35.626  37.228  1.00  0.00     0.010 A 
ATOM     41  C   UNL A   1      39.123  34.723  39.318  1.00  0.00     0.020 A 
ATOM     42  C   UNL A   1      40.490  36.463  38.312  1.00  0.00     0.020 A 
ATOM     43  C   UNL A   1      39.649  36.018  39.335  1.00  0.00     0.054 A 
BRANCH  43  44
ATOM     44  S   UNL A   1      39.205  37.117  40.706  1.00  0.00     0.124 S 
ATOM     45  O   UNL A   1      38.483  36.211  41.596  1.00  0.00    -0.237 OA
ATOM     46  O   UNL A   1      40.507  37.568  41.191  1.00  0.00    -0.237 OA
ATOM     47  O   UNL A   1      38.388  38.149  40.071  1.00  0.00    -0.744 OA
ENDBRANCH  43  44
ENDBRANCH  24  38
BRANCH  25  48
ATOM     48  C   UNL A   1      41.987  28.421  29.288  1.00  0.00    -0.014 A 
ATOM     49  C   UNL A   1      41.991  27.036  29.517  1.00  0.00     0.010 A 
ATOM     50  C   UNL A   1      42.184  28.894  27.975  1.00  0.00     0.010 A 
ATOM     51  C   UNL A   1      42.176  26.140  28.454  1.00  0.00     0.020 A 
ATOM     52  C   UNL A   1      42.361  28.002  26.910  1.00  0.00     0.020 A 
ATOM     53  C   UNL A   1      42.348  26.630  27.156  1.00  0.00     0.054 A 
BRANCH  53  54
ATOM     54  S   UNL A   1      42.490  25.443  25.787  1.00  0.00     0.124 S 
ATOM     55  O   UNL A   1      41.450  25.902  24.872  1.00  0.00    -0.237 OA
ATOM     56  O   UNL A   1      43.866  25.650  25.338  1.00  0.00    -0.237 OA
ATOM     57  O   UNL A   1      42.240  24.152  26.423  1.00  0.00    -0.744 OA
ENDBRANCH  53  54
ENDBRANCH  25  48
BRANCH  37  58
ATOM     58  C   UNL A   1      36.873  32.920  30.921  1.00  0.00    -0.014 A 
ATOM     59  C   UNL A   1      35.572  32.574  31.319  1.00  0.00     0.010 A 
ATOM     60  C   UNL A   1      37.058  33.865  29.893  1.00  0.00     0.010 A 
ATOM     61  C   UNL A   1      34.472  33.175  30.704  1.00  0.00     0.020 A 
ATOM     62  C   UNL A   1      35.962  34.487  29.298  1.00  0.00     0.020 A 
ATOM     63  C   UNL A   1      34.675  34.139  29.708  1.00  0.00     0.054 A 
BRANCH  63  64
ATOM     64  S   UNL A   1      33.233  34.991  29.016  1.00  0.00     0.124 S 
ATOM     65  O   UNL A   1      32.406  35.200  30.201  1.00  0.00    -0.237 OA
ATOM     66  O   UNL A   1      33.822  36.196  28.438  1.00  0.00    -0.237 OA
ATOM     67  O   UNL A   1      32.700  34.038  28.045  1.00  0.00    -0.744 OA
ENDBRANCH  63  64
ENDBRANCH  37  58
ENDBRANCH  11  12
ENDBRANCH   4   6
ENDBRANCH   3   4
ENDBRANCH   2   3
ENDBRANCH   1   2
BRANCH   1  68
ATOM     68  O   UNL A   1      48.728  25.403  35.885  1.00  0.00    -0.460 OA
BRANCH  68  69
ATOM     69  C   UNL A   1      49.450  24.382  35.317  1.00  0.00     0.338 C 
ATOM     70  O   UNL A   1      50.636  24.429  35.039  1.00  0.00    -0.249 OA
BRANCH  69  71
ATOM     71  C   UNL A   1      48.523  23.173  35.164  1.00  0.00     0.263 C 
ATOM     72  O   UNL A   1      47.350  23.417  34.393  1.00  0.00    -0.322 OA
ATOM     73  C   UNL A   1      49.210  21.927  34.610  1.00  0.00     0.186 C 
ATOM     74  C   UNL A   1      46.342  22.467  34.747  1.00  0.00     0.340 C 
ATOM     75  C   UNL A   1      48.279  20.718  34.838  1.00  0.00     0.181 C 
ATOM     76  C   UNL A   1      46.809  21.009  34.534  1.00  0.00     0.214 C 
BRANCH  73  77
ATOM     77  O   UNL A   1      50.483  21.671  35.205  1.00  0.00    -0.387 OA
ATOM     78  H   UNL A   1      51.185  21.880  34.571  1.00  0.00     0.211 HD
ENDBRANCH  73  77
BRANCH  74  79
ATOM     79  O   UNL A   1      45.077  22.622  34.077  1.00  0.00    -0.454 OA
BRANCH  79  80
ATOM     80  C   UNL A   1      44.457  23.853  34.183  1.00  0.00     0.214 A 
ATOM     81  C   UNL A   1      44.187  24.629  33.116  1.00  0.00     0.181 A 
ATOM     82  C   UNL A   1      43.951  24.288  35.518  1.00  0.00     0.239 A 
ATOM     83  O   UNL A   1      43.578  25.862  33.171  1.00  0.00    -0.452 OA
ATOM     84  C   UNL A   1      43.062  25.477  35.524  1.00  0.00     0.111 A 
ATOM     85  O   UNL A   1      44.287  23.694  36.538  1.00  0.00    -0.285 OA
ATOM     86  C   UNL A   1      42.962  26.219  34.344  1.00  0.00     0.146 A 
ATOM     87  C   UNL A   1      42.330  25.893  36.646  1.00  0.00     0.134 A 
ATOM     88  C   UNL A   1      42.205  27.392  34.299  1.00  0.00     0.094 A 
ATOM     89  C   UNL A   1      41.549  27.054  36.599  1.00  0.00     0.093 A 
ATOM     90  C   UNL A   1      41.508  27.800  35.426  1.00  0.00     0.123 A 
BRANCH  81  91
ATOM     91  C   UNL A   1      44.680  24.259  31.778  1.00  0.00     0.029 A 
ATOM     92  C   UNL A   1      44.047  23.201  31.100  1.00  0.00     0.062 A 
ATOM     93  C   UNL A   1      45.567  25.107  31.086  1.00  0.00     0.062 A 
ATOM     94  C   UNL A   1      44.194  23.094  29.721  1.00  0.00     0.162 A 
ATOM     95  C   UNL A   1      45.690  24.992  29.706  1.00  0.00     0.162 A 
ATOM     96  C   UNL A   1      44.974  24.014  29.024  1.00  0.00     0.200 A 
BRANCH  94  97
ATOM     97  O   UNL A   1      43.434  22.189  29.037  1.00  0.00    -0.504 OA
ATOM     98  H   UNL A   1      42.577  22.426  28.741  1.00  0.00     0.293 HD
ENDBRANCH  94  97
BRANCH  95  99
ATOM     99  O   UNL A   1      46.371  25.958  29.024  1.00  0.00    -0.504 OA
ATOM    100  H   UNL A   1      46.162  26.862  29.157  1.00  0.00     0.293 HD
ENDBRANCH  95  99
BRANCH  96 101
ATOM    101  O   UNL A   1      44.837  24.103  27.662  1.00  0.00    -0.502 OA
ATOM    102  H   UNL A   1      45.368  24.703  27.176  1.00  0.00     0.293 HD
ENDBRANCH  96 101
ENDBRANCH  81  91
BRANCH  87 103
ATOM    103  O   UNL A   1      42.355  25.190  37.819  1.00  0.00    -0.507 OA
ATOM    104  H   UNL A   1      42.185  24.269  37.815  1.00  0.00     0.293 HD
ENDBRANCH  87 103
BRANCH  90 105
ATOM    105  O   UNL A   1      40.787  28.955  35.348  1.00  0.00    -0.508 OA
ATOM    106  H   UNL A   1      39.852  28.920  35.288  1.00  0.00     0.293 HD
ENDBRANCH  90 105
ENDBRANCH  79  80
ENDBRANCH  74  79
BRANCH  75 107
ATOM    107  O   UNL A   1      48.720  19.582  34.048  1.00  0.00    -0.387 OA
ATOM    108  H   UNL A   1      49.401  19.093  34.537  1.00  0.00     0.211 HD
ENDBRANCH  75 107
BRANCH  76 109
ATOM    109  O   UNL A   1      45.989  20.071  35.252  1.00  0.00    -0.384 OA
ATOM    110  H   UNL A   1      45.625  20.497  36.043  1.00  0.00     0.211 HD
ENDBRANCH  76 109
ENDBRANCH  69  71
ENDBRANCH  68  69
ENDBRANCH   1  68
TORSDOF 25
ENDMDL
