MODEL 1
REMARK VINA RESULT:     -12.7      0.000      0.000
REMARK SMILES O=C(OCCOC(=O)[C@@H]1[C@H](C(=O)Nc2ccccc2Cc2ccccc2)[C@H]2C=C[C@@H]1O2)c1ccc(-c2c3nc(c(-c4ccc(S(=O)(=O)[O-])cc4)c4ccc([nH]4)c(-c4ccc(S(=O)(=O)[O-])cc4)c4nc(c(-c5ccc(S(=O)(=O)[O-])cc5)c5ccc2[nH]5)C=C4)C=C3)cc1
REMARK SMILES IDX 5 1 4 2 3 3 2 4 1 5 32 6 33 7 91 8 34 9 90 10 35 11 36 12
REMARK SMILES IDX 37 13 84 14 38 15 89 16 83 17 85 18 39 19 88 20 82 21 81 22
REMARK SMILES IDX 40 24 70 25 51 26 69 27 52 28 55 29 68 30 86 31 53 32 54 33
REMARK SMILES IDX 67 35 87 36 56 37 41 38 42 39 50 40 43 41 49 42 44 43 45 44
REMARK SMILES IDX 46 45 47 46 48 47 71 48 72 49 80 50 73 51 79 52 74 53 75 54
REMARK SMILES IDX 76 55 77 56 78 57 57 58 58 59 66 60 59 61 65 62 60 63 61 64
REMARK SMILES IDX 62 65 63 66 64 67 6 68 7 69 8 70 9 71 10 72 30 73 27 74
REMARK SMILES IDX 29 75 31 76 28 77 11 78 12 79 13 80 14 82 15 83 19 84 16 85
REMARK SMILES IDX 18 86 17 87 20 88 21 89 22 90 26 91 23 92 25 93 24 94
REMARK H PARENT 85 23 55 34 13 81
REMARK Flexibility Score: inf
ROOT
ATOM      1  C   UNL A   1      33.278  29.963  27.398  1.00  0.00     0.274 C 
ENDROOT
BRANCH   1   2
ATOM      2  C   UNL A   1      33.772  31.458  27.308  1.00  0.00     0.275 C 
BRANCH   2   3
ATOM      3  O   UNL A   1      32.846  32.529  27.562  1.00  0.00    -0.458 OA
BRANCH   3   4
ATOM      4  C   UNL A   1      33.304  33.622  28.222  1.00  0.00     0.338 C 
ATOM      5  O   UNL A   1      32.599  34.591  28.397  1.00  0.00    -0.246 OA
BRANCH   4   6
ATOM      6  C   UNL A   1      34.783  33.224  28.677  1.00  0.00     0.060 A 
ATOM      7  C   UNL A   1      34.644  32.726  30.419  1.00  0.00     0.016 A 
ATOM      8  C   UNL A   1      36.499  33.819  28.144  1.00  0.00     0.016 A 
ATOM      9  C   UNL A   1      35.905  32.707  31.512  1.00  0.00     0.010 A 
ATOM     10  C   UNL A   1      37.767  33.957  29.463  1.00  0.00     0.010 A 
ATOM     11  C   UNL A   1      37.440  33.254  31.046  1.00  0.00    -0.014 A 
BRANCH  11  12
ATOM     12  C   UNL A   1      38.513  32.740  31.918  1.00  0.00     0.031 A 
ATOM     13  C   UNL A   1      39.140  31.555  31.327  1.00  0.00     0.074 A 
ATOM     14  C   UNL A   1      38.865  33.283  33.118  1.00  0.00     0.049 A 
ATOM     15  N   UNL A   1      39.908  30.680  31.880  1.00  0.00    -0.248 NA
ATOM     16  C   UNL A   1      38.788  31.289  29.920  1.00  0.00     0.031 C 
ATOM     17  C   UNL A   1      38.423  34.555  33.715  1.00  0.00     0.029 A 
ATOM     18  N   UNL A   1      39.668  32.788  34.119  1.00  0.00    -0.354 N 
ATOM     19  C   UNL A   1      40.117  29.762  30.872  1.00  0.00     0.074 A 
ATOM     20  C   UNL A   1      39.228  30.058  29.783  1.00  0.00     0.031 C 
ATOM     21  C   UNL A   1      38.777  34.638  35.007  1.00  0.00     0.029 A 
ATOM     22  C   UNL A   1      39.605  33.498  35.309  1.00  0.00     0.049 A 
ATOM     23  H   UNL A   1      40.239  31.996  34.001  1.00  0.00     0.167 HD
ATOM     24  C   UNL A   1      41.087  28.835  30.822  1.00  0.00     0.031 A 
ATOM     25  C   UNL A   1      40.187  33.274  36.504  1.00  0.00     0.031 A 
ATOM     26  C   UNL A   1      41.959  28.637  31.933  1.00  0.00     0.049 A 
ATOM     27  C   UNL A   1      41.156  32.132  36.509  1.00  0.00     0.074 A 
ATOM     28  C   UNL A   1      42.967  27.718  32.088  1.00  0.00     0.029 A 
ATOM     29  N   UNL A   1      41.896  29.396  33.102  1.00  0.00    -0.354 N 
ATOM     30  N   UNL A   1      41.388  31.275  35.539  1.00  0.00    -0.248 NA
ATOM     31  C   UNL A   1      41.987  31.955  37.698  1.00  0.00     0.031 C 
ATOM     32  C   UNL A   1      43.451  27.860  33.393  1.00  0.00     0.029 A 
ATOM     33  C   UNL A   1      42.818  28.937  34.011  1.00  0.00     0.049 A 
ATOM     34  H   UNL A   1      41.281  30.150  33.254  1.00  0.00     0.167 HD
ATOM     35  C   UNL A   1      42.436  30.487  35.970  1.00  0.00     0.074 A 
ATOM     36  C   UNL A   1      42.777  30.963  37.304  1.00  0.00     0.031 C 
ATOM     37  C   UNL A   1      43.079  29.484  35.324  1.00  0.00     0.031 A 
BRANCH  24  38
ATOM     38  C   UNL A   1      41.136  28.026  29.565  1.00  0.00    -0.014 A 
ATOM     39  C   UNL A   1      40.320  26.885  29.390  1.00  0.00     0.010 A 
ATOM     40  C   UNL A   1      42.157  28.290  28.644  1.00  0.00     0.010 A 
ATOM     41  C   UNL A   1      40.581  25.982  28.359  1.00  0.00     0.020 A 
ATOM     42  C   UNL A   1      42.389  27.414  27.584  1.00  0.00     0.020 A 
ATOM     43  C   UNL A   1      41.617  26.255  27.463  1.00  0.00     0.054 A 
BRANCH  43  44
ATOM     44  S   UNL A   1      41.939  25.077  26.125  1.00  0.00     0.124 S 
ATOM     45  O   UNL A   1      43.391  25.161  25.985  1.00  0.00    -0.237 OA
ATOM     46  O   UNL A   1      41.433  23.824  26.679  1.00  0.00    -0.237 OA
ATOM     47  O   UNL A   1      41.174  25.613  25.002  1.00  0.00    -0.744 OA
ENDBRANCH  43  44
ENDBRANCH  24  38
BRANCH  25  48
ATOM     48  C   UNL A   1      39.955  34.178  37.678  1.00  0.00    -0.014 A 
ATOM     49  C   UNL A   1      39.039  33.848  38.695  1.00  0.00     0.010 A 
ATOM     50  C   UNL A   1      40.709  35.361  37.829  1.00  0.00     0.010 A 
ATOM     51  C   UNL A   1      38.874  34.673  39.820  1.00  0.00     0.020 A 
ATOM     52  C   UNL A   1      40.560  36.182  38.959  1.00  0.00     0.020 A 
ATOM     53  C   UNL A   1      39.641  35.834  39.949  1.00  0.00     0.054 A 
BRANCH  53  54
ATOM     54  S   UNL A   1      39.455  36.852  41.447  1.00  0.00     0.124 S 
ATOM     55  O   UNL A   1      40.826  36.925  41.944  1.00  0.00    -0.237 OA
ATOM     56  O   UNL A   1      38.909  38.097  40.912  1.00  0.00    -0.237 OA
ATOM     57  O   UNL A   1      38.531  36.081  42.276  1.00  0.00    -0.744 OA
ENDBRANCH  53  54
ENDBRANCH  25  48
BRANCH  37  58
ATOM     58  C   UNL A   1      44.234  28.870  36.040  1.00  0.00    -0.014 A 
ATOM     59  C   UNL A   1      45.504  29.461  35.986  1.00  0.00     0.010 A 
ATOM     60  C   UNL A   1      43.978  27.801  36.918  1.00  0.00     0.010 A 
ATOM     61  C   UNL A   1      46.510  28.994  36.823  1.00  0.00     0.020 A 
ATOM     62  C   UNL A   1      44.970  27.365  37.785  1.00  0.00     0.020 A 
ATOM     63  C   UNL A   1      46.230  27.965  37.730  1.00  0.00     0.054 A 
BRANCH  63  64
ATOM     64  S   UNL A   1      47.518  27.478  38.900  1.00  0.00     0.124 S 
ATOM     65  O   UNL A   1      47.616  26.042  38.656  1.00  0.00    -0.237 OA
ATOM     66  O   UNL A   1      48.661  28.273  38.459  1.00  0.00    -0.237 OA
ATOM     67  O   UNL A   1      46.966  27.855  40.200  1.00  0.00    -0.744 OA
ENDBRANCH  63  64
ENDBRANCH  37  58
ENDBRANCH  11  12
ENDBRANCH   4   6
ENDBRANCH   3   4
ENDBRANCH   2   3
ENDBRANCH   1   2
BRANCH   1  68
ATOM     68  O   UNL A   1      31.818  29.656  27.168  1.00  0.00    -0.462 OA
BRANCH  68  69
ATOM     69  C   UNL A   1      31.552  28.332  26.904  1.00  0.00     0.312 C 
ATOM     70  O   UNL A   1      31.368  27.671  27.903  1.00  0.00    -0.252 OA
BRANCH  69  71
ATOM     71  C   UNL A   1      31.156  27.854  25.383  1.00  0.00     0.147 C 
ATOM     72  C   UNL A   1      30.541  26.185  25.104  1.00  0.00     0.129 C 
ATOM     73  C   UNL A   1      32.111  28.036  24.060  1.00  0.00     0.157 C 
ATOM     74  C   UNL A   1      31.277  26.160  23.414  1.00  0.00     0.155 C 
ATOM     75  C   UNL A   1      31.390  28.300  22.774  1.00  0.00     0.004 C 
ATOM     76  O   UNL A   1      32.563  26.717  23.713  1.00  0.00    -0.365 OA
ATOM     77  C   UNL A   1      30.836  27.148  22.406  1.00  0.00     0.004 C 
BRANCH  72  78
ATOM     78  C   UNL A   1      30.374  24.404  26.368  1.00  0.00     0.231 C 
ATOM     79  O   UNL A   1      29.552  24.012  27.247  1.00  0.00    -0.274 OA
ATOM     80  N   UNL A   1      31.581  23.183  26.391  1.00  0.00    -0.325 N 
ATOM     81  H   UNL A   1      31.381  22.491  27.063  1.00  0.00     0.169 HD
BRANCH  80  82
ATOM     82  C   UNL A   1      33.002  22.853  25.581  1.00  0.00     0.044 A 
ATOM     83  C   UNL A   1      33.880  23.890  25.949  1.00  0.00     0.026 A 
ATOM     84  C   UNL A   1      33.621  21.661  24.725  1.00  0.00    -0.020 A 
ATOM     85  C   UNL A   1      35.259  23.771  25.777  1.00  0.00     0.002 A 
ATOM     86  C   UNL A   1      35.029  21.642  24.621  1.00  0.00     0.006 A 
ATOM     87  C   UNL A   1      35.821  22.649  25.174  1.00  0.00     0.000 A 
BRANCH  84  88
ATOM     88  C   UNL A   1      33.082  20.193  24.076  1.00  0.00     0.073 C 
BRANCH  88  89
ATOM     89  C   UNL A   1      33.361  18.635  24.413  1.00  0.00    -0.044 A 
ATOM     90  C   UNL A   1      32.885  18.023  25.629  1.00  0.00     0.004 A 
ATOM     91  C   UNL A   1      34.023  17.710  23.637  1.00  0.00     0.004 A 
ATOM     92  C   UNL A   1      32.601  16.657  25.824  1.00  0.00     0.000 A 
ATOM     93  C   UNL A   1      33.864  16.304  23.879  1.00  0.00     0.000 A 
ATOM     94  C   UNL A   1      33.042  15.784  24.883  1.00  0.00     0.000 A 
ENDBRANCH  88  89
ENDBRANCH  84  88
ENDBRANCH  80  82
ENDBRANCH  72  78
ENDBRANCH  69  71
ENDBRANCH  68  69
ENDBRANCH   1  68
TORSDOF 18
ENDMDL
MODEL 2
REMARK VINA RESULT:     -12.7      0.977      8.143
REMARK SMILES O=C(OCCOC(=O)[C@@H]1[C@H](C(=O)Nc2ccccc2Cc2ccccc2)[C@H]2C=C[C@@H]1O2)c1ccc(-c2c3nc(c(-c4ccc(S(=O)(=O)[O-])cc4)c4ccc([nH]4)c(-c4ccc(S(=O)(=O)[O-])cc4)c4nc(c(-c5ccc(S(=O)(=O)[O-])cc5)c5ccc2[nH]5)C=C4)C=C3)cc1
REMARK SMILES IDX 5 1 4 2 3 3 2 4 1 5 32 6 33 7 91 8 34 9 90 10 35 11 36 12
REMARK SMILES IDX 37 13 84 14 38 15 89 16 83 17 85 18 39 19 88 20 82 21 81 22
REMARK SMILES IDX 40 24 70 25 51 26 69 27 52 28 55 29 68 30 86 31 53 32 54 33
REMARK SMILES IDX 67 35 87 36 56 37 41 38 42 39 50 40 43 41 49 42 44 43 45 44
REMARK SMILES IDX 46 45 47 46 48 47 71 48 72 49 80 50 73 51 79 52 74 53 75 54
REMARK SMILES IDX 76 55 77 56 78 57 57 58 58 59 66 60 59 61 65 62 60 63 61 64
REMARK SMILES IDX 62 65 63 66 64 67 6 68 7 69 8 70 9 71 10 72 30 73 27 74
REMARK SMILES IDX 29 75 31 76 28 77 11 78 12 79 13 80 14 82 15 83 19 84 16 85
REMARK SMILES IDX 18 86 17 87 20 88 21 89 22 90 26 91 23 92 25 93 24 94
REMARK H PARENT 85 23 55 34 13 81
REMARK Flexibility Score: inf
ROOT
ATOM      1  C   UNL A   1      32.598  30.427  26.759  1.00  0.00     0.274 C 
ENDROOT
BRANCH   1   2
ATOM      2  C   UNL A   1      33.374  31.646  27.391  1.00  0.00     0.275 C 
BRANCH   2   3
ATOM      3  O   UNL A   1      32.691  32.895  27.596  1.00  0.00    -0.458 OA
BRANCH   3   4
ATOM      4  C   UNL A   1      33.307  33.839  28.352  1.00  0.00     0.338 C 
ATOM      5  O   UNL A   1      32.724  34.843  28.698  1.00  0.00    -0.246 OA
BRANCH   4   6
ATOM      6  C   UNL A   1      34.757  33.237  28.641  1.00  0.00     0.060 A 
ATOM      7  C   UNL A   1      34.633  32.411  30.256  1.00  0.00     0.016 A 
ATOM      8  C   UNL A   1      36.502  33.782  28.148  1.00  0.00     0.016 A 
ATOM      9  C   UNL A   1      35.923  32.067  31.256  1.00  0.00     0.010 A 
ATOM     10  C   UNL A   1      37.821  33.546  29.402  1.00  0.00     0.010 A 
ATOM     11  C   UNL A   1      37.485  32.568  30.829  1.00  0.00    -0.014 A 
BRANCH  11  12
ATOM     12  C   UNL A   1      38.536  31.802  31.525  1.00  0.00     0.031 A 
ATOM     13  C   UNL A   1      38.837  32.398  32.828  1.00  0.00     0.074 A 
ATOM     14  C   UNL A   1      39.155  30.698  31.018  1.00  0.00     0.049 A 
ATOM     15  N   UNL A   1      39.848  32.195  33.601  1.00  0.00    -0.248 NA
ATOM     16  C   UNL A   1      37.885  33.425  33.290  1.00  0.00     0.031 C 
ATOM     17  C   UNL A   1      38.813  29.926  29.811  1.00  0.00     0.029 A 
ATOM     18  N   UNL A   1      40.283  30.035  31.442  1.00  0.00    -0.354 N 
ATOM     19  C   UNL A   1      39.639  33.083  34.636  1.00  0.00     0.074 A 
ATOM     20  C   UNL A   1      38.562  33.964  34.279  1.00  0.00     0.031 C 
ATOM     21  C   UNL A   1      39.789  29.063  29.489  1.00  0.00     0.029 A 
ATOM     22  C   UNL A   1      40.771  29.099  30.542  1.00  0.00     0.049 A 
ATOM     23  H   UNL A   1      40.708  30.210  32.312  1.00  0.00     0.167 HD
ATOM     24  C   UNL A   1      40.220  33.054  35.846  1.00  0.00     0.031 A 
ATOM     25  C   UNL A   1      41.872  28.323  30.585  1.00  0.00     0.031 A 
ATOM     26  C   UNL A   1      41.253  32.114  36.133  1.00  0.00     0.049 A 
ATOM     27  C   UNL A   1      42.629  28.403  31.874  1.00  0.00     0.074 A 
ATOM     28  C   UNL A   1      41.991  31.962  37.280  1.00  0.00     0.029 A 
ATOM     29  N   UNL A   1      41.694  31.157  35.218  1.00  0.00    -0.354 N 
ATOM     30  N   UNL A   1      42.413  29.222  32.880  1.00  0.00    -0.248 NA
ATOM     31  C   UNL A   1      43.709  27.440  32.086  1.00  0.00     0.031 C 
ATOM     32  C   UNL A   1      42.947  30.974  37.023  1.00  0.00     0.029 A 
ATOM     33  C   UNL A   1      42.733  30.436  35.755  1.00  0.00     0.049 A 
ATOM     34  H   UNL A   1      41.317  31.018  34.319  1.00  0.00     0.167 HD
ATOM     35  C   UNL A   1      43.287  28.839  33.877  1.00  0.00     0.074 A 
ATOM     36  C   UNL A   1      44.052  27.723  33.337  1.00  0.00     0.031 C 
ATOM     37  C   UNL A   1      43.434  29.337  35.129  1.00  0.00     0.031 A 
BRANCH  24  38
ATOM     38  C   UNL A   1      39.741  34.090  36.811  1.00  0.00    -0.014 A 
ATOM     39  C   UNL A   1      40.144  35.441  36.704  1.00  0.00     0.010 A 
ATOM     40  C   UNL A   1      39.052  33.667  37.954  1.00  0.00     0.010 A 
ATOM     41  C   UNL A   1      39.934  36.326  37.763  1.00  0.00     0.020 A 
ATOM     42  C   UNL A   1      38.799  34.561  38.994  1.00  0.00     0.020 A 
ATOM     43  C   UNL A   1      39.263  35.876  38.903  1.00  0.00     0.054 A 
BRANCH  43  44
ATOM     44  S   UNL A   1      38.992  37.039  40.265  1.00  0.00     0.124 S 
ATOM     45  O   UNL A   1      38.440  38.200  39.572  1.00  0.00    -0.237 OA
ATOM     46  O   UNL A   1      38.055  36.312  41.118  1.00  0.00    -0.237 OA
ATOM     47  O   UNL A   1      40.327  37.226  40.829  1.00  0.00    -0.744 OA
ENDBRANCH  43  44
ENDBRANCH  24  38
BRANCH  25  48
ATOM     48  C   UNL A   1      42.220  27.383  29.469  1.00  0.00    -0.014 A 
ATOM     49  C   UNL A   1      41.383  26.304  29.124  1.00  0.00     0.010 A 
ATOM     50  C   UNL A   1      43.373  27.599  28.685  1.00  0.00     0.010 A 
ATOM     51  C   UNL A   1      41.689  25.466  28.039  1.00  0.00     0.020 A 
ATOM     52  C   UNL A   1      43.676  26.773  27.589  1.00  0.00     0.020 A 
ATOM     53  C   UNL A   1      42.832  25.709  27.273  1.00  0.00     0.054 A 
BRANCH  53  54
ATOM     54  S   UNL A   1      43.172  24.647  25.833  1.00  0.00     0.124 S 
ATOM     55  O   UNL A   1      42.489  25.358  24.756  1.00  0.00    -0.237 OA
ATOM     56  O   UNL A   1      44.632  24.661  25.774  1.00  0.00    -0.237 OA
ATOM     57  O   UNL A   1      42.583  23.363  26.205  1.00  0.00    -0.744 OA
ENDBRANCH  53  54
ENDBRANCH  25  48
BRANCH  37  58
ATOM     58  C   UNL A   1      44.429  28.650  36.002  1.00  0.00    -0.014 A 
ATOM     59  C   UNL A   1      44.056  27.541  36.774  1.00  0.00     0.010 A 
ATOM     60  C   UNL A   1      45.781  29.020  35.885  1.00  0.00     0.010 A 
ATOM     61  C   UNL A   1      45.038  26.794  37.413  1.00  0.00     0.020 A 
ATOM     62  C   UNL A   1      46.764  28.247  36.487  1.00  0.00     0.020 A 
ATOM     63  C   UNL A   1      46.384  27.139  37.247  1.00  0.00     0.054 A 
BRANCH  63  64
ATOM     64  S   UNL A   1      47.642  26.064  37.974  1.00  0.00     0.124 S 
ATOM     65  O   UNL A   1      46.864  24.873  38.302  1.00  0.00    -0.237 OA
ATOM     66  O   UNL A   1      48.597  25.913  36.880  1.00  0.00    -0.237 OA
ATOM     67  O   UNL A   1      48.129  26.827  39.121  1.00  0.00    -0.744 OA
ENDBRANCH  63  64
ENDBRANCH  37  58
ENDBRANCH  11  12
ENDBRANCH   4   6
ENDBRANCH   3   4
ENDBRANCH   2   3
ENDBRANCH   1   2
BRANCH   1  68
ATOM     68  O   UNL A   1      32.977  29.025  27.166  1.00  0.00    -0.462 OA
BRANCH  68  69
ATOM     69  C   UNL A   1      31.957  28.106  27.053  1.00  0.00     0.312 C 
ATOM     70  O   UNL A   1      31.395  27.881  28.102  1.00  0.00    -0.252 OA
BRANCH  69  71
ATOM     71  C   UNL A   1      31.371  27.699  25.572  1.00  0.00     0.147 C 
ATOM     72  C   UNL A   1      30.771  26.027  25.281  1.00  0.00     0.129 C 
ATOM     73  C   UNL A   1      32.130  27.989  24.146  1.00  0.00     0.157 C 
ATOM     74  C   UNL A   1      31.269  26.122  23.508  1.00  0.00     0.155 C 
ATOM     75  C   UNL A   1      31.234  28.297  22.987  1.00  0.00     0.004 C 
ATOM     76  O   UNL A   1      32.568  26.708  23.663  1.00  0.00    -0.365 OA
ATOM     77  C   UNL A   1      30.668  27.147  22.629  1.00  0.00     0.004 C 
BRANCH  72  78
ATOM     78  C   UNL A   1      30.829  24.174  26.446  1.00  0.00     0.231 C 
ATOM     79  O   UNL A   1      30.036  23.607  27.254  1.00  0.00    -0.274 OA
ATOM     80  N   UNL A   1      32.216  23.162  26.486  1.00  0.00    -0.325 N 
ATOM     81  H   UNL A   1      32.096  22.411  27.112  1.00  0.00     0.169 HD
BRANCH  80  82
ATOM     82  C   UNL A   1      33.712  23.109  25.751  1.00  0.00     0.044 A 
ATOM     83  C   UNL A   1      34.109  24.455  25.634  1.00  0.00     0.026 A 
ATOM     84  C   UNL A   1      34.794  22.008  25.358  1.00  0.00    -0.020 A 
ATOM     85  C   UNL A   1      35.440  24.804  25.412  1.00  0.00     0.002 A 
ATOM     86  C   UNL A   1      36.110  22.479  25.158  1.00  0.00     0.006 A 
ATOM     87  C   UNL A   1      36.425  23.836  25.231  1.00  0.00     0.000 A 
BRANCH  84  88
ATOM     88  C   UNL A   1      34.893  20.317  25.349  1.00  0.00     0.073 C 
BRANCH  88  89
ATOM     89  C   UNL A   1      34.108  19.141  24.563  1.00  0.00    -0.044 A 
ATOM     90  C   UNL A   1      32.785  19.338  24.024  1.00  0.00     0.004 A 
ATOM     91  C   UNL A   1      34.557  17.870  24.283  1.00  0.00     0.004 A 
ATOM     92  C   UNL A   1      32.213  18.648  22.937  1.00  0.00     0.000 A 
ATOM     93  C   UNL A   1      33.924  17.078  23.266  1.00  0.00     0.000 A 
ATOM     94  C   UNL A   1      32.843  17.527  22.502  1.00  0.00     0.000 A 
ENDBRANCH  88  89
ENDBRANCH  84  88
ENDBRANCH  80  82
ENDBRANCH  72  78
ENDBRANCH  69  71
ENDBRANCH  68  69
ENDBRANCH   1  68
TORSDOF 18
ENDMDL
MODEL 3
REMARK VINA RESULT:     -12.4      6.360      8.965
REMARK SMILES O=C(OCCOC(=O)[C@@H]1[C@H](C(=O)Nc2ccccc2Cc2ccccc2)[C@H]2C=C[C@@H]1O2)c1ccc(-c2c3nc(c(-c4ccc(S(=O)(=O)[O-])cc4)c4ccc([nH]4)c(-c4ccc(S(=O)(=O)[O-])cc4)c4nc(c(-c5ccc(S(=O)(=O)[O-])cc5)c5ccc2[nH]5)C=C4)C=C3)cc1
REMARK SMILES IDX 5 1 4 2 3 3 2 4 1 5 32 6 33 7 91 8 34 9 90 10 35 11 36 12
REMARK SMILES IDX 37 13 84 14 38 15 89 16 83 17 85 18 39 19 88 20 82 21 81 22
REMARK SMILES IDX 40 24 70 25 51 26 69 27 52 28 55 29 68 30 86 31 53 32 54 33
REMARK SMILES IDX 67 35 87 36 56 37 41 38 42 39 50 40 43 41 49 42 44 43 45 44
REMARK SMILES IDX 46 45 47 46 48 47 71 48 72 49 80 50 73 51 79 52 74 53 75 54
REMARK SMILES IDX 76 55 77 56 78 57 57 58 58 59 66 60 59 61 65 62 60 63 61 64
REMARK SMILES IDX 62 65 63 66 64 67 6 68 7 69 8 70 9 71 10 72 30 73 27 74
REMARK SMILES IDX 29 75 31 76 28 77 11 78 12 79 13 80 14 82 15 83 19 84 16 85
REMARK SMILES IDX 18 86 17 87 20 88 21 89 22 90 26 91 23 92 25 93 24 94
REMARK H PARENT 85 23 55 34 13 81
REMARK Flexibility Score: inf
ROOT
ATOM      1  C   UNL A   1      33.552  30.326  26.885  1.00  0.00     0.274 C 
ENDROOT
BRANCH   1   2
ATOM      2  C   UNL A   1      34.568  31.208  27.709  1.00  0.00     0.275 C 
BRANCH   2   3
ATOM      3  O   UNL A   1      35.920  30.754  27.888  1.00  0.00    -0.458 OA
BRANCH   3   4
ATOM      4  C   UNL A   1      36.300  30.363  29.131  1.00  0.00     0.338 C 
ATOM      5  O   UNL A   1      35.486  29.995  29.949  1.00  0.00    -0.246 OA
BRANCH   4   6
ATOM      6  C   UNL A   1      37.894  30.457  29.110  1.00  0.00     0.060 A 
ATOM      7  C   UNL A   1      38.420  29.555  27.622  1.00  0.00     0.016 A 
ATOM      8  C   UNL A   1      39.196  30.582  30.479  1.00  0.00     0.016 A 
ATOM      9  C   UNL A   1      39.941  28.912  27.382  1.00  0.00     0.010 A 
ATOM     10  C   UNL A   1      40.764  29.668  30.206  1.00  0.00     0.010 A 
ATOM     11  C   UNL A   1      41.105  29.004  28.609  1.00  0.00    -0.014 A 
BRANCH  11  12
ATOM     12  C   UNL A   1      42.480  28.846  28.099  1.00  0.00     0.031 A 
ATOM     13  C   UNL A   1      42.748  27.448  27.752  1.00  0.00     0.074 A 
ATOM     14  C   UNL A   1      43.385  29.858  27.980  1.00  0.00     0.049 A 
ATOM     15  N   UNL A   1      43.878  26.866  27.534  1.00  0.00    -0.248 NA
ATOM     16  C   UNL A   1      41.566  26.568  27.714  1.00  0.00     0.031 C 
ATOM     17  C   UNL A   1      43.168  31.307  28.135  1.00  0.00     0.029 A 
ATOM     18  N   UNL A   1      44.740  29.820  27.744  1.00  0.00    -0.354 N 
ATOM     19  C   UNL A   1      43.522  25.548  27.339  1.00  0.00     0.074 A 
ATOM     20  C   UNL A   1      42.138  25.385  27.691  1.00  0.00     0.031 C 
ATOM     21  C   UNL A   1      44.331  31.973  28.196  1.00  0.00     0.029 A 
ATOM     22  C   UNL A   1      45.390  31.031  27.935  1.00  0.00     0.049 A 
ATOM     23  H   UNL A   1      45.209  29.002  27.463  1.00  0.00     0.167 HD
ATOM     24  C   UNL A   1      44.272  24.591  26.771  1.00  0.00     0.031 A 
ATOM     25  C   UNL A   1      46.696  31.353  27.866  1.00  0.00     0.031 A 
ATOM     26  C   UNL A   1      45.627  24.851  26.409  1.00  0.00     0.049 A 
ATOM     27  C   UNL A   1      47.577  30.241  27.387  1.00  0.00     0.074 A 
ATOM     28  C   UNL A   1      46.557  23.999  25.867  1.00  0.00     0.029 A 
ATOM     29  N   UNL A   1      46.241  26.094  26.577  1.00  0.00    -0.354 N 
ATOM     30  N   UNL A   1      47.237  28.990  27.164  1.00  0.00    -0.248 NA
ATOM     31  C   UNL A   1      48.969  30.564  27.079  1.00  0.00     0.031 C 
ATOM     32  C   UNL A   1      47.764  24.703  25.798  1.00  0.00     0.029 A 
ATOM     33  C   UNL A   1      47.558  26.023  26.195  1.00  0.00     0.049 A 
ATOM     34  H   UNL A   1      45.796  26.902  26.919  1.00  0.00     0.167 HD
ATOM     35  C   UNL A   1      48.355  28.381  26.629  1.00  0.00     0.074 A 
ATOM     36  C   UNL A   1      49.390  29.405  26.584  1.00  0.00     0.031 C 
ATOM     37  C   UNL A   1      48.513  27.109  26.191  1.00  0.00     0.031 A 
BRANCH  24  38
ATOM     38  C   UNL A   1      43.602  23.265  26.604  1.00  0.00    -0.014 A 
ATOM     39  C   UNL A   1      43.093  22.551  27.714  1.00  0.00     0.010 A 
ATOM     40  C   UNL A   1      43.672  22.636  25.355  1.00  0.00     0.010 A 
ATOM     41  C   UNL A   1      42.743  21.206  27.587  1.00  0.00     0.020 A 
ATOM     42  C   UNL A   1      43.278  21.306  25.215  1.00  0.00     0.020 A 
ATOM     43  C   UNL A   1      42.840  20.593  26.335  1.00  0.00     0.054 A 
BRANCH  43  44
ATOM     44  S   UNL A   1      42.375  18.849  26.185  1.00  0.00     0.124 S 
ATOM     45  O   UNL A   1      43.311  18.369  25.171  1.00  0.00    -0.237 OA
ATOM     46  O   UNL A   1      42.600  18.346  27.537  1.00  0.00    -0.237 OA
ATOM     47  O   UNL A   1      40.977  18.900  25.767  1.00  0.00    -0.744 OA
ENDBRANCH  43  44
ENDBRANCH  24  38
BRANCH  25  48
ATOM     48  C   UNL A   1      47.183  32.745  28.137  1.00  0.00    -0.014 A 
ATOM     49  C   UNL A   1      47.641  33.133  29.411  1.00  0.00     0.010 A 
ATOM     50  C   UNL A   1      47.260  33.692  27.094  1.00  0.00     0.010 A 
ATOM     51  C   UNL A   1      48.150  34.422  29.639  1.00  0.00     0.020 A 
ATOM     52  C   UNL A   1      47.783  34.978  27.311  1.00  0.00     0.020 A 
ATOM     53  C   UNL A   1      48.224  35.337  28.585  1.00  0.00     0.054 A 
BRANCH  53  54
ATOM     54  S   UNL A   1      48.949  36.979  28.891  1.00  0.00     0.124 S 
ATOM     55  O   UNL A   1      47.872  37.874  28.480  1.00  0.00    -0.237 OA
ATOM     56  O   UNL A   1      49.223  36.936  30.325  1.00  0.00    -0.237 OA
ATOM     57  O   UNL A   1      50.135  36.997  28.038  1.00  0.00    -0.744 OA
ENDBRANCH  53  54
ENDBRANCH  25  48
BRANCH  37  58
ATOM     58  C   UNL A   1      49.838  26.776  25.592  1.00  0.00    -0.014 A 
ATOM     59  C   UNL A   1      50.112  27.075  24.250  1.00  0.00     0.010 A 
ATOM     60  C   UNL A   1      50.860  26.333  26.450  1.00  0.00     0.010 A 
ATOM     61  C   UNL A   1      51.411  26.949  23.774  1.00  0.00     0.020 A 
ATOM     62  C   UNL A   1      52.166  26.250  25.986  1.00  0.00     0.020 A 
ATOM     63  C   UNL A   1      52.430  26.559  24.650  1.00  0.00     0.054 A 
BRANCH  63  64
ATOM     64  S   UNL A   1      54.129  26.542  24.035  1.00  0.00     0.124 S 
ATOM     65  O   UNL A   1      54.730  25.486  24.845  1.00  0.00    -0.237 OA
ATOM     66  O   UNL A   1      53.949  26.226  22.620  1.00  0.00    -0.237 OA
ATOM     67  O   UNL A   1      54.613  27.892  24.311  1.00  0.00    -0.744 OA
ENDBRANCH  63  64
ENDBRANCH  37  58
ENDBRANCH  11  12
ENDBRANCH   4   6
ENDBRANCH   3   4
ENDBRANCH   2   3
ENDBRANCH   1   2
BRANCH   1  68
ATOM     68  O   UNL A   1      33.628  28.823  26.995  1.00  0.00    -0.462 OA
BRANCH  68  69
ATOM     69  C   UNL A   1      32.404  28.192  26.998  1.00  0.00     0.312 C 
ATOM     70  O   UNL A   1      31.952  28.024  28.110  1.00  0.00    -0.252 OA
BRANCH  69  71
ATOM     71  C   UNL A   1      31.536  28.063  25.608  1.00  0.00     0.147 C 
ATOM     72  C   UNL A   1      30.632  26.546  25.260  1.00  0.00     0.129 C 
ATOM     73  C   UNL A   1      32.101  28.416  24.108  1.00  0.00     0.157 C 
ATOM     74  C   UNL A   1      30.857  26.789  23.446  1.00  0.00     0.155 C 
ATOM     75  C   UNL A   1      31.099  28.994  23.158  1.00  0.00     0.004 C 
ATOM     76  O   UNL A   1      32.242  27.155  23.432  1.00  0.00    -0.365 OA
ATOM     77  C   UNL A   1      30.303  27.992  22.791  1.00  0.00     0.004 C 
BRANCH  72  78
ATOM     78  C   UNL A   1      30.565  24.573  26.208  1.00  0.00     0.231 C 
ATOM     79  O   UNL A   1      29.937  24.081  27.191  1.00  0.00    -0.274 OA
ATOM     80  N   UNL A   1      31.590  23.287  25.716  1.00  0.00    -0.325 N 
ATOM     81  H   UNL A   1      31.477  22.496  26.292  1.00  0.00     0.169 HD
BRANCH  80  82
ATOM     82  C   UNL A   1      32.725  23.016  24.524  1.00  0.00     0.044 A 
ATOM     83  C   UNL A   1      32.112  23.448  23.332  1.00  0.00     0.026 A 
ATOM     84  C   UNL A   1      34.263  22.609  24.432  1.00  0.00    -0.020 A 
ATOM     85  C   UNL A   1      32.860  23.725  22.189  1.00  0.00     0.002 A 
ATOM     86  C   UNL A   1      34.918  22.942  23.226  1.00  0.00     0.006 A 
ATOM     87  C   UNL A   1      34.238  23.526  22.156  1.00  0.00     0.000 A 
BRANCH  84  88
ATOM     88  C   UNL A   1      35.473  22.092  25.497  1.00  0.00     0.073 C 
BRANCH  88  89
ATOM     89  C   UNL A   1      37.044  22.435  25.678  1.00  0.00    -0.044 A 
ATOM     90  C   UNL A   1      37.500  23.765  25.996  1.00  0.00     0.004 A 
ATOM     91  C   UNL A   1      38.111  21.569  25.591  1.00  0.00     0.004 A 
ATOM     92  C   UNL A   1      38.696  24.104  26.660  1.00  0.00     0.000 A 
ATOM     93  C   UNL A   1      39.388  21.923  26.144  1.00  0.00     0.000 A 
ATOM     94  C   UNL A   1      39.634  23.133  26.800  1.00  0.00     0.000 A 
ENDBRANCH  88  89
ENDBRANCH  84  88
ENDBRANCH  80  82
ENDBRANCH  72  78
ENDBRANCH  69  71
ENDBRANCH  68  69
ENDBRANCH   1  68
TORSDOF 18
ENDMDL
