MODEL 1
REMARK VINA RESULT:      -9.2      0.000      0.000
REMARK SMILES CC[C@](C)(NC(=O)N1CCC[C@@H]1C)C(=O)OCCOC(=O)c1ccc(-c2c3nc(c(-c4ccc(S(=O)(=O)[O-])cc4)c4ccc([nH]4)c(-c4ccc(S(=O)(=O)[O-])cc4)c4nc(c(-c5ccc(S(=O)(=O)[O-])cc5)c5ccc2[nH]5)C=C4)C=C3)cc1
REMARK SMILES IDX 18 1 17 2 16 3 14 4 15 5 3 6 4 7 2 8 1 9 5 10 6 11 7 13 8 14
REMARK SMILES IDX 9 15 12 16 10 17 11 18 13 19 19 20 20 21 21 22 22 23 23 24
REMARK SMILES IDX 81 25 24 26 80 27 25 28 26 29 27 30 74 31 28 32 79 33 73 34
REMARK SMILES IDX 75 35 29 36 78 37 72 38 71 39 30 41 60 42 41 43 59 44 42 45
REMARK SMILES IDX 45 46 58 47 76 48 43 49 44 50 57 52 77 53 46 54 31 55 32 56
REMARK SMILES IDX 40 57 33 58 39 59 34 60 35 61 36 62 37 63 38 64 61 65 62 66
REMARK SMILES IDX 70 67 63 68 69 69 64 70 65 71 66 72 67 73 68 74 47 75 48 76
REMARK SMILES IDX 56 77 49 78 55 79 50 80 51 81 52 82 53 83 54 84
REMARK H PARENT 5 12 75 40 45 51
REMARK Flexibility Score: inf
ROOT
ATOM      1  C   UNL A   1      32.707  36.391  30.124  1.00  0.00     0.275 C 
ENDROOT
BRANCH   1   2
ATOM      2  C   UNL A   1      33.181  35.717  28.838  1.00  0.00     0.274 C 
BRANCH   2   3
ATOM      3  O   UNL A   1      33.957  34.537  29.142  1.00  0.00    -0.460 OA
BRANCH   3   4
ATOM      4  C   UNL A   1      34.763  34.057  28.156  1.00  0.00     0.331 C 
ATOM      5  O   UNL A   1      34.954  34.644  27.095  1.00  0.00    -0.249 OA
BRANCH   4   6
ATOM      6  C   UNL A   1      35.316  32.625  28.454  1.00  0.00     0.136 C 
ATOM      7  C   UNL A   1      34.816  32.199  29.842  1.00  0.00     0.047 C 
BRANCH   6   8
ATOM      8  C   UNL A   1      36.859  32.819  28.450  1.00  0.00     0.037 C 
ATOM      9  C   UNL A   1      37.376  33.952  29.326  1.00  0.00     0.007 C 
ENDBRANCH   6   8
BRANCH   6  10
ATOM     10  N   UNL A   1      34.929  31.659  27.398  1.00  0.00    -0.322 N 
ATOM     11  C   UNL A   1      34.655  30.334  27.583  1.00  0.00     0.318 C 
ATOM     12  H   UNL A   1      34.864  32.004  26.478  1.00  0.00     0.166 HD
ATOM     13  O   UNL A   1      35.383  29.613  28.258  1.00  0.00    -0.249 OA
BRANCH  11  14
ATOM     14  N   UNL A   1      33.520  29.859  26.959  1.00  0.00    -0.322 N 
ATOM     15  C   UNL A   1      32.300  30.656  27.034  1.00  0.00     0.122 C 
ATOM     16  C   UNL A   1      33.441  28.912  25.844  1.00  0.00     0.083 C 
ATOM     17  C   UNL A   1      31.589  30.428  25.708  1.00  0.00     0.024 C 
ATOM     18  C   UNL A   1      31.993  29.011  25.343  1.00  0.00     0.027 C 
ATOM     19  C   UNL A   1      33.802  27.470  26.161  1.00  0.00     0.031 C 
ENDBRANCH  11  14
ENDBRANCH   6  10
ENDBRANCH   4   6
ENDBRANCH   3   4
ENDBRANCH   2   3
ENDBRANCH   1   2
BRANCH   1  20
ATOM     20  O   UNL A   1      32.556  35.392  31.142  1.00  0.00    -0.458 OA
BRANCH  20  21
ATOM     21  C   UNL A   1      32.963  35.724  32.386  1.00  0.00     0.338 C 
ATOM     22  O   UNL A   1      32.477  36.576  33.120  1.00  0.00    -0.246 OA
BRANCH  21  23
ATOM     23  C   UNL A   1      34.146  34.919  32.731  1.00  0.00     0.060 A 
ATOM     24  C   UNL A   1      35.423  35.443  32.542  1.00  0.00     0.016 A 
ATOM     25  C   UNL A   1      33.991  33.625  33.228  1.00  0.00     0.016 A 
ATOM     26  C   UNL A   1      36.545  34.669  32.797  1.00  0.00     0.010 A 
ATOM     27  C   UNL A   1      35.120  32.893  33.609  1.00  0.00     0.010 A 
ATOM     28  C   UNL A   1      36.409  33.415  33.405  1.00  0.00    -0.014 A 
BRANCH  28  29
ATOM     29  C   UNL A   1      37.624  32.725  33.907  1.00  0.00     0.031 A 
ATOM     30  C   UNL A   1      38.209  33.058  35.249  1.00  0.00     0.074 A 
ATOM     31  C   UNL A   1      38.184  31.771  33.133  1.00  0.00     0.049 A 
ATOM     32  N   UNL A   1      39.311  32.611  35.795  1.00  0.00    -0.248 NA
ATOM     33  C   UNL A   1      37.478  34.028  36.078  1.00  0.00     0.031 C 
ATOM     34  C   UNL A   1      37.699  31.367  31.807  1.00  0.00     0.029 A 
ATOM     35  N   UNL A   1      39.257  30.947  33.350  1.00  0.00    -0.354 N 
ATOM     36  C   UNL A   1      39.429  33.274  37.011  1.00  0.00     0.074 A 
ATOM     37  C   UNL A   1      38.290  34.161  37.120  1.00  0.00     0.031 C 
ATOM     38  C   UNL A   1      38.420  30.326  31.368  1.00  0.00     0.029 A 
ATOM     39  C   UNL A   1      39.476  30.050  32.329  1.00  0.00     0.049 A 
ATOM     40  H   UNL A   1      39.818  30.992  34.158  1.00  0.00     0.167 HD
ATOM     41  C   UNL A   1      40.406  33.154  37.944  1.00  0.00     0.031 A 
ATOM     42  C   UNL A   1      40.438  29.123  32.165  1.00  0.00     0.031 A 
ATOM     43  C   UNL A   1      41.526  32.256  37.821  1.00  0.00     0.049 A 
ATOM     44  C   UNL A   1      41.491  28.998  33.224  1.00  0.00     0.074 A 
ATOM     45  C   UNL A   1      42.591  32.078  38.687  1.00  0.00     0.029 A 
ATOM     46  N   UNL A   1      41.715  31.368  36.771  1.00  0.00    -0.354 N 
ATOM     47  N   UNL A   1      41.619  29.679  34.339  1.00  0.00    -0.248 NA
ATOM     48  C   UNL A   1      42.536  27.993  33.001  1.00  0.00     0.031 C 
ATOM     49  C   UNL A   1      43.437  31.101  38.147  1.00  0.00     0.029 A 
ATOM     50  C   UNL A   1      42.876  30.638  36.968  1.00  0.00     0.049 A 
ATOM     51  H   UNL A   1      41.112  31.272  35.998  1.00  0.00     0.167 HD
ATOM     52  C   UNL A   1      42.767  29.193  34.947  1.00  0.00     0.074 A 
ATOM     53  C   UNL A   1      43.271  28.131  34.097  1.00  0.00     0.031 C 
ATOM     54  C   UNL A   1      43.361  29.600  36.095  1.00  0.00     0.031 A 
BRANCH  41  55
ATOM     55  C   UNL A   1      40.322  34.044  39.157  1.00  0.00    -0.014 A 
ATOM     56  C   UNL A   1      39.800  33.572  40.375  1.00  0.00     0.010 A 
ATOM     57  C   UNL A   1      40.797  35.366  39.084  1.00  0.00     0.010 A 
ATOM     58  C   UNL A   1      39.722  34.417  41.487  1.00  0.00     0.020 A 
ATOM     59  C   UNL A   1      40.741  36.208  40.201  1.00  0.00     0.020 A 
ATOM     60  C   UNL A   1      40.187  35.732  41.390  1.00  0.00     0.054 A 
BRANCH  60  61
ATOM     61  S   UNL A   1      40.087  36.806  42.851  1.00  0.00     0.124 S 
ATOM     62  O   UNL A   1      41.389  36.589  43.475  1.00  0.00    -0.237 OA
ATOM     63  O   UNL A   1      39.883  38.129  42.266  1.00  0.00    -0.237 OA
ATOM     64  O   UNL A   1      38.945  36.276  43.593  1.00  0.00    -0.744 OA
ENDBRANCH  60  61
ENDBRANCH  41  55
BRANCH  42  65
ATOM     65  C   UNL A   1      40.464  28.290  30.933  1.00  0.00    -0.014 A 
ATOM     66  C   UNL A   1      39.465  27.332  30.687  1.00  0.00     0.010 A 
ATOM     67  C   UNL A   1      41.472  28.486  29.970  1.00  0.00     0.010 A 
ATOM     68  C   UNL A   1      39.481  26.578  29.509  1.00  0.00     0.020 A 
ATOM     69  C   UNL A   1      41.473  27.758  28.778  1.00  0.00     0.020 A 
ATOM     70  C   UNL A   1      40.484  26.798  28.560  1.00  0.00     0.054 A 
BRANCH  70  71
ATOM     71  S   UNL A   1      40.454  25.862  27.005  1.00  0.00     0.124 S 
ATOM     72  O   UNL A   1      41.462  24.836  27.251  1.00  0.00    -0.237 OA
ATOM     73  O   UNL A   1      39.073  25.391  26.940  1.00  0.00    -0.237 OA
ATOM     74  O   UNL A   1      40.809  26.863  26.001  1.00  0.00    -0.744 OA
ENDBRANCH  70  71
ENDBRANCH  42  65
BRANCH  54  75
ATOM     75  C   UNL A   1      44.619  28.876  36.486  1.00  0.00    -0.014 A 
ATOM     76  C   UNL A   1      44.566  27.723  37.290  1.00  0.00     0.010 A 
ATOM     77  C   UNL A   1      45.864  29.357  36.047  1.00  0.00     0.010 A 
ATOM     78  C   UNL A   1      45.744  27.090  37.688  1.00  0.00     0.020 A 
ATOM     79  C   UNL A   1      47.044  28.711  36.425  1.00  0.00     0.020 A 
ATOM     80  C   UNL A   1      46.976  27.594  37.261  1.00  0.00     0.054 A 
BRANCH  80  81
ATOM     81  S   UNL A   1      48.495  26.755  37.785  1.00  0.00     0.124 S 
ATOM     82  O   UNL A   1      49.467  27.254  36.815  1.00  0.00    -0.237 OA
ATOM     83  O   UNL A   1      48.672  27.229  39.154  1.00  0.00    -0.237 OA
ATOM     84  O   UNL A   1      48.165  25.336  37.662  1.00  0.00    -0.744 OA
ENDBRANCH  80  81
ENDBRANCH  54  75
ENDBRANCH  28  29
ENDBRANCH  21  23
ENDBRANCH  20  21
ENDBRANCH   1  20
TORSDOF 17
ENDMDL
MODEL 2
REMARK VINA RESULT:      -9.1      4.951     10.713
REMARK SMILES CC[C@](C)(NC(=O)N1CCC[C@@H]1C)C(=O)OCCOC(=O)c1ccc(-c2c3nc(c(-c4ccc(S(=O)(=O)[O-])cc4)c4ccc([nH]4)c(-c4ccc(S(=O)(=O)[O-])cc4)c4nc(c(-c5ccc(S(=O)(=O)[O-])cc5)c5ccc2[nH]5)C=C4)C=C3)cc1
REMARK SMILES IDX 18 1 17 2 16 3 14 4 15 5 3 6 4 7 2 8 1 9 5 10 6 11 7 13 8 14
REMARK SMILES IDX 9 15 12 16 10 17 11 18 13 19 19 20 20 21 21 22 22 23 23 24
REMARK SMILES IDX 81 25 24 26 80 27 25 28 26 29 27 30 74 31 28 32 79 33 73 34
REMARK SMILES IDX 75 35 29 36 78 37 72 38 71 39 30 41 60 42 41 43 59 44 42 45
REMARK SMILES IDX 45 46 58 47 76 48 43 49 44 50 57 52 77 53 46 54 31 55 32 56
REMARK SMILES IDX 40 57 33 58 39 59 34 60 35 61 36 62 37 63 38 64 61 65 62 66
REMARK SMILES IDX 70 67 63 68 69 69 64 70 65 71 66 72 67 73 68 74 47 75 48 76
REMARK SMILES IDX 56 77 49 78 55 79 50 80 51 81 52 82 53 83 54 84
REMARK H PARENT 5 12 75 40 45 51
REMARK Flexibility Score: inf
ROOT
ATOM      1  C   UNL A   1      33.800  32.609  28.016  1.00  0.00     0.275 C 
ENDROOT
BRANCH   1   2
ATOM      2  C   UNL A   1      34.358  33.980  28.393  1.00  0.00     0.274 C 
BRANCH   2   3
ATOM      3  O   UNL A   1      34.784  33.991  29.773  1.00  0.00    -0.460 OA
BRANCH   3   4
ATOM      4  C   UNL A   1      33.967  34.614  30.667  1.00  0.00     0.331 C 
ATOM      5  O   UNL A   1      32.850  35.033  30.380  1.00  0.00    -0.249 OA
BRANCH   4   6
ATOM      6  C   UNL A   1      34.645  34.858  32.054  1.00  0.00     0.136 C 
ATOM      7  C   UNL A   1      33.945  33.967  33.092  1.00  0.00     0.047 C 
BRANCH   6   8
ATOM      8  C   UNL A   1      34.374  36.363  32.336  1.00  0.00     0.037 C 
ATOM      9  C   UNL A   1      33.829  36.680  33.721  1.00  0.00     0.007 C 
ENDBRANCH   6   8
BRANCH   6  10
ATOM     10  N   UNL A   1      36.106  34.612  32.000  1.00  0.00    -0.322 N 
ATOM     11  C   UNL A   1      36.922  34.379  33.070  1.00  0.00     0.318 C 
ATOM     12  H   UNL A   1      36.528  34.617  31.110  1.00  0.00     0.166 HD
ATOM     13  O   UNL A   1      36.872  35.072  34.081  1.00  0.00    -0.249 OA
BRANCH  11  14
ATOM     14  N   UNL A   1      37.806  33.328  32.939  1.00  0.00    -0.322 N 
ATOM     15  C   UNL A   1      39.219  33.631  32.731  1.00  0.00     0.122 C 
ATOM     16  C   UNL A   1      37.647  31.958  33.429  1.00  0.00     0.083 C 
ATOM     17  C   UNL A   1      39.976  32.522  33.445  1.00  0.00     0.024 C 
ATOM     18  C   UNL A   1      39.043  31.331  33.313  1.00  0.00     0.027 C 
ATOM     19  C   UNL A   1      36.614  31.103  32.710  1.00  0.00     0.031 C 
ENDBRANCH  11  14
ENDBRANCH   6  10
ENDBRANCH   4   6
ENDBRANCH   3   4
ENDBRANCH   2   3
ENDBRANCH   1   2
BRANCH   1  20
ATOM     20  O   UNL A   1      34.536  31.600  28.723  1.00  0.00    -0.458 OA
BRANCH  20  21
ATOM     21  C   UNL A   1      34.719  30.422  28.087  1.00  0.00     0.338 C 
ATOM     22  O   UNL A   1      33.884  29.784  27.460  1.00  0.00    -0.246 OA
BRANCH  21  23
ATOM     23  C   UNL A   1      36.104  29.975  28.304  1.00  0.00     0.060 A 
ATOM     24  C   UNL A   1      37.057  30.148  27.303  1.00  0.00     0.016 A 
ATOM     25  C   UNL A   1      36.460  29.359  29.504  1.00  0.00     0.016 A 
ATOM     26  C   UNL A   1      38.347  29.668  27.469  1.00  0.00     0.010 A 
ATOM     27  C   UNL A   1      37.792  28.993  29.723  1.00  0.00     0.010 A 
ATOM     28  C   UNL A   1      38.750  29.154  28.708  1.00  0.00    -0.014 A 
BRANCH  28  29
ATOM     29  C   UNL A   1      40.194  28.895  28.942  1.00  0.00     0.031 A 
ATOM     30  C   UNL A   1      40.823  27.589  28.554  1.00  0.00     0.074 A 
ATOM     31  C   UNL A   1      40.936  29.877  29.497  1.00  0.00     0.049 A 
ATOM     32  N   UNL A   1      42.046  27.175  28.767  1.00  0.00    -0.248 NA
ATOM     33  C   UNL A   1      39.972  26.615  27.854  1.00  0.00     0.031 C 
ATOM     34  C   UNL A   1      40.427  31.189  29.916  1.00  0.00     0.029 A 
ATOM     35  N   UNL A   1      42.276  29.945  29.780  1.00  0.00    -0.354 N 
ATOM     36  C   UNL A   1      42.101  25.879  28.268  1.00  0.00     0.074 A 
ATOM     37  C   UNL A   1      40.786  25.572  27.746  1.00  0.00     0.031 C 
ATOM     38  C   UNL A   1      41.448  31.953  30.326  1.00  0.00     0.029 A 
ATOM     39  C   UNL A   1      42.667  31.160  30.293  1.00  0.00     0.049 A 
ATOM     40  H   UNL A   1      42.898  29.197  29.631  1.00  0.00     0.167 HD
ATOM     41  C   UNL A   1      43.155  25.026  28.255  1.00  0.00     0.031 A 
ATOM     42  C   UNL A   1      43.871  31.587  30.720  1.00  0.00     0.031 A 
ATOM     43  C   UNL A   1      44.460  25.356  28.769  1.00  0.00     0.049 A 
ATOM     44  C   UNL A   1      45.022  30.630  30.672  1.00  0.00     0.074 A 
ATOM     45  C   UNL A   1      45.589  24.559  28.838  1.00  0.00     0.029 A 
ATOM     46  N   UNL A   1      44.816  26.595  29.285  1.00  0.00    -0.354 N 
ATOM     47  N   UNL A   1      45.037  29.386  30.252  1.00  0.00    -0.248 NA
ATOM     48  C   UNL A   1      46.312  31.122  31.166  1.00  0.00     0.031 C 
ATOM     49  C   UNL A   1      46.620  25.308  29.421  1.00  0.00     0.029 A 
ATOM     50  C   UNL A   1      46.146  26.585  29.672  1.00  0.00     0.049 A 
ATOM     51  H   UNL A   1      44.211  27.367  29.365  1.00  0.00     0.167 HD
ATOM     52  C   UNL A   1      46.338  28.942  30.442  1.00  0.00     0.074 A 
ATOM     53  C   UNL A   1      47.088  30.064  30.974  1.00  0.00     0.031 C 
ATOM     54  C   UNL A   1      46.861  27.712  30.214  1.00  0.00     0.031 A 
BRANCH  41  55
ATOM     55  C   UNL A   1      42.924  23.644  27.701  1.00  0.00    -0.014 A 
ATOM     56  C   UNL A   1      43.270  23.319  26.377  1.00  0.00     0.010 A 
ATOM     57  C   UNL A   1      42.375  22.646  28.527  1.00  0.00     0.010 A 
ATOM     58  C   UNL A   1      43.039  22.033  25.879  1.00  0.00     0.020 A 
ATOM     59  C   UNL A   1      42.162  21.352  28.040  1.00  0.00     0.020 A 
ATOM     60  C   UNL A   1      42.480  21.059  26.713  1.00  0.00     0.054 A 
BRANCH  60  61
ATOM     61  S   UNL A   1      42.201  19.393  26.047  1.00  0.00     0.124 S 
ATOM     62  O   UNL A   1      40.753  19.378  25.867  1.00  0.00    -0.237 OA
ATOM     63  O   UNL A   1      42.987  19.401  24.816  1.00  0.00    -0.237 OA
ATOM     64  O   UNL A   1      42.707  18.511  27.097  1.00  0.00    -0.744 OA
ENDBRANCH  60  61
ENDBRANCH  41  55
BRANCH  42  65
ATOM     65  C   UNL A   1      44.019  32.963  31.268  1.00  0.00    -0.014 A 
ATOM     66  C   UNL A   1      43.941  33.202  32.650  1.00  0.00     0.010 A 
ATOM     67  C   UNL A   1      44.286  34.042  30.403  1.00  0.00     0.010 A 
ATOM     68  C   UNL A   1      44.115  34.494  33.157  1.00  0.00     0.020 A 
ATOM     69  C   UNL A   1      44.493  35.328  30.908  1.00  0.00     0.020 A 
ATOM     70  C   UNL A   1      44.393  35.549  32.282  1.00  0.00     0.054 A 
BRANCH  70  71
ATOM     71  S   UNL A   1      44.685  37.208  32.958  1.00  0.00     0.124 S 
ATOM     72  O   UNL A   1      43.851  38.037  32.095  1.00  0.00    -0.237 OA
ATOM     73  O   UNL A   1      44.230  37.076  34.341  1.00  0.00    -0.237 OA
ATOM     74  O   UNL A   1      46.127  37.388  32.801  1.00  0.00    -0.744 OA
ENDBRANCH  70  71
ENDBRANCH  42  65
BRANCH  54  75
ATOM     75  C   UNL A   1      48.318  27.538  30.539  1.00  0.00    -0.014 A 
ATOM     76  C   UNL A   1      49.306  27.798  29.573  1.00  0.00     0.010 A 
ATOM     77  C   UNL A   1      48.698  27.107  31.821  1.00  0.00     0.010 A 
ATOM     78  C   UNL A   1      50.653  27.582  29.871  1.00  0.00     0.020 A 
ATOM     79  C   UNL A   1      50.047  26.914  32.129  1.00  0.00     0.020 A 
ATOM     80  C   UNL A   1      51.013  27.133  31.144  1.00  0.00     0.054 A 
BRANCH  80  81
ATOM     81  S   UNL A   1      52.768  26.864  31.514  1.00  0.00     0.124 S 
ATOM     82  O   UNL A   1      52.767  26.820  32.974  1.00  0.00    -0.237 OA
ATOM     83  O   UNL A   1      53.050  25.597  30.846  1.00  0.00    -0.237 OA
ATOM     84  O   UNL A   1      53.427  28.030  30.926  1.00  0.00    -0.744 OA
ENDBRANCH  80  81
ENDBRANCH  54  75
ENDBRANCH  28  29
ENDBRANCH  21  23
ENDBRANCH  20  21
ENDBRANCH   1  20
TORSDOF 17
ENDMDL
MODEL 3
REMARK VINA RESULT:      -9.1      5.364      7.415
REMARK SMILES CC[C@](C)(NC(=O)N1CCC[C@@H]1C)C(=O)OCCOC(=O)c1ccc(-c2c3nc(c(-c4ccc(S(=O)(=O)[O-])cc4)c4ccc([nH]4)c(-c4ccc(S(=O)(=O)[O-])cc4)c4nc(c(-c5ccc(S(=O)(=O)[O-])cc5)c5ccc2[nH]5)C=C4)C=C3)cc1
REMARK SMILES IDX 18 1 17 2 16 3 14 4 15 5 3 6 4 7 2 8 1 9 5 10 6 11 7 13 8 14
REMARK SMILES IDX 9 15 12 16 10 17 11 18 13 19 19 20 20 21 21 22 22 23 23 24
REMARK SMILES IDX 81 25 24 26 80 27 25 28 26 29 27 30 74 31 28 32 79 33 73 34
REMARK SMILES IDX 75 35 29 36 78 37 72 38 71 39 30 41 60 42 41 43 59 44 42 45
REMARK SMILES IDX 45 46 58 47 76 48 43 49 44 50 57 52 77 53 46 54 31 55 32 56
REMARK SMILES IDX 40 57 33 58 39 59 34 60 35 61 36 62 37 63 38 64 61 65 62 66
REMARK SMILES IDX 70 67 63 68 69 69 64 70 65 71 66 72 67 73 68 74 47 75 48 76
REMARK SMILES IDX 56 77 49 78 55 79 50 80 51 81 52 82 53 83 54 84
REMARK H PARENT 5 12 75 40 45 51
REMARK Flexibility Score: inf
ROOT
ATOM      1  C   UNL A   1      33.062  28.690  27.567  1.00  0.00     0.275 C 
ENDROOT
BRANCH   1   2
ATOM      2  C   UNL A   1      31.984  28.245  26.580  1.00  0.00     0.274 C 
BRANCH   2   3
ATOM      3  O   UNL A   1      32.474  27.172  25.747  1.00  0.00    -0.460 OA
BRANCH   3   4
ATOM      4  C   UNL A   1      31.722  26.039  25.691  1.00  0.00     0.331 C 
ATOM      5  O   UNL A   1      31.249  25.495  26.685  1.00  0.00    -0.249 OA
BRANCH   4   6
ATOM      6  C   UNL A   1      31.631  25.428  24.255  1.00  0.00     0.136 C 
ATOM      7  C   UNL A   1      31.181  23.965  24.385  1.00  0.00     0.047 C 
BRANCH   6   8
ATOM      8  C   UNL A   1      33.089  25.520  23.724  1.00  0.00     0.037 C 
ATOM      9  C   UNL A   1      33.230  25.566  22.209  1.00  0.00     0.007 C 
ENDBRANCH   6   8
BRANCH   6  10
ATOM     10  N   UNL A   1      30.728  26.216  23.382  1.00  0.00    -0.322 N 
ATOM     11  C   UNL A   1      29.589  26.858  23.777  1.00  0.00     0.318 C 
ATOM     12  H   UNL A   1      30.971  26.283  22.430  1.00  0.00     0.166 HD
ATOM     13  O   UNL A   1      28.753  26.310  24.488  1.00  0.00    -0.249 OA
BRANCH  11  14
ATOM     14  N   UNL A   1      29.434  28.151  23.319  1.00  0.00    -0.322 N 
ATOM     15  C   UNL A   1      30.627  28.974  23.145  1.00  0.00     0.122 C 
ATOM     16  C   UNL A   1      28.321  28.697  22.540  1.00  0.00     0.083 C 
ATOM     17  C   UNL A   1      30.330  29.862  21.946  1.00  0.00     0.024 C 
ATOM     18  C   UNL A   1      28.827  30.053  22.026  1.00  0.00     0.027 C 
ATOM     19  C   UNL A   1      27.001  28.861  23.277  1.00  0.00     0.031 C 
ENDBRANCH  11  14
ENDBRANCH   6  10
ENDBRANCH   4   6
ENDBRANCH   3   4
ENDBRANCH   2   3
ENDBRANCH   1   2
BRANCH   1  20
ATOM     20  O   UNL A   1      33.812  29.762  26.980  1.00  0.00    -0.458 OA
BRANCH  20  21
ATOM     21  C   UNL A   1      34.392  30.637  27.829  1.00  0.00     0.338 C 
ATOM     22  O   UNL A   1      33.920  31.689  28.242  1.00  0.00    -0.246 OA
BRANCH  21  23
ATOM     23  C   UNL A   1      35.741  30.153  28.165  1.00  0.00     0.060 A 
ATOM     24  C   UNL A   1      36.758  30.209  27.214  1.00  0.00     0.016 A 
ATOM     25  C   UNL A   1      35.998  29.620  29.428  1.00  0.00     0.016 A 
ATOM     26  C   UNL A   1      38.013  29.692  27.496  1.00  0.00     0.010 A 
ATOM     27  C   UNL A   1      37.297  29.219  29.756  1.00  0.00     0.010 A 
ATOM     28  C   UNL A   1      38.319  29.261  28.793  1.00  0.00    -0.014 A 
BRANCH  28  29
ATOM     29  C   UNL A   1      39.734  28.964  29.135  1.00  0.00     0.031 A 
ATOM     30  C   UNL A   1      40.576  29.952  29.888  1.00  0.00     0.074 A 
ATOM     31  C   UNL A   1      40.242  27.768  28.768  1.00  0.00     0.049 A 
ATOM     32  N   UNL A   1      41.848  29.882  30.188  1.00  0.00    -0.248 NA
ATOM     33  C   UNL A   1      39.917  31.184  30.348  1.00  0.00     0.031 C 
ATOM     34  C   UNL A   1      39.511  26.730  28.029  1.00  0.00     0.029 A 
ATOM     35  N   UNL A   1      41.473  27.205  28.985  1.00  0.00    -0.354 N 
ATOM     36  C   UNL A   1      42.153  31.074  30.834  1.00  0.00     0.074 A 
ATOM     37  C   UNL A   1      40.934  31.854  30.876  1.00  0.00     0.031 C 
ATOM     38  C   UNL A   1      40.278  25.636  27.926  1.00  0.00     0.029 A 
ATOM     39  C   UNL A   1      41.583  25.923  28.500  1.00  0.00     0.049 A 
ATOM     40  H   UNL A   1      42.207  27.673  29.444  1.00  0.00     0.167 HD
ATOM     41  C   UNL A   1      43.345  31.478  31.338  1.00  0.00     0.031 A 
ATOM     42  C   UNL A   1      42.627  25.074  28.490  1.00  0.00     0.031 A 
ATOM     43  C   UNL A   1      44.545  30.680  31.296  1.00  0.00     0.049 A 
ATOM     44  C   UNL A   1      43.926  25.539  29.074  1.00  0.00     0.074 A 
ATOM     45  C   UNL A   1      45.814  31.003  31.744  1.00  0.00     0.029 A 
ATOM     46  N   UNL A   1      44.617  29.389  30.792  1.00  0.00    -0.354 N 
ATOM     47  N   UNL A   1      44.209  26.696  29.626  1.00  0.00    -0.248 NA
ATOM     48  C   UNL A   1      45.049  24.597  29.025  1.00  0.00     0.031 C 
ATOM     49  C   UNL A   1      46.659  29.916  31.486  1.00  0.00     0.029 A 
ATOM     50  C   UNL A   1      45.907  28.900  30.920  1.00  0.00     0.049 A 
ATOM     51  H   UNL A   1      43.862  28.893  30.400  1.00  0.00     0.167 HD
ATOM     52  C   UNL A   1      45.549  26.626  29.980  1.00  0.00     0.074 A 
ATOM     53  C   UNL A   1      46.005  25.297  29.619  1.00  0.00     0.031 C 
ATOM     54  C   UNL A   1      46.335  27.579  30.536  1.00  0.00     0.031 A 
BRANCH  41  55
ATOM     55  C   UNL A   1      43.414  32.857  31.940  1.00  0.00    -0.014 A 
ATOM     56  C   UNL A   1      43.294  33.056  33.327  1.00  0.00     0.010 A 
ATOM     57  C   UNL A   1      43.630  33.970  31.107  1.00  0.00     0.010 A 
ATOM     58  C   UNL A   1      43.351  34.346  33.866  1.00  0.00     0.020 A 
ATOM     59  C   UNL A   1      43.711  35.260  31.644  1.00  0.00     0.020 A 
ATOM     60  C   UNL A   1      43.553  35.440  33.019  1.00  0.00     0.054 A 
BRANCH  60  61
ATOM     61  S   UNL A   1      43.637  37.103  33.743  1.00  0.00     0.124 S 
ATOM     62  O   UNL A   1      42.288  37.269  34.276  1.00  0.00    -0.237 OA
ATOM     63  O   UNL A   1      44.694  36.967  34.743  1.00  0.00    -0.237 OA
ATOM     64  O   UNL A   1      43.967  37.960  32.607  1.00  0.00    -0.744 OA
ENDBRANCH  60  61
ENDBRANCH  41  55
BRANCH  42  65
ATOM     65  C   UNL A   1      42.487  23.731  27.863  1.00  0.00    -0.014 A 
ATOM     66  C   UNL A   1      43.001  23.476  26.580  1.00  0.00     0.010 A 
ATOM     67  C   UNL A   1      41.874  22.681  28.574  1.00  0.00     0.010 A 
ATOM     68  C   UNL A   1      42.893  22.201  26.015  1.00  0.00     0.020 A 
ATOM     69  C   UNL A   1      41.793  21.399  28.026  1.00  0.00     0.020 A 
ATOM     70  C   UNL A   1      42.292  21.170  26.743  1.00  0.00     0.054 A 
BRANCH  70  71
ATOM     71  S   UNL A   1      42.220  19.504  26.026  1.00  0.00     0.124 S 
ATOM     72  O   UNL A   1      43.102  19.633  24.872  1.00  0.00    -0.237 OA
ATOM     73  O   UNL A   1      42.718  18.664  27.113  1.00  0.00    -0.237 OA
ATOM     74  O   UNL A   1      40.802  19.329  25.717  1.00  0.00    -0.744 OA
ENDBRANCH  70  71
ENDBRANCH  42  65
BRANCH  54  75
ATOM     75  C   UNL A   1      47.767  27.197  30.789  1.00  0.00    -0.014 A 
ATOM     76  C   UNL A   1      48.779  27.558  29.882  1.00  0.00     0.010 A 
ATOM     77  C   UNL A   1      48.099  26.468  31.943  1.00  0.00     0.010 A 
ATOM     78  C   UNL A   1      50.096  27.152  30.103  1.00  0.00     0.020 A 
ATOM     79  C   UNL A   1      49.420  26.082  32.179  1.00  0.00     0.020 A 
ATOM     80  C   UNL A   1      50.407  26.409  31.245  1.00  0.00     0.054 A 
BRANCH  80  81
ATOM     81  S   UNL A   1      52.125  25.897  31.517  1.00  0.00     0.124 S 
ATOM     82  O   UNL A   1      51.960  24.528  31.999  1.00  0.00    -0.237 OA
ATOM     83  O   UNL A   1      52.717  26.029  30.188  1.00  0.00    -0.237 OA
ATOM     84  O   UNL A   1      52.617  26.851  32.508  1.00  0.00    -0.744 OA
ENDBRANCH  80  81
ENDBRANCH  54  75
ENDBRANCH  28  29
ENDBRANCH  21  23
ENDBRANCH  20  21
ENDBRANCH   1  20
TORSDOF 17
ENDMDL
