MODEL 1
REMARK VINA RESULT:     -10.7      0.000      0.000
REMARK SMILES Cc1cc2c(c(C)c1Cl)C=C(C(=O)OCCOC(=O)c1ccc(-c3c4nc(c(-c5ccc(S(=O)(=O)[O-])cc5)c5ccc([nH]5)c(-c5ccc(S(=O)(=O)[O-])cc5)c5nc(c(-c6ccc(S(=O)(=O)[O-])cc6)c6ccc3[nH]6)C=C5)C=C4)cc1)[C@H](C(F)(F)F)O2
REMARK SMILES IDX 16 1 15 2 14 3 12 4 13 5 11 6 1 7 2 8 3 9 8 10 4 11 6 12
REMARK SMILES IDX 9 13 5 14 85 15 7 16 10 17 80 18 81 19 82 20 83 21 84 22
REMARK SMILES IDX 17 23 18 24 19 25 20 26 21 27 79 28 22 29 78 30 23 31 24 32
REMARK SMILES IDX 25 33 72 34 26 35 77 36 71 37 73 38 27 39 76 40 70 41 69 42
REMARK SMILES IDX 28 44 58 45 39 46 57 47 40 48 43 49 56 50 74 51 41 52 42 53
REMARK SMILES IDX 55 55 75 56 44 57 29 58 30 59 38 60 31 61 37 62 32 63 33 64
REMARK SMILES IDX 34 65 35 66 36 67 59 68 60 69 68 70 61 71 67 72 62 73 63 74
REMARK SMILES IDX 64 75 65 76 66 77 45 78 46 79 54 80 47 81 53 82 48 83 49 84
REMARK SMILES IDX 50 85 51 86 52 87
REMARK H PARENT 73 43 43 54
REMARK Flexibility Score: inf
ROOT
ATOM      1  C   UNL A   1      32.261  28.478  27.151  1.00  0.00     0.275 C 
ENDROOT
BRANCH   1   2
ATOM      2  C   UNL A   1      31.955  27.822  25.805  1.00  0.00     0.275 C 
BRANCH   2   3
ATOM      3  O   UNL A   1      32.198  26.400  25.860  1.00  0.00    -0.459 OA
BRANCH   3   4
ATOM      4  C   UNL A   1      32.499  25.806  24.686  1.00  0.00     0.338 C 
ATOM      5  O   UNL A   1      32.297  26.279  23.577  1.00  0.00    -0.246 OA
BRANCH   4   6
ATOM      6  C   UNL A   1      33.154  24.497  24.901  1.00  0.00     0.087 C 
ATOM      7  C   UNL A   1      37.243  19.457  24.860  1.00  0.00     0.046 C 
ATOM      8  C   UNL A   1      36.571  20.796  25.008  1.00  0.00    -0.028 A 
ATOM      9  C   UNL A   1      35.227  20.901  24.615  1.00  0.00     0.052 A 
ATOM     10  C   UNL A   1      37.215  21.924  25.556  1.00  0.00     0.047 A 
ATOM     11  C   UNL A   1      34.546  22.111  24.712  1.00  0.00     0.128 A 
ATOM     12  C   UNL A   1      36.548  23.167  25.639  1.00  0.00    -0.021 A 
ATOM     13  Cl  UNL A   1      38.850  21.766  26.124  1.00  0.00    -0.084 Cl
ATOM     14  C   UNL A   1      35.203  23.249  25.192  1.00  0.00     0.022 A 
ATOM     15  O   UNL A   1      33.252  22.119  24.248  1.00  0.00    -0.475 OA
ATOM     16  C   UNL A   1      37.229  24.394  26.202  1.00  0.00     0.047 C 
ATOM     17  C   UNL A   1      34.475  24.512  25.119  1.00  0.00     0.027 C 
ATOM     18  C   UNL A   1      32.395  23.220  24.686  1.00  0.00     0.316 C 
BRANCH  18  19
ATOM     19  C   UNL A   1      31.503  22.742  25.847  1.00  0.00     0.430 C 
ATOM     20  F   UNL A   1      30.308  23.391  25.803  1.00  0.00    -0.167 F 
ATOM     21  F   UNL A   1      31.237  21.417  25.788  1.00  0.00    -0.167 F 
ATOM     22  F   UNL A   1      32.021  22.993  27.067  1.00  0.00    -0.167 F 
ENDBRANCH  18  19
ENDBRANCH   4   6
ENDBRANCH   3   4
ENDBRANCH   2   3
ENDBRANCH   1   2
BRANCH   1  23
ATOM     23  O   UNL A   1      33.681  28.668  27.300  1.00  0.00    -0.458 OA
BRANCH  23  24
ATOM     24  C   UNL A   1      34.075  29.913  27.655  1.00  0.00     0.338 C 
ATOM     25  O   UNL A   1      33.395  30.923  27.685  1.00  0.00    -0.246 OA
BRANCH  24  26
ATOM     26  C   UNL A   1      35.486  29.895  28.076  1.00  0.00     0.060 A 
ATOM     27  C   UNL A   1      36.466  30.212  27.145  1.00  0.00     0.016 A 
ATOM     28  C   UNL A   1      35.849  29.406  29.329  1.00  0.00     0.016 A 
ATOM     29  C   UNL A   1      37.802  29.923  27.412  1.00  0.00     0.010 A 
ATOM     30  C   UNL A   1      37.206  29.229  29.638  1.00  0.00     0.010 A 
ATOM     31  C   UNL A   1      38.202  29.437  28.666  1.00  0.00    -0.014 A 
BRANCH  31  32
ATOM     32  C   UNL A   1      39.638  29.110  28.931  1.00  0.00     0.031 A 
ATOM     33  C   UNL A   1      40.537  30.110  29.624  1.00  0.00     0.074 A 
ATOM     34  C   UNL A   1      40.144  27.900  28.604  1.00  0.00     0.049 A 
ATOM     35  N   UNL A   1      41.839  30.089  29.767  1.00  0.00    -0.248 NA
ATOM     36  C   UNL A   1      39.893  31.289  30.225  1.00  0.00     0.031 C 
ATOM     37  C   UNL A   1      39.393  26.796  28.001  1.00  0.00     0.029 A 
ATOM     38  N   UNL A   1      41.409  27.383  28.759  1.00  0.00    -0.354 N 
ATOM     39  C   UNL A   1      42.175  31.277  30.411  1.00  0.00     0.074 A 
ATOM     40  C   UNL A   1      40.938  31.994  30.636  1.00  0.00     0.031 C 
ATOM     41  C   UNL A   1      40.182  25.716  27.914  1.00  0.00     0.029 A 
ATOM     42  C   UNL A   1      41.530  26.081  28.331  1.00  0.00     0.049 A 
ATOM     43  H   UNL A   1      42.158  27.897  29.139  1.00  0.00     0.167 HD
ATOM     44  C   UNL A   1      43.399  31.731  30.774  1.00  0.00     0.031 A 
ATOM     45  C   UNL A   1      42.606  25.275  28.230  1.00  0.00     0.031 A 
ATOM     46  C   UNL A   1      44.623  30.992  30.595  1.00  0.00     0.049 A 
ATOM     47  C   UNL A   1      43.959  25.815  28.590  1.00  0.00     0.074 A 
ATOM     48  C   UNL A   1      45.917  31.380  30.900  1.00  0.00     0.029 A 
ATOM     49  N   UNL A   1      44.703  29.702  30.093  1.00  0.00    -0.354 N 
ATOM     50  N   UNL A   1      44.272  26.995  29.068  1.00  0.00    -0.248 NA
ATOM     51  C   UNL A   1      45.108  24.926  28.367  1.00  0.00     0.031 C 
ATOM     52  C   UNL A   1      46.782  30.338  30.549  1.00  0.00     0.029 A 
ATOM     53  C   UNL A   1      46.022  29.280  30.077  1.00  0.00     0.049 A 
ATOM     54  H   UNL A   1      43.935  29.165  29.792  1.00  0.00     0.167 HD
ATOM     55  C   UNL A   1      45.654  26.988  29.212  1.00  0.00     0.074 A 
ATOM     56  C   UNL A   1      46.114  25.681  28.790  1.00  0.00     0.031 C 
ATOM     57  C   UNL A   1      46.468  27.979  29.650  1.00  0.00     0.031 A 
BRANCH  44  58
ATOM     58  C   UNL A   1      43.494  33.116  31.365  1.00  0.00    -0.014 A 
ATOM     59  C   UNL A   1      43.481  33.330  32.754  1.00  0.00     0.010 A 
ATOM     60  C   UNL A   1      43.665  34.218  30.506  1.00  0.00     0.010 A 
ATOM     61  C   UNL A   1      43.610  34.624  33.272  1.00  0.00     0.020 A 
ATOM     62  C   UNL A   1      43.821  35.509  31.020  1.00  0.00     0.020 A 
ATOM     63  C   UNL A   1      43.779  35.705  32.402  1.00  0.00     0.054 A 
BRANCH  63  64
ATOM     64  S   UNL A   1      43.980  37.368  33.102  1.00  0.00     0.124 S 
ATOM     65  O   UNL A   1      42.893  37.418  34.076  1.00  0.00    -0.237 OA
ATOM     66  O   UNL A   1      45.326  37.318  33.664  1.00  0.00    -0.237 OA
ATOM     67  O   UNL A   1      43.823  38.252  31.948  1.00  0.00    -0.744 OA
ENDBRANCH  63  64
ENDBRANCH  44  58
BRANCH  45  68
ATOM     68  C   UNL A   1      42.444  23.889  27.707  1.00  0.00    -0.014 A 
ATOM     69  C   UNL A   1      42.668  23.607  26.348  1.00  0.00     0.010 A 
ATOM     70  C   UNL A   1      42.107  22.835  28.577  1.00  0.00     0.010 A 
ATOM     71  C   UNL A   1      42.571  22.294  25.874  1.00  0.00     0.020 A 
ATOM     72  C   UNL A   1      42.042  21.520  28.114  1.00  0.00     0.020 A 
ATOM     73  C   UNL A   1      42.270  21.258  26.763  1.00  0.00     0.054 A 
BRANCH  73  74
ATOM     74  S   UNL A   1      42.242  19.552  26.145  1.00  0.00     0.124 S 
ATOM     75  O   UNL A   1      42.694  18.799  27.310  1.00  0.00    -0.237 OA
ATOM     76  O   UNL A   1      40.839  19.371  25.779  1.00  0.00    -0.237 OA
ATOM     77  O   UNL A   1      43.172  19.582  25.017  1.00  0.00    -0.744 OA
ENDBRANCH  73  74
ENDBRANCH  45  68
BRANCH  57  78
ATOM     78  C   UNL A   1      47.939  27.677  29.729  1.00  0.00    -0.014 A 
ATOM     79  C   UNL A   1      48.511  27.141  30.897  1.00  0.00     0.010 A 
ATOM     80  C   UNL A   1      48.753  27.901  28.604  1.00  0.00     0.010 A 
ATOM     81  C   UNL A   1      49.879  26.864  30.947  1.00  0.00     0.020 A 
ATOM     82  C   UNL A   1      50.118  27.603  28.644  1.00  0.00     0.020 A 
ATOM     83  C   UNL A   1      50.674  27.100  29.822  1.00  0.00     0.054 A 
BRANCH  83  84
ATOM     84  S   UNL A   1      52.444  26.709  29.905  1.00  0.00     0.124 S 
ATOM     85  O   UNL A   1      52.716  26.245  28.548  1.00  0.00    -0.237 OA
ATOM     86  O   UNL A   1      53.039  27.995  30.261  1.00  0.00    -0.237 OA
ATOM     87  O   UNL A   1      52.524  25.684  30.943  1.00  0.00    -0.744 OA
ENDBRANCH  83  84
ENDBRANCH  57  78
ENDBRANCH  31  32
ENDBRANCH  24  26
ENDBRANCH  23  24
ENDBRANCH   1  23
TORSDOF 15
ENDMDL
MODEL 2
REMARK VINA RESULT:     -10.7      2.446      3.264
REMARK SMILES Cc1cc2c(c(C)c1Cl)C=C(C(=O)OCCOC(=O)c1ccc(-c3c4nc(c(-c5ccc(S(=O)(=O)[O-])cc5)c5ccc([nH]5)c(-c5ccc(S(=O)(=O)[O-])cc5)c5nc(c(-c6ccc(S(=O)(=O)[O-])cc6)c6ccc3[nH]6)C=C5)C=C4)cc1)[C@H](C(F)(F)F)O2
REMARK SMILES IDX 16 1 15 2 14 3 12 4 13 5 11 6 1 7 2 8 3 9 8 10 4 11 6 12
REMARK SMILES IDX 9 13 5 14 85 15 7 16 10 17 80 18 81 19 82 20 83 21 84 22
REMARK SMILES IDX 17 23 18 24 19 25 20 26 21 27 79 28 22 29 78 30 23 31 24 32
REMARK SMILES IDX 25 33 72 34 26 35 77 36 71 37 73 38 27 39 76 40 70 41 69 42
REMARK SMILES IDX 28 44 58 45 39 46 57 47 40 48 43 49 56 50 74 51 41 52 42 53
REMARK SMILES IDX 55 55 75 56 44 57 29 58 30 59 38 60 31 61 37 62 32 63 33 64
REMARK SMILES IDX 34 65 35 66 36 67 59 68 60 69 68 70 61 71 67 72 62 73 63 74
REMARK SMILES IDX 64 75 65 76 66 77 45 78 46 79 54 80 47 81 53 82 48 83 49 84
REMARK SMILES IDX 50 85 51 86 52 87
REMARK H PARENT 73 43 43 54
REMARK Flexibility Score: inf
ROOT
ATOM      1  C   UNL A   1      33.995  30.518  27.546  1.00  0.00     0.275 C 
ENDROOT
BRANCH   1   2
ATOM      2  C   UNL A   1      33.903  29.006  27.340  1.00  0.00     0.275 C 
BRANCH   2   3
ATOM      3  O   UNL A   1      34.507  28.621  26.087  1.00  0.00    -0.459 OA
BRANCH   3   4
ATOM      4  C   UNL A   1      33.654  28.360  25.074  1.00  0.00     0.338 C 
ATOM      5  O   UNL A   1      33.267  29.169  24.243  1.00  0.00    -0.246 OA
BRANCH   4   6
ATOM      6  C   UNL A   1      33.260  26.934  25.061  1.00  0.00     0.087 C 
ATOM      7  C   UNL A   1      32.818  20.569  23.875  1.00  0.00     0.046 C 
ATOM      8  C   UNL A   1      33.248  21.962  24.249  1.00  0.00    -0.028 A 
ATOM      9  C   UNL A   1      32.308  22.996  24.116  1.00  0.00     0.052 A 
ATOM     10  C   UNL A   1      34.528  22.260  24.760  1.00  0.00     0.047 A 
ATOM     11  C   UNL A   1      32.641  24.310  24.431  1.00  0.00     0.128 A 
ATOM     12  C   UNL A   1      34.892  23.592  25.062  1.00  0.00    -0.021 A 
ATOM     13  Cl  UNL A   1      35.658  20.964  25.008  1.00  0.00    -0.084 Cl
ATOM     14  C   UNL A   1      33.931  24.620  24.874  1.00  0.00     0.022 A 
ATOM     15  O   UNL A   1      31.666  25.253  24.212  1.00  0.00    -0.475 OA
ATOM     16  C   UNL A   1      36.267  23.936  25.589  1.00  0.00     0.047 C 
ATOM     17  C   UNL A   1      34.252  26.034  25.036  1.00  0.00     0.027 C 
ATOM     18  C   UNL A   1      31.822  26.542  24.885  1.00  0.00     0.316 C 
BRANCH  18  19
ATOM     19  C   UNL A   1      30.939  26.570  26.146  1.00  0.00     0.430 C 
ATOM     20  F   UNL A   1      30.659  27.860  26.481  1.00  0.00    -0.167 F 
ATOM     21  F   UNL A   1      29.755  25.942  25.967  1.00  0.00    -0.167 F 
ATOM     22  F   UNL A   1      31.524  26.020  27.230  1.00  0.00    -0.167 F 
ENDBRANCH  18  19
ENDBRANCH   4   6
ENDBRANCH   3   4
ENDBRANCH   2   3
ENDBRANCH   1   2
BRANCH   1  23
ATOM     23  O   UNL A   1      35.376  30.928  27.596  1.00  0.00    -0.458 OA
BRANCH  23  24
ATOM     24  C   UNL A   1      36.004  30.738  28.780  1.00  0.00     0.338 C 
ATOM     25  O   UNL A   1      35.608  31.057  29.886  1.00  0.00    -0.246 OA
BRANCH  24  26
ATOM     26  C   UNL A   1      37.268  30.013  28.569  1.00  0.00     0.060 A 
ATOM     27  C   UNL A   1      38.016  29.635  29.676  1.00  0.00     0.016 A 
ATOM     28  C   UNL A   1      37.794  29.856  27.288  1.00  0.00     0.016 A 
ATOM     29  C   UNL A   1      39.336  29.220  29.518  1.00  0.00     0.010 A 
ATOM     30  C   UNL A   1      39.082  29.325  27.127  1.00  0.00     0.010 A 
ATOM     31  C   UNL A   1      39.893  29.046  28.243  1.00  0.00    -0.014 A 
BRANCH  31  32
ATOM     32  C   UNL A   1      41.320  28.620  28.089  1.00  0.00     0.031 A 
ATOM     33  C   UNL A   1      42.443  29.610  28.307  1.00  0.00     0.074 A 
ATOM     34  C   UNL A   1      41.632  27.337  27.804  1.00  0.00     0.049 A 
ATOM     35  N   UNL A   1      43.719  29.484  28.035  1.00  0.00    -0.248 NA
ATOM     36  C   UNL A   1      42.088  30.911  28.897  1.00  0.00     0.031 C 
ATOM     37  C   UNL A   1      40.673  26.242  27.639  1.00  0.00     0.029 A 
ATOM     38  N   UNL A   1      42.852  26.726  27.628  1.00  0.00    -0.354 N 
ATOM     39  C   UNL A   1      44.304  30.707  28.356  1.00  0.00     0.074 A 
ATOM     40  C   UNL A   1      43.243  31.560  28.848  1.00  0.00     0.031 C 
ATOM     41  C   UNL A   1      41.337  25.090  27.470  1.00  0.00     0.029 A 
ATOM     42  C   UNL A   1      42.764  25.375  27.383  1.00  0.00     0.049 A 
ATOM     43  H   UNL A   1      43.708  27.211  27.673  1.00  0.00     0.167 HD
ATOM     44  C   UNL A   1      45.600  31.085  28.244  1.00  0.00     0.031 A 
ATOM     45  C   UNL A   1      43.707  24.465  27.070  1.00  0.00     0.031 A 
ATOM     46  C   UNL A   1      46.661  30.217  27.801  1.00  0.00     0.049 A 
ATOM     47  C   UNL A   1      45.129  24.915  26.902  1.00  0.00     0.074 A 
ATOM     48  C   UNL A   1      48.002  30.515  27.623  1.00  0.00     0.029 A 
ATOM     49  N   UNL A   1      46.510  28.872  27.498  1.00  0.00    -0.354 N 
ATOM     50  N   UNL A   1      45.638  26.111  27.076  1.00  0.00    -0.248 NA
ATOM     51  C   UNL A   1      46.098  23.901  26.464  1.00  0.00     0.031 C 
ATOM     52  C   UNL A   1      48.654  29.361  27.177  1.00  0.00     0.029 A 
ATOM     53  C   UNL A   1      47.731  28.329  27.131  1.00  0.00     0.049 A 
ATOM     54  H   UNL A   1      45.661  28.376  27.538  1.00  0.00     0.167 HD
ATOM     55  C   UNL A   1      46.989  25.991  26.778  1.00  0.00     0.074 A 
ATOM     56  C   UNL A   1      47.223  24.604  26.432  1.00  0.00     0.031 C 
ATOM     57  C   UNL A   1      47.950  26.948  26.785  1.00  0.00     0.031 A 
BRANCH  44  58
ATOM     58  C   UNL A   1      45.949  32.518  28.562  1.00  0.00    -0.014 A 
ATOM     59  C   UNL A   1      45.876  33.529  27.589  1.00  0.00     0.010 A 
ATOM     60  C   UNL A   1      46.297  32.863  29.881  1.00  0.00     0.010 A 
ATOM     61  C   UNL A   1      46.169  34.856  27.925  1.00  0.00     0.020 A 
ATOM     62  C   UNL A   1      46.565  34.191  30.227  1.00  0.00     0.020 A 
ATOM     63  C   UNL A   1      46.512  35.179  29.242  1.00  0.00     0.054 A 
BRANCH  63  64
ATOM     64  S   UNL A   1      46.852  36.913  29.657  1.00  0.00     0.124 S 
ATOM     65  O   UNL A   1      47.365  36.800  31.020  1.00  0.00    -0.237 OA
ATOM     66  O   UNL A   1      47.833  37.297  28.647  1.00  0.00    -0.237 OA
ATOM     67  O   UNL A   1      45.548  37.562  29.535  1.00  0.00    -0.744 OA
ENDBRANCH  63  64
ENDBRANCH  44  58
BRANCH  45  68
ATOM     68  C   UNL A   1      43.316  23.046  26.837  1.00  0.00    -0.014 A 
ATOM     69  C   UNL A   1      43.450  22.467  25.564  1.00  0.00     0.010 A 
ATOM     70  C   UNL A   1      42.849  22.253  27.903  1.00  0.00     0.010 A 
ATOM     71  C   UNL A   1      43.136  21.118  25.364  1.00  0.00     0.020 A 
ATOM     72  C   UNL A   1      42.566  20.899  27.714  1.00  0.00     0.020 A 
ATOM     73  C   UNL A   1      42.707  20.341  26.444  1.00  0.00     0.054 A 
BRANCH  73  74
ATOM     74  S   UNL A   1      42.396  18.572  26.183  1.00  0.00     0.124 S 
ATOM     75  O   UNL A   1      42.655  18.019  27.507  1.00  0.00    -0.237 OA
ATOM     76  O   UNL A   1      41.000  18.557  25.751  1.00  0.00    -0.237 OA
ATOM     77  O   UNL A   1      43.362  18.204  25.149  1.00  0.00    -0.744 OA
ENDBRANCH  73  74
ENDBRANCH  45  68
BRANCH  57  78
ATOM     78  C   UNL A   1      49.350  26.521  26.442  1.00  0.00    -0.014 A 
ATOM     79  C   UNL A   1      50.201  25.967  27.414  1.00  0.00     0.010 A 
ATOM     80  C   UNL A   1      49.806  26.643  25.117  1.00  0.00     0.010 A 
ATOM     81  C   UNL A   1      51.498  25.573  27.072  1.00  0.00     0.020 A 
ATOM     82  C   UNL A   1      51.094  26.228  24.767  1.00  0.00     0.020 A 
ATOM     83  C   UNL A   1      51.936  25.710  25.752  1.00  0.00     0.054 A 
BRANCH  83  84
ATOM     84  S   UNL A   1      53.615  25.168  25.330  1.00  0.00     0.124 S 
ATOM     85  O   UNL A   1      53.792  25.739  23.998  1.00  0.00    -0.237 OA
ATOM     86  O   UNL A   1      54.422  25.773  26.386  1.00  0.00    -0.237 OA
ATOM     87  O   UNL A   1      53.531  23.710  25.377  1.00  0.00    -0.744 OA
ENDBRANCH  83  84
ENDBRANCH  57  78
ENDBRANCH  31  32
ENDBRANCH  24  26
ENDBRANCH  23  24
ENDBRANCH   1  23
TORSDOF 15
ENDMDL
MODEL 3
REMARK VINA RESULT:     -10.7      5.498     11.396
REMARK SMILES Cc1cc2c(c(C)c1Cl)C=C(C(=O)OCCOC(=O)c1ccc(-c3c4nc(c(-c5ccc(S(=O)(=O)[O-])cc5)c5ccc([nH]5)c(-c5ccc(S(=O)(=O)[O-])cc5)c5nc(c(-c6ccc(S(=O)(=O)[O-])cc6)c6ccc3[nH]6)C=C5)C=C4)cc1)[C@H](C(F)(F)F)O2
REMARK SMILES IDX 16 1 15 2 14 3 12 4 13 5 11 6 1 7 2 8 3 9 8 10 4 11 6 12
REMARK SMILES IDX 9 13 5 14 85 15 7 16 10 17 80 18 81 19 82 20 83 21 84 22
REMARK SMILES IDX 17 23 18 24 19 25 20 26 21 27 79 28 22 29 78 30 23 31 24 32
REMARK SMILES IDX 25 33 72 34 26 35 77 36 71 37 73 38 27 39 76 40 70 41 69 42
REMARK SMILES IDX 28 44 58 45 39 46 57 47 40 48 43 49 56 50 74 51 41 52 42 53
REMARK SMILES IDX 55 55 75 56 44 57 29 58 30 59 38 60 31 61 37 62 32 63 33 64
REMARK SMILES IDX 34 65 35 66 36 67 59 68 60 69 68 70 61 71 67 72 62 73 63 74
REMARK SMILES IDX 64 75 65 76 66 77 45 78 46 79 54 80 47 81 53 82 48 83 49 84
REMARK SMILES IDX 50 85 51 86 52 87
REMARK H PARENT 73 43 43 54
REMARK Flexibility Score: inf
ROOT
ATOM      1  C   UNL A   1      38.775  22.797  25.970  1.00  0.00     0.275 C 
ENDROOT
BRANCH   1   2
ATOM      2  C   UNL A   1      39.573  21.609  26.507  1.00  0.00     0.275 C 
BRANCH   2   3
ATOM      3  O   UNL A   1      40.843  21.495  25.831  1.00  0.00    -0.459 OA
BRANCH   3   4
ATOM      4  C   UNL A   1      41.932  21.421  26.625  1.00  0.00     0.338 C 
ATOM      5  O   UNL A   1      42.192  20.506  27.393  1.00  0.00    -0.246 OA
BRANCH   4   6
ATOM      6  C   UNL A   1      42.819  22.587  26.426  1.00  0.00     0.087 C 
ATOM      7  C   UNL A   1      45.480  28.507  26.436  1.00  0.00     0.046 C 
ATOM      8  C   UNL A   1      44.880  27.171  26.784  1.00  0.00    -0.028 A 
ATOM      9  C   UNL A   1      44.520  26.320  25.727  1.00  0.00     0.052 A 
ATOM     10  C   UNL A   1      44.704  26.729  28.110  1.00  0.00     0.047 A 
ATOM     11  C   UNL A   1      43.948  25.076  25.974  1.00  0.00     0.128 A 
ATOM     12  C   UNL A   1      44.101  25.480  28.382  1.00  0.00    -0.021 A 
ATOM     13  Cl  UNL A   1      45.233  27.749  29.414  1.00  0.00    -0.084 Cl
ATOM     14  C   UNL A   1      43.709  24.663  27.289  1.00  0.00     0.022 A 
ATOM     15  O   UNL A   1      43.581  24.345  24.870  1.00  0.00    -0.475 OA
ATOM     16  C   UNL A   1      43.882  24.998  29.798  1.00  0.00     0.047 C 
ATOM     17  C   UNL A   1      42.967  23.419  27.466  1.00  0.00     0.027 C 
ATOM     18  C   UNL A   1      43.357  22.913  25.063  1.00  0.00     0.316 C 
BRANCH  18  19
ATOM     19  C   UNL A   1      44.607  22.135  24.610  1.00  0.00     0.430 C 
ATOM     20  F   UNL A   1      45.005  22.581  23.386  1.00  0.00    -0.167 F 
ATOM     21  F   UNL A   1      45.654  22.296  25.450  1.00  0.00    -0.167 F 
ATOM     22  F   UNL A   1      44.401  20.809  24.476  1.00  0.00    -0.167 F 
ENDBRANCH  18  19
ENDBRANCH   4   6
ENDBRANCH   3   4
ENDBRANCH   2   3
ENDBRANCH   1   2
BRANCH   1  23
ATOM     23  O   UNL A   1      38.907  23.925  26.857  1.00  0.00    -0.458 OA
BRANCH  23  24
ATOM     24  C   UNL A   1      39.825  24.853  26.496  1.00  0.00     0.338 C 
ATOM     25  O   UNL A   1      40.344  24.993  25.404  1.00  0.00    -0.246 OA
BRANCH  24  26
ATOM     26  C   UNL A   1      40.097  25.757  27.626  1.00  0.00     0.060 A 
ATOM     27  C   UNL A   1      39.388  25.587  28.807  1.00  0.00     0.016 A 
ATOM     28  C   UNL A   1      40.923  26.868  27.465  1.00  0.00     0.016 A 
ATOM     29  C   UNL A   1      39.399  26.584  29.778  1.00  0.00     0.010 A 
ATOM     30  C   UNL A   1      41.023  27.813  28.497  1.00  0.00     0.010 A 
ATOM     31  C   UNL A   1      40.223  27.712  29.650  1.00  0.00    -0.014 A 
BRANCH  31  32
ATOM     32  C   UNL A   1      40.207  28.787  30.692  1.00  0.00     0.031 A 
ATOM     33  C   UNL A   1      41.252  28.812  31.784  1.00  0.00     0.074 A 
ATOM     34  C   UNL A   1      39.292  29.781  30.646  1.00  0.00     0.049 A 
ATOM     35  N   UNL A   1      41.291  29.538  32.874  1.00  0.00    -0.248 NA
ATOM     36  C   UNL A   1      42.397  27.897  31.640  1.00  0.00     0.031 C 
ATOM     37  C   UNL A   1      38.265  29.948  29.615  1.00  0.00     0.029 A 
ATOM     38  N   UNL A   1      39.096  30.861  31.474  1.00  0.00    -0.354 N 
ATOM     39  C   UNL A   1      42.421  29.123  33.575  1.00  0.00     0.074 A 
ATOM     40  C   UNL A   1      43.043  28.083  32.784  1.00  0.00     0.031 C 
ATOM     41  C   UNL A   1      37.606  31.096  29.825  1.00  0.00     0.029 A 
ATOM     42  C   UNL A   1      38.071  31.686  31.074  1.00  0.00     0.049 A 
ATOM     43  H   UNL A   1      39.638  31.027  32.280  1.00  0.00     0.167 HD
ATOM     44  C   UNL A   1      42.890  29.561  34.768  1.00  0.00     0.031 A 
ATOM     45  C   UNL A   1      37.520  32.768  31.659  1.00  0.00     0.031 A 
ATOM     46  C   UNL A   1      42.296  30.631  35.528  1.00  0.00     0.049 A 
ATOM     47  C   UNL A   1      38.022  33.206  33.004  1.00  0.00     0.074 A 
ATOM     48  C   UNL A   1      42.679  31.127  36.764  1.00  0.00     0.029 A 
ATOM     49  N   UNL A   1      41.215  31.393  35.112  1.00  0.00    -0.354 N 
ATOM     50  N   UNL A   1      39.006  32.709  33.715  1.00  0.00    -0.248 NA
ATOM     51  C   UNL A   1      37.321  34.329  33.640  1.00  0.00     0.031 C 
ATOM     52  C   UNL A   1      41.806  32.164  37.111  1.00  0.00     0.029 A 
ATOM     53  C   UNL A   1      40.916  32.352  36.067  1.00  0.00     0.049 A 
ATOM     54  H   UNL A   1      40.732  31.271  34.263  1.00  0.00     0.167 HD
ATOM     55  C   UNL A   1      39.047  33.465  34.880  1.00  0.00     0.074 A 
ATOM     56  C   UNL A   1      38.004  34.465  34.770  1.00  0.00     0.031 C 
ATOM     57  C   UNL A   1      39.872  33.338  35.948  1.00  0.00     0.031 A 
BRANCH  44  58
ATOM     58  C   UNL A   1      44.085  28.856  35.360  1.00  0.00    -0.014 A 
ATOM     59  C   UNL A   1      43.945  27.712  36.164  1.00  0.00     0.010 A 
ATOM     60  C   UNL A   1      45.378  29.318  35.049  1.00  0.00     0.010 A 
ATOM     61  C   UNL A   1      45.076  27.058  36.667  1.00  0.00     0.020 A 
ATOM     62  C   UNL A   1      46.511  28.652  35.527  1.00  0.00     0.020 A 
ATOM     63  C   UNL A   1      46.352  27.532  36.345  1.00  0.00     0.054 A 
BRANCH  63  64
ATOM     64  S   UNL A   1      47.801  26.643  36.981  1.00  0.00     0.124 S 
ATOM     65  O   UNL A   1      48.589  27.728  37.561  1.00  0.00    -0.237 OA
ATOM     66  O   UNL A   1      47.211  25.714  37.940  1.00  0.00    -0.237 OA
ATOM     67  O   UNL A   1      48.379  26.023  35.790  1.00  0.00    -0.744 OA
ENDBRANCH  63  64
ENDBRANCH  44  58
BRANCH  45  68
ATOM     68  C   UNL A   1      36.387  33.471  30.995  1.00  0.00    -0.014 A 
ATOM     69  C   UNL A   1      35.165  33.652  31.665  1.00  0.00     0.010 A 
ATOM     70  C   UNL A   1      36.541  34.003  29.701  1.00  0.00     0.010 A 
ATOM     71  C   UNL A   1      34.124  34.363  31.058  1.00  0.00     0.020 A 
ATOM     72  C   UNL A   1      35.516  34.741  29.105  1.00  0.00     0.020 A 
ATOM     73  C   UNL A   1      34.312  34.913  29.787  1.00  0.00     0.054 A 
BRANCH  73  74
ATOM     74  S   UNL A   1      32.983  35.911  29.058  1.00  0.00     0.124 S 
ATOM     75  O   UNL A   1      32.350  34.960  28.150  1.00  0.00    -0.237 OA
ATOM     76  O   UNL A   1      32.195  36.292  30.228  1.00  0.00    -0.237 OA
ATOM     77  O   UNL A   1      33.698  37.013  28.415  1.00  0.00    -0.744 OA
ENDBRANCH  73  74
ENDBRANCH  45  68
BRANCH  57  78
ATOM     78  C   UNL A   1      39.706  34.326  37.068  1.00  0.00    -0.014 A 
ATOM     79  C   UNL A   1      38.918  34.027  38.193  1.00  0.00     0.010 A 
ATOM     80  C   UNL A   1      40.380  35.560  37.009  1.00  0.00     0.010 A 
ATOM     81  C   UNL A   1      38.781  34.959  39.225  1.00  0.00     0.020 A 
ATOM     82  C   UNL A   1      40.264  36.484  38.050  1.00  0.00     0.020 A 
ATOM     83  C   UNL A   1      39.452  36.183  39.145  1.00  0.00     0.054 A 
BRANCH  83  84
ATOM     84  S   UNL A   1      39.277  37.365  40.509  1.00  0.00     0.124 S 
ATOM     85  O   UNL A   1      38.235  38.255  40.008  1.00  0.00    -0.237 OA
ATOM     86  O   UNL A   1      38.888  36.509  41.627  1.00  0.00    -0.237 OA
ATOM     87  O   UNL A   1      40.606  37.962  40.623  1.00  0.00    -0.744 OA
ENDBRANCH  83  84
ENDBRANCH  57  78
ENDBRANCH  31  32
ENDBRANCH  24  26
ENDBRANCH  23  24
ENDBRANCH   1  23
TORSDOF 15
ENDMDL
