MODEL 1
REMARK VINA RESULT:     -12.0      0.000      0.000
REMARK SMILES C[C@H](NC(=O)N1CCN(/C=C/c2ccccc2)CC1)C(=O)OCCOC(=O)c1ccc(-c2c3nc(c(-c4ccc(S(=O)(=O)[O-])cc4)c4ccc([nH]4)c(-c4ccc(S(=O)(=O)[O-])cc4)c4nc(c(-c5ccc(S(=O)(=O)[O-])cc5)c5ccc2[nH]5)C=C4)C=C3)cc1
REMARK SMILES IDX 23 1 22 2 20 3 21 4 2 5 1 6 3 7 4 8 5 10 6 11 7 12 19 13
REMARK SMILES IDX 8 14 18 15 9 16 10 17 11 18 12 19 13 20 17 21 14 22 16 23
REMARK SMILES IDX 15 24 24 25 25 26 26 27 27 28 28 29 29 30 87 31 30 32 86 33
REMARK SMILES IDX 31 34 32 35 33 36 80 37 34 38 85 39 79 40 81 41 35 42 84 43
REMARK SMILES IDX 78 44 77 45 36 47 66 48 47 49 65 50 48 51 51 52 64 53 82 54
REMARK SMILES IDX 49 55 50 56 63 58 83 59 52 60 37 61 38 62 46 63 39 64 45 65
REMARK SMILES IDX 40 66 41 67 42 68 43 69 44 70 67 71 68 72 76 73 69 74 75 75
REMARK SMILES IDX 70 76 71 77 72 78 73 79 74 80 53 81 54 82 62 83 55 84 61 85
REMARK SMILES IDX 56 86 57 87 58 88 59 89 60 90
REMARK H PARENT 3 9 81 46 51 57
REMARK Flexibility Score: inf
ROOT
ATOM      1  C   UNL A   1      39.273  21.206  25.943  1.00  0.00     0.274 C 
ENDROOT
BRANCH   1   2
ATOM      2  O   UNL A   1      38.039  21.725  25.411  1.00  0.00    -0.461 OA
BRANCH   2   3
ATOM      3  C   UNL A   1      37.144  20.782  25.011  1.00  0.00     0.328 C 
ATOM      4  O   UNL A   1      37.456  19.633  24.706  1.00  0.00    -0.250 OA
BRANCH   3   5
ATOM      5  C   UNL A   1      35.675  21.237  25.126  1.00  0.00     0.190 C 
ATOM      6  C   UNL A   1      35.610  22.393  26.109  1.00  0.00     0.043 C 
BRANCH   5   7
ATOM      7  N   UNL A   1      34.642  20.205  25.163  1.00  0.00    -0.325 N 
ATOM      8  C   UNL A   1      33.298  20.235  25.212  1.00  0.00     0.318 C 
ATOM      9  H   UNL A   1      35.008  19.290  25.150  1.00  0.00     0.166 HD
ATOM     10  O   UNL A   1      32.710  19.281  25.721  1.00  0.00    -0.249 OA
ATOM     11  N   UNL A   1      32.643  21.343  24.782  1.00  0.00    -0.321 N 
ATOM     12  C   UNL A   1      31.426  21.713  25.483  1.00  0.00     0.143 C 
ATOM     13  C   UNL A   1      32.593  21.720  23.372  1.00  0.00     0.143 C 
ATOM     14  C   UNL A   1      31.252  23.228  25.448  1.00  0.00     0.137 C 
ATOM     15  C   UNL A   1      32.346  23.227  23.185  1.00  0.00     0.137 C 
ATOM     16  N   UNL A   1      31.272  23.763  24.065  1.00  0.00    -0.374 N 
BRANCH  16  17
ATOM     17  C   UNL A   1      30.644  24.953  23.725  1.00  0.00     0.081 C 
ATOM     18  C   UNL A   1      30.658  26.129  24.366  1.00  0.00     0.025 C 
BRANCH  18  19
ATOM     19  C   UNL A   1      29.923  27.321  23.926  1.00  0.00    -0.024 A 
ATOM     20  C   UNL A   1      28.577  27.190  23.564  1.00  0.00     0.008 A 
ATOM     21  C   UNL A   1      30.541  28.570  23.783  1.00  0.00     0.008 A 
ATOM     22  C   UNL A   1      27.859  28.287  23.084  1.00  0.00     0.001 A 
ATOM     23  C   UNL A   1      29.824  29.669  23.307  1.00  0.00     0.001 A 
ATOM     24  C   UNL A   1      28.484  29.527  22.957  1.00  0.00     0.000 A 
ENDBRANCH  18  19
ENDBRANCH  16  17
ENDBRANCH   5   7
ENDBRANCH   3   5
ENDBRANCH   2   3
ENDBRANCH   1   2
BRANCH   1  25
ATOM     25  C   UNL A   1      39.971  22.226  26.854  1.00  0.00     0.275 C 
BRANCH  25  26
ATOM     26  O   UNL A   1      39.597  23.589  26.568  1.00  0.00    -0.458 OA
BRANCH  26  27
ATOM     27  C   UNL A   1      40.624  24.469  26.592  1.00  0.00     0.338 C 
ATOM     28  O   UNL A   1      41.671  24.397  25.968  1.00  0.00    -0.246 OA
BRANCH  27  29
ATOM     29  C   UNL A   1      40.303  25.641  27.419  1.00  0.00     0.060 A 
ATOM     30  C   UNL A   1      41.049  26.804  27.226  1.00  0.00     0.016 A 
ATOM     31  C   UNL A   1      39.444  25.525  28.508  1.00  0.00     0.016 A 
ATOM     32  C   UNL A   1      41.038  27.810  28.180  1.00  0.00     0.010 A 
ATOM     33  C   UNL A   1      39.371  26.577  29.428  1.00  0.00     0.010 A 
ATOM     34  C   UNL A   1      40.201  27.706  29.292  1.00  0.00    -0.014 A 
BRANCH  34  35
ATOM     35  C   UNL A   1      40.238  28.754  30.339  1.00  0.00     0.031 A 
ATOM     36  C   UNL A   1      41.257  28.669  31.440  1.00  0.00     0.074 A 
ATOM     37  C   UNL A   1      39.376  29.787  30.288  1.00  0.00     0.049 A 
ATOM     38  N   UNL A   1      41.336  29.362  32.545  1.00  0.00    -0.248 NA
ATOM     39  C   UNL A   1      42.324  27.669  31.276  1.00  0.00     0.031 C 
ATOM     40  C   UNL A   1      38.400  30.027  29.222  1.00  0.00     0.029 A 
ATOM     41  N   UNL A   1      39.184  30.829  31.157  1.00  0.00    -0.354 N 
ATOM     42  C   UNL A   1      42.423  28.843  33.238  1.00  0.00     0.074 A 
ATOM     43  C   UNL A   1      42.981  27.785  32.423  1.00  0.00     0.031 C 
ATOM     44  C   UNL A   1      37.720  31.151  29.495  1.00  0.00     0.029 A 
ATOM     45  C   UNL A   1      38.152  31.661  30.792  1.00  0.00     0.049 A 
ATOM     46  H   UNL A   1      39.730  30.969  31.963  1.00  0.00     0.167 HD
ATOM     47  C   UNL A   1      42.901  29.211  34.451  1.00  0.00     0.031 A 
ATOM     48  C   UNL A   1      37.580  32.685  31.450  1.00  0.00     0.031 A 
ATOM     49  C   UNL A   1      42.348  30.280  35.237  1.00  0.00     0.049 A 
ATOM     50  C   UNL A   1      38.090  33.044  32.815  1.00  0.00     0.074 A 
ATOM     51  C   UNL A   1      42.740  30.726  36.487  1.00  0.00     0.029 A 
ATOM     52  N   UNL A   1      41.286  31.081  34.841  1.00  0.00    -0.354 N 
ATOM     53  N   UNL A   1      39.070  32.498  33.495  1.00  0.00    -0.248 NA
ATOM     54  C   UNL A   1      37.409  34.144  33.509  1.00  0.00     0.031 C 
ATOM     55  C   UNL A   1      41.893  31.775  36.860  1.00  0.00     0.029 A 
ATOM     56  C   UNL A   1      41.003  32.013  35.825  1.00  0.00     0.049 A 
ATOM     57  H   UNL A   1      40.805  30.998  33.987  1.00  0.00     0.167 HD
ATOM     58  C   UNL A   1      39.134  33.197  34.693  1.00  0.00     0.074 A 
ATOM     59  C   UNL A   1      38.102  34.214  34.639  1.00  0.00     0.031 C 
ATOM     60  C   UNL A   1      39.972  33.016  35.743  1.00  0.00     0.031 A 
BRANCH  47  61
ATOM     61  C   UNL A   1      44.035  28.402  35.020  1.00  0.00    -0.014 A 
ATOM     62  C   UNL A   1      43.803  27.247  35.788  1.00  0.00     0.010 A 
ATOM     63  C   UNL A   1      45.359  28.811  34.780  1.00  0.00     0.010 A 
ATOM     64  C   UNL A   1      44.876  26.545  36.347  1.00  0.00     0.020 A 
ATOM     65  C   UNL A   1      46.434  28.099  35.318  1.00  0.00     0.020 A 
ATOM     66  C   UNL A   1      46.185  26.983  36.118  1.00  0.00     0.054 A 
BRANCH  66  67
ATOM     67  S   UNL A   1      47.561  26.064  36.862  1.00  0.00     0.124 S 
ATOM     68  O   UNL A   1      48.695  26.938  36.573  1.00  0.00    -0.237 OA
ATOM     69  O   UNL A   1      47.174  25.981  38.267  1.00  0.00    -0.237 OA
ATOM     70  O   UNL A   1      47.556  24.792  36.141  1.00  0.00    -0.744 OA
ENDBRANCH  66  67
ENDBRANCH  47  61
BRANCH  48  71
ATOM     71  C   UNL A   1      36.427  33.396  30.838  1.00  0.00    -0.014 A 
ATOM     72  C   UNL A   1      35.272  33.666  31.590  1.00  0.00     0.010 A 
ATOM     73  C   UNL A   1      36.505  33.858  29.510  1.00  0.00     0.010 A 
ATOM     74  C   UNL A   1      34.215  34.388  31.028  1.00  0.00     0.020 A 
ATOM     75  C   UNL A   1      35.461  34.601  28.953  1.00  0.00     0.020 A 
ATOM     76  C   UNL A   1      34.319  34.856  29.713  1.00  0.00     0.054 A 
BRANCH  76  77
ATOM     77  S   UNL A   1      32.974  35.864  29.030  1.00  0.00     0.124 S 
ATOM     78  O   UNL A   1      32.341  34.934  28.101  1.00  0.00    -0.237 OA
ATOM     79  O   UNL A   1      32.194  36.202  30.218  1.00  0.00    -0.237 OA
ATOM     80  O   UNL A   1      33.673  36.989  28.414  1.00  0.00    -0.744 OA
ENDBRANCH  76  77
ENDBRANCH  48  71
BRANCH  60  81
ATOM     81  C   UNL A   1      39.831  33.960  36.903  1.00  0.00    -0.014 A 
ATOM     82  C   UNL A   1      40.486  35.204  36.909  1.00  0.00     0.010 A 
ATOM     83  C   UNL A   1      38.983  33.619  37.971  1.00  0.00     0.010 A 
ATOM     84  C   UNL A   1      40.309  36.085  37.979  1.00  0.00     0.020 A 
ATOM     85  C   UNL A   1      38.788  34.505  39.032  1.00  0.00     0.020 A 
ATOM     86  C   UNL A   1      39.461  35.730  39.034  1.00  0.00     0.054 A 
BRANCH  86  87
ATOM     87  S   UNL A   1      39.201  36.911  40.385  1.00  0.00     0.124 S 
ATOM     88  O   UNL A   1      38.576  38.033  39.690  1.00  0.00    -0.237 OA
ATOM     89  O   UNL A   1      38.331  36.173  41.297  1.00  0.00    -0.237 OA
ATOM     90  O   UNL A   1      40.551  37.162  40.888  1.00  0.00    -0.744 OA
ENDBRANCH  86  87
ENDBRANCH  60  81
ENDBRANCH  34  35
ENDBRANCH  27  29
ENDBRANCH  26  27
ENDBRANCH  25  26
ENDBRANCH   1  25
TORSDOF 17
ENDMDL
MODEL 2
REMARK VINA RESULT:     -11.6      1.325      2.126
REMARK SMILES C[C@H](NC(=O)N1CCN(/C=C/c2ccccc2)CC1)C(=O)OCCOC(=O)c1ccc(-c2c3nc(c(-c4ccc(S(=O)(=O)[O-])cc4)c4ccc([nH]4)c(-c4ccc(S(=O)(=O)[O-])cc4)c4nc(c(-c5ccc(S(=O)(=O)[O-])cc5)c5ccc2[nH]5)C=C4)C=C3)cc1
REMARK SMILES IDX 23 1 22 2 20 3 21 4 2 5 1 6 3 7 4 8 5 10 6 11 7 12 19 13
REMARK SMILES IDX 8 14 18 15 9 16 10 17 11 18 12 19 13 20 17 21 14 22 16 23
REMARK SMILES IDX 15 24 24 25 25 26 26 27 27 28 28 29 29 30 87 31 30 32 86 33
REMARK SMILES IDX 31 34 32 35 33 36 80 37 34 38 85 39 79 40 81 41 35 42 84 43
REMARK SMILES IDX 78 44 77 45 36 47 66 48 47 49 65 50 48 51 51 52 64 53 82 54
REMARK SMILES IDX 49 55 50 56 63 58 83 59 52 60 37 61 38 62 46 63 39 64 45 65
REMARK SMILES IDX 40 66 41 67 42 68 43 69 44 70 67 71 68 72 76 73 69 74 75 75
REMARK SMILES IDX 70 76 71 77 72 78 73 79 74 80 53 81 54 82 62 83 55 84 61 85
REMARK SMILES IDX 56 86 57 87 58 88 59 89 60 90
REMARK H PARENT 3 9 81 46 51 57
REMARK Flexibility Score: inf
ROOT
ATOM      1  C   UNL A   1      36.838  23.351  25.170  1.00  0.00     0.274 C 
ENDROOT
BRANCH   1   2
ATOM      2  O   UNL A   1      35.774  24.098  25.792  1.00  0.00    -0.461 OA
BRANCH   2   3
ATOM      3  C   UNL A   1      34.723  24.386  24.979  1.00  0.00     0.328 C 
ATOM      4  O   UNL A   1      34.400  25.528  24.661  1.00  0.00    -0.250 OA
BRANCH   3   5
ATOM      5  C   UNL A   1      34.061  23.138  24.360  1.00  0.00     0.190 C 
ATOM      6  C   UNL A   1      34.069  23.294  22.850  1.00  0.00     0.043 C 
BRANCH   5   7
ATOM      7  N   UNL A   1      32.873  22.598  25.019  1.00  0.00    -0.325 N 
ATOM      8  C   UNL A   1      31.727  23.144  25.463  1.00  0.00     0.318 C 
ATOM      9  H   UNL A   1      32.923  21.626  25.170  1.00  0.00     0.166 HD
ATOM     10  O   UNL A   1      31.136  22.589  26.388  1.00  0.00    -0.249 OA
ATOM     11  N   UNL A   1      31.309  24.325  24.941  1.00  0.00    -0.321 N 
ATOM     12  C   UNL A   1      30.627  25.244  25.834  1.00  0.00     0.143 C 
ATOM     13  C   UNL A   1      30.824  24.441  23.569  1.00  0.00     0.143 C 
ATOM     14  C   UNL A   1      30.900  26.682  25.401  1.00  0.00     0.137 C 
ATOM     15  C   UNL A   1      30.972  25.872  23.022  1.00  0.00     0.137 C 
ATOM     16  N   UNL A   1      30.533  26.920  23.983  1.00  0.00    -0.374 N 
BRANCH  16  17
ATOM     17  C   UNL A   1      30.197  28.180  23.510  1.00  0.00     0.081 C 
ATOM     18  C   UNL A   1      28.988  28.684  23.233  1.00  0.00     0.025 C 
BRANCH  18  19
ATOM     19  C   UNL A   1      28.753  30.032  22.701  1.00  0.00    -0.024 A 
ATOM     20  C   UNL A   1      28.807  31.122  23.578  1.00  0.00     0.008 A 
ATOM     21  C   UNL A   1      28.401  30.258  21.364  1.00  0.00     0.008 A 
ATOM     22  C   UNL A   1      28.531  32.414  23.124  1.00  0.00     0.001 A 
ATOM     23  C   UNL A   1      28.129  31.549  20.909  1.00  0.00     0.001 A 
ATOM     24  C   UNL A   1      28.193  32.626  21.789  1.00  0.00     0.000 A 
ENDBRANCH  18  19
ENDBRANCH  16  17
ENDBRANCH   5   7
ENDBRANCH   3   5
ENDBRANCH   2   3
ENDBRANCH   1   2
BRANCH   1  25
ATOM     25  C   UNL A   1      38.096  23.318  26.048  1.00  0.00     0.275 C 
BRANCH  25  26
ATOM     26  O   UNL A   1      38.382  24.585  26.676  1.00  0.00    -0.458 OA
BRANCH  26  27
ATOM     27  C   UNL A   1      39.687  24.939  26.655  1.00  0.00     0.338 C 
ATOM     28  O   UNL A   1      40.498  24.712  25.771  1.00  0.00    -0.246 OA
BRANCH  27  29
ATOM     29  C   UNL A   1      40.038  25.755  27.825  1.00  0.00     0.060 A 
ATOM     30  C   UNL A   1      39.175  25.736  28.921  1.00  0.00     0.016 A 
ATOM     31  C   UNL A   1      41.070  26.687  27.755  1.00  0.00     0.016 A 
ATOM     32  C   UNL A   1      39.256  26.720  29.895  1.00  0.00     0.010 A 
ATOM     33  C   UNL A   1      41.202  27.630  28.780  1.00  0.00     0.010 A 
ATOM     34  C   UNL A   1      40.269  27.679  29.833  1.00  0.00    -0.014 A 
BRANCH  34  35
ATOM     35  C   UNL A   1      40.314  28.764  30.841  1.00  0.00     0.031 A 
ATOM     36  C   UNL A   1      41.309  28.693  31.965  1.00  0.00     0.074 A 
ATOM     37  C   UNL A   1      39.483  29.817  30.734  1.00  0.00     0.049 A 
ATOM     38  N   UNL A   1      41.386  29.425  33.045  1.00  0.00    -0.248 NA
ATOM     39  C   UNL A   1      42.351  27.659  31.860  1.00  0.00     0.031 C 
ATOM     40  C   UNL A   1      38.535  30.043  29.640  1.00  0.00     0.029 A 
ATOM     41  N   UNL A   1      39.302  30.896  31.559  1.00  0.00    -0.354 N 
ATOM     42  C   UNL A   1      42.444  28.903  33.779  1.00  0.00     0.074 A 
ATOM     43  C   UNL A   1      42.988  27.801  33.015  1.00  0.00     0.031 C 
ATOM     44  C   UNL A   1      37.881  31.194  29.857  1.00  0.00     0.029 A 
ATOM     45  C   UNL A   1      38.300  31.740  31.142  1.00  0.00     0.049 A 
ATOM     46  H   UNL A   1      39.836  31.051  32.371  1.00  0.00     0.167 HD
ATOM     47  C   UNL A   1      42.908  29.304  34.987  1.00  0.00     0.031 A 
ATOM     48  C   UNL A   1      37.744  32.804  31.750  1.00  0.00     0.031 A 
ATOM     49  C   UNL A   1      42.369  30.416  35.722  1.00  0.00     0.049 A 
ATOM     50  C   UNL A   1      38.237  33.200  33.111  1.00  0.00     0.074 A 
ATOM     51  C   UNL A   1      42.749  30.898  36.962  1.00  0.00     0.029 A 
ATOM     52  N   UNL A   1      41.338  31.230  35.274  1.00  0.00    -0.354 N 
ATOM     53  N   UNL A   1      39.188  32.654  33.831  1.00  0.00    -0.248 NA
ATOM     54  C   UNL A   1      37.573  34.344  33.750  1.00  0.00     0.031 C 
ATOM     55  C   UNL A   1      41.924  31.983  37.279  1.00  0.00     0.029 A 
ATOM     56  C   UNL A   1      41.061  32.205  36.217  1.00  0.00     0.049 A 
ATOM     57  H   UNL A   1      40.872  31.128  34.414  1.00  0.00     0.167 HD
ATOM     58  C   UNL A   1      39.249  33.395  35.003  1.00  0.00     0.074 A 
ATOM     59  C   UNL A   1      38.245  34.437  34.891  1.00  0.00     0.031 C 
ATOM     60  C   UNL A   1      40.060  33.232  36.077  1.00  0.00     0.031 A 
BRANCH  47  61
ATOM     61  C   UNL A   1      44.007  28.486  35.608  1.00  0.00    -0.014 A 
ATOM     62  C   UNL A   1      43.729  27.379  36.430  1.00  0.00     0.010 A 
ATOM     63  C   UNL A   1      45.348  28.839  35.365  1.00  0.00     0.010 A 
ATOM     64  C   UNL A   1      44.771  26.671  37.036  1.00  0.00     0.020 A 
ATOM     65  C   UNL A   1      46.392  28.118  35.950  1.00  0.00     0.020 A 
ATOM     66  C   UNL A   1      46.097  27.053  36.801  1.00  0.00     0.054 A 
BRANCH  66  67
ATOM     67  S   UNL A   1      47.433  26.126  37.606  1.00  0.00     0.124 S 
ATOM     68  O   UNL A   1      48.433  27.169  37.819  1.00  0.00    -0.237 OA
ATOM     69  O   UNL A   1      46.792  25.614  38.814  1.00  0.00    -0.237 OA
ATOM     70  O   UNL A   1      47.792  25.111  36.617  1.00  0.00    -0.744 OA
ENDBRANCH  66  67
ENDBRANCH  47  61
BRANCH  48  71
ATOM     71  C   UNL A   1      36.624  33.522  31.089  1.00  0.00    -0.014 A 
ATOM     72  C   UNL A   1      36.824  34.194  29.872  1.00  0.00     0.010 A 
ATOM     73  C   UNL A   1      35.332  33.487  31.650  1.00  0.00     0.010 A 
ATOM     74  C   UNL A   1      35.752  34.817  29.225  1.00  0.00     0.020 A 
ATOM     75  C   UNL A   1      34.255  34.087  30.993  1.00  0.00     0.020 A 
ATOM     76  C   UNL A   1      34.473  34.754  29.787  1.00  0.00     0.054 A 
BRANCH  76  77
ATOM     77  S   UNL A   1      33.081  35.494  28.889  1.00  0.00     0.124 S 
ATOM     78  O   UNL A   1      32.505  34.335  28.215  1.00  0.00    -0.237 OA
ATOM     79  O   UNL A   1      32.276  36.067  29.965  1.00  0.00    -0.237 OA
ATOM     80  O   UNL A   1      33.723  36.474  28.015  1.00  0.00    -0.744 OA
ENDBRANCH  76  77
ENDBRANCH  48  71
BRANCH  60  81
ATOM     81  C   UNL A   1      39.922  34.222  37.198  1.00  0.00    -0.014 A 
ATOM     82  C   UNL A   1      40.596  35.455  37.163  1.00  0.00     0.010 A 
ATOM     83  C   UNL A   1      39.059  33.936  38.269  1.00  0.00     0.010 A 
ATOM     84  C   UNL A   1      40.422  36.380  38.196  1.00  0.00     0.020 A 
ATOM     85  C   UNL A   1      38.867  34.865  39.293  1.00  0.00     0.020 A 
ATOM     86  C   UNL A   1      39.559  36.078  39.255  1.00  0.00     0.054 A 
BRANCH  86  87
ATOM     87  S   UNL A   1      39.304  37.315  40.557  1.00  0.00     0.124 S 
ATOM     88  O   UNL A   1      40.632  37.912  40.671  1.00  0.00    -0.237 OA
ATOM     89  O   UNL A   1      38.274  38.179  39.985  1.00  0.00    -0.237 OA
ATOM     90  O   UNL A   1      38.876  36.521  41.707  1.00  0.00    -0.744 OA
ENDBRANCH  86  87
ENDBRANCH  60  81
ENDBRANCH  34  35
ENDBRANCH  27  29
ENDBRANCH  26  27
ENDBRANCH  25  26
ENDBRANCH   1  25
TORSDOF 17
ENDMDL
MODEL 3
REMARK VINA RESULT:     -11.5      5.117     11.160
REMARK SMILES C[C@H](NC(=O)N1CCN(/C=C/c2ccccc2)CC1)C(=O)OCCOC(=O)c1ccc(-c2c3nc(c(-c4ccc(S(=O)(=O)[O-])cc4)c4ccc([nH]4)c(-c4ccc(S(=O)(=O)[O-])cc4)c4nc(c(-c5ccc(S(=O)(=O)[O-])cc5)c5ccc2[nH]5)C=C4)C=C3)cc1
REMARK SMILES IDX 23 1 22 2 20 3 21 4 2 5 1 6 3 7 4 8 5 10 6 11 7 12 19 13
REMARK SMILES IDX 8 14 18 15 9 16 10 17 11 18 12 19 13 20 17 21 14 22 16 23
REMARK SMILES IDX 15 24 24 25 25 26 26 27 27 28 28 29 29 30 87 31 30 32 86 33
REMARK SMILES IDX 31 34 32 35 33 36 80 37 34 38 85 39 79 40 81 41 35 42 84 43
REMARK SMILES IDX 78 44 77 45 36 47 66 48 47 49 65 50 48 51 51 52 64 53 82 54
REMARK SMILES IDX 49 55 50 56 63 58 83 59 52 60 37 61 38 62 46 63 39 64 45 65
REMARK SMILES IDX 40 66 41 67 42 68 43 69 44 70 67 71 68 72 76 73 69 74 75 75
REMARK SMILES IDX 70 76 71 77 72 78 73 79 74 80 53 81 54 82 62 83 55 84 61 85
REMARK SMILES IDX 56 86 57 87 58 88 59 89 60 90
REMARK H PARENT 3 9 81 46 51 57
REMARK Flexibility Score: inf
ROOT
ATOM      1  C   UNL A   1      32.158  30.254  25.877  1.00  0.00     0.274 C 
ENDROOT
BRANCH   1   2
ATOM      2  O   UNL A   1      31.143  29.243  26.035  1.00  0.00    -0.461 OA
BRANCH   2   3
ATOM      3  C   UNL A   1      31.579  28.071  26.569  1.00  0.00     0.328 C 
ATOM      4  O   UNL A   1      31.398  27.746  27.740  1.00  0.00    -0.250 OA
BRANCH   3   5
ATOM      5  C   UNL A   1      32.190  27.109  25.529  1.00  0.00     0.190 C 
ATOM      6  C   UNL A   1      33.651  26.891  25.882  1.00  0.00     0.043 C 
BRANCH   5   7
ATOM      7  N   UNL A   1      31.809  27.286  24.129  1.00  0.00    -0.325 N 
ATOM      8  C   UNL A   1      31.921  26.518  23.031  1.00  0.00     0.318 C 
ATOM      9  H   UNL A   1      31.378  28.154  23.953  1.00  0.00     0.166 HD
ATOM     10  O   UNL A   1      31.979  27.073  21.934  1.00  0.00    -0.249 OA
ATOM     11  N   UNL A   1      32.053  25.175  23.170  1.00  0.00    -0.321 N 
ATOM     12  C   UNL A   1      32.894  24.484  22.210  1.00  0.00     0.143 C 
ATOM     13  C   UNL A   1      30.958  24.330  23.640  1.00  0.00     0.143 C 
ATOM     14  C   UNL A   1      33.540  23.270  22.870  1.00  0.00     0.137 C 
ATOM     15  C   UNL A   1      31.468  23.022  24.271  1.00  0.00     0.137 C 
ATOM     16  N   UNL A   1      32.537  22.360  23.475  1.00  0.00    -0.374 N 
BRANCH  16  17
ATOM     17  C   UNL A   1      32.784  21.007  23.660  1.00  0.00     0.081 C 
ATOM     18  C   UNL A   1      32.854  20.309  24.801  1.00  0.00     0.025 C 
BRANCH  18  19
ATOM     19  C   UNL A   1      33.156  18.874  24.878  1.00  0.00    -0.024 A 
ATOM     20  C   UNL A   1      34.074  18.329  23.972  1.00  0.00     0.008 A 
ATOM     21  C   UNL A   1      32.503  18.019  25.774  1.00  0.00     0.008 A 
ATOM     22  C   UNL A   1      34.345  16.958  23.973  1.00  0.00     0.001 A 
ATOM     23  C   UNL A   1      32.776  16.651  25.779  1.00  0.00     0.001 A 
ATOM     24  C   UNL A   1      33.695  16.121  24.878  1.00  0.00     0.000 A 
ENDBRANCH  18  19
ENDBRANCH  16  17
ENDBRANCH   5   7
ENDBRANCH   3   5
ENDBRANCH   2   3
ENDBRANCH   1   2
BRANCH   1  25
ATOM     25  C   UNL A   1      32.614  30.816  27.230  1.00  0.00     0.275 C 
BRANCH  25  26
ATOM     26  O   UNL A   1      33.688  30.059  27.825  1.00  0.00    -0.458 OA
BRANCH  26  27
ATOM     27  C   UNL A   1      34.636  30.811  28.429  1.00  0.00     0.338 C 
ATOM     28  O   UNL A   1      34.488  31.906  28.947  1.00  0.00    -0.246 OA
BRANCH  27  29
ATOM     29  C   UNL A   1      35.920  30.100  28.491  1.00  0.00     0.060 A 
ATOM     30  C   UNL A   1      36.410  29.737  29.745  1.00  0.00     0.016 A 
ATOM     31  C   UNL A   1      36.728  29.996  27.361  1.00  0.00     0.016 A 
ATOM     32  C   UNL A   1      37.742  29.385  29.904  1.00  0.00     0.010 A 
ATOM     33  C   UNL A   1      38.049  29.562  27.510  1.00  0.00     0.010 A 
ATOM     34  C   UNL A   1      38.576  29.296  28.788  1.00  0.00    -0.014 A 
BRANCH  34  35
ATOM     35  C   UNL A   1      40.012  28.979  28.969  1.00  0.00     0.031 A 
ATOM     36  C   UNL A   1      40.947  30.035  29.486  1.00  0.00     0.074 A 
ATOM     37  C   UNL A   1      40.468  27.743  28.692  1.00  0.00     0.049 A 
ATOM     38  N   UNL A   1      42.252  30.029  29.533  1.00  0.00    -0.248 NA
ATOM     39  C   UNL A   1      40.329  31.262  30.015  1.00  0.00     0.031 C 
ATOM     40  C   UNL A   1      39.644  26.608  28.268  1.00  0.00     0.029 A 
ATOM     41  N   UNL A   1      41.741  27.236  28.725  1.00  0.00    -0.354 N 
ATOM     42  C   UNL A   1      42.617  31.271  30.039  1.00  0.00     0.074 A 
ATOM     43  C   UNL A   1      41.395  32.001  30.295  1.00  0.00     0.031 C 
ATOM     44  C   UNL A   1      40.431  25.536  28.092  1.00  0.00     0.029 A 
ATOM     45  C   UNL A   1      41.820  25.929  28.306  1.00  0.00     0.049 A 
ATOM     46  H   UNL A   1      42.523  27.756  29.019  1.00  0.00     0.167 HD
ATOM     47  C   UNL A   1      43.862  31.757  30.255  1.00  0.00     0.031 A 
ATOM     48  C   UNL A   1      42.890  25.150  28.068  1.00  0.00     0.031 A 
ATOM     49  C   UNL A   1      45.067  31.010  30.016  1.00  0.00     0.049 A 
ATOM     50  C   UNL A   1      44.262  25.725  28.264  1.00  0.00     0.074 A 
ATOM     51  C   UNL A   1      46.381  31.410  30.182  1.00  0.00     0.029 A 
ATOM     52  N   UNL A   1      45.102  29.697  29.567  1.00  0.00    -0.354 N 
ATOM     53  N   UNL A   1      44.599  26.926  28.671  1.00  0.00    -0.248 NA
ATOM     54  C   UNL A   1      45.399  24.848  27.956  1.00  0.00     0.031 C 
ATOM     55  C   UNL A   1      47.211  30.350  29.802  1.00  0.00     0.029 A 
ATOM     56  C   UNL A   1      46.414  29.274  29.443  1.00  0.00     0.049 A 
ATOM     57  H   UNL A   1      44.310  29.148  29.367  1.00  0.00     0.167 HD
ATOM     58  C   UNL A   1      45.987  26.947  28.682  1.00  0.00     0.074 A 
ATOM     59  C   UNL A   1      46.428  25.634  28.252  1.00  0.00     0.031 C 
ATOM     60  C   UNL A   1      46.824  27.960  29.017  1.00  0.00     0.031 A 
BRANCH  47  61
ATOM     61  C   UNL A   1      43.974  33.187  30.712  1.00  0.00    -0.014 A 
ATOM     62  C   UNL A   1      43.991  33.526  32.076  1.00  0.00     0.010 A 
ATOM     63  C   UNL A   1      44.059  34.211  29.750  1.00  0.00     0.010 A 
ATOM     64  C   UNL A   1      44.043  34.868  32.469  1.00  0.00     0.020 A 
ATOM     65  C   UNL A   1      44.135  35.550  30.140  1.00  0.00     0.020 A 
ATOM     66  C   UNL A   1      44.102  35.872  31.497  1.00  0.00     0.054 A 
BRANCH  66  67
ATOM     67  S   UNL A   1      44.158  37.606  32.028  1.00  0.00     0.124 S 
ATOM     68  O   UNL A   1      45.577  37.785  32.317  1.00  0.00    -0.237 OA
ATOM     69  O   UNL A   1      43.661  38.321  30.856  1.00  0.00    -0.237 OA
ATOM     70  O   UNL A   1      43.275  37.638  33.193  1.00  0.00    -0.744 OA
ENDBRANCH  66  67
ENDBRANCH  47  61
BRANCH  48  71
ATOM     71  C   UNL A   1      42.691  23.766  27.565  1.00  0.00    -0.014 A 
ATOM     72  C   UNL A   1      42.799  23.480  26.194  1.00  0.00     0.010 A 
ATOM     73  C   UNL A   1      42.448  22.713  28.468  1.00  0.00     0.010 A 
ATOM     74  C   UNL A   1      42.671  22.166  25.734  1.00  0.00     0.020 A 
ATOM     75  C   UNL A   1      42.344  21.396  28.015  1.00  0.00     0.020 A 
ATOM     76  C   UNL A   1      42.449  21.132  26.649  1.00  0.00     0.054 A 
BRANCH  76  77
ATOM     77  S   UNL A   1      42.371  19.423  26.042  1.00  0.00     0.124 S 
ATOM     78  O   UNL A   1      42.778  18.665  27.219  1.00  0.00    -0.237 OA
ATOM     79  O   UNL A   1      40.970  19.287  25.652  1.00  0.00    -0.237 OA
ATOM     80  O   UNL A   1      43.320  19.415  24.931  1.00  0.00    -0.744 OA
ENDBRANCH  76  77
ENDBRANCH  48  71
BRANCH  60  81
ATOM     81  C   UNL A   1      48.298  27.675  28.968  1.00  0.00    -0.014 A 
ATOM     82  C   UNL A   1      49.025  27.410  30.141  1.00  0.00     0.010 A 
ATOM     83  C   UNL A   1      48.948  27.616  27.723  1.00  0.00     0.010 A 
ATOM     84  C   UNL A   1      50.386  27.108  30.070  1.00  0.00     0.020 A 
ATOM     85  C   UNL A   1      50.304  27.294  27.646  1.00  0.00     0.020 A 
ATOM     86  C   UNL A   1      51.018  27.052  28.823  1.00  0.00     0.054 A 
BRANCH  86  87
ATOM     87  S   UNL A   1      52.774  26.603  28.748  1.00  0.00     0.124 S 
ATOM     88  O   UNL A   1      52.829  25.799  27.530  1.00  0.00    -0.237 OA
ATOM     89  O   UNL A   1      53.437  27.902  28.675  1.00  0.00    -0.237 OA
ATOM     90  O   UNL A   1      52.993  25.867  29.992  1.00  0.00    -0.744 OA
ENDBRANCH  86  87
ENDBRANCH  60  81
ENDBRANCH  34  35
ENDBRANCH  27  29
ENDBRANCH  26  27
ENDBRANCH  25  26
ENDBRANCH   1  25
TORSDOF 17
ENDMDL
