MODEL 1
REMARK VINA RESULT:     -11.4      0.000      0.000
REMARK SMILES O=C(OCCOC(=O)c1cn(C2C[NH+](Cc3cc(F)ccc3F)C2)nn1)c1ccc(-c2c3nc(c(-c4ccc(S(=O)(=O)[O-])cc4)c4ccc([nH]4)c(-c4ccc(S(=O)(=O)[O-])cc4)c4nc(c(-c5ccc(S(=O)(=O)[O-])cc5)c5ccc2[nH]5)C=C4)C=C3)cc1
REMARK SMILES IDX 4 1 3 2 2 3 1 4 27 5 28 6 86 7 29 8 85 9 30 10 31 11 32 12
REMARK SMILES IDX 79 13 33 14 84 15 78 16 80 17 34 18 83 19 77 20 76 21 35 23
REMARK SMILES IDX 65 24 46 25 64 26 47 27 50 28 63 29 81 30 48 31 49 32 62 34
REMARK SMILES IDX 82 35 51 36 36 37 37 38 45 39 38 40 44 41 39 42 40 43 41 44
REMARK SMILES IDX 42 45 43 46 66 47 67 48 75 49 68 50 74 51 69 52 70 53 71 54
REMARK SMILES IDX 72 55 73 56 52 57 53 58 61 59 54 60 60 61 55 62 56 63 57 64
REMARK SMILES IDX 58 65 59 66 5 67 6 68 7 69 8 70 9 71 10 72 26 73 11 74 25 75
REMARK SMILES IDX 12 76 13 77 24 78 14 79 15 81 16 82 17 83 22 84 18 85 21 86
REMARK SMILES IDX 23 87 19 88 20 89
REMARK H PARENT 80 22 50 33 14 80
REMARK Flexibility Score: inf
ROOT
ATOM      1  C   UNL A   1      33.329  33.620  27.951  1.00  0.00     0.275 C 
ENDROOT
BRANCH   1   2
ATOM      2  O   UNL A   1      33.932  32.505  28.638  1.00  0.00    -0.458 OA
BRANCH   2   3
ATOM      3  C   UNL A   1      34.227  31.377  27.951  1.00  0.00     0.338 C 
ATOM      4  O   UNL A   1      33.502  30.896  27.095  1.00  0.00    -0.246 OA
BRANCH   3   5
ATOM      5  C   UNL A   1      35.625  30.948  28.182  1.00  0.00     0.060 A 
ATOM      6  C   UNL A   1      36.026  29.621  27.997  1.00  0.00     0.016 A 
ATOM      7  C   UNL A   1      36.552  31.907  28.611  1.00  0.00     0.016 A 
ATOM      8  C   UNL A   1      37.317  29.234  28.317  1.00  0.00     0.010 A 
ATOM      9  C   UNL A   1      37.849  31.521  28.933  1.00  0.00     0.010 A 
ATOM     10  C   UNL A   1      38.217  30.178  28.815  1.00  0.00    -0.014 A 
BRANCH  10  11
ATOM     11  C   UNL A   1      39.580  29.727  29.076  1.00  0.00     0.031 A 
ATOM     12  C   UNL A   1      39.966  29.695  30.513  1.00  0.00     0.074 A 
ATOM     13  C   UNL A   1      40.396  29.243  28.119  1.00  0.00     0.049 A 
ATOM     14  N   UNL A   1      40.900  30.360  31.113  1.00  0.00    -0.248 NA
ATOM     15  C   UNL A   1      39.126  28.892  31.416  1.00  0.00     0.031 C 
ATOM     16  C   UNL A   1      40.049  28.945  26.729  1.00  0.00     0.029 A 
ATOM     17  N   UNL A   1      41.679  28.791  28.226  1.00  0.00    -0.354 N 
ATOM     18  C   UNL A   1      40.915  29.888  32.424  1.00  0.00     0.074 A 
ATOM     19  C   UNL A   1      39.705  29.125  32.593  1.00  0.00     0.031 C 
ATOM     20  C   UNL A   1      41.003  28.149  26.198  1.00  0.00     0.029 A 
ATOM     21  C   UNL A   1      42.078  27.988  27.165  1.00  0.00     0.049 A 
ATOM     22  H   UNL A   1      42.267  29.014  28.984  1.00  0.00     0.167 HD
ATOM     23  C   UNL A   1      42.036  29.934  33.198  1.00  0.00     0.031 A 
ATOM     24  C   UNL A   1      43.168  27.181  27.114  1.00  0.00     0.031 A 
ATOM     25  C   UNL A   1      43.004  30.876  32.699  1.00  0.00     0.049 A 
ATOM     26  C   UNL A   1      44.117  27.633  28.157  1.00  0.00     0.074 A 
ATOM     27  C   UNL A   1      42.995  32.226  32.407  1.00  0.00     0.029 A 
ATOM     28  N   UNL A   1      44.128  30.368  32.092  1.00  0.00    -0.354 N 
ATOM     29  N   UNL A   1      44.760  28.766  28.108  1.00  0.00    -0.248 NA
ATOM     30  C   UNL A   1      44.062  27.006  29.468  1.00  0.00     0.031 C 
ATOM     31  C   UNL A   1      43.827  32.360  31.257  1.00  0.00     0.029 A 
ATOM     32  C   UNL A   1      44.339  31.098  30.952  1.00  0.00     0.049 A 
ATOM     33  H   UNL A   1      44.678  29.619  32.415  1.00  0.00     0.167 HD
ATOM     34  C   UNL A   1      44.812  29.202  29.423  1.00  0.00     0.074 A 
ATOM     35  C   UNL A   1      44.473  28.029  30.223  1.00  0.00     0.031 C 
ATOM     36  C   UNL A   1      44.850  30.535  29.721  1.00  0.00     0.031 A 
BRANCH  23  37
ATOM     37  C   UNL A   1      42.424  28.811  34.139  1.00  0.00    -0.014 A 
ATOM     38  C   UNL A   1      42.916  27.604  33.599  1.00  0.00     0.010 A 
ATOM     39  C   UNL A   1      42.035  28.785  35.495  1.00  0.00     0.010 A 
ATOM     40  C   UNL A   1      42.914  26.417  34.346  1.00  0.00     0.020 A 
ATOM     41  C   UNL A   1      42.077  27.622  36.264  1.00  0.00     0.020 A 
ATOM     42  C   UNL A   1      42.473  26.434  35.670  1.00  0.00     0.054 A 
BRANCH  42  43
ATOM     43  S   UNL A   1      42.345  24.880  36.587  1.00  0.00     0.124 S 
ATOM     44  O   UNL A   1      41.017  24.995  37.180  1.00  0.00    -0.237 OA
ATOM     45  O   UNL A   1      42.485  23.884  35.528  1.00  0.00    -0.237 OA
ATOM     46  O   UNL A   1      43.463  24.945  37.526  1.00  0.00    -0.744 OA
ENDBRANCH  42  43
ENDBRANCH  23  37
BRANCH  24  47
ATOM     47  C   UNL A   1      43.308  25.875  26.420  1.00  0.00    -0.014 A 
ATOM     48  C   UNL A   1      44.301  25.677  25.442  1.00  0.00     0.010 A 
ATOM     49  C   UNL A   1      42.638  24.736  26.910  1.00  0.00     0.010 A 
ATOM     50  C   UNL A   1      44.654  24.383  25.021  1.00  0.00     0.020 A 
ATOM     51  C   UNL A   1      42.972  23.446  26.486  1.00  0.00     0.020 A 
ATOM     52  C   UNL A   1      43.999  23.273  25.562  1.00  0.00     0.054 A 
BRANCH  52  53
ATOM     53  S   UNL A   1      44.580  21.601  25.156  1.00  0.00     0.124 S 
ATOM     54  O   UNL A   1      43.604  20.757  25.839  1.00  0.00    -0.237 OA
ATOM     55  O   UNL A   1      44.517  21.586  23.697  1.00  0.00    -0.237 OA
ATOM     56  O   UNL A   1      45.932  21.561  25.714  1.00  0.00    -0.744 OA
ENDBRANCH  52  53
ENDBRANCH  24  47
BRANCH  36  57
ATOM     57  C   UNL A   1      45.199  31.515  28.626  1.00  0.00    -0.014 A 
ATOM     58  C   UNL A   1      44.286  31.961  27.651  1.00  0.00     0.010 A 
ATOM     59  C   UNL A   1      46.475  32.106  28.668  1.00  0.00     0.010 A 
ATOM     60  C   UNL A   1      44.655  32.941  26.718  1.00  0.00     0.020 A 
ATOM     61  C   UNL A   1      46.842  33.097  27.757  1.00  0.00     0.020 A 
ATOM     62  C   UNL A   1      45.935  33.501  26.777  1.00  0.00     0.054 A 
BRANCH  62  63
ATOM     63  S   UNL A   1      46.397  34.792  25.590  1.00  0.00     0.124 S 
ATOM     64  O   UNL A   1      45.479  34.548  24.480  1.00  0.00    -0.237 OA
ATOM     65  O   UNL A   1      46.163  36.024  26.341  1.00  0.00    -0.237 OA
ATOM     66  O   UNL A   1      47.803  34.514  25.301  1.00  0.00    -0.744 OA
ENDBRANCH  62  63
ENDBRANCH  36  57
ENDBRANCH  10  11
ENDBRANCH   3   5
ENDBRANCH   2   3
ENDBRANCH   1   2
BRANCH   1  67
ATOM     67  C   UNL A   1      33.320  34.964  28.678  1.00  0.00     0.275 C 
BRANCH  67  68
ATOM     68  O   UNL A   1      32.729  34.807  29.974  1.00  0.00    -0.457 OA
BRANCH  68  69
ATOM     69  C   UNL A   1      32.839  35.887  30.809  1.00  0.00     0.360 C 
ATOM     70  O   UNL A   1      32.354  36.984  30.610  1.00  0.00    -0.244 OA
BRANCH  69  71
ATOM     71  C   UNL A   1      33.663  35.562  31.952  1.00  0.00     0.190 A 
ATOM     72  C   UNL A   1      34.239  34.344  32.245  1.00  0.00     0.147 A 
ATOM     73  N   UNL A   1      33.953  36.454  32.949  1.00  0.00    -0.123 NA
ATOM     74  N   UNL A   1      34.871  34.564  33.434  1.00  0.00    -0.237 N 
ATOM     75  N   UNL A   1      34.680  35.825  33.861  1.00  0.00    -0.066 NA
BRANCH  74  76
ATOM     76  C   UNL A   1      35.668  33.659  34.198  1.00  0.00     0.218 C 
ATOM     77  C   UNL A   1      36.249  32.433  33.457  1.00  0.00     0.296 C 
ATOM     78  C   UNL A   1      37.147  34.114  34.300  1.00  0.00     0.296 C 
ATOM     79  N   UNL A   1      37.581  32.731  34.018  1.00  0.00    -0.327 N 
ATOM     80  H   UNL A   1      38.424  32.557  33.472  1.00  0.00     0.348 HD
BRANCH  79  81
ATOM     81  C   UNL A   1      37.929  31.935  35.219  1.00  0.00     0.302 C 
BRANCH  81  82
ATOM     82  C   UNL A   1      39.130  32.318  36.054  1.00  0.00     0.045 A 
ATOM     83  C   UNL A   1      40.441  32.103  35.598  1.00  0.00     0.051 A 
ATOM     84  C   UNL A   1      38.962  32.860  37.336  1.00  0.00     0.132 A 
ATOM     85  C   UNL A   1      41.522  32.326  36.447  1.00  0.00     0.123 A 
ATOM     86  C   UNL A   1      40.049  33.117  38.170  1.00  0.00     0.043 A 
ATOM     87  F   UNL A   1      37.729  33.116  37.796  1.00  0.00    -0.206 F 
ATOM     88  F   UNL A   1      42.754  32.011  36.031  1.00  0.00    -0.207 F 
ATOM     89  C   UNL A   1      41.338  32.825  37.731  1.00  0.00     0.042 A 
ENDBRANCH  81  82
ENDBRANCH  79  81
ENDBRANCH  74  76
ENDBRANCH  69  71
ENDBRANCH  68  69
ENDBRANCH  67  68
ENDBRANCH   1  67
TORSDOF 17
ENDMDL
MODEL 2
REMARK VINA RESULT:     -11.3      5.682      8.191
REMARK SMILES O=C(OCCOC(=O)c1cn(C2C[NH+](Cc3cc(F)ccc3F)C2)nn1)c1ccc(-c2c3nc(c(-c4ccc(S(=O)(=O)[O-])cc4)c4ccc([nH]4)c(-c4ccc(S(=O)(=O)[O-])cc4)c4nc(c(-c5ccc(S(=O)(=O)[O-])cc5)c5ccc2[nH]5)C=C4)C=C3)cc1
REMARK SMILES IDX 4 1 3 2 2 3 1 4 27 5 28 6 86 7 29 8 85 9 30 10 31 11 32 12
REMARK SMILES IDX 79 13 33 14 84 15 78 16 80 17 34 18 83 19 77 20 76 21 35 23
REMARK SMILES IDX 65 24 46 25 64 26 47 27 50 28 63 29 81 30 48 31 49 32 62 34
REMARK SMILES IDX 82 35 51 36 36 37 37 38 45 39 38 40 44 41 39 42 40 43 41 44
REMARK SMILES IDX 42 45 43 46 66 47 67 48 75 49 68 50 74 51 69 52 70 53 71 54
REMARK SMILES IDX 72 55 73 56 52 57 53 58 61 59 54 60 60 61 55 62 56 63 57 64
REMARK SMILES IDX 58 65 59 66 5 67 6 68 7 69 8 70 9 71 10 72 26 73 11 74 25 75
REMARK SMILES IDX 12 76 13 77 24 78 14 79 15 81 16 82 17 83 22 84 18 85 21 86
REMARK SMILES IDX 23 87 19 88 20 89
REMARK H PARENT 80 22 50 33 14 80
REMARK Flexibility Score: inf
ROOT
ATOM      1  C   UNL A   1      32.075  30.596  26.722  1.00  0.00     0.275 C 
ENDROOT
BRANCH   1   2
ATOM      2  O   UNL A   1      33.183  30.508  27.641  1.00  0.00    -0.458 OA
BRANCH   2   3
ATOM      3  C   UNL A   1      34.036  31.553  27.760  1.00  0.00     0.338 C 
ATOM      4  O   UNL A   1      33.679  32.720  27.778  1.00  0.00    -0.246 OA
BRANCH   3   5
ATOM      5  C   UNL A   1      35.402  31.102  28.113  1.00  0.00     0.060 A 
ATOM      6  C   UNL A   1      36.370  31.994  28.585  1.00  0.00     0.016 A 
ATOM      7  C   UNL A   1      35.718  29.747  27.949  1.00  0.00     0.016 A 
ATOM      8  C   UNL A   1      37.665  31.559  28.813  1.00  0.00     0.010 A 
ATOM      9  C   UNL A   1      37.018  29.308  28.177  1.00  0.00     0.010 A 
ATOM     10  C   UNL A   1      37.994  30.224  28.576  1.00  0.00    -0.014 A 
BRANCH  10  11
ATOM     11  C   UNL A   1      39.357  29.807  28.893  1.00  0.00     0.031 A 
ATOM     12  C   UNL A   1      39.696  29.824  30.342  1.00  0.00     0.074 A 
ATOM     13  C   UNL A   1      40.212  29.312  27.978  1.00  0.00     0.049 A 
ATOM     14  N   UNL A   1      40.599  30.523  30.952  1.00  0.00    -0.248 NA
ATOM     15  C   UNL A   1      38.842  29.030  31.241  1.00  0.00     0.031 C 
ATOM     16  C   UNL A   1      39.916  28.967  26.586  1.00  0.00     0.029 A 
ATOM     17  N   UNL A   1      41.499  28.888  28.139  1.00  0.00    -0.354 N 
ATOM     18  C   UNL A   1      40.580  30.089  32.276  1.00  0.00     0.074 A 
ATOM     19  C   UNL A   1      39.379  29.308  32.429  1.00  0.00     0.031 C 
ATOM     20  C   UNL A   1      40.901  28.175  26.109  1.00  0.00     0.029 A 
ATOM     21  C   UNL A   1      41.946  28.062  27.115  1.00  0.00     0.049 A 
ATOM     22  H   UNL A   1      42.058  29.143  28.908  1.00  0.00     0.167 HD
ATOM     23  C   UNL A   1      41.674  30.179  33.084  1.00  0.00     0.031 A 
ATOM     24  C   UNL A   1      43.052  27.275  27.122  1.00  0.00     0.031 A 
ATOM     25  C   UNL A   1      42.640  31.124  32.589  1.00  0.00     0.049 A 
ATOM     26  C   UNL A   1      43.958  27.775  28.182  1.00  0.00     0.074 A 
ATOM     27  C   UNL A   1      42.616  32.465  32.257  1.00  0.00     0.029 A 
ATOM     28  N   UNL A   1      43.792  30.621  32.033  1.00  0.00    -0.354 N 
ATOM     29  N   UNL A   1      44.582  28.918  28.119  1.00  0.00    -0.248 NA
ATOM     30  C   UNL A   1      43.872  27.185  29.507  1.00  0.00     0.031 C 
ATOM     31  C   UNL A   1      43.482  32.582  31.131  1.00  0.00     0.029 A 
ATOM     32  C   UNL A   1      44.026  31.321  30.880  1.00  0.00     0.049 A 
ATOM     33  H   UNL A   1      44.345  29.892  32.395  1.00  0.00     0.167 HD
ATOM     34  C   UNL A   1      44.583  29.393  29.422  1.00  0.00     0.074 A 
ATOM     35  C   UNL A   1      44.240  28.237  30.245  1.00  0.00     0.031 C 
ATOM     36  C   UNL A   1      44.587  30.734  29.682  1.00  0.00     0.031 A 
BRANCH  23  37
ATOM     37  C   UNL A   1      42.051  29.090  34.069  1.00  0.00    -0.014 A 
ATOM     38  C   UNL A   1      41.868  27.740  33.703  1.00  0.00     0.010 A 
ATOM     39  C   UNL A   1      42.282  29.349  35.437  1.00  0.00     0.010 A 
ATOM     40  C   UNL A   1      41.812  26.724  34.668  1.00  0.00     0.020 A 
ATOM     41  C   UNL A   1      42.280  28.340  36.400  1.00  0.00     0.020 A 
ATOM     42  C   UNL A   1      41.998  27.038  36.015  1.00  0.00     0.054 A 
BRANCH  42  43
ATOM     43  S   UNL A   1      41.792  25.750  37.267  1.00  0.00     0.124 S 
ATOM     44  O   UNL A   1      42.121  24.547  36.511  1.00  0.00    -0.237 OA
ATOM     45  O   UNL A   1      42.762  26.149  38.283  1.00  0.00    -0.237 OA
ATOM     46  O   UNL A   1      40.391  25.882  37.665  1.00  0.00    -0.744 OA
ENDBRANCH  42  43
ENDBRANCH  23  37
BRANCH  24  47
ATOM     47  C   UNL A   1      43.239  25.953  26.471  1.00  0.00    -0.014 A 
ATOM     48  C   UNL A   1      44.313  25.723  25.591  1.00  0.00     0.010 A 
ATOM     49  C   UNL A   1      42.513  24.832  26.922  1.00  0.00     0.010 A 
ATOM     50  C   UNL A   1      44.686  24.417  25.231  1.00  0.00     0.020 A 
ATOM     51  C   UNL A   1      42.869  23.529  26.558  1.00  0.00     0.020 A 
ATOM     52  C   UNL A   1      43.972  23.326  25.734  1.00  0.00     0.054 A 
BRANCH  52  53
ATOM     53  S   UNL A   1      44.568  21.639  25.417  1.00  0.00     0.124 S 
ATOM     54  O   UNL A   1      43.635  20.828  26.194  1.00  0.00    -0.237 OA
ATOM     55  O   UNL A   1      44.447  21.525  23.967  1.00  0.00    -0.237 OA
ATOM     56  O   UNL A   1      45.940  21.657  25.921  1.00  0.00    -0.744 OA
ENDBRANCH  52  53
ENDBRANCH  24  47
BRANCH  36  57
ATOM     57  C   UNL A   1      44.954  31.688  28.571  1.00  0.00    -0.014 A 
ATOM     58  C   UNL A   1      44.025  32.226  27.659  1.00  0.00     0.010 A 
ATOM     59  C   UNL A   1      46.278  32.160  28.532  1.00  0.00     0.010 A 
ATOM     60  C   UNL A   1      44.422  33.177  26.708  1.00  0.00     0.020 A 
ATOM     61  C   UNL A   1      46.676  33.122  27.603  1.00  0.00     0.020 A 
ATOM     62  C   UNL A   1      45.749  33.617  26.686  1.00  0.00     0.054 A 
BRANCH  62  63
ATOM     63  S   UNL A   1      46.250  34.873  25.477  1.00  0.00     0.124 S 
ATOM     64  O   UNL A   1      47.667  34.577  25.279  1.00  0.00    -0.237 OA
ATOM     65  O   UNL A   1      45.382  34.590  24.336  1.00  0.00    -0.237 OA
ATOM     66  O   UNL A   1      45.972  36.140  26.153  1.00  0.00    -0.744 OA
ENDBRANCH  62  63
ENDBRANCH  36  57
ENDBRANCH  10  11
ENDBRANCH   3   5
ENDBRANCH   2   3
ENDBRANCH   1   2
BRANCH   1  67
ATOM     67  C   UNL A   1      32.242  29.920  25.362  1.00  0.00     0.275 C 
BRANCH  67  68
ATOM     68  O   UNL A   1      30.956  29.720  24.761  1.00  0.00    -0.457 OA
BRANCH  68  69
ATOM     69  C   UNL A   1      30.946  28.950  23.629  1.00  0.00     0.360 C 
ATOM     70  O   UNL A   1      30.891  29.371  22.490  1.00  0.00    -0.244 OA
BRANCH  69  71
ATOM     71  C   UNL A   1      30.959  27.545  23.972  1.00  0.00     0.190 A 
ATOM     72  C   UNL A   1      32.047  26.698  23.984  1.00  0.00     0.147 A 
ATOM     73  N   UNL A   1      29.832  26.842  24.305  1.00  0.00    -0.123 NA
ATOM     74  N   UNL A   1      31.514  25.493  24.337  1.00  0.00    -0.237 N 
ATOM     75  N   UNL A   1      30.183  25.581  24.508  1.00  0.00    -0.066 NA
BRANCH  74  76
ATOM     76  C   UNL A   1      32.186  24.250  24.543  1.00  0.00     0.218 C 
ATOM     77  C   UNL A   1      31.657  23.342  25.676  1.00  0.00     0.296 C 
ATOM     78  C   UNL A   1      31.665  23.133  23.602  1.00  0.00     0.296 C 
ATOM     79  N   UNL A   1      31.642  22.198  24.745  1.00  0.00    -0.327 N 
ATOM     80  H   UNL A   1      30.916  21.484  24.812  1.00  0.00     0.348 HD
BRANCH  79  81
ATOM     81  C   UNL A   1      32.828  21.314  24.845  1.00  0.00     0.302 C 
BRANCH  81  82
ATOM     82  C   UNL A   1      32.699  19.842  24.521  1.00  0.00     0.045 A 
ATOM     83  C   UNL A   1      32.899  18.854  25.499  1.00  0.00     0.051 A 
ATOM     84  C   UNL A   1      32.422  19.424  23.212  1.00  0.00     0.132 A 
ATOM     85  C   UNL A   1      32.922  17.509  25.139  1.00  0.00     0.123 A 
ATOM     86  C   UNL A   1      32.410  18.074  22.863  1.00  0.00     0.043 A 
ATOM     87  F   UNL A   1      32.188  20.334  22.255  1.00  0.00    -0.206 F 
ATOM     88  F   UNL A   1      33.223  16.592  26.065  1.00  0.00    -0.207 F 
ATOM     89  C   UNL A   1      32.686  17.110  23.830  1.00  0.00     0.042 A 
ENDBRANCH  81  82
ENDBRANCH  79  81
ENDBRANCH  74  76
ENDBRANCH  69  71
ENDBRANCH  68  69
ENDBRANCH  67  68
ENDBRANCH   1  67
TORSDOF 17
ENDMDL
MODEL 3
REMARK VINA RESULT:     -11.1      4.334     10.582
REMARK SMILES O=C(OCCOC(=O)c1cn(C2C[NH+](Cc3cc(F)ccc3F)C2)nn1)c1ccc(-c2c3nc(c(-c4ccc(S(=O)(=O)[O-])cc4)c4ccc([nH]4)c(-c4ccc(S(=O)(=O)[O-])cc4)c4nc(c(-c5ccc(S(=O)(=O)[O-])cc5)c5ccc2[nH]5)C=C4)C=C3)cc1
REMARK SMILES IDX 4 1 3 2 2 3 1 4 27 5 28 6 86 7 29 8 85 9 30 10 31 11 32 12
REMARK SMILES IDX 79 13 33 14 84 15 78 16 80 17 34 18 83 19 77 20 76 21 35 23
REMARK SMILES IDX 65 24 46 25 64 26 47 27 50 28 63 29 81 30 48 31 49 32 62 34
REMARK SMILES IDX 82 35 51 36 36 37 37 38 45 39 38 40 44 41 39 42 40 43 41 44
REMARK SMILES IDX 42 45 43 46 66 47 67 48 75 49 68 50 74 51 69 52 70 53 71 54
REMARK SMILES IDX 72 55 73 56 52 57 53 58 61 59 54 60 60 61 55 62 56 63 57 64
REMARK SMILES IDX 58 65 59 66 5 67 6 68 7 69 8 70 9 71 10 72 26 73 11 74 25 75
REMARK SMILES IDX 12 76 13 77 24 78 14 79 15 81 16 82 17 83 22 84 18 85 21 86
REMARK SMILES IDX 23 87 19 88 20 89
REMARK H PARENT 80 22 50 33 14 80
REMARK Flexibility Score: inf
ROOT
ATOM      1  C   UNL A   1      36.347  21.487  25.876  1.00  0.00     0.275 C 
ENDROOT
BRANCH   1   2
ATOM      2  O   UNL A   1      37.487  22.257  25.443  1.00  0.00    -0.458 OA
BRANCH   2   3
ATOM      3  C   UNL A   1      38.692  22.051  26.024  1.00  0.00     0.338 C 
ATOM      4  O   UNL A   1      39.382  21.064  25.821  1.00  0.00    -0.246 OA
BRANCH   3   5
ATOM      5  C   UNL A   1      39.173  23.263  26.725  1.00  0.00     0.060 A 
ATOM      6  C   UNL A   1      38.482  24.477  26.650  1.00  0.00     0.016 A 
ATOM      7  C   UNL A   1      40.360  23.177  27.464  1.00  0.00     0.016 A 
ATOM      8  C   UNL A   1      39.011  25.615  27.236  1.00  0.00     0.010 A 
ATOM      9  C   UNL A   1      40.893  24.319  28.053  1.00  0.00     0.010 A 
ATOM     10  C   UNL A   1      40.231  25.541  27.908  1.00  0.00    -0.014 A 
BRANCH  10  11
ATOM     11  C   UNL A   1      40.709  26.757  28.559  1.00  0.00     0.031 A 
ATOM     12  C   UNL A   1      41.959  27.325  27.985  1.00  0.00     0.074 A 
ATOM     13  C   UNL A   1      40.017  27.407  29.514  1.00  0.00     0.049 A 
ATOM     14  N   UNL A   1      43.106  27.497  28.559  1.00  0.00    -0.248 NA
ATOM     15  C   UNL A   1      41.953  27.646  26.548  1.00  0.00     0.031 C 
ATOM     16  C   UNL A   1      38.652  27.127  29.963  1.00  0.00     0.029 A 
ATOM     17  N   UNL A   1      40.345  28.542  30.197  1.00  0.00    -0.354 N 
ATOM     18  C   UNL A   1      43.900  28.158  27.624  1.00  0.00     0.074 A 
ATOM     19  C   UNL A   1      43.204  28.067  26.366  1.00  0.00     0.031 C 
ATOM     20  C   UNL A   1      38.187  28.194  30.649  1.00  0.00     0.029 A 
ATOM     21  C   UNL A   1      39.257  29.169  30.792  1.00  0.00     0.049 A 
ATOM     22  H   UNL A   1      41.266  28.885  30.261  1.00  0.00     0.167 HD
ATOM     23  C   UNL A   1      44.940  28.958  27.992  1.00  0.00     0.031 A 
ATOM     24  C   UNL A   1      39.211  30.430  31.292  1.00  0.00     0.031 A 
ATOM     25  C   UNL A   1      45.380  28.695  29.337  1.00  0.00     0.049 A 
ATOM     26  C   UNL A   1      40.604  30.872  31.536  1.00  0.00     0.074 A 
ATOM     27  C   UNL A   1      45.827  27.580  30.020  1.00  0.00     0.029 A 
ATOM     28  N   UNL A   1      45.062  29.622  30.301  1.00  0.00    -0.354 N 
ATOM     29  N   UNL A   1      41.371  30.366  32.461  1.00  0.00    -0.248 NA
ATOM     30  C   UNL A   1      41.294  31.611  30.491  1.00  0.00     0.031 C 
ATOM     31  C   UNL A   1      45.300  27.719  31.338  1.00  0.00     0.029 A 
ATOM     32  C   UNL A   1      44.615  28.934  31.397  1.00  0.00     0.049 A 
ATOM     33  H   UNL A   1      45.140  30.600  30.218  1.00  0.00     0.167 HD
ATOM     34  C   UNL A   1      42.638  30.347  31.898  1.00  0.00     0.074 A 
ATOM     35  C   UNL A   1      42.550  31.229  30.738  1.00  0.00     0.031 C 
ATOM     36  C   UNL A   1      43.556  29.403  32.265  1.00  0.00     0.031 A 
BRANCH  23  37
ATOM     37  C   UNL A   1      45.254  30.264  27.289  1.00  0.00    -0.014 A 
ATOM     38  C   UNL A   1      46.596  30.568  26.976  1.00  0.00     0.010 A 
ATOM     39  C   UNL A   1      44.329  31.326  27.208  1.00  0.00     0.010 A 
ATOM     40  C   UNL A   1      47.001  31.883  26.704  1.00  0.00     0.020 A 
ATOM     41  C   UNL A   1      44.712  32.628  26.888  1.00  0.00     0.020 A 
ATOM     42  C   UNL A   1      46.054  32.908  26.683  1.00  0.00     0.054 A 
BRANCH  42  43
ATOM     43  S   UNL A   1      46.598  34.619  26.466  1.00  0.00     0.124 S 
ATOM     44  O   UNL A   1      45.948  34.979  25.210  1.00  0.00    -0.237 OA
ATOM     45  O   UNL A   1      46.069  35.265  27.664  1.00  0.00    -0.237 OA
ATOM     46  O   UNL A   1      48.054  34.510  26.414  1.00  0.00    -0.744 OA
ENDBRANCH  42  43
ENDBRANCH  23  37
BRANCH  24  47
ATOM     47  C   UNL A   1      38.063  31.372  31.295  1.00  0.00    -0.014 A 
ATOM     48  C   UNL A   1      36.762  30.929  31.597  1.00  0.00     0.010 A 
ATOM     49  C   UNL A   1      38.288  32.763  31.265  1.00  0.00     0.010 A 
ATOM     50  C   UNL A   1      35.743  31.842  31.920  1.00  0.00     0.020 A 
ATOM     51  C   UNL A   1      37.277  33.680  31.571  1.00  0.00     0.020 A 
ATOM     52  C   UNL A   1      36.014  33.213  31.924  1.00  0.00     0.054 A 
BRANCH  52  53
ATOM     53  S   UNL A   1      34.752  34.376  32.520  1.00  0.00     0.124 S 
ATOM     54  O   UNL A   1      34.337  35.043  31.289  1.00  0.00    -0.237 OA
ATOM     55  O   UNL A   1      33.760  33.490  33.123  1.00  0.00    -0.237 OA
ATOM     56  O   UNL A   1      35.480  35.220  33.466  1.00  0.00    -0.744 OA
ENDBRANCH  52  53
ENDBRANCH  24  47
BRANCH  36  57
ATOM     57  C   UNL A   1      43.321  28.613  33.529  1.00  0.00    -0.014 A 
ATOM     58  C   UNL A   1      43.512  29.129  34.825  1.00  0.00     0.010 A 
ATOM     59  C   UNL A   1      42.757  27.331  33.397  1.00  0.00     0.010 A 
ATOM     60  C   UNL A   1      43.187  28.366  35.956  1.00  0.00     0.020 A 
ATOM     61  C   UNL A   1      42.410  26.575  34.517  1.00  0.00     0.020 A 
ATOM     62  C   UNL A   1      42.639  27.090  35.793  1.00  0.00     0.054 A 
BRANCH  62  63
ATOM     63  S   UNL A   1      42.189  26.121  37.258  1.00  0.00     0.124 S 
ATOM     64  O   UNL A   1      40.853  26.621  37.573  1.00  0.00    -0.237 OA
ATOM     65  O   UNL A   1      42.248  24.745  36.769  1.00  0.00    -0.237 OA
ATOM     66  O   UNL A   1      43.223  26.464  38.235  1.00  0.00    -0.744 OA
ENDBRANCH  62  63
ENDBRANCH  36  57
ENDBRANCH  10  11
ENDBRANCH   3   5
ENDBRANCH   2   3
ENDBRANCH   1   2
BRANCH   1  67
ATOM     67  C   UNL A   1      35.023  21.739  25.157  1.00  0.00     0.275 C 
BRANCH  67  68
ATOM     68  O   UNL A   1      34.038  22.179  26.101  1.00  0.00    -0.457 OA
BRANCH  68  69
ATOM     69  C   UNL A   1      32.808  22.478  25.577  1.00  0.00     0.360 C 
ATOM     70  O   UNL A   1      32.149  21.747  24.865  1.00  0.00    -0.244 OA
BRANCH  69  71
ATOM     71  C   UNL A   1      32.414  23.820  25.945  1.00  0.00     0.190 A 
ATOM     72  C   UNL A   1      33.032  24.999  25.587  1.00  0.00     0.147 A 
ATOM     73  N   UNL A   1      31.353  24.094  26.766  1.00  0.00    -0.123 NA
ATOM     74  N   UNL A   1      32.294  25.956  26.220  1.00  0.00    -0.237 N 
ATOM     75  N   UNL A   1      31.300  25.406  26.942  1.00  0.00    -0.066 NA
BRANCH  74  76
ATOM     76  C   UNL A   1      32.452  27.374  26.178  1.00  0.00     0.218 C 
ATOM     77  C   UNL A   1      31.905  28.180  27.377  1.00  0.00     0.296 C 
ATOM     78  C   UNL A   1      33.842  27.830  26.692  1.00  0.00     0.296 C 
ATOM     79  N   UNL A   1      33.189  28.901  27.472  1.00  0.00    -0.327 N 
ATOM     80  H   UNL A   1      33.563  29.177  28.380  1.00  0.00     0.348 HD
BRANCH  79  81
ATOM     81  C   UNL A   1      33.193  30.232  26.819  1.00  0.00     0.302 C 
BRANCH  81  82
ATOM     82  C   UNL A   1      33.964  31.374  27.443  1.00  0.00     0.045 A 
ATOM     83  C   UNL A   1      33.340  32.589  27.769  1.00  0.00     0.051 A 
ATOM     84  C   UNL A   1      35.343  31.262  27.667  1.00  0.00     0.132 A 
ATOM     85  C   UNL A   1      34.102  33.671  28.202  1.00  0.00     0.123 A 
ATOM     86  C   UNL A   1      36.097  32.338  28.134  1.00  0.00     0.043 A 
ATOM     87  F   UNL A   1      35.971  30.107  27.403  1.00  0.00    -0.206 F 
ATOM     88  F   UNL A   1      33.504  34.851  28.403  1.00  0.00    -0.207 F 
ATOM     89  C   UNL A   1      35.475  33.559  28.381  1.00  0.00     0.042 A 
ENDBRANCH  81  82
ENDBRANCH  79  81
ENDBRANCH  74  76
ENDBRANCH  69  71
ENDBRANCH  68  69
ENDBRANCH  67  68
ENDBRANCH   1  67
TORSDOF 17
ENDMDL
