MODEL 1
REMARK VINA RESULT:     -11.2      0.000      0.000
REMARK SMILES Cc1nn(C)c2c1nc(SCC(=O)OCCOC(=O)c1ccc(-c3c4nc(c(-c5ccc(S(=O)(=O)[O-])cc5)c5ccc([nH]5)c(-c5ccc(S(=O)(=O)[O-])cc5)c5nc(c(-c6ccc(S(=O)(=O)[O-])cc6)c6ccc3[nH]6)C=C5)C=C4)cc1)n2[C@H]1CC[N@@H+](C)C1
REMARK SMILES IDX 15 1 14 2 12 3 13 4 11 5 10 6 9 7 1 8 2 9 3 10 7 11 4 12
REMARK SMILES IDX 6 13 8 14 5 15 80 16 81 17 82 18 86 19 83 20 84 21 85 22
REMARK SMILES IDX 16 24 17 25 18 26 19 27 20 28 21 29 79 30 22 31 78 32 23 33
REMARK SMILES IDX 24 34 25 35 72 36 26 37 77 38 71 39 73 40 27 41 76 42 70 43
REMARK SMILES IDX 69 44 28 46 58 47 39 48 57 49 40 50 43 51 56 52 74 53 41 54
REMARK SMILES IDX 42 55 55 57 75 58 44 59 29 60 30 61 38 62 31 63 37 64 32 65
REMARK SMILES IDX 33 66 34 67 35 68 36 69 59 70 60 71 68 72 61 73 67 74 62 75
REMARK SMILES IDX 63 76 64 77 65 78 66 79 45 80 46 81 54 82 47 83 53 84 48 85
REMARK SMILES IDX 49 86 50 87 51 88 52 89
REMARK H PARENT 84 23 73 45 43 56
REMARK Flexibility Score: inf
ROOT
ATOM      1  C   UNL A   1      41.686  22.539  28.313  1.00  0.00     0.274 C 
ENDROOT
BRANCH   1   2
ATOM      2  O   UNL A   1      40.853  22.497  27.130  1.00  0.00    -0.461 OA
BRANCH   2   3
ATOM      3  C   UNL A   1      39.701  23.222  27.165  1.00  0.00     0.316 C 
ATOM      4  O   UNL A   1      39.558  24.218  27.876  1.00  0.00    -0.251 OA
BRANCH   3   5
ATOM      5  C   UNL A   1      38.581  22.740  26.255  1.00  0.00     0.200 C 
BRANCH   5   6
ATOM      6  S   UNL A   1      37.135  23.809  26.084  1.00  0.00    -0.076 SA
BRANCH   6   7
ATOM      7  C   UNL A   1      35.934  22.867  25.218  1.00  0.00     0.171 A 
ATOM      8  C   UNL A   1      34.044  18.763  24.781  1.00  0.00     0.071 C 
ATOM      9  C   UNL A   1      33.876  20.175  24.467  1.00  0.00     0.087 A 
ATOM     10  N   UNL A   1      32.673  20.546  24.034  1.00  0.00    -0.174 NA
ATOM     11  C   UNL A   1      34.694  21.288  24.624  1.00  0.00     0.132 A 
ATOM     12  N   UNL A   1      32.700  21.887  24.026  1.00  0.00    -0.250 N 
ATOM     13  C   UNL A   1      33.920  22.383  24.415  1.00  0.00     0.159 A 
ATOM     14  N   UNL A   1      35.952  21.563  25.034  1.00  0.00    -0.219 NA
ATOM     15  C   UNL A   1      31.414  22.482  23.753  1.00  0.00     0.176 C 
ATOM     16  N   UNL A   1      34.734  23.439  24.753  1.00  0.00    -0.295 N 
BRANCH  16  17
ATOM     17  C   UNL A   1      34.477  24.872  24.763  1.00  0.00     0.152 C 
ATOM     18  C   UNL A   1      33.944  25.386  23.420  1.00  0.00     0.093 C 
ATOM     19  C   UNL A   1      33.446  25.369  25.770  1.00  0.00     0.288 C 
ATOM     20  C   UNL A   1      32.463  25.599  23.666  1.00  0.00     0.264 C 
ATOM     21  N   UNL A   1      32.432  26.131  25.032  1.00  0.00    -0.336 N 
ATOM     22  C   UNL A   1      31.108  25.937  25.635  1.00  0.00     0.332 C 
ATOM     23  H   UNL A   1      32.619  27.133  25.050  1.00  0.00     0.347 HD
ENDBRANCH  16  17
ENDBRANCH   6   7
ENDBRANCH   5   6
ENDBRANCH   3   5
ENDBRANCH   2   3
ENDBRANCH   1   2
BRANCH   1  24
ATOM     24  C   UNL A   1      42.886  23.483  28.152  1.00  0.00     0.275 C 
BRANCH  24  25
ATOM     25  O   UNL A   1      42.664  24.764  28.763  1.00  0.00    -0.458 OA
BRANCH  25  26
ATOM     26  C   UNL A   1      43.766  25.198  29.411  1.00  0.00     0.338 C 
ATOM     27  O   UNL A   1      44.508  24.498  30.072  1.00  0.00    -0.246 OA
BRANCH  26  28
ATOM     28  C   UNL A   1      43.911  26.653  29.413  1.00  0.00     0.060 A 
ATOM     29  C   UNL A   1      43.864  27.277  30.662  1.00  0.00     0.016 A 
ATOM     30  C   UNL A   1      43.622  27.340  28.230  1.00  0.00     0.016 A 
ATOM     31  C   UNL A   1      43.294  28.528  30.739  1.00  0.00     0.010 A 
ATOM     32  C   UNL A   1      43.029  28.585  28.317  1.00  0.00     0.010 A 
ATOM     33  C   UNL A   1      42.745  29.102  29.579  1.00  0.00    -0.014 A 
BRANCH  33  34
ATOM     34  C   UNL A   1      41.809  30.216  29.767  1.00  0.00     0.031 A 
ATOM     35  C   UNL A   1      42.490  31.526  29.851  1.00  0.00     0.074 A 
ATOM     36  C   UNL A   1      40.474  30.046  29.899  1.00  0.00     0.049 A 
ATOM     37  N   UNL A   1      42.475  32.398  30.806  1.00  0.00    -0.248 NA
ATOM     38  C   UNL A   1      43.464  31.802  28.780  1.00  0.00     0.031 C 
ATOM     39  C   UNL A   1      39.718  28.801  29.704  1.00  0.00     0.029 A 
ATOM     40  N   UNL A   1      39.490  30.953  30.184  1.00  0.00    -0.354 N 
ATOM     41  C   UNL A   1      43.287  33.431  30.353  1.00  0.00     0.074 A 
ATOM     42  C   UNL A   1      44.018  32.927  29.219  1.00  0.00     0.031 C 
ATOM     43  C   UNL A   1      38.399  29.076  29.666  1.00  0.00     0.029 A 
ATOM     44  C   UNL A   1      38.209  30.501  29.872  1.00  0.00     0.049 A 
ATOM     45  H   UNL A   1      39.668  31.839  30.571  1.00  0.00     0.167 HD
ATOM     46  C   UNL A   1      43.068  34.724  30.707  1.00  0.00     0.031 A 
ATOM     47  C   UNL A   1      37.090  31.244  29.655  1.00  0.00     0.031 A 
ATOM     48  C   UNL A   1      42.389  34.853  31.963  1.00  0.00     0.049 A 
ATOM     49  C   UNL A   1      37.321  32.586  30.242  1.00  0.00     0.074 A 
ATOM     50  C   UNL A   1      42.684  34.488  33.260  1.00  0.00     0.029 A 
ATOM     51  N   UNL A   1      41.047  35.143  31.935  1.00  0.00    -0.354 N 
ATOM     52  N   UNL A   1      37.370  32.825  31.523  1.00  0.00    -0.248 NA
ATOM     53  C   UNL A   1      37.940  33.598  29.398  1.00  0.00     0.031 C 
ATOM     54  C   UNL A   1      41.434  34.178  33.860  1.00  0.00     0.029 A 
ATOM     55  C   UNL A   1      40.431  34.406  32.914  1.00  0.00     0.049 A 
ATOM     56  H   UNL A   1      40.603  35.772  31.320  1.00  0.00     0.167 HD
ATOM     57  C   UNL A   1      38.366  33.783  31.671  1.00  0.00     0.074 A 
ATOM     58  C   UNL A   1      38.618  34.280  30.323  1.00  0.00     0.031 C 
ATOM     59  C   UNL A   1      39.077  33.894  32.830  1.00  0.00     0.031 A 
BRANCH  46  60
ATOM     60  C   UNL A   1      43.096  35.805  29.658  1.00  0.00    -0.014 A 
ATOM     61  C   UNL A   1      43.769  37.012  29.905  1.00  0.00     0.010 A 
ATOM     62  C   UNL A   1      42.246  35.763  28.528  1.00  0.00     0.010 A 
ATOM     63  C   UNL A   1      43.574  38.125  29.074  1.00  0.00     0.020 A 
ATOM     64  C   UNL A   1      42.086  36.840  27.666  1.00  0.00     0.020 A 
ATOM     65  C   UNL A   1      42.728  38.030  27.964  1.00  0.00     0.054 A 
BRANCH  65  66
ATOM     66  S   UNL A   1      42.403  39.489  26.949  1.00  0.00     0.124 S 
ATOM     67  O   UNL A   1      42.249  40.528  27.961  1.00  0.00    -0.237 OA
ATOM     68  O   UNL A   1      43.609  39.571  26.130  1.00  0.00    -0.237 OA
ATOM     69  O   UNL A   1      41.185  39.137  26.221  1.00  0.00    -0.744 OA
ENDBRANCH  65  66
ENDBRANCH  46  60
BRANCH  47  70
ATOM     70  C   UNL A   1      36.035  30.958  28.636  1.00  0.00    -0.014 A 
ATOM     71  C   UNL A   1      35.923  29.705  28.003  1.00  0.00     0.010 A 
ATOM     72  C   UNL A   1      34.967  31.862  28.451  1.00  0.00     0.010 A 
ATOM     73  C   UNL A   1      34.768  29.364  27.264  1.00  0.00     0.020 A 
ATOM     74  C   UNL A   1      33.832  31.545  27.702  1.00  0.00     0.020 A 
ATOM     75  C   UNL A   1      33.724  30.284  27.132  1.00  0.00     0.054 A 
BRANCH  75  76
ATOM     76  S   UNL A   1      32.164  29.798  26.337  1.00  0.00     0.124 S 
ATOM     77  O   UNL A   1      32.627  29.131  25.124  1.00  0.00    -0.237 OA
ATOM     78  O   UNL A   1      31.550  28.935  27.342  1.00  0.00    -0.237 OA
ATOM     79  O   UNL A   1      31.478  31.070  26.119  1.00  0.00    -0.744 OA
ENDBRANCH  75  76
ENDBRANCH  47  70
BRANCH  59  80
ATOM     80  C   UNL A   1      38.544  33.225  34.076  1.00  0.00    -0.014 A 
ATOM     81  C   UNL A   1      38.897  31.920  34.470  1.00  0.00     0.010 A 
ATOM     82  C   UNL A   1      37.802  34.019  34.969  1.00  0.00     0.010 A 
ATOM     83  C   UNL A   1      38.512  31.424  35.727  1.00  0.00     0.020 A 
ATOM     84  C   UNL A   1      37.428  33.536  36.225  1.00  0.00     0.020 A 
ATOM     85  C   UNL A   1      37.781  32.238  36.599  1.00  0.00     0.054 A 
BRANCH  85  86
ATOM     86  S   UNL A   1      37.354  31.625  38.255  1.00  0.00     0.124 S 
ATOM     87  O   UNL A   1      36.143  32.376  38.572  1.00  0.00    -0.237 OA
ATOM     88  O   UNL A   1      37.165  30.190  38.049  1.00  0.00    -0.237 OA
ATOM     89  O   UNL A   1      38.522  31.971  39.066  1.00  0.00    -0.744 OA
ENDBRANCH  85  86
ENDBRANCH  59  80
ENDBRANCH  33  34
ENDBRANCH  26  28
ENDBRANCH  25  26
ENDBRANCH  24  25
ENDBRANCH   1  24
TORSDOF 17
ENDMDL
MODEL 2
REMARK VINA RESULT:     -10.8      3.720      5.031
REMARK SMILES Cc1nn(C)c2c1nc(SCC(=O)OCCOC(=O)c1ccc(-c3c4nc(c(-c5ccc(S(=O)(=O)[O-])cc5)c5ccc([nH]5)c(-c5ccc(S(=O)(=O)[O-])cc5)c5nc(c(-c6ccc(S(=O)(=O)[O-])cc6)c6ccc3[nH]6)C=C5)C=C4)cc1)n2[C@H]1CC[N@@H+](C)C1
REMARK SMILES IDX 15 1 14 2 12 3 13 4 11 5 10 6 9 7 1 8 2 9 3 10 7 11 4 12
REMARK SMILES IDX 6 13 8 14 5 15 80 16 81 17 82 18 86 19 83 20 84 21 85 22
REMARK SMILES IDX 16 24 17 25 18 26 19 27 20 28 21 29 79 30 22 31 78 32 23 33
REMARK SMILES IDX 24 34 25 35 72 36 26 37 77 38 71 39 73 40 27 41 76 42 70 43
REMARK SMILES IDX 69 44 28 46 58 47 39 48 57 49 40 50 43 51 56 52 74 53 41 54
REMARK SMILES IDX 42 55 55 57 75 58 44 59 29 60 30 61 38 62 31 63 37 64 32 65
REMARK SMILES IDX 33 66 34 67 35 68 36 69 59 70 60 71 68 72 61 73 67 74 62 75
REMARK SMILES IDX 63 76 64 77 65 78 66 79 45 80 46 81 54 82 47 83 53 84 48 85
REMARK SMILES IDX 49 86 50 87 51 88 52 89
REMARK H PARENT 84 23 73 45 43 56
REMARK Flexibility Score: inf
ROOT
ATOM      1  C   UNL A   1      39.715  20.831  26.404  1.00  0.00     0.274 C 
ENDROOT
BRANCH   1   2
ATOM      2  O   UNL A   1      39.132  21.921  25.651  1.00  0.00    -0.461 OA
BRANCH   2   3
ATOM      3  C   UNL A   1      38.743  23.016  26.359  1.00  0.00     0.316 C 
ATOM      4  O   UNL A   1      39.450  23.545  27.218  1.00  0.00    -0.251 OA
BRANCH   3   5
ATOM      5  C   UNL A   1      37.367  23.575  26.023  1.00  0.00     0.200 C 
BRANCH   5   6
ATOM      6  S   UNL A   1      36.812  23.430  24.310  1.00  0.00    -0.076 SA
BRANCH   6   7
ATOM      7  C   UNL A   1      35.212  22.712  24.378  1.00  0.00     0.171 A 
ATOM      8  C   UNL A   1      32.886  18.902  25.201  1.00  0.00     0.071 C 
ATOM      9  C   UNL A   1      32.767  20.346  25.065  1.00  0.00     0.087 A 
ATOM     10  N   UNL A   1      31.622  20.887  25.477  1.00  0.00    -0.174 NA
ATOM     11  C   UNL A   1      33.658  21.342  24.681  1.00  0.00     0.132 A 
ATOM     12  N   UNL A   1      31.832  22.212  25.458  1.00  0.00    -0.250 N 
ATOM     13  C   UNL A   1      33.088  22.531  25.003  1.00  0.00     0.159 A 
ATOM     14  N   UNL A   1      34.924  21.436  24.219  1.00  0.00    -0.219 NA
ATOM     15  C   UNL A   1      30.755  22.969  26.048  1.00  0.00     0.176 C 
ATOM     16  N   UNL A   1      34.080  23.454  24.763  1.00  0.00    -0.295 N 
BRANCH  16  17
ATOM     17  C   UNL A   1      34.094  24.899  24.937  1.00  0.00     0.152 C 
ATOM     18  C   UNL A   1      33.759  25.653  23.644  1.00  0.00     0.093 C 
ATOM     19  C   UNL A   1      33.108  25.471  25.949  1.00  0.00     0.288 C 
ATOM     20  C   UNL A   1      32.330  26.120  23.847  1.00  0.00     0.264 C 
ATOM     21  N   UNL A   1      32.307  26.493  25.265  1.00  0.00    -0.336 N 
ATOM     22  C   UNL A   1      30.932  26.493  25.778  1.00  0.00     0.332 C 
ATOM     23  H   UNL A   1      32.676  27.431  25.413  1.00  0.00     0.347 HD
ENDBRANCH  16  17
ENDBRANCH   6   7
ENDBRANCH   5   6
ENDBRANCH   3   5
ENDBRANCH   2   3
ENDBRANCH   1   2
BRANCH   1  24
ATOM     24  C   UNL A   1      41.217  20.668  26.133  1.00  0.00     0.275 C 
BRANCH  24  25
ATOM     25  O   UNL A   1      41.821  21.874  25.639  1.00  0.00    -0.458 OA
BRANCH  25  26
ATOM     26  C   UNL A   1      43.168  21.774  25.608  1.00  0.00     0.338 C 
ATOM     27  O   UNL A   1      43.789  20.731  25.567  1.00  0.00    -0.246 OA
BRANCH  26  28
ATOM     28  C   UNL A   1      43.856  23.047  25.817  1.00  0.00     0.060 A 
ATOM     29  C   UNL A   1      44.563  23.177  27.014  1.00  0.00     0.016 A 
ATOM     30  C   UNL A   1      43.408  24.158  25.096  1.00  0.00     0.016 A 
ATOM     31  C   UNL A   1      44.610  24.420  27.606  1.00  0.00     0.010 A 
ATOM     32  C   UNL A   1      43.437  25.398  25.707  1.00  0.00     0.010 A 
ATOM     33  C   UNL A   1      43.912  25.486  27.013  1.00  0.00    -0.014 A 
BRANCH  33  34
ATOM     34  C   UNL A   1      43.647  26.658  27.856  1.00  0.00     0.031 A 
ATOM     35  C   UNL A   1      44.801  27.580  27.930  1.00  0.00     0.074 A 
ATOM     36  C   UNL A   1      42.487  26.839  28.527  1.00  0.00     0.049 A 
ATOM     37  N   UNL A   1      45.465  27.980  28.966  1.00  0.00    -0.248 NA
ATOM     38  C   UNL A   1      45.394  27.958  26.635  1.00  0.00     0.031 C 
ATOM     39  C   UNL A   1      41.261  26.039  28.405  1.00  0.00     0.029 A 
ATOM     40  N   UNL A   1      42.126  27.805  29.426  1.00  0.00    -0.354 N 
ATOM     41  C   UNL A   1      46.438  28.829  28.455  1.00  0.00     0.074 A 
ATOM     42  C   UNL A   1      46.478  28.616  27.030  1.00  0.00     0.031 C 
ATOM     43  C   UNL A   1      40.247  26.671  29.027  1.00  0.00     0.029 A 
ATOM     44  C   UNL A   1      40.750  27.895  29.624  1.00  0.00     0.049 A 
ATOM     45  H   UNL A   1      42.775  28.382  29.888  1.00  0.00     0.167 HD
ATOM     46  C   UNL A   1      46.911  29.888  29.161  1.00  0.00     0.031 A 
ATOM     47  C   UNL A   1      40.043  28.950  30.112  1.00  0.00     0.031 A 
ATOM     48  C   UNL A   1      46.798  29.711  30.579  1.00  0.00     0.049 A 
ATOM     49  C   UNL A   1      40.992  29.834  30.829  1.00  0.00     0.074 A 
ATOM     50  C   UNL A   1      47.317  28.805  31.480  1.00  0.00     0.029 A 
ATOM     51  N   UNL A   1      45.773  30.359  31.224  1.00  0.00    -0.354 N 
ATOM     52  N   UNL A   1      41.551  29.536  31.969  1.00  0.00    -0.248 NA
ATOM     53  C   UNL A   1      41.667  30.871  30.062  1.00  0.00     0.031 C 
ATOM     54  C   UNL A   1      46.323  28.659  32.485  1.00  0.00     0.029 A 
ATOM     55  C   UNL A   1      45.260  29.510  32.171  1.00  0.00     0.049 A 
ATOM     56  H   UNL A   1      45.460  31.274  31.039  1.00  0.00     0.167 HD
ATOM     57  C   UNL A   1      42.844  30.034  31.876  1.00  0.00     0.074 A 
ATOM     58  C   UNL A   1      42.828  30.919  30.717  1.00  0.00     0.031 C 
ATOM     59  C   UNL A   1      43.871  29.480  32.584  1.00  0.00     0.031 A 
BRANCH  46  60
ATOM     60  C   UNL A   1      47.046  31.235  28.497  1.00  0.00    -0.014 A 
ATOM     61  C   UNL A   1      45.906  32.006  28.224  1.00  0.00     0.010 A 
ATOM     62  C   UNL A   1      48.259  31.644  27.894  1.00  0.00     0.010 A 
ATOM     63  C   UNL A   1      45.978  33.114  27.366  1.00  0.00     0.020 A 
ATOM     64  C   UNL A   1      48.355  32.770  27.086  1.00  0.00     0.020 A 
ATOM     65  C   UNL A   1      47.203  33.482  26.800  1.00  0.00     0.054 A 
BRANCH  65  66
ATOM     66  S   UNL A   1      47.278  34.850  25.622  1.00  0.00     0.124 S 
ATOM     67  O   UNL A   1      48.543  34.591  24.944  1.00  0.00    -0.237 OA
ATOM     68  O   UNL A   1      46.072  34.639  24.826  1.00  0.00    -0.237 OA
ATOM     69  O   UNL A   1      47.254  36.038  26.475  1.00  0.00    -0.744 OA
ENDBRANCH  65  66
ENDBRANCH  46  60
BRANCH  47  70
ATOM     70  C   UNL A   1      38.697  29.395  29.638  1.00  0.00    -0.014 A 
ATOM     71  C   UNL A   1      37.638  29.660  30.528  1.00  0.00     0.010 A 
ATOM     72  C   UNL A   1      38.515  29.794  28.297  1.00  0.00     0.010 A 
ATOM     73  C   UNL A   1      36.477  30.339  30.096  1.00  0.00     0.020 A 
ATOM     74  C   UNL A   1      37.361  30.443  27.853  1.00  0.00     0.020 A 
ATOM     75  C   UNL A   1      36.356  30.739  28.762  1.00  0.00     0.054 A 
BRANCH  75  76
ATOM     76  S   UNL A   1      34.952  31.765  28.233  1.00  0.00     0.124 S 
ATOM     77  O   UNL A   1      34.192  30.845  27.393  1.00  0.00    -0.237 OA
ATOM     78  O   UNL A   1      34.329  32.130  29.501  1.00  0.00    -0.237 OA
ATOM     79  O   UNL A   1      35.586  32.873  27.519  1.00  0.00    -0.744 OA
ENDBRANCH  75  76
ENDBRANCH  47  70
BRANCH  59  80
ATOM     80  C   UNL A   1      43.544  28.564  33.741  1.00  0.00    -0.014 A 
ATOM     81  C   UNL A   1      43.385  29.009  35.067  1.00  0.00     0.010 A 
ATOM     82  C   UNL A   1      43.209  27.232  33.435  1.00  0.00     0.010 A 
ATOM     83  C   UNL A   1      42.905  28.141  36.061  1.00  0.00     0.020 A 
ATOM     84  C   UNL A   1      42.719  26.367  34.416  1.00  0.00     0.020 A 
ATOM     85  C   UNL A   1      42.571  26.823  35.727  1.00  0.00     0.054 A 
BRANCH  85  86
ATOM     86  S   UNL A   1      41.874  25.725  36.995  1.00  0.00     0.124 S 
ATOM     87  O   UNL A   1      41.681  24.475  36.265  1.00  0.00    -0.237 OA
ATOM     88  O   UNL A   1      42.911  25.693  38.026  1.00  0.00    -0.237 OA
ATOM     89  O   UNL A   1      40.639  26.399  37.399  1.00  0.00    -0.744 OA
ENDBRANCH  85  86
ENDBRANCH  59  80
ENDBRANCH  33  34
ENDBRANCH  26  28
ENDBRANCH  25  26
ENDBRANCH  24  25
ENDBRANCH   1  24
TORSDOF 17
ENDMDL
MODEL 3
REMARK VINA RESULT:     -10.8      4.146      5.688
REMARK SMILES Cc1nn(C)c2c1nc(SCC(=O)OCCOC(=O)c1ccc(-c3c4nc(c(-c5ccc(S(=O)(=O)[O-])cc5)c5ccc([nH]5)c(-c5ccc(S(=O)(=O)[O-])cc5)c5nc(c(-c6ccc(S(=O)(=O)[O-])cc6)c6ccc3[nH]6)C=C5)C=C4)cc1)n2[C@H]1CC[N@@H+](C)C1
REMARK SMILES IDX 15 1 14 2 12 3 13 4 11 5 10 6 9 7 1 8 2 9 3 10 7 11 4 12
REMARK SMILES IDX 6 13 8 14 5 15 80 16 81 17 82 18 86 19 83 20 84 21 85 22
REMARK SMILES IDX 16 24 17 25 18 26 19 27 20 28 21 29 79 30 22 31 78 32 23 33
REMARK SMILES IDX 24 34 25 35 72 36 26 37 77 38 71 39 73 40 27 41 76 42 70 43
REMARK SMILES IDX 69 44 28 46 58 47 39 48 57 49 40 50 43 51 56 52 74 53 41 54
REMARK SMILES IDX 42 55 55 57 75 58 44 59 29 60 30 61 38 62 31 63 37 64 32 65
REMARK SMILES IDX 33 66 34 67 35 68 36 69 59 70 60 71 68 72 61 73 67 74 62 75
REMARK SMILES IDX 63 76 64 77 65 78 66 79 45 80 46 81 54 82 47 83 53 84 48 85
REMARK SMILES IDX 49 86 50 87 51 88 52 89
REMARK H PARENT 84 23 73 45 43 56
REMARK Flexibility Score: inf
ROOT
ATOM      1  C   UNL A   1      39.362  22.188  26.535  1.00  0.00     0.274 C 
ENDROOT
BRANCH   1   2
ATOM      2  O   UNL A   1      38.253  21.763  25.708  1.00  0.00    -0.461 OA
BRANCH   2   3
ATOM      3  C   UNL A   1      37.287  22.689  25.455  1.00  0.00     0.316 C 
ATOM      4  O   UNL A   1      37.433  23.890  25.690  1.00  0.00    -0.251 OA
BRANCH   3   5
ATOM      5  C   UNL A   1      35.998  22.160  24.844  1.00  0.00     0.200 C 
BRANCH   5   6
ATOM      6  S   UNL A   1      35.238  23.142  23.533  1.00  0.00    -0.076 SA
BRANCH   6   7
ATOM      7  C   UNL A   1      33.617  23.521  24.087  1.00  0.00     0.171 A 
ATOM      8  C   UNL A   1      30.379  22.465  27.088  1.00  0.00     0.071 C 
ATOM      9  C   UNL A   1      30.821  23.481  26.144  1.00  0.00     0.087 A 
ATOM     10  N   UNL A   1      30.218  24.665  26.223  1.00  0.00    -0.174 NA
ATOM     11  C   UNL A   1      31.848  23.527  25.208  1.00  0.00     0.132 A 
ATOM     12  N   UNL A   1      30.930  25.477  25.427  1.00  0.00    -0.250 N 
ATOM     13  C   UNL A   1      31.964  24.819  24.808  1.00  0.00     0.159 A 
ATOM     14  N   UNL A   1      32.797  22.701  24.714  1.00  0.00    -0.219 NA
ATOM     15  C   UNL A   1      30.533  26.861  25.521  1.00  0.00     0.176 C 
ATOM     16  N   UNL A   1      33.096  24.828  24.027  1.00  0.00    -0.295 N 
BRANCH  16  17
ATOM     17  C   UNL A   1      33.759  25.919  23.327  1.00  0.00     0.152 C 
ATOM     18  C   UNL A   1      32.964  26.411  22.112  1.00  0.00     0.093 C 
ATOM     19  C   UNL A   1      34.006  27.190  24.131  1.00  0.00     0.288 C 
ATOM     20  C   UNL A   1      32.347  27.716  22.577  1.00  0.00     0.264 C 
ATOM     21  N   UNL A   1      33.412  28.310  23.391  1.00  0.00    -0.336 N 
ATOM     22  C   UNL A   1      32.862  29.304  24.320  1.00  0.00     0.332 C 
ATOM     23  H   UNL A   1      34.099  28.795  22.815  1.00  0.00     0.347 HD
ENDBRANCH  16  17
ENDBRANCH   6   7
ENDBRANCH   5   6
ENDBRANCH   3   5
ENDBRANCH   2   3
ENDBRANCH   1   2
BRANCH   1  24
ATOM     24  C   UNL A   1      40.403  21.077  26.735  1.00  0.00     0.275 C 
BRANCH  24  25
ATOM     25  O   UNL A   1      41.192  20.843  25.557  1.00  0.00    -0.458 OA
BRANCH  25  26
ATOM     26  C   UNL A   1      42.500  20.701  25.861  1.00  0.00     0.338 C 
ATOM     27  O   UNL A   1      43.020  19.671  26.243  1.00  0.00    -0.246 OA
BRANCH  26  28
ATOM     28  C   UNL A   1      43.240  21.961  25.873  1.00  0.00     0.060 A 
ATOM     29  C   UNL A   1      44.069  22.181  26.975  1.00  0.00     0.016 A 
ATOM     30  C   UNL A   1      42.751  23.013  25.093  1.00  0.00     0.016 A 
ATOM     31  C   UNL A   1      44.210  23.472  27.433  1.00  0.00     0.010 A 
ATOM     32  C   UNL A   1      42.876  24.305  25.570  1.00  0.00     0.010 A 
ATOM     33  C   UNL A   1      43.484  24.501  26.807  1.00  0.00    -0.014 A 
BRANCH  33  34
ATOM     34  C   UNL A   1      43.338  25.758  27.551  1.00  0.00     0.031 A 
ATOM     35  C   UNL A   1      44.552  26.601  27.491  1.00  0.00     0.074 A 
ATOM     36  C   UNL A   1      42.228  26.077  28.253  1.00  0.00     0.049 A 
ATOM     37  N   UNL A   1      45.291  27.043  28.456  1.00  0.00    -0.248 NA
ATOM     38  C   UNL A   1      45.103  26.822  26.142  1.00  0.00     0.031 C 
ATOM     39  C   UNL A   1      40.947  25.357  28.258  1.00  0.00     0.029 A 
ATOM     40  N   UNL A   1      41.975  27.142  29.075  1.00  0.00    -0.354 N 
ATOM     41  C   UNL A   1      46.292  27.775  27.828  1.00  0.00     0.074 A 
ATOM     42  C   UNL A   1      46.246  27.435  26.428  1.00  0.00     0.031 C 
ATOM     43  C   UNL A   1      40.009  26.110  28.863  1.00  0.00     0.029 A 
ATOM     44  C   UNL A   1      40.620  27.344  29.325  1.00  0.00     0.049 A 
ATOM     45  H   UNL A   1      42.683  27.711  29.454  1.00  0.00     0.167 HD
ATOM     46  C   UNL A   1      46.867  28.856  28.413  1.00  0.00     0.031 A 
ATOM     47  C   UNL A   1      40.008  28.484  29.744  1.00  0.00     0.031 A 
ATOM     48  C   UNL A   1      46.813  28.812  29.845  1.00  0.00     0.049 A 
ATOM     49  C   UNL A   1      41.048  29.360  30.336  1.00  0.00     0.074 A 
ATOM     50  C   UNL A   1      47.316  27.955  30.801  1.00  0.00     0.029 A 
ATOM     51  N   UNL A   1      45.866  29.584  30.472  1.00  0.00    -0.354 N 
ATOM     52  N   UNL A   1      41.641  29.124  31.473  1.00  0.00    -0.248 NA
ATOM     53  C   UNL A   1      41.749  30.276  29.449  1.00  0.00     0.031 C 
ATOM     54  C   UNL A   1      46.366  27.967  31.858  1.00  0.00     0.029 A 
ATOM     55  C   UNL A   1      45.347  28.859  31.515  1.00  0.00     0.049 A 
ATOM     56  H   UNL A   1      45.605  30.499  30.219  1.00  0.00     0.167 HD
ATOM     57  C   UNL A   1      42.958  29.521  31.279  1.00  0.00     0.074 A 
ATOM     58  C   UNL A   1      42.942  30.300  30.045  1.00  0.00     0.031 C 
ATOM     59  C   UNL A   1      43.981  28.962  31.989  1.00  0.00     0.031 A 
BRANCH  46  60
ATOM     60  C   UNL A   1      47.057  30.126  27.624  1.00  0.00    -0.014 A 
ATOM     61  C   UNL A   1      48.309  30.759  27.595  1.00  0.00     0.010 A 
ATOM     62  C   UNL A   1      45.955  30.857  27.120  1.00  0.00     0.010 A 
ATOM     63  C   UNL A   1      48.439  32.069  27.111  1.00  0.00     0.020 A 
ATOM     64  C   UNL A   1      46.079  32.134  26.589  1.00  0.00     0.020 A 
ATOM     65  C   UNL A   1      47.320  32.748  26.617  1.00  0.00     0.054 A 
BRANCH  65  66
ATOM     66  S   UNL A   1      47.470  34.467  26.082  1.00  0.00     0.124 S 
ATOM     67  O   UNL A   1      48.834  34.500  25.566  1.00  0.00    -0.237 OA
ATOM     68  O   UNL A   1      46.408  34.574  25.085  1.00  0.00    -0.237 OA
ATOM     69  O   UNL A   1      47.244  35.229  27.309  1.00  0.00    -0.744 OA
ENDBRANCH  65  66
ENDBRANCH  46  60
BRANCH  47  70
ATOM     70  C   UNL A   1      38.672  28.978  29.291  1.00  0.00    -0.014 A 
ATOM     71  C   UNL A   1      37.553  29.004  30.145  1.00  0.00     0.010 A 
ATOM     72  C   UNL A   1      38.549  29.658  28.061  1.00  0.00     0.010 A 
ATOM     73  C   UNL A   1      36.388  29.723  29.797  1.00  0.00     0.020 A 
ATOM     74  C   UNL A   1      37.393  30.351  27.695  1.00  0.00     0.020 A 
ATOM     75  C   UNL A   1      36.324  30.404  28.578  1.00  0.00     0.054 A 
BRANCH  75  76
ATOM     76  S   UNL A   1      34.907  31.476  28.195  1.00  0.00     0.124 S 
ATOM     77  O   UNL A   1      35.511  32.502  27.350  1.00  0.00    -0.237 OA
ATOM     78  O   UNL A   1      33.989  30.561  27.524  1.00  0.00    -0.237 OA
ATOM     79  O   UNL A   1      34.462  31.940  29.507  1.00  0.00    -0.744 OA
ENDBRANCH  75  76
ENDBRANCH  47  70
BRANCH  59  80
ATOM     80  C   UNL A   1      43.653  28.176  33.237  1.00  0.00    -0.014 A 
ATOM     81  C   UNL A   1      43.137  28.757  34.411  1.00  0.00     0.010 A 
ATOM     82  C   UNL A   1      43.701  26.772  33.148  1.00  0.00     0.010 A 
ATOM     83  C   UNL A   1      42.684  27.952  35.469  1.00  0.00     0.020 A 
ATOM     84  C   UNL A   1      43.240  25.966  34.191  1.00  0.00     0.020 A 
ATOM     85  C   UNL A   1      42.735  26.559  35.350  1.00  0.00     0.054 A 
BRANCH  85  86
ATOM     86  S   UNL A   1      42.074  25.519  36.685  1.00  0.00     0.124 S 
ATOM     87  O   UNL A   1      43.237  25.327  37.547  1.00  0.00    -0.237 OA
ATOM     88  O   UNL A   1      41.002  26.334  37.253  1.00  0.00    -0.237 OA
ATOM     89  O   UNL A   1      41.616  24.313  35.993  1.00  0.00    -0.744 OA
ENDBRANCH  85  86
ENDBRANCH  59  80
ENDBRANCH  33  34
ENDBRANCH  26  28
ENDBRANCH  25  26
ENDBRANCH  24  25
ENDBRANCH   1  24
TORSDOF 17
ENDMDL
