MODEL 1
REMARK VINA RESULT:     -10.2      0.000      0.000
REMARK SMILES N#Cc1ccc(C(=O)NC[C@H]2CC[C@H](C(=O)OCCOC(=O)c3ccc(-c4c5nc(c(-c6ccc(S(=O)(=O)[O-])cc6)c6ccc([nH]6)c(-c6ccc(S(=O)(=O)[O-])cc6)c6nc(c(-c7ccc(S(=O)(=O)[O-])cc7)c7ccc4[nH]7)C=C6)C=C5)cc3)O2)cc1
REMARK SMILES IDX 18 1 17 2 15 3 16 4 14 5 11 6 12 7 83 8 13 9 10 10 9 11 7 12
REMARK SMILES IDX 8 13 6 15 3 16 4 17 85 18 5 19 84 20 2 21 1 22 19 23 20 24
REMARK SMILES IDX 21 25 22 26 23 27 24 28 82 29 25 30 81 31 26 32 27 33 28 34
REMARK SMILES IDX 75 35 29 36 80 37 74 38 76 39 30 40 79 41 73 42 72 43 31 45
REMARK SMILES IDX 61 46 42 47 60 48 43 49 46 50 59 51 77 52 44 53 45 54 58 56
REMARK SMILES IDX 78 57 47 58 32 59 33 60 41 61 34 62 40 63 35 64 36 65 37 66
REMARK SMILES IDX 38 67 39 68 62 69 63 70 71 71 64 72 70 73 65 74 66 75 67 76
REMARK SMILES IDX 68 77 69 78 48 79 49 80 57 81 50 82 56 83 51 84 52 85 53 86
REMARK SMILES IDX 54 87 55 88
REMARK H PARENT 9 14 76 44 46 55
REMARK Flexibility Score: inf
ROOT
ATOM      1  C   UNL A   1      31.836  29.507  26.054  1.00  0.00     0.274 C 
ENDROOT
BRANCH   1   2
ATOM      2  O   UNL A   1      31.106  28.566  25.250  1.00  0.00    -0.460 OA
BRANCH   2   3
ATOM      3  C   UNL A   1      30.826  28.983  23.985  1.00  0.00     0.335 C 
ATOM      4  O   UNL A   1      30.039  29.882  23.708  1.00  0.00    -0.249 OA
BRANCH   3   5
ATOM      5  C   UNL A   1      31.582  28.193  22.923  1.00  0.00     0.228 C 
ATOM      6  C   UNL A   1      33.258  26.592  23.079  1.00  0.00     0.138 C 
ATOM      7  C   UNL A   1      33.936  27.951  22.967  1.00  0.00     0.037 C 
ATOM      8  O   UNL A   1      31.914  26.908  23.468  1.00  0.00    -0.361 OA
ATOM      9  C   UNL A   1      32.856  28.825  22.379  1.00  0.00     0.047 C 
BRANCH   6  10
ATOM     10  C   UNL A   1      33.189  25.709  21.808  1.00  0.00     0.148 C 
BRANCH  10  11
ATOM     11  N   UNL A   1      32.667  24.373  22.020  1.00  0.00    -0.349 N 
ATOM     12  C   UNL A   1      33.109  23.295  22.736  1.00  0.00     0.251 C 
ATOM     13  O   UNL A   1      32.420  22.274  22.689  1.00  0.00    -0.269 OA
ATOM     14  H   UNL A   1      31.817  24.208  21.551  1.00  0.00     0.163 HD
BRANCH  12  15
ATOM     15  C   UNL A   1      34.336  23.291  23.587  1.00  0.00     0.039 A 
ATOM     16  C   UNL A   1      36.759  23.114  25.030  1.00  0.00     0.052 A 
ATOM     17  C   UNL A   1      36.734  22.818  23.667  1.00  0.00     0.020 A 
ATOM     18  C   UNL A   1      35.590  23.542  25.659  1.00  0.00     0.020 A 
ATOM     19  C   UNL A   1      35.531  22.904  22.956  1.00  0.00     0.015 A 
ATOM     20  C   UNL A   1      34.396  23.650  24.935  1.00  0.00     0.015 A 
BRANCH  16  21
ATOM     21  C   UNL A   1      37.971  22.981  25.780  1.00  0.00     0.099 C 
ATOM     22  N   UNL A   1      38.953  22.888  26.395  1.00  0.00    -0.192 NA
ENDBRANCH  16  21
ENDBRANCH  12  15
ENDBRANCH  10  11
ENDBRANCH   6  10
ENDBRANCH   3   5
ENDBRANCH   2   3
ENDBRANCH   1   2
BRANCH   1  23
ATOM     23  C   UNL A   1      33.334  29.189  26.070  1.00  0.00     0.275 C 
BRANCH  23  24
ATOM     24  O   UNL A   1      33.869  29.124  27.408  1.00  0.00    -0.458 OA
BRANCH  24  25
ATOM     25  C   UNL A   1      34.423  30.274  27.858  1.00  0.00     0.338 C 
ATOM     26  O   UNL A   1      33.864  31.347  28.014  1.00  0.00    -0.246 OA
BRANCH  25  27
ATOM     27  C   UNL A   1      35.814  30.058  28.277  1.00  0.00     0.060 A 
ATOM     28  C   UNL A   1      36.820  30.175  27.316  1.00  0.00     0.016 A 
ATOM     29  C   UNL A   1      36.115  29.596  29.555  1.00  0.00     0.016 A 
ATOM     30  C   UNL A   1      38.124  29.799  27.608  1.00  0.00     0.010 A 
ATOM     31  C   UNL A   1      37.440  29.271  29.867  1.00  0.00     0.010 A 
ATOM     32  C   UNL A   1      38.451  29.361  28.893  1.00  0.00    -0.014 A 
BRANCH  32  33
ATOM     33  C   UNL A   1      39.859  29.021  29.213  1.00  0.00     0.031 A 
ATOM     34  C   UNL A   1      40.765  30.043  29.837  1.00  0.00     0.074 A 
ATOM     35  C   UNL A   1      40.314  27.783  28.932  1.00  0.00     0.049 A 
ATOM     36  N   UNL A   1      42.046  29.965  30.082  1.00  0.00    -0.248 NA
ATOM     37  C   UNL A   1      40.153  31.323  30.231  1.00  0.00     0.031 C 
ATOM     38  C   UNL A   1      39.512  26.694  28.370  1.00  0.00     0.029 A 
ATOM     39  N   UNL A   1      41.562  27.233  29.076  1.00  0.00    -0.354 N 
ATOM     40  C   UNL A   1      42.404  31.193  30.627  1.00  0.00     0.074 A 
ATOM     41  C   UNL A   1      41.207  32.005  30.657  1.00  0.00     0.031 C 
ATOM     42  C   UNL A   1      40.282  25.605  28.232  1.00  0.00     0.029 A 
ATOM     43  C   UNL A   1      41.647  25.940  28.617  1.00  0.00     0.049 A 
ATOM     44  H   UNL A   1      42.323  27.718  29.471  1.00  0.00     0.167 HD
ATOM     45  C   UNL A   1      43.621  31.600  31.059  1.00  0.00     0.031 A 
ATOM     46  C   UNL A   1      42.711  25.127  28.477  1.00  0.00     0.031 A 
ATOM     47  C   UNL A   1      44.805  30.777  31.013  1.00  0.00     0.049 A 
ATOM     48  C   UNL A   1      44.065  25.635  28.885  1.00  0.00     0.074 A 
ATOM     49  C   UNL A   1      46.084  31.088  31.442  1.00  0.00     0.029 A 
ATOM     50  N   UNL A   1      44.858  29.487  30.503  1.00  0.00    -0.354 N 
ATOM     51  N   UNL A   1      44.386  26.794  29.409  1.00  0.00    -0.248 NA
ATOM     52  C   UNL A   1      45.201  24.727  28.682  1.00  0.00     0.031 C 
ATOM     53  C   UNL A   1      46.924  30.018  31.119  1.00  0.00     0.029 A 
ATOM     54  C   UNL A   1      46.155  29.005  30.570  1.00  0.00     0.049 A 
ATOM     55  H   UNL A   1      44.087  28.989  30.148  1.00  0.00     0.167 HD
ATOM     56  C   UNL A   1      45.758  26.743  29.626  1.00  0.00     0.074 A 
ATOM     57  C   UNL A   1      46.199  25.431  29.196  1.00  0.00     0.031 C 
ATOM     58  C   UNL A   1      46.579  27.696  30.134  1.00  0.00     0.031 A 
BRANCH  45  59
ATOM     59  C   UNL A   1      43.750  33.012  31.573  1.00  0.00    -0.014 A 
ATOM     60  C   UNL A   1      44.099  34.077  30.725  1.00  0.00     0.010 A 
ATOM     61  C   UNL A   1      43.467  33.284  32.926  1.00  0.00     0.010 A 
ATOM     62  C   UNL A   1      44.201  35.379  31.226  1.00  0.00     0.020 A 
ATOM     63  C   UNL A   1      43.534  34.587  33.423  1.00  0.00     0.020 A 
ATOM     64  C   UNL A   1      43.915  35.626  32.573  1.00  0.00     0.054 A 
BRANCH  64  65
ATOM     65  S   UNL A   1      44.026  37.329  33.186  1.00  0.00     0.124 S 
ATOM     66  O   UNL A   1      45.352  37.343  33.799  1.00  0.00    -0.237 OA
ATOM     67  O   UNL A   1      43.892  38.116  31.963  1.00  0.00    -0.237 OA
ATOM     68  O   UNL A   1      42.908  37.437  34.120  1.00  0.00    -0.744 OA
ENDBRANCH  64  65
ENDBRANCH  45  59
BRANCH  46  69
ATOM     69  C   UNL A   1      42.539  23.768  27.890  1.00  0.00    -0.014 A 
ATOM     70  C   UNL A   1      42.761  23.544  26.522  1.00  0.00     0.010 A 
ATOM     71  C   UNL A   1      42.157  22.685  28.706  1.00  0.00     0.010 A 
ATOM     72  C   UNL A   1      42.587  22.269  25.976  1.00  0.00     0.020 A 
ATOM     73  C   UNL A   1      42.020  21.402  28.172  1.00  0.00     0.020 A 
ATOM     74  C   UNL A   1      42.223  21.205  26.806  1.00  0.00     0.054 A 
BRANCH  74  75
ATOM     75  S   UNL A   1      42.048  19.553  26.079  1.00  0.00     0.124 S 
ATOM     76  O   UNL A   1      42.573  18.697  27.138  1.00  0.00    -0.237 OA
ATOM     77  O   UNL A   1      40.609  19.463  25.847  1.00  0.00    -0.237 OA
ATOM     78  O   UNL A   1      42.864  19.623  24.868  1.00  0.00    -0.744 OA
ENDBRANCH  74  75
ENDBRANCH  46  69
BRANCH  58  79
ATOM     79  C   UNL A   1      48.036  27.342  30.286  1.00  0.00    -0.014 A 
ATOM     80  C   UNL A   1      48.941  27.481  29.219  1.00  0.00     0.010 A 
ATOM     81  C   UNL A   1      48.514  26.910  31.536  1.00  0.00     0.010 A 
ATOM     82  C   UNL A   1      50.289  27.160  29.390  1.00  0.00     0.020 A 
ATOM     83  C   UNL A   1      49.869  26.625  31.723  1.00  0.00     0.020 A 
ATOM     84  C   UNL A   1      50.746  26.740  30.643  1.00  0.00     0.054 A 
BRANCH  84  85
ATOM     85  S   UNL A   1      52.510  26.378  30.849  1.00  0.00     0.124 S 
ATOM     86  O   UNL A   1      53.009  26.502  29.483  1.00  0.00    -0.237 OA
ATOM     87  O   UNL A   1      52.943  27.423  31.774  1.00  0.00    -0.237 OA
ATOM     88  O   UNL A   1      52.526  25.024  31.397  1.00  0.00    -0.744 OA
ENDBRANCH  84  85
ENDBRANCH  58  79
ENDBRANCH  32  33
ENDBRANCH  25  27
ENDBRANCH  24  25
ENDBRANCH  23  24
ENDBRANCH   1  23
TORSDOF 18
ENDMDL
MODEL 2
REMARK VINA RESULT:      -9.9      3.780      8.171
REMARK SMILES N#Cc1ccc(C(=O)NC[C@H]2CC[C@H](C(=O)OCCOC(=O)c3ccc(-c4c5nc(c(-c6ccc(S(=O)(=O)[O-])cc6)c6ccc([nH]6)c(-c6ccc(S(=O)(=O)[O-])cc6)c6nc(c(-c7ccc(S(=O)(=O)[O-])cc7)c7ccc4[nH]7)C=C6)C=C5)cc3)O2)cc1
REMARK SMILES IDX 18 1 17 2 15 3 16 4 14 5 11 6 12 7 83 8 13 9 10 10 9 11 7 12
REMARK SMILES IDX 8 13 6 15 3 16 4 17 85 18 5 19 84 20 2 21 1 22 19 23 20 24
REMARK SMILES IDX 21 25 22 26 23 27 24 28 82 29 25 30 81 31 26 32 27 33 28 34
REMARK SMILES IDX 75 35 29 36 80 37 74 38 76 39 30 40 79 41 73 42 72 43 31 45
REMARK SMILES IDX 61 46 42 47 60 48 43 49 46 50 59 51 77 52 44 53 45 54 58 56
REMARK SMILES IDX 78 57 47 58 32 59 33 60 41 61 34 62 40 63 35 64 36 65 37 66
REMARK SMILES IDX 38 67 39 68 62 69 63 70 71 71 64 72 70 73 65 74 66 75 67 76
REMARK SMILES IDX 68 77 69 78 48 79 49 80 57 81 50 82 56 83 51 84 52 85 53 86
REMARK SMILES IDX 54 87 55 88
REMARK H PARENT 9 14 76 44 46 55
REMARK Flexibility Score: inf
ROOT
ATOM      1  C   UNL A   1      38.585  21.468  25.765  1.00  0.00     0.274 C 
ENDROOT
BRANCH   1   2
ATOM      2  O   UNL A   1      37.328  21.483  25.069  1.00  0.00    -0.460 OA
BRANCH   2   3
ATOM      3  C   UNL A   1      36.498  22.509  25.401  1.00  0.00     0.335 C 
ATOM      4  O   UNL A   1      36.858  23.670  25.563  1.00  0.00    -0.249 OA
BRANCH   3   5
ATOM      5  C   UNL A   1      35.051  22.064  25.576  1.00  0.00     0.228 C 
ATOM      6  C   UNL A   1      33.056  23.254  25.630  1.00  0.00     0.138 C 
ATOM      7  C   UNL A   1      33.566  23.155  27.062  1.00  0.00     0.037 C 
ATOM      8  O   UNL A   1      34.210  22.958  24.832  1.00  0.00    -0.361 OA
ATOM      9  C   UNL A   1      34.526  21.992  27.004  1.00  0.00     0.047 C 
BRANCH   6  10
ATOM     10  C   UNL A   1      31.920  22.294  25.196  1.00  0.00     0.148 C 
BRANCH  10  11
ATOM     11  N   UNL A   1      31.886  21.991  23.779  1.00  0.00    -0.349 N 
ATOM     12  C   UNL A   1      32.132  20.857  23.055  1.00  0.00     0.251 C 
ATOM     13  O   UNL A   1      32.032  20.944  21.830  1.00  0.00    -0.269 OA
ATOM     14  H   UNL A   1      31.635  22.762  23.221  1.00  0.00     0.163 HD
BRANCH  12  15
ATOM     15  C   UNL A   1      32.474  19.531  23.652  1.00  0.00     0.039 A 
ATOM     16  C   UNL A   1      32.999  16.915  24.581  1.00  0.00     0.052 A 
ATOM     17  C   UNL A   1      32.787  17.145  23.222  1.00  0.00     0.020 A 
ATOM     18  C   UNL A   1      32.996  17.993  25.467  1.00  0.00     0.020 A 
ATOM     19  C   UNL A   1      32.523  18.442  22.766  1.00  0.00     0.015 A 
ATOM     20  C   UNL A   1      32.758  19.292  24.999  1.00  0.00     0.015 A 
BRANCH  16  21
ATOM     21  C   UNL A   1      33.219  15.587  25.069  1.00  0.00     0.099 C 
ATOM     22  N   UNL A   1      33.410  14.509  25.458  1.00  0.00    -0.192 NA
ENDBRANCH  16  21
ENDBRANCH  12  15
ENDBRANCH  10  11
ENDBRANCH   6  10
ENDBRANCH   3   5
ENDBRANCH   2   3
ENDBRANCH   1   2
BRANCH   1  23
ATOM     23  C   UNL A   1      39.230  20.079  25.729  1.00  0.00     0.275 C 
BRANCH  23  24
ATOM     24  O   UNL A   1      40.278  19.932  26.708  1.00  0.00    -0.458 OA
BRANCH  24  25
ATOM     25  C   UNL A   1      41.533  19.899  26.202  1.00  0.00     0.338 C 
ATOM     26  O   UNL A   1      42.026  19.018  25.517  1.00  0.00    -0.246 OA
BRANCH  25  27
ATOM     27  C   UNL A   1      42.244  21.154  26.477  1.00  0.00     0.060 A 
ATOM     28  C   UNL A   1      42.540  21.471  27.803  1.00  0.00     0.016 A 
ATOM     29  C   UNL A   1      42.479  22.081  25.465  1.00  0.00     0.016 A 
ATOM     30  C   UNL A   1      43.037  22.722  28.138  1.00  0.00     0.010 A 
ATOM     31  C   UNL A   1      43.033  23.322  25.795  1.00  0.00     0.010 A 
ATOM     32  C   UNL A   1      43.307  23.656  27.134  1.00  0.00    -0.014 A 
BRANCH  32  33
ATOM     33  C   UNL A   1      43.897  24.968  27.495  1.00  0.00     0.031 A 
ATOM     34  C   UNL A   1      43.029  26.067  28.038  1.00  0.00     0.074 A 
ATOM     35  C   UNL A   1      45.220  25.161  27.324  1.00  0.00     0.049 A 
ATOM     36  N   UNL A   1      43.344  27.308  28.300  1.00  0.00    -0.248 NA
ATOM     37  C   UNL A   1      41.624  25.730  28.315  1.00  0.00     0.031 C 
ATOM     38  C   UNL A   1      46.169  24.150  26.850  1.00  0.00     0.029 A 
ATOM     39  N   UNL A   1      45.997  26.273  27.527  1.00  0.00    -0.354 N 
ATOM     40  C   UNL A   1      42.172  27.912  28.742  1.00  0.00     0.074 A 
ATOM     41  C   UNL A   1      41.134  26.904  28.692  1.00  0.00     0.031 C 
ATOM     42  C   UNL A   1      47.398  24.683  26.812  1.00  0.00     0.029 A 
ATOM     43  C   UNL A   1      47.315  26.090  27.180  1.00  0.00     0.049 A 
ATOM     44  H   UNL A   1      45.645  27.119  27.886  1.00  0.00     0.167 HD
ATOM     45  C   UNL A   1      41.984  29.189  29.149  1.00  0.00     0.031 A 
ATOM     46  C   UNL A   1      48.335  26.966  27.120  1.00  0.00     0.031 A 
ATOM     47  C   UNL A   1      43.030  30.182  29.184  1.00  0.00     0.049 A 
ATOM     48  C   UNL A   1      48.079  28.398  27.496  1.00  0.00     0.074 A 
ATOM     49  C   UNL A   1      42.950  31.500  29.597  1.00  0.00     0.029 A 
ATOM     50  N   UNL A   1      44.343  29.968  28.787  1.00  0.00    -0.354 N 
ATOM     51  N   UNL A   1      46.969  28.952  27.923  1.00  0.00    -0.248 NA
ATOM     52  C   UNL A   1      49.212  29.325  27.382  1.00  0.00     0.031 C 
ATOM     53  C   UNL A   1      44.191  32.104  29.375  1.00  0.00     0.029 A 
ATOM     54  C   UNL A   1      45.071  31.141  28.907  1.00  0.00     0.049 A 
ATOM     55  H   UNL A   1      44.704  29.109  28.468  1.00  0.00     0.167 HD
ATOM     56  C   UNL A   1      47.277  30.286  28.155  1.00  0.00     0.074 A 
ATOM     57  C   UNL A   1      48.683  30.449  27.843  1.00  0.00     0.031 C 
ATOM     58  C   UNL A   1      46.470  31.288  28.588  1.00  0.00     0.031 A 
BRANCH  45  59
ATOM     59  C   UNL A   1      40.589  29.605  29.542  1.00  0.00    -0.014 A 
ATOM     60  C   UNL A   1      40.166  29.595  30.883  1.00  0.00     0.010 A 
ATOM     61  C   UNL A   1      39.698  30.062  28.551  1.00  0.00     0.010 A 
ATOM     62  C   UNL A   1      38.869  29.996  31.221  1.00  0.00     0.020 A 
ATOM     63  C   UNL A   1      38.414  30.496  28.888  1.00  0.00     0.020 A 
ATOM     64  C   UNL A   1      38.002  30.446  30.220  1.00  0.00     0.054 A 
BRANCH  64  65
ATOM     65  S   UNL A   1      36.337  30.989  30.693  1.00  0.00     0.124 S 
ATOM     66  O   UNL A   1      36.049  30.120  31.832  1.00  0.00    -0.237 OA
ATOM     67  O   UNL A   1      36.542  32.398  31.017  1.00  0.00    -0.237 OA
ATOM     68  O   UNL A   1      35.535  30.735  29.499  1.00  0.00    -0.744 OA
ENDBRANCH  64  65
ENDBRANCH  45  59
BRANCH  46  69
ATOM     69  C   UNL A   1      49.676  26.518  26.650  1.00  0.00    -0.014 A 
ATOM     70  C   UNL A   1      50.574  25.895  27.532  1.00  0.00     0.010 A 
ATOM     71  C   UNL A   1      50.058  26.707  25.308  1.00  0.00     0.010 A 
ATOM     72  C   UNL A   1      51.834  25.486  27.088  1.00  0.00     0.020 A 
ATOM     73  C   UNL A   1      51.303  26.265  24.850  1.00  0.00     0.020 A 
ATOM     74  C   UNL A   1      52.188  25.670  25.748  1.00  0.00     0.054 A 
BRANCH  74  75
ATOM     75  S   UNL A   1      53.813  25.089  25.188  1.00  0.00     0.124 S 
ATOM     76  O   UNL A   1      54.713  25.759  26.121  1.00  0.00    -0.237 OA
ATOM     77  O   UNL A   1      53.699  23.641  25.346  1.00  0.00    -0.237 OA
ATOM     78  O   UNL A   1      53.885  25.554  23.804  1.00  0.00    -0.744 OA
ENDBRANCH  74  75
ENDBRANCH  46  69
BRANCH  58  79
ATOM     79  C   UNL A   1      47.097  32.644  28.784  1.00  0.00    -0.014 A 
ATOM     80  C   UNL A   1      47.709  33.001  29.999  1.00  0.00     0.010 A 
ATOM     81  C   UNL A   1      47.115  33.558  27.715  1.00  0.00     0.010 A 
ATOM     82  C   UNL A   1      48.296  34.259  30.151  1.00  0.00     0.020 A 
ATOM     83  C   UNL A   1      47.736  34.802  27.849  1.00  0.00     0.020 A 
ATOM     84  C   UNL A   1      48.311  35.150  29.073  1.00  0.00     0.054 A 
BRANCH  84  85
ATOM     85  S   UNL A   1      49.124  36.756  29.283  1.00  0.00     0.124 S 
ATOM     86  O   UNL A   1      47.986  37.668  29.357  1.00  0.00    -0.237 OA
ATOM     87  O   UNL A   1      49.867  36.576  30.527  1.00  0.00    -0.237 OA
ATOM     88  O   UNL A   1      49.949  36.888  28.084  1.00  0.00    -0.744 OA
ENDBRANCH  84  85
ENDBRANCH  58  79
ENDBRANCH  32  33
ENDBRANCH  25  27
ENDBRANCH  24  25
ENDBRANCH  23  24
ENDBRANCH   1  23
TORSDOF 18
ENDMDL
MODEL 3
REMARK VINA RESULT:      -9.8      4.915     10.419
REMARK SMILES N#Cc1ccc(C(=O)NC[C@H]2CC[C@H](C(=O)OCCOC(=O)c3ccc(-c4c5nc(c(-c6ccc(S(=O)(=O)[O-])cc6)c6ccc([nH]6)c(-c6ccc(S(=O)(=O)[O-])cc6)c6nc(c(-c7ccc(S(=O)(=O)[O-])cc7)c7ccc4[nH]7)C=C6)C=C5)cc3)O2)cc1
REMARK SMILES IDX 18 1 17 2 15 3 16 4 14 5 11 6 12 7 83 8 13 9 10 10 9 11 7 12
REMARK SMILES IDX 8 13 6 15 3 16 4 17 85 18 5 19 84 20 2 21 1 22 19 23 20 24
REMARK SMILES IDX 21 25 22 26 23 27 24 28 82 29 25 30 81 31 26 32 27 33 28 34
REMARK SMILES IDX 75 35 29 36 80 37 74 38 76 39 30 40 79 41 73 42 72 43 31 45
REMARK SMILES IDX 61 46 42 47 60 48 43 49 46 50 59 51 77 52 44 53 45 54 58 56
REMARK SMILES IDX 78 57 47 58 32 59 33 60 41 61 34 62 40 63 35 64 36 65 37 66
REMARK SMILES IDX 38 67 39 68 62 69 63 70 71 71 64 72 70 73 65 74 66 75 67 76
REMARK SMILES IDX 68 77 69 78 48 79 49 80 57 81 50 82 56 83 51 84 52 85 53 86
REMARK SMILES IDX 54 87 55 88
REMARK H PARENT 9 14 76 44 46 55
REMARK Flexibility Score: inf
ROOT
ATOM      1  C   UNL A   1      39.969  22.160  26.838  1.00  0.00     0.274 C 
ENDROOT
BRANCH   1   2
ATOM      2  O   UNL A   1      38.891  22.043  25.896  1.00  0.00    -0.460 OA
BRANCH   2   3
ATOM      3  C   UNL A   1      38.053  23.114  25.841  1.00  0.00     0.335 C 
ATOM      4  O   UNL A   1      38.374  24.262  26.131  1.00  0.00    -0.249 OA
BRANCH   3   5
ATOM      5  C   UNL A   1      36.645  22.740  25.397  1.00  0.00     0.228 C 
ATOM      6  C   UNL A   1      35.043  23.898  24.176  1.00  0.00     0.138 C 
ATOM      7  C   UNL A   1      34.809  24.213  25.646  1.00  0.00     0.037 C 
ATOM      8  O   UNL A   1      36.381  23.384  24.141  1.00  0.00    -0.361 OA
ATOM      9  C   UNL A   1      35.512  23.082  26.355  1.00  0.00     0.047 C 
BRANCH   6  10
ATOM     10  C   UNL A   1      34.117  22.855  23.500  1.00  0.00     0.148 C 
BRANCH  10  11
ATOM     11  N   UNL A   1      32.910  22.542  24.240  1.00  0.00    -0.349 N 
ATOM     12  C   UNL A   1      32.418  21.391  24.791  1.00  0.00     0.251 C 
ATOM     13  O   UNL A   1      31.322  21.463  25.350  1.00  0.00    -0.269 OA
ATOM     14  H   UNL A   1      32.321  23.320  24.372  1.00  0.00     0.163 HD
BRANCH  12  15
ATOM     15  C   UNL A   1      33.135  20.080  24.788  1.00  0.00     0.039 A 
ATOM     16  C   UNL A   1      34.292  17.505  24.919  1.00  0.00     0.052 A 
ATOM     17  C   UNL A   1      32.910  17.657  25.028  1.00  0.00     0.020 A 
ATOM     18  C   UNL A   1      35.089  18.629  24.699  1.00  0.00     0.020 A 
ATOM     19  C   UNL A   1      32.340  18.935  24.966  1.00  0.00     0.015 A 
ATOM     20  C   UNL A   1      34.509  19.902  24.612  1.00  0.00     0.015 A 
BRANCH  16  21
ATOM     21  C   UNL A   1      34.893  16.211  25.032  1.00  0.00     0.099 C 
ATOM     22  N   UNL A   1      35.393  15.166  25.128  1.00  0.00    -0.192 NA
ENDBRANCH  16  21
ENDBRANCH  12  15
ENDBRANCH  10  11
ENDBRANCH   6  10
ENDBRANCH   3   5
ENDBRANCH   2   3
ENDBRANCH   1   2
BRANCH   1  23
ATOM     23  C   UNL A   1      41.266  22.603  26.155  1.00  0.00     0.275 C 
BRANCH  23  24
ATOM     24  O   UNL A   1      41.935  23.659  26.875  1.00  0.00    -0.458 OA
BRANCH  24  25
ATOM     25  C   UNL A   1      41.786  24.896  26.344  1.00  0.00     0.338 C 
ATOM     26  O   UNL A   1      41.778  25.191  25.161  1.00  0.00    -0.246 OA
BRANCH  25  27
ATOM     27  C   UNL A   1      41.498  25.885  27.391  1.00  0.00     0.060 A 
ATOM     28  C   UNL A   1      42.316  27.013  27.477  1.00  0.00     0.016 A 
ATOM     29  C   UNL A   1      40.540  25.637  28.369  1.00  0.00     0.016 A 
ATOM     30  C   UNL A   1      42.211  27.881  28.555  1.00  0.00     0.010 A 
ATOM     31  C   UNL A   1      40.395  26.542  29.426  1.00  0.00     0.010 A 
ATOM     32  C   UNL A   1      41.236  27.665  29.532  1.00  0.00    -0.014 A 
BRANCH  32  33
ATOM     33  C   UNL A   1      41.091  28.631  30.647  1.00  0.00     0.031 A 
ATOM     34  C   UNL A   1      41.982  28.541  31.853  1.00  0.00     0.074 A 
ATOM     35  C   UNL A   1      40.146  29.589  30.565  1.00  0.00     0.049 A 
ATOM     36  N   UNL A   1      41.929  29.221  32.967  1.00  0.00    -0.248 NA
ATOM     37  C   UNL A   1      43.070  27.551  31.803  1.00  0.00     0.031 C 
ATOM     38  C   UNL A   1      39.255  29.803  29.421  1.00  0.00     0.029 A 
ATOM     39  N   UNL A   1      39.773  30.560  31.460  1.00  0.00    -0.354 N 
ATOM     40  C   UNL A   1      42.951  28.724  33.766  1.00  0.00     0.074 A 
ATOM     41  C   UNL A   1      43.596  27.668  33.014  1.00  0.00     0.031 C 
ATOM     42  C   UNL A   1      38.452  30.846  29.678  1.00  0.00     0.029 A 
ATOM     43  C   UNL A   1      38.713  31.322  31.030  1.00  0.00     0.049 A 
ATOM     44  H   UNL A   1      40.222  30.697  32.325  1.00  0.00     0.167 HD
ATOM     45  C   UNL A   1      43.314  29.114  35.010  1.00  0.00     0.031 A 
ATOM     46  C   UNL A   1      37.998  32.268  31.667  1.00  0.00     0.031 A 
ATOM     47  C   UNL A   1      42.653  30.164  35.746  1.00  0.00     0.049 A 
ATOM     48  C   UNL A   1      38.368  32.622  33.080  1.00  0.00     0.074 A 
ATOM     49  C   UNL A   1      42.953  30.649  37.007  1.00  0.00     0.029 A 
ATOM     50  N   UNL A   1      41.558  30.885  35.292  1.00  0.00    -0.354 N 
ATOM     51  N   UNL A   1      39.345  32.152  33.818  1.00  0.00    -0.248 NA
ATOM     52  C   UNL A   1      37.539  33.634  33.747  1.00  0.00     0.031 C 
ATOM     53  C   UNL A   1      41.993  31.606  37.347  1.00  0.00     0.029 A 
ATOM     54  C   UNL A   1      41.145  31.782  36.264  1.00  0.00     0.049 A 
ATOM     55  H   UNL A   1      41.137  30.776  34.409  1.00  0.00     0.167 HD
ATOM     56  C   UNL A   1      39.266  32.831  35.027  1.00  0.00     0.074 A 
ATOM     57  C   UNL A   1      38.160  33.761  34.911  1.00  0.00     0.031 C 
ATOM     58  C   UNL A   1      40.039  32.698  36.134  1.00  0.00     0.031 A 
BRANCH  45  59
ATOM     59  C   UNL A   1      44.444  28.373  35.679  1.00  0.00    -0.014 A 
ATOM     60  C   UNL A   1      44.217  27.219  36.450  1.00  0.00     0.010 A 
ATOM     61  C   UNL A   1      45.768  28.815  35.492  1.00  0.00     0.010 A 
ATOM     62  C   UNL A   1      45.285  26.544  37.050  1.00  0.00     0.020 A 
ATOM     63  C   UNL A   1      46.841  28.125  36.061  1.00  0.00     0.020 A 
ATOM     64  C   UNL A   1      46.592  27.002  36.850  1.00  0.00     0.054 A 
BRANCH  64  65
ATOM     65  S   UNL A   1      47.958  26.088  37.617  1.00  0.00     0.124 S 
ATOM     66  O   UNL A   1      48.381  25.209  36.529  1.00  0.00    -0.237 OA
ATOM     67  O   UNL A   1      48.896  27.153  37.963  1.00  0.00    -0.237 OA
ATOM     68  O   UNL A   1      47.335  25.415  38.753  1.00  0.00    -0.744 OA
ENDBRANCH  64  65
ENDBRANCH  45  59
BRANCH  46  69
ATOM     69  C   UNL A   1      36.841  32.914  30.985  1.00  0.00    -0.014 A 
ATOM     70  C   UNL A   1      37.043  33.931  30.037  1.00  0.00     0.010 A 
ATOM     71  C   UNL A   1      35.525  32.506  31.278  1.00  0.00     0.010 A 
ATOM     72  C   UNL A   1      35.954  34.540  29.409  1.00  0.00     0.020 A 
ATOM     73  C   UNL A   1      34.435  33.086  30.624  1.00  0.00     0.020 A 
ATOM     74  C   UNL A   1      34.657  34.110  29.703  1.00  0.00     0.054 A 
BRANCH  74  75
ATOM     75  S   UNL A   1      33.264  34.887  28.840  1.00  0.00     0.124 S 
ATOM     76  O   UNL A   1      32.386  35.253  29.947  1.00  0.00    -0.237 OA
ATOM     77  O   UNL A   1      33.907  36.000  28.147  1.00  0.00    -0.237 OA
ATOM     78  O   UNL A   1      32.764  33.825  27.970  1.00  0.00    -0.744 OA
ENDBRANCH  74  75
ENDBRANCH  46  69
BRANCH  58  79
ATOM     79  C   UNL A   1      39.737  33.605  37.299  1.00  0.00    -0.014 A 
ATOM     80  C   UNL A   1      39.059  33.136  38.438  1.00  0.00     0.010 A 
ATOM     81  C   UNL A   1      40.185  34.938  37.271  1.00  0.00     0.010 A 
ATOM     82  C   UNL A   1      38.804  33.993  39.512  1.00  0.00     0.020 A 
ATOM     83  C   UNL A   1      39.967  35.788  38.358  1.00  0.00     0.020 A 
ATOM     84  C   UNL A   1      39.265  35.313  39.467  1.00  0.00     0.054 A 
BRANCH  84  85
ATOM     85  S   UNL A   1      38.964  36.388  40.895  1.00  0.00     0.124 S 
ATOM     86  O   UNL A   1      38.697  37.674  40.258  1.00  0.00    -0.237 OA
ATOM     87  O   UNL A   1      37.816  35.752  41.535  1.00  0.00    -0.237 OA
ATOM     88  O   UNL A   1      40.212  36.317  41.653  1.00  0.00    -0.744 OA
ENDBRANCH  84  85
ENDBRANCH  58  79
ENDBRANCH  32  33
ENDBRANCH  25  27
ENDBRANCH  24  25
ENDBRANCH  23  24
ENDBRANCH   1  23
TORSDOF 18
ENDMDL
