MODEL 1
REMARK VINA RESULT:     -10.1      0.000      0.000
REMARK SMILES O=C(C[C@H]1C[C@H]2CC[C@@H](C1)N2C(=O)NCCC1CC1)OCCOC(=O)c1ccc(-c2c3nc(c(-c4ccc(S(=O)(=O)[O-])cc4)c4ccc([nH]4)c(-c4ccc(S(=O)(=O)[O-])cc4)c4nc(c(-c5ccc(S(=O)(=O)[O-])cc5)c5ccc2[nH]5)C=C4)C=C3)cc1
REMARK SMILES IDX 21 1 20 2 2 3 1 4 3 5 4 6 5 7 10 8 6 9 9 10 7 11 11 12 8 13
REMARK SMILES IDX 12 14 13 15 14 16 15 18 16 19 17 20 18 21 19 22 22 23 23 24
REMARK SMILES IDX 24 25 25 26 26 27 27 28 85 29 28 30 84 31 29 32 30 33 31 34
REMARK SMILES IDX 78 35 32 36 83 37 77 38 79 39 33 40 82 41 76 42 75 43 34 45
REMARK SMILES IDX 64 46 45 47 63 48 46 49 49 50 62 51 80 52 47 53 48 54 61 56
REMARK SMILES IDX 81 57 50 58 35 59 36 60 44 61 37 62 43 63 38 64 39 65 40 66
REMARK SMILES IDX 41 67 42 68 65 69 66 70 74 71 67 72 73 73 68 74 69 75 70 76
REMARK SMILES IDX 71 77 72 78 51 79 52 80 60 81 53 82 59 83 54 84 55 85 56 86
REMARK SMILES IDX 57 87 58 88
REMARK H PARENT 14 17 79 44 49 55
REMARK Flexibility Score: inf
ROOT
ATOM      1  C   UNL A   1      31.699  28.567  26.957  1.00  0.00     0.274 C 
ENDROOT
BRANCH   1   2
ATOM      2  O   UNL A   1      31.384  27.686  25.847  1.00  0.00    -0.462 OA
BRANCH   2   3
ATOM      3  C   UNL A   1      32.112  27.053  24.898  1.00  0.00     0.306 C 
ATOM      4  O   UNL A   1      31.683  27.037  23.743  1.00  0.00    -0.252 OA
BRANCH   3   5
ATOM      5  C   UNL A   1      33.398  26.330  25.217  1.00  0.00     0.126 C 
BRANCH   5   6
ATOM      6  C   UNL A   1      33.396  25.055  26.081  1.00  0.00     0.004 C 
ATOM      7  C   UNL A   1      32.080  24.262  26.347  1.00  0.00     0.029 C 
ATOM      8  C   UNL A   1      34.532  24.125  25.699  1.00  0.00     0.029 C 
ATOM      9  C   UNL A   1      31.988  22.862  25.660  1.00  0.00     0.087 C 
ATOM     10  C   UNL A   1      34.118  22.950  24.793  1.00  0.00     0.087 C 
ATOM     11  C   UNL A   1      31.759  23.093  24.168  1.00  0.00     0.027 C 
ATOM     12  N   UNL A   1      33.298  22.192  25.690  1.00  0.00    -0.319 N 
ATOM     13  C   UNL A   1      33.176  23.127  23.599  1.00  0.00     0.027 C 
BRANCH  12  14
ATOM     14  C   UNL A   1      33.679  21.250  26.592  1.00  0.00     0.317 C 
ATOM     15  O   UNL A   1      34.351  21.540  27.584  1.00  0.00    -0.249 OA
ATOM     16  N   UNL A   1      33.348  19.938  26.441  1.00  0.00    -0.338 N 
ATOM     17  H   UNL A   1      33.665  19.392  27.197  1.00  0.00     0.165 HD
BRANCH  16  18
ATOM     18  C   UNL A   1      32.642  19.126  25.446  1.00  0.00     0.118 C 
BRANCH  18  19
ATOM     19  C   UNL A   1      33.394  18.961  24.129  1.00  0.00     0.025 C 
BRANCH  19  20
ATOM     20  C   UNL A   1      33.117  17.657  23.448  1.00  0.00    -0.009 C 
ATOM     21  C   UNL A   1      34.280  16.745  23.148  1.00  0.00     0.004 C 
ATOM     22  C   UNL A   1      33.279  16.365  24.200  1.00  0.00     0.004 C 
ENDBRANCH  19  20
ENDBRANCH  18  19
ENDBRANCH  16  18
ENDBRANCH  12  14
ENDBRANCH   5   6
ENDBRANCH   3   5
ENDBRANCH   2   3
ENDBRANCH   1   2
BRANCH   1  23
ATOM     23  C   UNL A   1      32.672  29.713  26.689  1.00  0.00     0.275 C 
BRANCH  23  24
ATOM     24  O   UNL A   1      33.987  29.420  27.139  1.00  0.00    -0.458 OA
BRANCH  24  25
ATOM     25  C   UNL A   1      34.550  30.430  27.848  1.00  0.00     0.338 C 
ATOM     26  O   UNL A   1      33.988  31.404  28.318  1.00  0.00    -0.246 OA
BRANCH  25  27
ATOM     27  C   UNL A   1      35.931  30.026  28.136  1.00  0.00     0.060 A 
ATOM     28  C   UNL A   1      36.235  29.541  29.412  1.00  0.00     0.016 A 
ATOM     29  C   UNL A   1      36.897  30.069  27.128  1.00  0.00     0.016 A 
ATOM     30  C   UNL A   1      37.525  29.102  29.692  1.00  0.00     0.010 A 
ATOM     31  C   UNL A   1      38.190  29.652  27.414  1.00  0.00     0.010 A 
ATOM     32  C   UNL A   1      38.511  29.191  28.701  1.00  0.00    -0.014 A 
BRANCH  32  33
ATOM     33  C   UNL A   1      39.934  29.000  29.035  1.00  0.00     0.031 A 
ATOM     34  C   UNL A   1      40.555  27.679  28.692  1.00  0.00     0.074 A 
ATOM     35  C   UNL A   1      40.612  29.939  29.716  1.00  0.00     0.049 A 
ATOM     36  N   UNL A   1      41.724  27.206  29.028  1.00  0.00    -0.248 NA
ATOM     37  C   UNL A   1      39.741  26.758  27.876  1.00  0.00     0.031 C 
ATOM     38  C   UNL A   1      40.101  31.260  30.081  1.00  0.00     0.029 A 
ATOM     39  N   UNL A   1      41.872  29.903  30.253  1.00  0.00    -0.354 N 
ATOM     40  C   UNL A   1      41.781  25.931  28.482  1.00  0.00     0.074 A 
ATOM     41  C   UNL A   1      40.529  25.697  27.799  1.00  0.00     0.031 C 
ATOM     42  C   UNL A   1      41.029  31.895  30.820  1.00  0.00     0.029 A 
ATOM     43  C   UNL A   1      42.177  31.011  31.007  1.00  0.00     0.049 A 
ATOM     44  H   UNL A   1      42.498  29.156  30.115  1.00  0.00     0.167 HD
ATOM     45  C   UNL A   1      42.787  25.033  28.556  1.00  0.00     0.031 A 
ATOM     46  C   UNL A   1      43.246  31.257  31.791  1.00  0.00     0.031 A 
ATOM     47  C   UNL A   1      44.020  25.270  29.252  1.00  0.00     0.049 A 
ATOM     48  C   UNL A   1      44.324  30.209  31.907  1.00  0.00     0.074 A 
ATOM     49  C   UNL A   1      45.125  24.447  29.343  1.00  0.00     0.029 A 
ATOM     50  N   UNL A   1      44.298  26.407  29.994  1.00  0.00    -0.354 N 
ATOM     51  N   UNL A   1      44.403  29.037  31.321  1.00  0.00    -0.248 NA
ATOM     52  C   UNL A   1      45.456  30.513  32.795  1.00  0.00     0.031 C 
ATOM     53  C   UNL A   1      46.050  25.058  30.194  1.00  0.00     0.029 A 
ATOM     54  C   UNL A   1      45.542  26.288  30.586  1.00  0.00     0.049 A 
ATOM     55  H   UNL A   1      43.700  27.183  30.086  1.00  0.00     0.167 HD
ATOM     56  C   UNL A   1      45.601  28.476  31.754  1.00  0.00     0.074 A 
ATOM     57  C   UNL A   1      46.222  29.442  32.635  1.00  0.00     0.031 C 
ATOM     58  C   UNL A   1      46.139  27.268  31.454  1.00  0.00     0.031 A 
BRANCH  45  59
ATOM     59  C   UNL A   1      42.583  23.697  27.901  1.00  0.00    -0.014 A 
ATOM     60  C   UNL A   1      43.156  23.404  26.651  1.00  0.00     0.010 A 
ATOM     61  C   UNL A   1      41.861  22.699  28.579  1.00  0.00     0.010 A 
ATOM     62  C   UNL A   1      43.000  22.137  26.086  1.00  0.00     0.020 A 
ATOM     63  C   UNL A   1      41.721  21.424  28.028  1.00  0.00     0.020 A 
ATOM     64  C   UNL A   1      42.287  21.153  26.780  1.00  0.00     0.054 A 
BRANCH  64  65
ATOM     65  S   UNL A   1      42.157  19.498  26.052  1.00  0.00     0.124 S 
ATOM     66  O   UNL A   1      43.045  19.606  24.897  1.00  0.00    -0.237 OA
ATOM     67  O   UNL A   1      42.631  18.636  27.130  1.00  0.00    -0.237 OA
ATOM     68  O   UNL A   1      40.737  19.369  25.735  1.00  0.00    -0.744 OA
ENDBRANCH  64  65
ENDBRANCH  45  59
BRANCH  46  69
ATOM     69  C   UNL A   1      43.329  32.515  32.581  1.00  0.00    -0.014 A 
ATOM     70  C   UNL A   1      42.804  32.584  33.883  1.00  0.00     0.010 A 
ATOM     71  C   UNL A   1      43.897  33.672  32.013  1.00  0.00     0.010 A 
ATOM     72  C   UNL A   1      42.808  33.794  34.586  1.00  0.00     0.020 A 
ATOM     73  C   UNL A   1      43.928  34.874  32.723  1.00  0.00     0.020 A 
ATOM     74  C   UNL A   1      43.364  34.933  33.998  1.00  0.00     0.054 A 
BRANCH  74  75
ATOM     75  S   UNL A   1      43.363  36.491  34.927  1.00  0.00     0.124 S 
ATOM     76  O   UNL A   1      42.021  36.500  35.500  1.00  0.00    -0.237 OA
ATOM     77  O   UNL A   1      44.455  36.294  35.877  1.00  0.00    -0.237 OA
ATOM     78  O   UNL A   1      43.613  37.500  33.901  1.00  0.00    -0.744 OA
ENDBRANCH  74  75
ENDBRANCH  46  69
BRANCH  58  79
ATOM     79  C   UNL A   1      47.472  26.927  32.061  1.00  0.00    -0.014 A 
ATOM     80  C   UNL A   1      47.554  26.205  33.264  1.00  0.00     0.010 A 
ATOM     81  C   UNL A   1      48.654  27.248  31.368  1.00  0.00     0.010 A 
ATOM     82  C   UNL A   1      48.799  25.822  33.772  1.00  0.00     0.020 A 
ATOM     83  C   UNL A   1      49.897  26.843  31.859  1.00  0.00     0.020 A 
ATOM     84  C   UNL A   1      49.962  26.139  33.063  1.00  0.00     0.054 A 
BRANCH  84  85
ATOM     85  S   UNL A   1      51.558  25.566  33.705  1.00  0.00     0.124 S 
ATOM     86  O   UNL A   1      51.306  24.143  33.919  1.00  0.00    -0.237 OA
ATOM     87  O   UNL A   1      52.476  25.883  32.613  1.00  0.00    -0.237 OA
ATOM     88  O   UNL A   1      51.747  26.354  34.920  1.00  0.00    -0.744 OA
ENDBRANCH  84  85
ENDBRANCH  58  79
ENDBRANCH  32  33
ENDBRANCH  25  27
ENDBRANCH  24  25
ENDBRANCH  23  24
ENDBRANCH   1  23
TORSDOF 19
ENDMDL
MODEL 2
REMARK VINA RESULT:     -10.1      3.809      9.180
REMARK SMILES O=C(C[C@H]1C[C@H]2CC[C@@H](C1)N2C(=O)NCCC1CC1)OCCOC(=O)c1ccc(-c2c3nc(c(-c4ccc(S(=O)(=O)[O-])cc4)c4ccc([nH]4)c(-c4ccc(S(=O)(=O)[O-])cc4)c4nc(c(-c5ccc(S(=O)(=O)[O-])cc5)c5ccc2[nH]5)C=C4)C=C3)cc1
REMARK SMILES IDX 21 1 20 2 2 3 1 4 3 5 4 6 5 7 10 8 6 9 9 10 7 11 11 12 8 13
REMARK SMILES IDX 12 14 13 15 14 16 15 18 16 19 17 20 18 21 19 22 22 23 23 24
REMARK SMILES IDX 24 25 25 26 26 27 27 28 85 29 28 30 84 31 29 32 30 33 31 34
REMARK SMILES IDX 78 35 32 36 83 37 77 38 79 39 33 40 82 41 76 42 75 43 34 45
REMARK SMILES IDX 64 46 45 47 63 48 46 49 49 50 62 51 80 52 47 53 48 54 61 56
REMARK SMILES IDX 81 57 50 58 35 59 36 60 44 61 37 62 43 63 38 64 39 65 40 66
REMARK SMILES IDX 41 67 42 68 65 69 66 70 74 71 67 72 73 73 68 74 69 75 70 76
REMARK SMILES IDX 71 77 72 78 51 79 52 80 60 81 53 82 59 83 54 84 55 85 56 86
REMARK SMILES IDX 57 87 58 88
REMARK H PARENT 14 17 79 44 49 55
REMARK Flexibility Score: inf
ROOT
ATOM      1  C   UNL A   1      33.838  31.705  27.694  1.00  0.00     0.274 C 
ENDROOT
BRANCH   1   2
ATOM      2  O   UNL A   1      33.348  30.359  27.460  1.00  0.00    -0.462 OA
BRANCH   2   3
ATOM      3  C   UNL A   1      32.258  29.835  26.853  1.00  0.00     0.306 C 
ATOM      4  O   UNL A   1      31.526  30.586  26.207  1.00  0.00    -0.252 OA
BRANCH   3   5
ATOM      5  C   UNL A   1      31.887  28.377  26.983  1.00  0.00     0.126 C 
BRANCH   5   6
ATOM      6  C   UNL A   1      31.314  27.596  25.786  1.00  0.00     0.004 C 
ATOM      7  C   UNL A   1      31.956  27.705  24.369  1.00  0.00     0.029 C 
ATOM      8  C   UNL A   1      31.029  26.151  26.152  1.00  0.00     0.029 C 
ATOM      9  C   UNL A   1      32.688  26.421  23.862  1.00  0.00     0.087 C 
ATOM     10  C   UNL A   1      32.107  25.152  25.690  1.00  0.00     0.087 C 
ATOM     11  C   UNL A   1      33.994  26.295  24.641  1.00  0.00     0.027 C 
ATOM     12  N   UNL A   1      31.946  25.217  24.269  1.00  0.00    -0.319 N 
ATOM     13  C   UNL A   1      33.604  25.433  25.839  1.00  0.00     0.027 C 
BRANCH  12  14
ATOM     14  C   UNL A   1      31.085  24.520  23.482  1.00  0.00     0.317 C 
ATOM     15  O   UNL A   1      29.953  24.940  23.234  1.00  0.00    -0.249 OA
ATOM     16  N   UNL A   1      31.424  23.320  22.938  1.00  0.00    -0.338 N 
ATOM     17  H   UNL A   1      30.707  22.964  22.364  1.00  0.00     0.165 HD
BRANCH  16  18
ATOM     18  C   UNL A   1      32.578  22.418  22.982  1.00  0.00     0.118 C 
BRANCH  18  19
ATOM     19  C   UNL A   1      32.216  20.937  22.904  1.00  0.00     0.025 C 
BRANCH  19  20
ATOM     20  C   UNL A   1      32.452  20.201  24.185  1.00  0.00    -0.009 C 
ATOM     21  C   UNL A   1      33.003  18.800  24.114  1.00  0.00     0.004 C 
ATOM     22  C   UNL A   1      33.855  19.916  24.643  1.00  0.00     0.004 C 
ENDBRANCH  19  20
ENDBRANCH  18  19
ENDBRANCH  16  18
ENDBRANCH  12  14
ENDBRANCH   5   6
ENDBRANCH   3   5
ENDBRANCH   2   3
ENDBRANCH   1   2
BRANCH   1  23
ATOM     23  C   UNL A   1      35.305  31.857  28.093  1.00  0.00     0.275 C 
BRANCH  23  24
ATOM     24  O   UNL A   1      35.974  30.607  28.169  1.00  0.00    -0.458 OA
BRANCH  24  25
ATOM     25  C   UNL A   1      36.511  30.358  29.390  1.00  0.00     0.338 C 
ATOM     26  O   UNL A   1      35.917  30.248  30.449  1.00  0.00    -0.246 OA
BRANCH  25  27
ATOM     27  C   UNL A   1      37.924  30.026  29.171  1.00  0.00     0.060 A 
ATOM     28  C   UNL A   1      38.335  29.663  27.884  1.00  0.00     0.016 A 
ATOM     29  C   UNL A   1      38.840  30.138  30.220  1.00  0.00     0.016 A 
ATOM     30  C   UNL A   1      39.678  29.396  27.641  1.00  0.00     0.010 A 
ATOM     31  C   UNL A   1      40.176  29.849  29.982  1.00  0.00     0.010 A 
ATOM     32  C   UNL A   1      40.593  29.455  28.699  1.00  0.00    -0.014 A 
BRANCH  32  33
ATOM     33  C   UNL A   1      41.957  28.917  28.547  1.00  0.00     0.031 A 
ATOM     34  C   UNL A   1      43.089  29.900  28.498  1.00  0.00     0.074 A 
ATOM     35  C   UNL A   1      42.160  27.603  28.355  1.00  0.00     0.049 A 
ATOM     36  N   UNL A   1      44.343  29.697  28.206  1.00  0.00    -0.248 NA
ATOM     37  C   UNL A   1      42.756  31.305  28.801  1.00  0.00     0.031 C 
ATOM     38  C   UNL A   1      41.128  26.568  28.401  1.00  0.00     0.029 A 
ATOM     39  N   UNL A   1      43.308  26.923  28.043  1.00  0.00    -0.354 N 
ATOM     40  C   UNL A   1      44.948  30.946  28.271  1.00  0.00     0.074 A 
ATOM     41  C   UNL A   1      43.924  31.903  28.624  1.00  0.00     0.031 C 
ATOM     42  C   UNL A   1      41.686  25.384  28.086  1.00  0.00     0.029 A 
ATOM     43  C   UNL A   1      43.101  25.589  27.784  1.00  0.00     0.049 A 
ATOM     44  H   UNL A   1      44.195  27.348  28.007  1.00  0.00     0.167 HD
ATOM     45  C   UNL A   1      46.242  31.262  28.046  1.00  0.00     0.031 A 
ATOM     46  C   UNL A   1      43.953  24.656  27.314  1.00  0.00     0.031 A 
ATOM     47  C   UNL A   1      47.246  30.305  27.680  1.00  0.00     0.049 A 
ATOM     48  C   UNL A   1      45.375  25.053  27.009  1.00  0.00     0.074 A 
ATOM     49  C   UNL A   1      48.597  30.513  27.481  1.00  0.00     0.029 A 
ATOM     50  N   UNL A   1      47.002  28.962  27.438  1.00  0.00    -0.354 N 
ATOM     51  N   UNL A   1      45.955  26.222  27.151  1.00  0.00    -0.248 NA
ATOM     52  C   UNL A   1      46.258  24.006  26.473  1.00  0.00     0.031 C 
ATOM     53  C   UNL A   1      49.161  29.309  27.054  1.00  0.00     0.029 A 
ATOM     54  C   UNL A   1      48.171  28.337  27.044  1.00  0.00     0.049 A 
ATOM     55  H   UNL A   1      46.128  28.520  27.531  1.00  0.00     0.167 HD
ATOM     56  C   UNL A   1      47.274  26.044  26.743  1.00  0.00     0.074 A 
ATOM     57  C   UNL A   1      47.411  24.653  26.365  1.00  0.00     0.031 C 
ATOM     58  C   UNL A   1      48.281  26.949  26.680  1.00  0.00     0.031 A 
BRANCH  45  59
ATOM     59  C   UNL A   1      46.637  32.707  28.151  1.00  0.00    -0.014 A 
ATOM     60  C   UNL A   1      46.558  33.566  27.041  1.00  0.00     0.010 A 
ATOM     61  C   UNL A   1      47.030  33.226  29.398  1.00  0.00     0.010 A 
ATOM     62  C   UNL A   1      46.877  34.919  27.174  1.00  0.00     0.020 A 
ATOM     63  C   UNL A   1      47.330  34.583  29.540  1.00  0.00     0.020 A 
ATOM     64  C   UNL A   1      47.257  35.420  28.424  1.00  0.00     0.054 A 
BRANCH  64  65
ATOM     65  S   UNL A   1      47.602  37.192  28.581  1.00  0.00     0.124 S 
ATOM     66  O   UNL A   1      46.666  37.590  29.631  1.00  0.00    -0.237 OA
ATOM     67  O   UNL A   1      49.012  37.212  28.958  1.00  0.00    -0.237 OA
ATOM     68  O   UNL A   1      47.308  37.722  27.252  1.00  0.00    -0.744 OA
ENDBRANCH  64  65
ENDBRANCH  45  59
BRANCH  46  69
ATOM     69  C   UNL A   1      43.480  23.272  27.039  1.00  0.00    -0.014 A 
ATOM     70  C   UNL A   1      43.044  22.440  28.085  1.00  0.00     0.010 A 
ATOM     71  C   UNL A   1      43.507  22.761  25.728  1.00  0.00     0.010 A 
ATOM     72  C   UNL A   1      42.684  21.112  27.832  1.00  0.00     0.020 A 
ATOM     73  C   UNL A   1      43.121  21.445  25.466  1.00  0.00     0.020 A 
ATOM     74  C   UNL A   1      42.732  20.621  26.524  1.00  0.00     0.054 A 
BRANCH  74  75
ATOM     75  S   UNL A   1      42.257  18.897  26.215  1.00  0.00     0.124 S 
ATOM     76  O   UNL A   1      42.462  18.288  27.525  1.00  0.00    -0.237 OA
ATOM     77  O   UNL A   1      40.866  19.024  25.786  1.00  0.00    -0.237 OA
ATOM     78  O   UNL A   1      43.187  18.470  25.172  1.00  0.00    -0.744 OA
ENDBRANCH  74  75
ENDBRANCH  46  69
BRANCH  58  79
ATOM     79  C   UNL A   1      49.626  26.467  26.209  1.00  0.00    -0.014 A 
ATOM     80  C   UNL A   1      50.056  26.701  24.892  1.00  0.00     0.010 A 
ATOM     81  C   UNL A   1      50.506  25.860  27.124  1.00  0.00     0.010 A 
ATOM     82  C   UNL A   1      51.340  26.322  24.492  1.00  0.00     0.020 A 
ATOM     83  C   UNL A   1      51.800  25.505  26.736  1.00  0.00     0.020 A 
ATOM     84  C   UNL A   1      52.206  25.731  25.419  1.00  0.00     0.054 A 
BRANCH  84  85
ATOM     85  S   UNL A   1      53.893  25.318  24.897  1.00  0.00     0.124 S 
ATOM     86  O   UNL A   1      53.972  25.963  23.589  1.00  0.00    -0.237 OA
ATOM     87  O   UNL A   1      54.711  25.923  25.946  1.00  0.00    -0.237 OA
ATOM     88  O   UNL A   1      53.900  23.858  24.872  1.00  0.00    -0.744 OA
ENDBRANCH  84  85
ENDBRANCH  58  79
ENDBRANCH  32  33
ENDBRANCH  25  27
ENDBRANCH  24  25
ENDBRANCH  23  24
ENDBRANCH   1  23
TORSDOF 19
ENDMDL
MODEL 3
REMARK VINA RESULT:     -10.1      2.838      8.543
REMARK SMILES O=C(C[C@H]1C[C@H]2CC[C@@H](C1)N2C(=O)NCCC1CC1)OCCOC(=O)c1ccc(-c2c3nc(c(-c4ccc(S(=O)(=O)[O-])cc4)c4ccc([nH]4)c(-c4ccc(S(=O)(=O)[O-])cc4)c4nc(c(-c5ccc(S(=O)(=O)[O-])cc5)c5ccc2[nH]5)C=C4)C=C3)cc1
REMARK SMILES IDX 21 1 20 2 2 3 1 4 3 5 4 6 5 7 10 8 6 9 9 10 7 11 11 12 8 13
REMARK SMILES IDX 12 14 13 15 14 16 15 18 16 19 17 20 18 21 19 22 22 23 23 24
REMARK SMILES IDX 24 25 25 26 26 27 27 28 85 29 28 30 84 31 29 32 30 33 31 34
REMARK SMILES IDX 78 35 32 36 83 37 77 38 79 39 33 40 82 41 76 42 75 43 34 45
REMARK SMILES IDX 64 46 45 47 63 48 46 49 49 50 62 51 80 52 47 53 48 54 61 56
REMARK SMILES IDX 81 57 50 58 35 59 36 60 44 61 37 62 43 63 38 64 39 65 40 66
REMARK SMILES IDX 41 67 42 68 65 69 66 70 74 71 67 72 73 73 68 74 69 75 70 76
REMARK SMILES IDX 71 77 72 78 51 79 52 80 60 81 53 82 59 83 54 84 55 85 56 86
REMARK SMILES IDX 57 87 58 88
REMARK H PARENT 14 17 79 44 49 55
REMARK Flexibility Score: inf
ROOT
ATOM      1  C   UNL A   1      36.367  22.211  25.505  1.00  0.00     0.274 C 
ENDROOT
BRANCH   1   2
ATOM      2  O   UNL A   1      35.402  21.142  25.694  1.00  0.00    -0.462 OA
BRANCH   2   3
ATOM      3  C   UNL A   1      34.338  20.685  24.994  1.00  0.00     0.306 C 
ATOM      4  O   UNL A   1      34.419  19.577  24.461  1.00  0.00    -0.252 OA
BRANCH   3   5
ATOM      5  C   UNL A   1      33.084  21.503  24.809  1.00  0.00     0.126 C 
BRANCH   5   6
ATOM      6  C   UNL A   1      32.923  22.443  23.600  1.00  0.00     0.004 C 
ATOM      7  C   UNL A   1      31.607  23.248  23.373  1.00  0.00     0.029 C 
ATOM      8  C   UNL A   1      34.146  23.324  23.416  1.00  0.00     0.029 C 
ATOM      9  C   UNL A   1      31.720  24.794  23.575  1.00  0.00     0.087 C 
ATOM     10  C   UNL A   1      33.989  24.756  23.960  1.00  0.00     0.087 C 
ATOM     11  C   UNL A   1      31.834  25.057  25.075  1.00  0.00     0.027 C 
ATOM     12  N   UNL A   1      33.009  25.283  23.058  1.00  0.00    -0.319 N 
ATOM     13  C   UNL A   1      33.342  25.053  25.316  1.00  0.00     0.027 C 
BRANCH  12  14
ATOM     14  C   UNL A   1      33.201  25.857  21.842  1.00  0.00     0.317 C 
ATOM     15  O   UNL A   1      33.160  25.198  20.803  1.00  0.00    -0.249 OA
ATOM     16  N   UNL A   1      33.461  27.187  21.712  1.00  0.00    -0.338 N 
ATOM     17  H   UNL A   1      33.536  27.453  20.766  1.00  0.00     0.165 HD
BRANCH  16  18
ATOM     18  C   UNL A   1      33.658  28.327  22.611  1.00  0.00     0.118 C 
BRANCH  18  19
ATOM     19  C   UNL A   1      32.432  28.679  23.450  1.00  0.00     0.025 C 
BRANCH  19  20
ATOM     20  C   UNL A   1      32.776  29.248  24.790  1.00  0.00    -0.009 C 
ATOM     21  C   UNL A   1      31.704  29.986  25.551  1.00  0.00     0.004 C 
ATOM     22  C   UNL A   1      32.185  28.650  26.037  1.00  0.00     0.004 C 
ENDBRANCH  19  20
ENDBRANCH  18  19
ENDBRANCH  16  18
ENDBRANCH  12  14
ENDBRANCH   5   6
ENDBRANCH   3   5
ENDBRANCH   2   3
ENDBRANCH   1   2
BRANCH   1  23
ATOM     23  C   UNL A   1      37.837  21.879  25.754  1.00  0.00     0.275 C 
BRANCH  23  24
ATOM     24  O   UNL A   1      38.677  23.014  25.612  1.00  0.00    -0.458 OA
BRANCH  24  25
ATOM     25  C   UNL A   1      39.824  22.929  26.331  1.00  0.00     0.338 C 
ATOM     26  O   UNL A   1      40.651  22.034  26.298  1.00  0.00    -0.246 OA
BRANCH  25  27
ATOM     27  C   UNL A   1      40.000  24.222  27.001  1.00  0.00     0.060 A 
ATOM     28  C   UNL A   1      40.907  25.140  26.458  1.00  0.00     0.016 A 
ATOM     29  C   UNL A   1      39.226  24.543  28.118  1.00  0.00     0.016 A 
ATOM     30  C   UNL A   1      41.051  26.393  27.045  1.00  0.00     0.010 A 
ATOM     31  C   UNL A   1      39.387  25.785  28.718  1.00  0.00     0.010 A 
ATOM     32  C   UNL A   1      40.316  26.702  28.197  1.00  0.00    -0.014 A 
BRANCH  32  33
ATOM     33  C   UNL A   1      40.638  27.894  29.000  1.00  0.00     0.031 A 
ATOM     34  C   UNL A   1      41.841  27.825  29.893  1.00  0.00     0.074 A 
ATOM     35  C   UNL A   1      39.820  28.961  29.006  1.00  0.00     0.049 A 
ATOM     36  N   UNL A   1      42.235  28.664  30.811  1.00  0.00    -0.248 NA
ATOM     37  C   UNL A   1      42.707  26.640  29.742  1.00  0.00     0.031 C 
ATOM     38  C   UNL A   1      38.637  29.129  28.163  1.00  0.00     0.029 A 
ATOM     39  N   UNL A   1      39.847  30.090  29.782  1.00  0.00    -0.354 N 
ATOM     40  C   UNL A   1      43.381  28.103  31.360  1.00  0.00     0.074 A 
ATOM     41  C   UNL A   1      43.618  26.850  30.680  1.00  0.00     0.031 C 
ATOM     42  C   UNL A   1      38.026  30.280  28.498  1.00  0.00     0.029 A 
ATOM     43  C   UNL A   1      38.756  30.906  29.598  1.00  0.00     0.049 A 
ATOM     44  H   UNL A   1      40.576  30.297  30.410  1.00  0.00     0.167 HD
ATOM     45  C   UNL A   1      44.158  28.590  32.352  1.00  0.00     0.031 A 
ATOM     46  C   UNL A   1      38.375  32.006  30.277  1.00  0.00     0.031 A 
ATOM     47  C   UNL A   1      43.902  29.828  33.032  1.00  0.00     0.049 A 
ATOM     48  C   UNL A   1      39.228  32.491  31.423  1.00  0.00     0.074 A 
ATOM     49  C   UNL A   1      44.657  30.438  34.015  1.00  0.00     0.029 A 
ATOM     50  N   UNL A   1      42.795  30.633  32.812  1.00  0.00    -0.354 N 
ATOM     51  N   UNL A   1      40.353  31.995  31.881  1.00  0.00    -0.248 NA
ATOM     52  C   UNL A   1      38.755  33.679  32.148  1.00  0.00     0.031 C 
ATOM     53  C   UNL A   1      43.974  31.581  34.437  1.00  0.00     0.029 A 
ATOM     54  C   UNL A   1      42.822  31.712  33.676  1.00  0.00     0.049 A 
ATOM     55  H   UNL A   1      42.095  30.461  32.143  1.00  0.00     0.167 HD
ATOM     56  C   UNL A   1      40.732  32.824  32.933  1.00  0.00     0.074 A 
ATOM     57  C   UNL A   1      39.727  33.862  33.032  1.00  0.00     0.031 C 
ATOM     58  C   UNL A   1      41.811  32.735  33.748  1.00  0.00     0.031 A 
BRANCH  45  59
ATOM     59  C   UNL A   1      45.334  27.765  32.789  1.00  0.00    -0.014 A 
ATOM     60  C   UNL A   1      46.622  28.008  32.281  1.00  0.00     0.010 A 
ATOM     61  C   UNL A   1      45.156  26.776  33.772  1.00  0.00     0.010 A 
ATOM     62  C   UNL A   1      47.711  27.266  32.743  1.00  0.00     0.020 A 
ATOM     63  C   UNL A   1      46.245  26.046  34.252  1.00  0.00     0.020 A 
ATOM     64  C   UNL A   1      47.516  26.292  33.729  1.00  0.00     0.054 A 
BRANCH  64  65
ATOM     65  S   UNL A   1      48.959  25.390  34.356  1.00  0.00     0.124 S 
ATOM     66  O   UNL A   1      48.825  24.102  33.681  1.00  0.00    -0.237 OA
ATOM     67  O   UNL A   1      50.074  26.220  33.910  1.00  0.00    -0.237 OA
ATOM     68  O   UNL A   1      48.747  25.360  35.801  1.00  0.00    -0.744 OA
ENDBRANCH  64  65
ENDBRANCH  45  59
BRANCH  46  69
ATOM     69  C   UNL A   1      37.100  32.696  29.942  1.00  0.00    -0.014 A 
ATOM     70  C   UNL A   1      37.069  33.730  28.990  1.00  0.00     0.010 A 
ATOM     71  C   UNL A   1      35.910  32.350  30.611  1.00  0.00     0.010 A 
ATOM     72  C   UNL A   1      35.884  34.432  28.743  1.00  0.00     0.020 A 
ATOM     73  C   UNL A   1      34.719  33.029  30.346  1.00  0.00     0.020 A 
ATOM     74  C   UNL A   1      34.719  34.081  29.428  1.00  0.00     0.054 A 
BRANCH  74  75
ATOM     75  S   UNL A   1      33.191  35.001  29.092  1.00  0.00     0.124 S 
ATOM     76  O   UNL A   1      32.541  34.153  28.097  1.00  0.00    -0.237 OA
ATOM     77  O   UNL A   1      32.550  35.041  30.404  1.00  0.00    -0.237 OA
ATOM     78  O   UNL A   1      33.671  36.290  28.600  1.00  0.00    -0.744 OA
ENDBRANCH  74  75
ENDBRANCH  46  69
BRANCH  58  79
ATOM     79  C   UNL A   1      41.980  33.793  34.804  1.00  0.00    -0.014 A 
ATOM     80  C   UNL A   1      41.495  33.596  36.108  1.00  0.00     0.010 A 
ATOM     81  C   UNL A   1      42.718  34.955  34.511  1.00  0.00     0.010 A 
ATOM     82  C   UNL A   1      41.732  34.552  37.100  1.00  0.00     0.020 A 
ATOM     83  C   UNL A   1      42.981  35.899  35.506  1.00  0.00     0.020 A 
ATOM     84  C   UNL A   1      42.479  35.695  36.793  1.00  0.00     0.054 A 
BRANCH  84  85
ATOM     85  S   UNL A   1      42.838  36.882  38.116  1.00  0.00     0.124 S 
ATOM     86  O   UNL A   1      41.500  37.329  38.495  1.00  0.00    -0.237 OA
ATOM     87  O   UNL A   1      43.530  36.061  39.106  1.00  0.00    -0.237 OA
ATOM     88  O   UNL A   1      43.667  37.890  37.461  1.00  0.00    -0.744 OA
ENDBRANCH  84  85
ENDBRANCH  58  79
ENDBRANCH  32  33
ENDBRANCH  25  27
ENDBRANCH  24  25
ENDBRANCH  23  24
ENDBRANCH   1  23
TORSDOF 19
ENDMDL
