MODEL 1
REMARK VINA RESULT:     -12.0      0.000      0.000
REMARK SMILES C[C@@H](C(=O)OCCOC(=O)c1ccc(-c2c3nc(c(-c4ccc(S(=O)(=O)[O-])cc4)c4ccc([nH]4)c(-c4ccc(S(=O)(=O)[O-])cc4)c4nc(c(-c5ccc(S(=O)(=O)[O-])cc5)c5ccc2[nH]5)C=C4)C=C3)cc1)c1ccc(N[C@H]2CCC[C@@H]2O)cc1F
REMARK SMILES IDX 6 1 5 2 3 3 4 4 2 5 1 6 71 7 72 8 83 9 73 10 82 11 84 12
REMARK SMILES IDX 74 13 75 14 76 16 77 17 80 18 78 19 79 20 81 21 7 23 8 24
REMARK SMILES IDX 9 25 10 26 11 27 12 28 70 29 13 30 69 31 14 32 15 33 16 34
REMARK SMILES IDX 63 35 17 36 68 37 62 38 64 39 18 40 67 41 61 42 60 43 19 45
REMARK SMILES IDX 49 46 30 47 48 48 31 49 34 50 47 51 65 52 32 53 33 54 46 56
REMARK SMILES IDX 66 57 35 58 20 59 21 60 29 61 22 62 28 63 23 64 24 65 25 66
REMARK SMILES IDX 26 67 27 68 50 69 51 70 59 71 52 72 58 73 53 74 54 75 55 76
REMARK SMILES IDX 56 77 57 78 36 79 37 80 45 81 38 82 44 83 39 84 40 85 41 86
REMARK SMILES IDX 42 87 43 88
REMARK H PARENT 75 15 81 22 64 44 34 55
REMARK Flexibility Score: inf
ROOT
ATOM      1  C   UNL A   1      37.556  22.546  25.398  1.00  0.00     0.274 C 
ENDROOT
BRANCH   1   2
ATOM      2  O   UNL A   1      36.959  22.370  24.078  1.00  0.00    -0.462 OA
BRANCH   2   3
ATOM      3  C   UNL A   1      35.604  22.569  23.968  1.00  0.00     0.313 C 
ATOM      4  O   UNL A   1      35.107  23.198  23.036  1.00  0.00    -0.252 OA
BRANCH   3   5
ATOM      5  C   UNL A   1      34.725  21.815  25.084  1.00  0.00     0.129 C 
ATOM      6  C   UNL A   1      34.712  20.305  24.821  1.00  0.00     0.025 C 
BRANCH   5   7
ATOM      7  C   UNL A   1      33.291  22.348  25.076  1.00  0.00     0.002 A 
ATOM      8  C   UNL A   1      33.006  22.953  26.250  1.00  0.00     0.010 A 
ATOM      9  C   UNL A   1      32.227  22.383  24.196  1.00  0.00     0.129 A 
ATOM     10  C   UNL A   1      31.736  23.059  26.728  1.00  0.00     0.026 A 
ATOM     11  C   UNL A   1      31.029  23.110  24.545  1.00  0.00     0.065 A 
ATOM     12  F   UNL A   1      32.343  21.826  22.983  1.00  0.00    -0.207 F 
ATOM     13  C   UNL A   1      30.816  23.546  25.867  1.00  0.00     0.037 A 
BRANCH  13  14
ATOM     14  N   UNL A   1      29.996  24.583  26.317  1.00  0.00    -0.380 N 
ATOM     15  H   UNL A   1      29.377  24.383  27.055  1.00  0.00     0.160 HD
BRANCH  14  16
ATOM     16  C   UNL A   1      29.981  25.997  25.760  1.00  0.00     0.107 C 
ATOM     17  C   UNL A   1      31.524  27.324  25.857  1.00  0.00     0.027 C 
ATOM     18  C   UNL A   1      29.055  26.245  23.959  1.00  0.00     0.136 C 
ATOM     19  C   UNL A   1      31.401  28.643  24.265  1.00  0.00     0.005 C 
ATOM     20  C   UNL A   1      29.839  28.010  23.064  1.00  0.00     0.034 C 
BRANCH  18  21
ATOM     21  O   UNL A   1      27.628  26.088  23.892  1.00  0.00    -0.391 OA
ATOM     22  H   UNL A   1      27.371  25.270  24.344  1.00  0.00     0.211 HD
ENDBRANCH  18  21
ENDBRANCH  14  16
ENDBRANCH  13  14
ENDBRANCH   5   7
ENDBRANCH   3   5
ENDBRANCH   2   3
ENDBRANCH   1   2
BRANCH   1  23
ATOM     23  C   UNL A   1      38.511  21.399  25.797  1.00  0.00     0.275 C 
BRANCH  23  24
ATOM     24  O   UNL A   1      39.902  21.820  25.810  1.00  0.00    -0.458 OA
BRANCH  24  25
ATOM     25  C   UNL A   1      40.402  22.231  27.012  1.00  0.00     0.338 C 
ATOM     26  O   UNL A   1      40.979  21.522  27.821  1.00  0.00    -0.246 OA
BRANCH  25  27
ATOM     27  C   UNL A   1      40.526  23.714  27.070  1.00  0.00     0.060 A 
ATOM     28  C   UNL A   1      39.705  24.224  28.033  1.00  0.00     0.016 A 
ATOM     29  C   UNL A   1      41.075  24.638  26.203  1.00  0.00     0.016 A 
ATOM     30  C   UNL A   1      39.243  25.536  28.053  1.00  0.00     0.010 A 
ATOM     31  C   UNL A   1      40.941  26.035  26.513  1.00  0.00     0.010 A 
ATOM     32  C   UNL A   1      40.094  26.496  27.564  1.00  0.00    -0.014 A 
BRANCH  32  33
ATOM     33  C   UNL A   1      40.033  28.050  28.335  1.00  0.00     0.031 A 
ATOM     34  C   UNL A   1      41.529  27.644  29.378  1.00  0.00     0.074 A 
ATOM     35  C   UNL A   1      38.897  29.518  28.494  1.00  0.00     0.049 A 
ATOM     36  N   UNL A   1      41.902  28.372  30.422  1.00  0.00    -0.248 NA
ATOM     37  C   UNL A   1      42.475  26.543  29.127  1.00  0.00     0.031 C 
ATOM     38  C   UNL A   1      37.366  29.963  27.959  1.00  0.00     0.029 A 
ATOM     39  N   UNL A   1      38.945  30.813  29.275  1.00  0.00    -0.354 N 
ATOM     40  C   UNL A   1      43.028  27.858  30.959  1.00  0.00     0.074 A 
ATOM     41  C   UNL A   1      43.350  26.708  30.131  1.00  0.00     0.031 C 
ATOM     42  C   UNL A   1      37.011  31.206  28.270  1.00  0.00     0.029 A 
ATOM     43  C   UNL A   1      37.877  31.648  29.307  1.00  0.00     0.049 A 
ATOM     44  H   UNL A   1      39.763  31.052  29.768  1.00  0.00     0.167 HD
ATOM     45  C   UNL A   1      43.660  28.390  32.030  1.00  0.00     0.031 A 
ATOM     46  C   UNL A   1      37.554  32.570  30.229  1.00  0.00     0.031 A 
ATOM     47  C   UNL A   1      43.210  29.555  32.803  1.00  0.00     0.049 A 
ATOM     48  C   UNL A   1      38.429  32.754  31.431  1.00  0.00     0.074 A 
ATOM     49  C   UNL A   1      43.860  30.098  33.902  1.00  0.00     0.029 A 
ATOM     50  N   UNL A   1      42.052  30.343  32.626  1.00  0.00    -0.354 N 
ATOM     51  N   UNL A   1      39.505  32.092  31.799  1.00  0.00    -0.248 NA
ATOM     52  C   UNL A   1      38.015  33.816  32.345  1.00  0.00     0.031 C 
ATOM     53  C   UNL A   1      43.088  31.137  34.424  1.00  0.00     0.029 A 
ATOM     54  C   UNL A   1      41.980  31.339  33.614  1.00  0.00     0.049 A 
ATOM     55  H   UNL A   1      41.387  30.213  31.911  1.00  0.00     0.167 HD
ATOM     56  C   UNL A   1      39.920  32.677  32.988  1.00  0.00     0.074 A 
ATOM     57  C   UNL A   1      38.979  33.761  33.250  1.00  0.00     0.031 C 
ATOM     58  C   UNL A   1      40.970  32.378  33.800  1.00  0.00     0.031 A 
BRANCH  45  59
ATOM     59  C   UNL A   1      44.908  27.679  32.447  1.00  0.00    -0.014 A 
ATOM     60  C   UNL A   1      44.851  26.557  33.292  1.00  0.00     0.010 A 
ATOM     61  C   UNL A   1      46.152  28.121  31.965  1.00  0.00     0.010 A 
ATOM     62  C   UNL A   1      46.027  25.926  33.698  1.00  0.00     0.020 A 
ATOM     63  C   UNL A   1      47.328  27.472  32.344  1.00  0.00     0.020 A 
ATOM     64  C   UNL A   1      47.257  26.395  33.229  1.00  0.00     0.054 A 
BRANCH  64  65
ATOM     65  S   UNL A   1      48.768  25.583  33.811  1.00  0.00     0.124 S 
ATOM     66  O   UNL A   1      48.295  24.225  34.068  1.00  0.00    -0.237 OA
ATOM     67  O   UNL A   1      49.667  25.731  32.670  1.00  0.00    -0.237 OA
ATOM     68  O   UNL A   1      49.139  26.347  34.999  1.00  0.00    -0.744 OA
ENDBRANCH  64  65
ENDBRANCH  45  59
BRANCH  46  69
ATOM     69  C   UNL A   1      36.246  33.249  30.069  1.00  0.00    -0.014 A 
ATOM     70  C   UNL A   1      35.319  33.218  31.118  1.00  0.00     0.010 A 
ATOM     71  C   UNL A   1      36.033  34.104  28.967  1.00  0.00     0.010 A 
ATOM     72  C   UNL A   1      34.212  34.065  31.087  1.00  0.00     0.020 A 
ATOM     73  C   UNL A   1      34.958  34.990  28.963  1.00  0.00     0.020 A 
ATOM     74  C   UNL A   1      34.053  34.961  30.023  1.00  0.00     0.054 A 
BRANCH  74  75
ATOM     75  S   UNL A   1      32.682  36.143  30.085  1.00  0.00     0.124 S 
ATOM     76  O   UNL A   1      32.210  36.125  28.704  1.00  0.00    -0.237 OA
ATOM     77  O   UNL A   1      31.789  35.538  31.070  1.00  0.00    -0.237 OA
ATOM     78  O   UNL A   1      33.320  37.385  30.515  1.00  0.00    -0.744 OA
ENDBRANCH  74  75
ENDBRANCH  46  69
BRANCH  58  79
ATOM     79  C   UNL A   1      41.126  33.317  34.991  1.00  0.00    -0.014 A 
ATOM     80  C   UNL A   1      40.409  33.126  36.191  1.00  0.00     0.010 A 
ATOM     81  C   UNL A   1      41.956  34.449  34.877  1.00  0.00     0.010 A 
ATOM     82  C   UNL A   1      40.479  34.071  37.223  1.00  0.00     0.020 A 
ATOM     83  C   UNL A   1      42.065  35.371  35.925  1.00  0.00     0.020 A 
ATOM     84  C   UNL A   1      41.310  35.187  37.084  1.00  0.00     0.054 A 
BRANCH  84  85
ATOM     85  S   UNL A   1      41.411  36.379  38.450  1.00  0.00     0.124 S 
ATOM     86  O   UNL A   1      42.633  37.112  38.129  1.00  0.00    -0.237 OA
ATOM     87  O   UNL A   1      40.169  37.133  38.305  1.00  0.00    -0.237 OA
ATOM     88  O   UNL A   1      41.486  35.537  39.641  1.00  0.00    -0.744 OA
ENDBRANCH  84  85
ENDBRANCH  58  79
ENDBRANCH  32  33
ENDBRANCH  25  27
ENDBRANCH  24  25
ENDBRANCH  23  24
ENDBRANCH   1  23
TORSDOF 18
ENDMDL
MODEL 2
REMARK VINA RESULT:     -11.3      5.327      7.089
REMARK SMILES C[C@@H](C(=O)OCCOC(=O)c1ccc(-c2c3nc(c(-c4ccc(S(=O)(=O)[O-])cc4)c4ccc([nH]4)c(-c4ccc(S(=O)(=O)[O-])cc4)c4nc(c(-c5ccc(S(=O)(=O)[O-])cc5)c5ccc2[nH]5)C=C4)C=C3)cc1)c1ccc(N[C@H]2CCC[C@@H]2O)cc1F
REMARK SMILES IDX 6 1 5 2 3 3 4 4 2 5 1 6 71 7 72 8 83 9 73 10 82 11 84 12
REMARK SMILES IDX 74 13 75 14 76 16 77 17 80 18 78 19 79 20 81 21 7 23 8 24
REMARK SMILES IDX 9 25 10 26 11 27 12 28 70 29 13 30 69 31 14 32 15 33 16 34
REMARK SMILES IDX 63 35 17 36 68 37 62 38 64 39 18 40 67 41 61 42 60 43 19 45
REMARK SMILES IDX 49 46 30 47 48 48 31 49 34 50 47 51 65 52 32 53 33 54 46 56
REMARK SMILES IDX 66 57 35 58 20 59 21 60 29 61 22 62 28 63 23 64 24 65 25 66
REMARK SMILES IDX 26 67 27 68 50 69 51 70 59 71 52 72 58 73 53 74 54 75 55 76
REMARK SMILES IDX 56 77 57 78 36 79 37 80 45 81 38 82 44 83 39 84 40 85 41 86
REMARK SMILES IDX 42 87 43 88
REMARK H PARENT 75 15 81 22 64 44 34 55
REMARK Flexibility Score: inf
ROOT
ATOM      1  C   UNL A   1      43.758  21.276  25.296  1.00  0.00     0.274 C 
ENDROOT
BRANCH   1   2
ATOM      2  O   UNL A   1      42.337  21.540  25.498  1.00  0.00    -0.462 OA
BRANCH   2   3
ATOM      3  C   UNL A   1      41.734  20.950  26.584  1.00  0.00     0.313 C 
ATOM      4  O   UNL A   1      42.001  19.804  26.938  1.00  0.00    -0.252 OA
BRANCH   3   5
ATOM      5  C   UNL A   1      40.754  21.919  27.411  1.00  0.00     0.129 C 
ATOM      6  C   UNL A   1      39.642  22.455  26.502  1.00  0.00     0.025 C 
BRANCH   5   7
ATOM      7  C   UNL A   1      41.543  23.092  27.998  1.00  0.00     0.002 A 
ATOM      8  C   UNL A   1      40.943  24.264  27.694  1.00  0.00     0.010 A 
ATOM      9  C   UNL A   1      42.684  23.267  28.756  1.00  0.00     0.129 A 
ATOM     10  C   UNL A   1      41.628  25.437  27.622  1.00  0.00     0.026 A 
ATOM     11  C   UNL A   1      43.046  24.588  29.215  1.00  0.00     0.065 A 
ATOM     12  F   UNL A   1      43.401  22.204  29.144  1.00  0.00    -0.207 F 
ATOM     13  C   UNL A   1      42.419  25.729  28.677  1.00  0.00     0.037 A 
BRANCH  13  14
ATOM     14  N   UNL A   1      42.296  27.000  29.245  1.00  0.00    -0.380 N 
ATOM     15  H   UNL A   1      42.939  27.246  29.946  1.00  0.00     0.160 HD
BRANCH  14  16
ATOM     16  C   UNL A   1      41.248  28.033  28.867  1.00  0.00     0.107 C 
ATOM     17  C   UNL A   1      39.266  27.660  28.582  1.00  0.00     0.027 C 
ATOM     18  C   UNL A   1      41.419  29.858  29.764  1.00  0.00     0.136 C 
ATOM     19  C   UNL A   1      38.175  29.371  28.999  1.00  0.00     0.005 C 
ATOM     20  C   UNL A   1      39.504  30.785  29.718  1.00  0.00     0.034 C 
BRANCH  18  21
ATOM     21  O   UNL A   1      42.531  30.697  29.410  1.00  0.00    -0.391 OA
ATOM     22  H   UNL A   1      43.358  30.267  29.674  1.00  0.00     0.211 HD
ENDBRANCH  18  21
ENDBRANCH  14  16
ENDBRANCH  13  14
ENDBRANCH   5   7
ENDBRANCH   3   5
ENDBRANCH   2   3
ENDBRANCH   1   2
BRANCH   1  23
ATOM     23  C   UNL A   1      44.677  22.302  25.998  1.00  0.00     0.275 C 
BRANCH  23  24
ATOM     24  O   UNL A   1      44.610  23.615  25.379  1.00  0.00    -0.458 OA
BRANCH  24  25
ATOM     25  C   UNL A   1      45.779  24.112  24.879  1.00  0.00     0.338 C 
ATOM     26  O   UNL A   1      46.350  23.710  23.877  1.00  0.00    -0.246 OA
BRANCH  25  27
ATOM     27  C   UNL A   1      46.087  25.452  25.449  1.00  0.00     0.060 A 
ATOM     28  C   UNL A   1      44.943  26.069  25.863  1.00  0.00     0.016 A 
ATOM     29  C   UNL A   1      47.210  26.254  25.391  1.00  0.00     0.016 A 
ATOM     30  C   UNL A   1      44.807  27.445  26.014  1.00  0.00     0.010 A 
ATOM     31  C   UNL A   1      47.150  27.565  25.977  1.00  0.00     0.010 A 
ATOM     32  C   UNL A   1      45.922  28.132  26.428  1.00  0.00    -0.014 A 
BRANCH  32  33
ATOM     33  C   UNL A   1      45.648  29.505  27.454  1.00  0.00     0.031 A 
ATOM     34  C   UNL A   1      45.514  28.411  28.962  1.00  0.00     0.074 A 
ATOM     35  C   UNL A   1      45.267  31.325  27.328  1.00  0.00     0.049 A 
ATOM     36  N   UNL A   1      45.053  28.841  30.129  1.00  0.00    -0.248 NA
ATOM     37  C   UNL A   1      45.957  27.009  29.045  1.00  0.00     0.031 C 
ATOM     38  C   UNL A   1      44.982  32.450  26.110  1.00  0.00     0.029 A 
ATOM     39  N   UNL A   1      44.981  32.418  28.335  1.00  0.00    -0.354 N 
ATOM     40  C   UNL A   1      45.101  27.843  31.035  1.00  0.00     0.074 A 
ATOM     41  C   UNL A   1      45.660  26.709  30.319  1.00  0.00     0.031 C 
ATOM     42  C   UNL A   1      44.844  33.702  26.535  1.00  0.00     0.029 A 
ATOM     43  C   UNL A   1      44.584  33.650  27.932  1.00  0.00     0.049 A 
ATOM     44  H   UNL A   1      45.083  32.231  29.296  1.00  0.00     0.167 HD
ATOM     45  C   UNL A   1      44.709  27.979  32.323  1.00  0.00     0.031 A 
ATOM     46  C   UNL A   1      43.893  34.579  28.613  1.00  0.00     0.031 A 
ATOM     47  C   UNL A   1      44.129  29.186  32.923  1.00  0.00     0.049 A 
ATOM     48  C   UNL A   1      43.440  34.288  30.012  1.00  0.00     0.074 A 
ATOM     49  C   UNL A   1      43.727  29.322  34.244  1.00  0.00     0.029 A 
ATOM     50  N   UNL A   1      43.840  30.427  32.314  1.00  0.00    -0.354 N 
ATOM     51  N   UNL A   1      43.561  33.189  30.725  1.00  0.00    -0.248 NA
ATOM     52  C   UNL A   1      42.741  35.383  30.679  1.00  0.00     0.031 C 
ATOM     53  C   UNL A   1      43.144  30.578  34.419  1.00  0.00     0.029 A 
ATOM     54  C   UNL A   1      43.249  31.303  33.241  1.00  0.00     0.049 A 
ATOM     55  H   UNL A   1      44.026  30.649  31.373  1.00  0.00     0.167 HD
ATOM     56  C   UNL A   1      42.970  33.467  31.950  1.00  0.00     0.074 A 
ATOM     57  C   UNL A   1      42.518  34.851  31.871  1.00  0.00     0.031 C 
ATOM     58  C   UNL A   1      42.809  32.682  33.050  1.00  0.00     0.031 A 
BRANCH  45  59
ATOM     59  C   UNL A   1      44.871  26.754  33.167  1.00  0.00    -0.014 A 
ATOM     60  C   UNL A   1      46.076  26.499  33.845  1.00  0.00     0.010 A 
ATOM     61  C   UNL A   1      43.796  25.860  33.306  1.00  0.00     0.010 A 
ATOM     62  C   UNL A   1      46.221  25.336  34.600  1.00  0.00     0.020 A 
ATOM     63  C   UNL A   1      43.927  24.711  34.087  1.00  0.00     0.020 A 
ATOM     64  C   UNL A   1      45.150  24.445  34.706  1.00  0.00     0.054 A 
BRANCH  64  65
ATOM     65  S   UNL A   1      45.386  22.922  35.658  1.00  0.00     0.124 S 
ATOM     66  O   UNL A   1      44.365  22.051  35.082  1.00  0.00    -0.237 OA
ATOM     67  O   UNL A   1      46.767  22.565  35.348  1.00  0.00    -0.237 OA
ATOM     68  O   UNL A   1      45.145  23.334  37.039  1.00  0.00    -0.744 OA
ENDBRANCH  64  65
ENDBRANCH  45  59
BRANCH  46  69
ATOM     69  C   UNL A   1      43.483  35.792  27.866  1.00  0.00    -0.014 A 
ATOM     70  C   UNL A   1      42.136  35.970  27.524  1.00  0.00     0.010 A 
ATOM     71  C   UNL A   1      44.396  36.854  27.705  1.00  0.00     0.010 A 
ATOM     72  C   UNL A   1      41.698  37.213  27.067  1.00  0.00     0.020 A 
ATOM     73  C   UNL A   1      43.949  38.110  27.302  1.00  0.00     0.020 A 
ATOM     74  C   UNL A   1      42.602  38.279  26.982  1.00  0.00     0.054 A 
BRANCH  74  75
ATOM     75  S   UNL A   1      41.971  39.912  26.520  1.00  0.00     0.124 S 
ATOM     76  O   UNL A   1      40.781  39.565  25.750  1.00  0.00    -0.237 OA
ATOM     77  O   UNL A   1      41.728  40.536  27.818  1.00  0.00    -0.237 OA
ATOM     78  O   UNL A   1      43.067  40.498  25.752  1.00  0.00    -0.744 OA
ENDBRANCH  74  75
ENDBRANCH  46  69
BRANCH  58  79
ATOM     79  C   UNL A   1      42.163  33.394  34.234  1.00  0.00    -0.014 A 
ATOM     80  C   UNL A   1      42.922  34.137  35.163  1.00  0.00     0.010 A 
ATOM     81  C   UNL A   1      40.779  33.257  34.454  1.00  0.00     0.010 A 
ATOM     82  C   UNL A   1      42.320  34.677  36.307  1.00  0.00     0.020 A 
ATOM     83  C   UNL A   1      40.165  33.836  35.572  1.00  0.00     0.020 A 
ATOM     84  C   UNL A   1      40.943  34.526  36.502  1.00  0.00     0.054 A 
BRANCH  84  85
ATOM     85  S   UNL A   1      40.181  35.266  37.975  1.00  0.00     0.124 S 
ATOM     86  O   UNL A   1      41.319  35.386  38.883  1.00  0.00    -0.237 OA
ATOM     87  O   UNL A   1      39.654  36.526  37.459  1.00  0.00    -0.237 OA
ATOM     88  O   UNL A   1      39.170  34.289  38.371  1.00  0.00    -0.744 OA
ENDBRANCH  84  85
ENDBRANCH  58  79
ENDBRANCH  32  33
ENDBRANCH  25  27
ENDBRANCH  24  25
ENDBRANCH  23  24
ENDBRANCH   1  23
TORSDOF 18
ENDMDL
MODEL 3
REMARK VINA RESULT:     -11.3      5.359      7.102
REMARK SMILES C[C@@H](C(=O)OCCOC(=O)c1ccc(-c2c3nc(c(-c4ccc(S(=O)(=O)[O-])cc4)c4ccc([nH]4)c(-c4ccc(S(=O)(=O)[O-])cc4)c4nc(c(-c5ccc(S(=O)(=O)[O-])cc5)c5ccc2[nH]5)C=C4)C=C3)cc1)c1ccc(N[C@H]2CCC[C@@H]2O)cc1F
REMARK SMILES IDX 6 1 5 2 3 3 4 4 2 5 1 6 71 7 72 8 83 9 73 10 82 11 84 12
REMARK SMILES IDX 74 13 75 14 76 16 77 17 80 18 78 19 79 20 81 21 7 23 8 24
REMARK SMILES IDX 9 25 10 26 11 27 12 28 70 29 13 30 69 31 14 32 15 33 16 34
REMARK SMILES IDX 63 35 17 36 68 37 62 38 64 39 18 40 67 41 61 42 60 43 19 45
REMARK SMILES IDX 49 46 30 47 48 48 31 49 34 50 47 51 65 52 32 53 33 54 46 56
REMARK SMILES IDX 66 57 35 58 20 59 21 60 29 61 22 62 28 63 23 64 24 65 25 66
REMARK SMILES IDX 26 67 27 68 50 69 51 70 59 71 52 72 58 73 53 74 54 75 55 76
REMARK SMILES IDX 56 77 57 78 36 79 37 80 45 81 38 82 44 83 39 84 40 85 41 86
REMARK SMILES IDX 42 87 43 88
REMARK H PARENT 75 15 81 22 64 44 34 55
REMARK Flexibility Score: inf
ROOT
ATOM      1  C   UNL A   1      42.923  19.059  26.074  1.00  0.00     0.274 C 
ENDROOT
BRANCH   1   2
ATOM      2  O   UNL A   1      42.147  20.246  25.729  1.00  0.00    -0.462 OA
BRANCH   2   3
ATOM      3  C   UNL A   1      41.230  20.688  26.653  1.00  0.00     0.313 C 
ATOM      4  O   UNL A   1      40.854  19.989  27.590  1.00  0.00    -0.252 OA
BRANCH   3   5
ATOM      5  C   UNL A   1      40.788  22.224  26.471  1.00  0.00     0.129 C 
ATOM      6  C   UNL A   1      40.977  22.991  27.785  1.00  0.00     0.025 C 
BRANCH   5   7
ATOM      7  C   UNL A   1      39.322  22.304  26.039  1.00  0.00     0.002 A 
ATOM      8  C   UNL A   1      38.855  23.564  26.184  1.00  0.00     0.010 A 
ATOM      9  C   UNL A   1      38.365  21.444  25.537  1.00  0.00     0.129 A 
ATOM     10  C   UNL A   1      37.536  23.837  26.374  1.00  0.00     0.026 A 
ATOM     11  C   UNL A   1      37.076  21.958  25.137  1.00  0.00     0.065 A 
ATOM     12  F   UNL A   1      38.664  20.154  25.334  1.00  0.00    -0.207 F 
ATOM     13  C   UNL A   1      36.679  23.259  25.504  1.00  0.00     0.037 A 
BRANCH  13  14
ATOM     14  N   UNL A   1      35.726  24.079  24.895  1.00  0.00    -0.380 N 
ATOM     15  H   UNL A   1      36.038  24.934  24.520  1.00  0.00     0.160 HD
BRANCH  14  16
ATOM     16  C   UNL A   1      34.246  23.761  24.765  1.00  0.00     0.107 C 
ATOM     17  C   UNL A   1      32.855  23.971  26.238  1.00  0.00     0.027 C 
ATOM     18  C   UNL A   1      33.367  24.275  22.997  1.00  0.00     0.136 C 
ATOM     19  C   UNL A   1      30.996  24.309  25.390  1.00  0.00     0.005 C 
ATOM     20  C   UNL A   1      31.277  24.479  23.346  1.00  0.00     0.034 C 
BRANCH  18  21
ATOM     21  O   UNL A   1      33.737  23.555  21.809  1.00  0.00    -0.391 OA
ATOM     22  H   UNL A   1      33.196  23.860  21.064  1.00  0.00     0.211 HD
ENDBRANCH  18  21
ENDBRANCH  14  16
ENDBRANCH  13  14
ENDBRANCH   5   7
ENDBRANCH   3   5
ENDBRANCH   2   3
ENDBRANCH   1   2
BRANCH   1  23
ATOM     23  C   UNL A   1      44.066  18.763  25.077  1.00  0.00     0.275 C 
BRANCH  23  24
ATOM     24  O   UNL A   1      45.377  19.006  25.655  1.00  0.00    -0.458 OA
BRANCH  24  25
ATOM     25  C   UNL A   1      46.192  19.865  24.974  1.00  0.00     0.338 C 
ATOM     26  O   UNL A   1      47.133  19.541  24.267  1.00  0.00    -0.246 OA
BRANCH  25  27
ATOM     27  C   UNL A   1      45.580  21.218  24.860  1.00  0.00     0.060 A 
ATOM     28  C   UNL A   1      45.520  21.820  26.083  1.00  0.00     0.016 A 
ATOM     29  C   UNL A   1      44.855  21.832  23.857  1.00  0.00     0.016 A 
ATOM     30  C   UNL A   1      44.638  22.844  26.408  1.00  0.00     0.010 A 
ATOM     31  C   UNL A   1      44.310  23.138  24.103  1.00  0.00     0.010 A 
ATOM     32  C   UNL A   1      44.319  23.725  25.404  1.00  0.00    -0.014 A 
BRANCH  32  33
ATOM     33  C   UNL A   1      44.048  25.372  25.876  1.00  0.00     0.031 A 
ATOM     34  C   UNL A   1      45.868  25.765  25.723  1.00  0.00     0.074 A 
ATOM     35  C   UNL A   1      42.707  26.446  26.597  1.00  0.00     0.049 A 
ATOM     36  N   UNL A   1      46.409  26.880  26.194  1.00  0.00    -0.248 NA
ATOM     37  C   UNL A   1      46.866  24.940  25.021  1.00  0.00     0.031 C 
ATOM     38  C   UNL A   1      41.130  26.254  27.152  1.00  0.00     0.029 A 
ATOM     39  N   UNL A   1      42.629  27.894  27.031  1.00  0.00    -0.354 N 
ATOM     40  C   UNL A   1      47.728  26.903  25.913  1.00  0.00     0.074 A 
ATOM     41  C   UNL A   1      47.981  25.668  25.189  1.00  0.00     0.031 C 
ATOM     42  C   UNL A   1      40.525  27.385  27.499  1.00  0.00     0.029 A 
ATOM     43  C   UNL A   1      41.534  28.372  27.672  1.00  0.00     0.049 A 
ATOM     44  H   UNL A   1      43.384  28.497  26.844  1.00  0.00     0.167 HD
ATOM     45  C   UNL A   1      48.552  27.920  26.255  1.00  0.00     0.031 A 
ATOM     46  C   UNL A   1      41.431  29.433  28.489  1.00  0.00     0.031 A 
ATOM     47  C   UNL A   1      48.173  29.114  27.019  1.00  0.00     0.049 A 
ATOM     48  C   UNL A   1      42.649  30.246  28.804  1.00  0.00     0.074 A 
ATOM     49  C   UNL A   1      49.020  30.155  27.370  1.00  0.00     0.029 A 
ATOM     50  N   UNL A   1      46.916  29.454  27.567  1.00  0.00    -0.354 N 
ATOM     51  N   UNL A   1      43.901  30.065  28.442  1.00  0.00    -0.248 NA
ATOM     52  C   UNL A   1      42.417  31.407  29.661  1.00  0.00     0.031 C 
ATOM     53  C   UNL A   1      48.324  31.065  28.167  1.00  0.00     0.029 A 
ATOM     54  C   UNL A   1      46.997  30.672  28.262  1.00  0.00     0.049 A 
ATOM     55  H   UNL A   1      46.098  28.913  27.476  1.00  0.00     0.167 HD
ATOM     56  C   UNL A   1      44.614  31.111  29.010  1.00  0.00     0.074 A 
ATOM     57  C   UNL A   1      43.633  31.927  29.717  1.00  0.00     0.031 C 
ATOM     58  C   UNL A   1      45.943  31.402  28.963  1.00  0.00     0.031 A 
BRANCH  45  59
ATOM     59  C   UNL A   1      49.975  27.756  25.822  1.00  0.00    -0.014 A 
ATOM     60  C   UNL A   1      50.363  28.035  24.500  1.00  0.00     0.010 A 
ATOM     61  C   UNL A   1      50.941  27.343  26.755  1.00  0.00     0.010 A 
ATOM     62  C   UNL A   1      51.687  27.845  24.105  1.00  0.00     0.020 A 
ATOM     63  C   UNL A   1      52.273  27.183  26.371  1.00  0.00     0.020 A 
ATOM     64  C   UNL A   1      52.630  27.410  25.040  1.00  0.00     0.054 A 
BRANCH  64  65
ATOM     65  S   UNL A   1      54.330  27.129  24.485  1.00  0.00     0.124 S 
ATOM     66  O   UNL A   1      54.622  28.375  23.781  1.00  0.00    -0.237 OA
ATOM     67  O   UNL A   1      55.047  26.933  25.741  1.00  0.00    -0.237 OA
ATOM     68  O   UNL A   1      54.228  25.945  23.635  1.00  0.00    -0.744 OA
ENDBRANCH  64  65
ENDBRANCH  45  59
BRANCH  46  69
ATOM     69  C   UNL A   1      40.124  29.640  29.157  1.00  0.00    -0.014 A 
ATOM     70  C   UNL A   1      39.966  29.262  30.497  1.00  0.00     0.010 A 
ATOM     71  C   UNL A   1      39.130  30.414  28.524  1.00  0.00     0.010 A 
ATOM     72  C   UNL A   1      38.846  29.691  31.208  1.00  0.00     0.020 A 
ATOM     73  C   UNL A   1      38.040  30.889  29.249  1.00  0.00     0.020 A 
ATOM     74  C   UNL A   1      37.905  30.520  30.587  1.00  0.00     0.054 A 
BRANCH  74  75
ATOM     75  S   UNL A   1      36.538  31.172  31.579  1.00  0.00     0.124 S 
ATOM     76  O   UNL A   1      35.543  31.475  30.556  1.00  0.00    -0.237 OA
ATOM     77  O   UNL A   1      36.223  30.048  32.458  1.00  0.00    -0.237 OA
ATOM     78  O   UNL A   1      37.123  32.330  32.250  1.00  0.00    -0.744 OA
ENDBRANCH  74  75
ENDBRANCH  46  69
BRANCH  58  79
ATOM     79  C   UNL A   1      46.323  32.699  29.668  1.00  0.00    -0.014 A 
ATOM     80  C   UNL A   1      46.331  33.940  28.995  1.00  0.00     0.010 A 
ATOM     81  C   UNL A   1      46.745  32.660  31.011  1.00  0.00     0.010 A 
ATOM     82  C   UNL A   1      46.801  35.095  29.633  1.00  0.00     0.020 A 
ATOM     83  C   UNL A   1      47.171  33.822  31.667  1.00  0.00     0.020 A 
ATOM     84  C   UNL A   1      47.215  35.029  30.968  1.00  0.00     0.054 A 
BRANCH  84  85
ATOM     85  S   UNL A   1      47.787  36.548  31.783  1.00  0.00     0.124 S 
ATOM     86  O   UNL A   1      47.891  37.478  30.661  1.00  0.00    -0.237 OA
ATOM     87  O   UNL A   1      46.710  36.823  32.730  1.00  0.00    -0.237 OA
ATOM     88  O   UNL A   1      49.059  36.159  32.388  1.00  0.00    -0.744 OA
ENDBRANCH  84  85
ENDBRANCH  58  79
ENDBRANCH  32  33
ENDBRANCH  25  27
ENDBRANCH  24  25
ENDBRANCH  23  24
ENDBRANCH   1  23
TORSDOF 18
ENDMDL
