MODEL 1
REMARK VINA RESULT:     -11.4      0.000      0.000
REMARK SMILES Cc1nn(C)c2nc(C3CC3)c(Cl)c(C(=O)OCCOC(=O)c3ccc(-c4c5nc(c(-c6ccc(S(=O)(=O)[O-])cc6)c6ccc([nH]6)c(-c6ccc(S(=O)(=O)[O-])cc6)c6nc(c(-c7ccc(S(=O)(=O)[O-])cc7)c7ccc4[nH]7)C=C6)C=C5)cc3)c12
REMARK SMILES IDX 19 1 18 2 17 3 15 4 16 5 14 6 1 7 2 8 3 9 83 10 4 11 6 12
REMARK SMILES IDX 5 13 7 14 12 15 8 16 13 17 9 18 10 19 11 20 20 21 21 22
REMARK SMILES IDX 22 23 23 24 24 25 82 26 25 27 81 28 26 29 27 30 28 31 75 32
REMARK SMILES IDX 29 33 80 34 74 35 76 36 30 37 79 38 73 39 72 40 31 42 61 43
REMARK SMILES IDX 42 44 60 45 43 46 46 47 59 48 77 49 44 50 45 51 58 53 78 54
REMARK SMILES IDX 47 55 32 56 33 57 41 58 34 59 40 60 35 61 36 62 37 63 38 64
REMARK SMILES IDX 39 65 62 66 63 67 71 68 64 69 70 70 65 71 66 72 67 73 68 74
REMARK SMILES IDX 69 75 48 76 49 77 57 78 50 79 56 80 51 81 52 82 53 83 54 84
REMARK SMILES IDX 55 85
REMARK H PARENT 76 41 46 52
REMARK Flexibility Score: inf
ROOT
ATOM      1  C   UNL A   1      39.185  21.810  26.069  1.00  0.00     0.275 C 
ENDROOT
BRANCH   1   2
ATOM      2  C   UNL A   1      38.449  23.156  26.058  1.00  0.00     0.275 C 
BRANCH   2   3
ATOM      3  O   UNL A   1      37.034  22.934  26.046  1.00  0.00    -0.458 OA
BRANCH   3   4
ATOM      4  C   UNL A   1      36.459  22.701  24.849  1.00  0.00     0.340 C 
ATOM      5  O   UNL A   1      36.934  22.899  23.742  1.00  0.00    -0.246 OA
BRANCH   4   6
ATOM      6  C   UNL A   1      35.212  21.970  25.090  1.00  0.00     0.093 A 
ATOM      7  C   UNL A   1      34.484  25.303  25.474  1.00  0.00     0.069 C 
ATOM      8  C   UNL A   1      33.672  24.065  25.599  1.00  0.00     0.070 A 
ATOM      9  N   UNL A   1      32.368  24.170  25.893  1.00  0.00    -0.176 NA
ATOM     10  C   UNL A   1      34.065  22.708  25.414  1.00  0.00     0.058 A 
ATOM     11  N   UNL A   1      31.914  22.903  25.819  1.00  0.00    -0.250 N 
ATOM     12  C   UNL A   1      32.896  21.986  25.562  1.00  0.00     0.159 A 
ATOM     13  C   UNL A   1      30.500  22.639  25.916  1.00  0.00     0.176 C 
ATOM     14  N   UNL A   1      32.740  20.660  25.426  1.00  0.00    -0.231 NA
ATOM     15  C   UNL A   1      35.121  20.568  24.980  1.00  0.00     0.078 A 
ATOM     16  C   UNL A   1      33.863  19.941  25.129  1.00  0.00     0.065 A 
ATOM     17  Cl  UNL A   1      36.590  19.670  24.754  1.00  0.00    -0.081 Cl
BRANCH  16  18
ATOM     18  C   UNL A   1      33.544  18.446  25.005  1.00  0.00     0.040 C 
ATOM     19  C   UNL A   1      32.414  17.800  24.251  1.00  0.00     0.011 C 
ATOM     20  C   UNL A   1      33.821  17.691  23.729  1.00  0.00     0.011 C 
ENDBRANCH  16  18
ENDBRANCH   4   6
ENDBRANCH   3   4
ENDBRANCH   2   3
ENDBRANCH   1   2
BRANCH   1  21
ATOM     21  O   UNL A   1      39.833  21.517  27.326  1.00  0.00    -0.458 OA
BRANCH  21  22
ATOM     22  C   UNL A   1      41.195  21.547  27.291  1.00  0.00     0.338 C 
ATOM     23  O   UNL A   1      41.933  20.582  27.166  1.00  0.00    -0.246 OA
BRANCH  22  24
ATOM     24  C   UNL A   1      41.717  22.932  27.362  1.00  0.00     0.060 A 
ATOM     25  C   UNL A   1      42.684  23.334  26.433  1.00  0.00     0.016 A 
ATOM     26  C   UNL A   1      41.332  23.813  28.365  1.00  0.00     0.016 A 
ATOM     27  C   UNL A   1      43.202  24.638  26.443  1.00  0.00     0.010 A 
ATOM     28  C   UNL A   1      41.897  25.094  28.404  1.00  0.00     0.010 A 
ATOM     29  C   UNL A   1      42.812  25.551  27.424  1.00  0.00    -0.014 A 
BRANCH  29  30
ATOM     30  C   UNL A   1      43.260  26.987  27.359  1.00  0.00     0.031 A 
ATOM     31  C   UNL A   1      42.150  27.969  27.216  1.00  0.00     0.074 A 
ATOM     32  C   UNL A   1      44.373  27.492  27.956  1.00  0.00     0.049 A 
ATOM     33  N   UNL A   1      41.462  28.256  28.274  1.00  0.00    -0.248 NA
ATOM     34  C   UNL A   1      41.532  28.442  25.984  1.00  0.00     0.031 C 
ATOM     35  C   UNL A   1      45.105  26.811  29.031  1.00  0.00     0.029 A 
ATOM     36  N   UNL A   1      44.936  28.763  27.926  1.00  0.00    -0.354 N 
ATOM     37  C   UNL A   1      40.269  28.820  27.880  1.00  0.00     0.074 A 
ATOM     38  C   UNL A   1      40.386  28.983  26.447  1.00  0.00     0.031 C 
ATOM     39  C   UNL A   1      45.899  27.704  29.657  1.00  0.00     0.029 A 
ATOM     40  C   UNL A   1      45.849  28.990  28.960  1.00  0.00     0.049 A 
ATOM     41  H   UNL A   1      44.714  29.437  27.245  1.00  0.00     0.167 HD
ATOM     42  C   UNL A   1      39.295  29.067  28.801  1.00  0.00     0.031 A 
ATOM     43  C   UNL A   1      46.104  30.180  29.576  1.00  0.00     0.031 A 
ATOM     44  C   UNL A   1      39.593  28.711  30.182  1.00  0.00     0.049 A 
ATOM     45  C   UNL A   1      44.877  30.402  30.418  1.00  0.00     0.074 A 
ATOM     46  C   UNL A   1      38.963  28.211  31.305  1.00  0.00     0.029 A 
ATOM     47  N   UNL A   1      40.894  28.865  30.565  1.00  0.00    -0.354 N 
ATOM     48  N   UNL A   1      44.603  29.833  31.560  1.00  0.00    -0.248 NA
ATOM     49  C   UNL A   1      43.765  31.172  29.835  1.00  0.00     0.031 C 
ATOM     50  C   UNL A   1      39.928  28.203  32.378  1.00  0.00     0.029 A 
ATOM     51  C   UNL A   1      41.106  28.758  31.904  1.00  0.00     0.049 A 
ATOM     52  H   UNL A   1      41.621  29.040  29.924  1.00  0.00     0.167 HD
ATOM     53  C   UNL A   1      43.225  29.934  31.683  1.00  0.00     0.074 A 
ATOM     54  C   UNL A   1      42.792  30.907  30.698  1.00  0.00     0.031 C 
ATOM     55  C   UNL A   1      42.450  29.034  32.357  1.00  0.00     0.031 A 
BRANCH  42  56
ATOM     56  C   UNL A   1      38.098  29.889  28.504  1.00  0.00    -0.014 A 
ATOM     57  C   UNL A   1      38.165  31.246  28.876  1.00  0.00     0.010 A 
ATOM     58  C   UNL A   1      36.889  29.370  28.025  1.00  0.00     0.010 A 
ATOM     59  C   UNL A   1      37.045  32.070  28.793  1.00  0.00     0.020 A 
ATOM     60  C   UNL A   1      35.757  30.198  27.936  1.00  0.00     0.020 A 
ATOM     61  C   UNL A   1      35.841  31.539  28.331  1.00  0.00     0.054 A 
BRANCH  61  62
ATOM     62  S   UNL A   1      34.391  32.630  28.293  1.00  0.00     0.124 S 
ATOM     63  O   UNL A   1      34.900  33.803  27.588  1.00  0.00    -0.237 OA
ATOM     64  O   UNL A   1      33.419  31.825  27.558  1.00  0.00    -0.237 OA
ATOM     65  O   UNL A   1      34.081  32.841  29.705  1.00  0.00    -0.744 OA
ENDBRANCH  61  62
ENDBRANCH  42  56
BRANCH  43  66
ATOM     66  C   UNL A   1      46.755  31.301  28.822  1.00  0.00    -0.014 A 
ATOM     67  C   UNL A   1      47.595  31.001  27.729  1.00  0.00     0.010 A 
ATOM     68  C   UNL A   1      46.644  32.658  29.184  1.00  0.00     0.010 A 
ATOM     69  C   UNL A   1      48.166  32.012  26.944  1.00  0.00     0.020 A 
ATOM     70  C   UNL A   1      47.176  33.679  28.383  1.00  0.00     0.020 A 
ATOM     71  C   UNL A   1      47.908  33.349  27.247  1.00  0.00     0.054 A 
BRANCH  71  72
ATOM     72  S   UNL A   1      48.469  34.634  26.096  1.00  0.00     0.124 S 
ATOM     73  O   UNL A   1      48.598  35.800  26.965  1.00  0.00    -0.237 OA
ATOM     74  O   UNL A   1      49.725  34.074  25.602  1.00  0.00    -0.237 OA
ATOM     75  O   UNL A   1      47.395  34.705  25.108  1.00  0.00    -0.744 OA
ENDBRANCH  71  72
ENDBRANCH  43  66
BRANCH  55  76
ATOM     76  C   UNL A   1      43.093  28.263  33.451  1.00  0.00    -0.014 A 
ATOM     77  C   UNL A   1      43.244  28.877  34.707  1.00  0.00     0.010 A 
ATOM     78  C   UNL A   1      43.471  26.920  33.296  1.00  0.00     0.010 A 
ATOM     79  C   UNL A   1      43.727  28.161  35.798  1.00  0.00     0.020 A 
ATOM     80  C   UNL A   1      43.959  26.194  34.390  1.00  0.00     0.020 A 
ATOM     81  C   UNL A   1      44.065  26.817  35.637  1.00  0.00     0.054 A 
BRANCH  81  82
ATOM     82  S   UNL A   1      44.575  25.889  37.106  1.00  0.00     0.124 S 
ATOM     83  O   UNL A   1      46.025  26.062  37.104  1.00  0.00    -0.237 OA
ATOM     84  O   UNL A   1      43.861  26.583  38.176  1.00  0.00    -0.237 OA
ATOM     85  O   UNL A   1      44.112  24.528  36.839  1.00  0.00    -0.744 OA
ENDBRANCH  81  82
ENDBRANCH  55  76
ENDBRANCH  29  30
ENDBRANCH  22  24
ENDBRANCH  21  22
ENDBRANCH   1  21
TORSDOF 15
ENDMDL
MODEL 2
REMARK VINA RESULT:     -10.5      1.441      2.836
REMARK SMILES Cc1nn(C)c2nc(C3CC3)c(Cl)c(C(=O)OCCOC(=O)c3ccc(-c4c5nc(c(-c6ccc(S(=O)(=O)[O-])cc6)c6ccc([nH]6)c(-c6ccc(S(=O)(=O)[O-])cc6)c6nc(c(-c7ccc(S(=O)(=O)[O-])cc7)c7ccc4[nH]7)C=C6)C=C5)cc3)c12
REMARK SMILES IDX 19 1 18 2 17 3 15 4 16 5 14 6 1 7 2 8 3 9 83 10 4 11 6 12
REMARK SMILES IDX 5 13 7 14 12 15 8 16 13 17 9 18 10 19 11 20 20 21 21 22
REMARK SMILES IDX 22 23 23 24 24 25 82 26 25 27 81 28 26 29 27 30 28 31 75 32
REMARK SMILES IDX 29 33 80 34 74 35 76 36 30 37 79 38 73 39 72 40 31 42 61 43
REMARK SMILES IDX 42 44 60 45 43 46 46 47 59 48 77 49 44 50 45 51 58 53 78 54
REMARK SMILES IDX 47 55 32 56 33 57 41 58 34 59 40 60 35 61 36 62 37 63 38 64
REMARK SMILES IDX 39 65 62 66 63 67 71 68 64 69 70 70 65 71 66 72 67 73 68 74
REMARK SMILES IDX 69 75 48 76 49 77 57 78 50 79 56 80 51 81 52 82 53 83 54 84
REMARK SMILES IDX 55 85
REMARK H PARENT 76 41 46 52
REMARK Flexibility Score: inf
ROOT
ATOM      1  C   UNL A   1      38.198  21.541  25.066  1.00  0.00     0.275 C 
ENDROOT
BRANCH   1   2
ATOM      2  C   UNL A   1      36.941  20.665  24.999  1.00  0.00     0.275 C 
BRANCH   2   3
ATOM      3  O   UNL A   1      35.812  21.465  24.630  1.00  0.00    -0.458 OA
BRANCH   3   4
ATOM      4  C   UNL A   1      34.978  21.845  25.620  1.00  0.00     0.340 C 
ATOM      5  O   UNL A   1      34.887  21.369  26.740  1.00  0.00    -0.246 OA
BRANCH   4   6
ATOM      6  C   UNL A   1      34.315  23.079  25.193  1.00  0.00     0.093 A 
ATOM      7  C   UNL A   1      32.352  20.482  24.101  1.00  0.00     0.069 C 
ATOM      8  C   UNL A   1      32.244  21.959  23.977  1.00  0.00     0.070 A 
ATOM      9  N   UNL A   1      31.181  22.482  23.350  1.00  0.00    -0.176 NA
ATOM     10  C   UNL A   1      33.116  22.970  24.473  1.00  0.00     0.058 A 
ATOM     11  N   UNL A   1      31.329  23.812  23.511  1.00  0.00    -0.250 N 
ATOM     12  C   UNL A   1      32.486  24.158  24.154  1.00  0.00     0.159 A 
ATOM     13  C   UNL A   1      30.275  24.708  23.103  1.00  0.00     0.176 C 
ATOM     14  N   UNL A   1      32.894  25.400  24.459  1.00  0.00    -0.231 NA
ATOM     15  C   UNL A   1      34.818  24.358  25.502  1.00  0.00     0.078 A 
ATOM     16  C   UNL A   1      34.072  25.503  25.144  1.00  0.00     0.065 A 
ATOM     17  Cl  UNL A   1      36.389  24.461  26.236  1.00  0.00    -0.081 Cl
BRANCH  16  18
ATOM     18  C   UNL A   1      34.419  26.971  25.424  1.00  0.00     0.040 C 
ATOM     19  C   UNL A   1      33.574  28.187  25.166  1.00  0.00     0.011 C 
ATOM     20  C   UNL A   1      33.794  27.715  26.577  1.00  0.00     0.011 C 
ENDBRANCH  16  18
ENDBRANCH   4   6
ENDBRANCH   3   4
ENDBRANCH   2   3
ENDBRANCH   1   2
BRANCH   1  21
ATOM     21  O   UNL A   1      38.659  21.786  26.412  1.00  0.00    -0.458 OA
BRANCH  21  22
ATOM     22  C   UNL A   1      40.006  21.674  26.588  1.00  0.00     0.338 C 
ATOM     23  O   UNL A   1      40.651  20.638  26.560  1.00  0.00    -0.246 OA
BRANCH  22  24
ATOM     24  C   UNL A   1      40.650  22.997  26.765  1.00  0.00     0.060 A 
ATOM     25  C   UNL A   1      41.862  23.246  26.110  1.00  0.00     0.016 A 
ATOM     26  C   UNL A   1      40.127  23.962  27.616  1.00  0.00     0.016 A 
ATOM     27  C   UNL A   1      42.508  24.486  26.228  1.00  0.00     0.010 A 
ATOM     28  C   UNL A   1      40.808  25.176  27.775  1.00  0.00     0.010 A 
ATOM     29  C   UNL A   1      41.990  25.483  27.057  1.00  0.00    -0.014 A 
BRANCH  29  30
ATOM     30  C   UNL A   1      42.603  26.857  27.082  1.00  0.00     0.031 A 
ATOM     31  C   UNL A   1      41.616  27.967  27.184  1.00  0.00     0.074 A 
ATOM     32  C   UNL A   1      43.833  27.162  27.579  1.00  0.00     0.049 A 
ATOM     33  N   UNL A   1      41.096  28.203  28.346  1.00  0.00    -0.248 NA
ATOM     34  C   UNL A   1      40.923  28.647  26.097  1.00  0.00     0.031 C 
ATOM     35  C   UNL A   1      44.593  26.282  28.475  1.00  0.00     0.029 A 
ATOM     36  N   UNL A   1      44.543  28.356  27.608  1.00  0.00    -0.354 N 
ATOM     37  C   UNL A   1      39.946  28.940  28.169  1.00  0.00     0.074 A 
ATOM     38  C   UNL A   1      39.915  29.255  26.757  1.00  0.00     0.031 C 
ATOM     39  C   UNL A   1      45.559  27.001  29.082  1.00  0.00     0.029 A 
ATOM     40  C   UNL A   1      45.590  28.357  28.533  1.00  0.00     0.049 A 
ATOM     41  H   UNL A   1      44.330  29.126  27.033  1.00  0.00     0.167 HD
ATOM     42  C   UNL A   1      39.124  29.184  29.228  1.00  0.00     0.031 A 
ATOM     43  C   UNL A   1      46.063  29.431  29.229  1.00  0.00     0.031 A 
ATOM     44  C   UNL A   1      39.533  28.638  30.515  1.00  0.00     0.049 A 
ATOM     45  C   UNL A   1      44.978  29.689  30.241  1.00  0.00     0.074 A 
ATOM     46  C   UNL A   1      38.979  28.083  31.653  1.00  0.00     0.029 A 
ATOM     47  N   UNL A   1      40.878  28.600  30.742  1.00  0.00    -0.354 N 
ATOM     48  N   UNL A   1      44.769  29.024  31.344  1.00  0.00    -0.248 NA
ATOM     49  C   UNL A   1      43.912  30.641  29.887  1.00  0.00     0.031 C 
ATOM     50  C   UNL A   1      40.053  27.842  32.587  1.00  0.00     0.029 A 
ATOM     51  C   UNL A   1      41.228  28.314  32.024  1.00  0.00     0.049 A 
ATOM     52  H   UNL A   1      41.543  28.766  30.033  1.00  0.00     0.167 HD
ATOM     53  C   UNL A   1      43.438  29.263  31.653  1.00  0.00     0.074 A 
ATOM     54  C   UNL A   1      43.020  30.387  30.837  1.00  0.00     0.031 C 
ATOM     55  C   UNL A   1      42.640  28.382  32.326  1.00  0.00     0.031 A 
BRANCH  42  56
ATOM     56  C   UNL A   1      38.013  30.163  29.174  1.00  0.00    -0.014 A 
ATOM     57  C   UNL A   1      36.727  29.636  28.947  1.00  0.00     0.010 A 
ATOM     58  C   UNL A   1      38.190  31.552  29.187  1.00  0.00     0.010 A 
ATOM     59  C   UNL A   1      35.637  30.473  28.716  1.00  0.00     0.020 A 
ATOM     60  C   UNL A   1      37.093  32.401  28.959  1.00  0.00     0.020 A 
ATOM     61  C   UNL A   1      35.827  31.854  28.715  1.00  0.00     0.054 A 
BRANCH  61  62
ATOM     62  S   UNL A   1      34.395  32.908  28.353  1.00  0.00     0.124 S 
ATOM     63  O   UNL A   1      34.984  33.971  27.543  1.00  0.00    -0.237 OA
ATOM     64  O   UNL A   1      33.508  31.991  27.643  1.00  0.00    -0.237 OA
ATOM     65  O   UNL A   1      33.929  33.322  29.675  1.00  0.00    -0.744 OA
ENDBRANCH  61  62
ENDBRANCH  42  56
BRANCH  43  66
ATOM     66  C   UNL A   1      46.757  30.553  28.517  1.00  0.00    -0.014 A 
ATOM     67  C   UNL A   1      48.015  30.991  28.982  1.00  0.00     0.010 A 
ATOM     68  C   UNL A   1      46.195  31.265  27.439  1.00  0.00     0.010 A 
ATOM     69  C   UNL A   1      48.741  31.983  28.309  1.00  0.00     0.020 A 
ATOM     70  C   UNL A   1      46.928  32.230  26.733  1.00  0.00     0.020 A 
ATOM     71  C   UNL A   1      48.212  32.560  27.154  1.00  0.00     0.054 A 
BRANCH  71  72
ATOM     72  S   UNL A   1      49.255  33.675  26.174  1.00  0.00     0.124 S 
ATOM     73  O   UNL A   1      48.296  34.264  25.243  1.00  0.00    -0.237 OA
ATOM     74  O   UNL A   1      49.779  34.580  27.196  1.00  0.00    -0.237 OA
ATOM     75  O   UNL A   1      50.245  32.784  25.574  1.00  0.00    -0.744 OA
ENDBRANCH  71  72
ENDBRANCH  43  66
BRANCH  55  76
ATOM     76  C   UNL A   1      43.303  27.422  33.243  1.00  0.00    -0.014 A 
ATOM     77  C   UNL A   1      43.753  26.196  32.722  1.00  0.00     0.010 A 
ATOM     78  C   UNL A   1      43.572  27.735  34.586  1.00  0.00     0.010 A 
ATOM     79  C   UNL A   1      44.488  25.313  33.507  1.00  0.00     0.020 A 
ATOM     80  C   UNL A   1      44.310  26.851  35.381  1.00  0.00     0.020 A 
ATOM     81  C   UNL A   1      44.778  25.654  34.829  1.00  0.00     0.054 A 
BRANCH  81  82
ATOM     82  S   UNL A   1      45.837  24.536  35.781  1.00  0.00     0.124 S 
ATOM     83  O   UNL A   1      44.868  23.748  36.539  1.00  0.00    -0.237 OA
ATOM     84  O   UNL A   1      46.549  23.811  34.730  1.00  0.00    -0.237 OA
ATOM     85  O   UNL A   1      46.668  25.434  36.580  1.00  0.00    -0.744 OA
ENDBRANCH  81  82
ENDBRANCH  55  76
ENDBRANCH  29  30
ENDBRANCH  22  24
ENDBRANCH  21  22
ENDBRANCH   1  21
TORSDOF 15
ENDMDL
MODEL 3
REMARK VINA RESULT:     -10.4      5.803     11.749
REMARK SMILES Cc1nn(C)c2nc(C3CC3)c(Cl)c(C(=O)OCCOC(=O)c3ccc(-c4c5nc(c(-c6ccc(S(=O)(=O)[O-])cc6)c6ccc([nH]6)c(-c6ccc(S(=O)(=O)[O-])cc6)c6nc(c(-c7ccc(S(=O)(=O)[O-])cc7)c7ccc4[nH]7)C=C6)C=C5)cc3)c12
REMARK SMILES IDX 19 1 18 2 17 3 15 4 16 5 14 6 1 7 2 8 3 9 83 10 4 11 6 12
REMARK SMILES IDX 5 13 7 14 12 15 8 16 13 17 9 18 10 19 11 20 20 21 21 22
REMARK SMILES IDX 22 23 23 24 24 25 82 26 25 27 81 28 26 29 27 30 28 31 75 32
REMARK SMILES IDX 29 33 80 34 74 35 76 36 30 37 79 38 73 39 72 40 31 42 61 43
REMARK SMILES IDX 42 44 60 45 43 46 46 47 59 48 77 49 44 50 45 51 58 53 78 54
REMARK SMILES IDX 47 55 32 56 33 57 41 58 34 59 40 60 35 61 36 62 37 63 38 64
REMARK SMILES IDX 39 65 62 66 63 67 71 68 64 69 70 70 65 71 66 72 67 73 68 74
REMARK SMILES IDX 69 75 48 76 49 77 57 78 50 79 56 80 51 81 52 82 53 83 54 84
REMARK SMILES IDX 55 85
REMARK H PARENT 76 41 46 52
REMARK Flexibility Score: inf
ROOT
ATOM      1  C   UNL A   1      45.314  23.022  36.847  1.00  0.00     0.275 C 
ENDROOT
BRANCH   1   2
ATOM      2  C   UNL A   1      46.314  21.904  36.529  1.00  0.00     0.275 C 
BRANCH   2   3
ATOM      3  O   UNL A   1      46.691  21.233  37.737  1.00  0.00    -0.458 OA
BRANCH   3   4
ATOM      4  C   UNL A   1      47.490  20.153  37.616  1.00  0.00     0.340 C 
ATOM      5  O   UNL A   1      48.559  20.078  37.032  1.00  0.00    -0.246 OA
BRANCH   4   6
ATOM      6  C   UNL A   1      46.951  19.103  38.484  1.00  0.00     0.093 A 
ATOM      7  C   UNL A   1      49.507  20.597  40.223  1.00  0.00     0.069 C 
ATOM      8  C   UNL A   1      48.586  19.474  40.536  1.00  0.00     0.070 A 
ATOM      9  N   UNL A   1      48.676  18.874  41.732  1.00  0.00    -0.176 NA
ATOM     10  C   UNL A   1      47.539  18.920  39.744  1.00  0.00     0.058 A 
ATOM     11  N   UNL A   1      47.650  18.000  41.736  1.00  0.00    -0.250 N 
ATOM     12  C   UNL A   1      46.954  17.969  40.559  1.00  0.00     0.159 A 
ATOM     13  C   UNL A   1      47.325  17.278  42.942  1.00  0.00     0.176 C 
ATOM     14  N   UNL A   1      45.885  17.207  40.277  1.00  0.00    -0.231 NA
ATOM     15  C   UNL A   1      45.854  18.300  38.114  1.00  0.00     0.078 A 
ATOM     16  C   UNL A   1      45.325  17.375  39.042  1.00  0.00     0.065 A 
ATOM     17  Cl  UNL A   1      45.263  18.428  36.485  1.00  0.00    -0.081 Cl
BRANCH  16  18
ATOM     18  C   UNL A   1      44.120  16.446  38.853  1.00  0.00     0.040 C 
ATOM     19  C   UNL A   1      43.577  15.427  39.816  1.00  0.00     0.011 C 
ATOM     20  C   UNL A   1      42.817  16.702  39.569  1.00  0.00     0.011 C 
ENDBRANCH  16  18
ENDBRANCH   4   6
ENDBRANCH   3   4
ENDBRANCH   2   3
ENDBRANCH   1   2
BRANCH   1  21
ATOM     21  O   UNL A   1      44.150  23.016  35.992  1.00  0.00    -0.458 OA
BRANCH  21  22
ATOM     22  C   UNL A   1      43.534  24.223  35.852  1.00  0.00     0.338 C 
ATOM     23  O   UNL A   1      42.775  24.741  36.656  1.00  0.00    -0.246 OA
BRANCH  22  24
ATOM     24  C   UNL A   1      43.938  24.905  34.600  1.00  0.00     0.060 A 
ATOM     25  C   UNL A   1      43.968  26.305  34.578  1.00  0.00     0.016 A 
ATOM     26  C   UNL A   1      44.212  24.202  33.434  1.00  0.00     0.016 A 
ATOM     27  C   UNL A   1      44.359  27.003  33.425  1.00  0.00     0.010 A 
ATOM     28  C   UNL A   1      44.544  24.908  32.271  1.00  0.00     0.010 A 
ATOM     29  C   UNL A   1      44.665  26.319  32.247  1.00  0.00    -0.014 A 
BRANCH  29  30
ATOM     30  C   UNL A   1      45.212  27.053  31.053  1.00  0.00     0.031 A 
ATOM     31  C   UNL A   1      45.457  26.191  29.863  1.00  0.00     0.074 A 
ATOM     32  C   UNL A   1      44.972  28.357  30.751  1.00  0.00     0.049 A 
ATOM     33  N   UNL A   1      44.432  25.844  29.152  1.00  0.00    -0.248 NA
ATOM     34  C   UNL A   1      46.659  25.431  29.544  1.00  0.00     0.031 C 
ATOM     35  C   UNL A   1      43.875  29.142  31.333  1.00  0.00     0.029 A 
ATOM     36  N   UNL A   1      45.456  29.171  29.734  1.00  0.00    -0.354 N 
ATOM     37  C   UNL A   1      44.778  24.753  28.388  1.00  0.00     0.074 A 
ATOM     38  C   UNL A   1      46.197  24.573  28.611  1.00  0.00     0.031 C 
ATOM     39  C   UNL A   1      43.667  30.238  30.574  1.00  0.00     0.029 A 
ATOM     40  C   UNL A   1      44.690  30.322  29.530  1.00  0.00     0.049 A 
ATOM     41  H   UNL A   1      46.259  28.958  29.207  1.00  0.00     0.167 HD
ATOM     42  C   UNL A   1      43.826  24.096  27.667  1.00  0.00     0.031 A 
ATOM     43  C   UNL A   1      44.493  30.973  28.348  1.00  0.00     0.031 A 
ATOM     44  C   UNL A   1      42.467  24.612  27.752  1.00  0.00     0.049 A 
ATOM     45  C   UNL A   1      43.568  30.053  27.598  1.00  0.00     0.074 A 
ATOM     46  C   UNL A   1      41.162  24.158  27.774  1.00  0.00     0.029 A 
ATOM     47  N   UNL A   1      42.355  25.966  27.881  1.00  0.00    -0.354 N 
ATOM     48  N   UNL A   1      42.283  29.924  27.778  1.00  0.00    -0.248 NA
ATOM     49  C   UNL A   1      44.166  29.041  26.710  1.00  0.00     0.031 C 
ATOM     50  C   UNL A   1      40.299  25.315  27.794  1.00  0.00     0.029 A 
ATOM     51  C   UNL A   1      41.094  26.448  27.720  1.00  0.00     0.049 A 
ATOM     52  H   UNL A   1      43.126  26.549  28.074  1.00  0.00     0.167 HD
ATOM     53  C   UNL A   1      41.978  28.670  27.271  1.00  0.00     0.074 A 
ATOM     54  C   UNL A   1      43.120  28.256  26.480  1.00  0.00     0.031 C 
ATOM     55  C   UNL A   1      40.958  27.886  27.731  1.00  0.00     0.031 A 
BRANCH  42  56
ATOM     56  C   UNL A   1      44.155  23.080  26.639  1.00  0.00    -0.014 A 
ATOM     57  C   UNL A   1      43.294  21.968  26.563  1.00  0.00     0.010 A 
ATOM     58  C   UNL A   1      45.323  23.095  25.867  1.00  0.00     0.010 A 
ATOM     59  C   UNL A   1      43.597  20.879  25.749  1.00  0.00     0.020 A 
ATOM     60  C   UNL A   1      45.631  22.000  25.041  1.00  0.00     0.020 A 
ATOM     61  C   UNL A   1      44.771  20.896  24.997  1.00  0.00     0.054 A 
BRANCH  61  62
ATOM     62  S   UNL A   1      45.158  19.434  23.994  1.00  0.00     0.124 S 
ATOM     63  O   UNL A   1      44.621  18.345  24.806  1.00  0.00    -0.237 OA
ATOM     64  O   UNL A   1      44.439  19.710  22.754  1.00  0.00    -0.237 OA
ATOM     65  O   UNL A   1      46.615  19.466  23.885  1.00  0.00    -0.744 OA
ENDBRANCH  61  62
ENDBRANCH  42  56
BRANCH  43  66
ATOM     66  C   UNL A   1      45.632  31.671  27.666  1.00  0.00    -0.014 A 
ATOM     67  C   UNL A   1      45.401  32.911  27.034  1.00  0.00     0.010 A 
ATOM     68  C   UNL A   1      46.926  31.128  27.545  1.00  0.00     0.010 A 
ATOM     69  C   UNL A   1      46.444  33.641  26.450  1.00  0.00     0.020 A 
ATOM     70  C   UNL A   1      47.986  31.866  26.999  1.00  0.00     0.020 A 
ATOM     71  C   UNL A   1      47.744  33.135  26.483  1.00  0.00     0.054 A 
BRANCH  71  72
ATOM     72  S   UNL A   1      49.111  34.188  25.923  1.00  0.00     0.124 S 
ATOM     73  O   UNL A   1      49.554  34.814  27.165  1.00  0.00    -0.237 OA
ATOM     74  O   UNL A   1      50.032  33.211  25.346  1.00  0.00    -0.237 OA
ATOM     75  O   UNL A   1      48.482  35.086  24.958  1.00  0.00    -0.744 OA
ENDBRANCH  71  72
ENDBRANCH  43  66
BRANCH  55  76
ATOM     76  C   UNL A   1      39.804  28.570  28.367  1.00  0.00    -0.014 A 
ATOM     77  C   UNL A   1      39.691  28.535  29.768  1.00  0.00     0.010 A 
ATOM     78  C   UNL A   1      38.878  29.319  27.623  1.00  0.00     0.010 A 
ATOM     79  C   UNL A   1      38.699  29.260  30.422  1.00  0.00     0.020 A 
ATOM     80  C   UNL A   1      37.877  30.050  28.275  1.00  0.00     0.020 A 
ATOM     81  C   UNL A   1      37.808  30.029  29.672  1.00  0.00     0.054 A 
BRANCH  81  82
ATOM     82  S   UNL A   1      36.610  31.052  30.564  1.00  0.00     0.124 S 
ATOM     83  O   UNL A   1      37.418  32.192  30.988  1.00  0.00    -0.237 OA
ATOM     84  O   UNL A   1      35.615  31.338  29.532  1.00  0.00    -0.237 OA
ATOM     85  O   UNL A   1      36.144  30.185  31.645  1.00  0.00    -0.744 OA
ENDBRANCH  81  82
ENDBRANCH  55  76
ENDBRANCH  29  30
ENDBRANCH  22  24
ENDBRANCH  21  22
ENDBRANCH   1  21
TORSDOF 15
ENDMDL
