MODEL 1
REMARK VINA RESULT:      -9.5      0.000      0.000
REMARK SMILES CSCC[C@H](NC(=O)c1nc(C(C)C)n[nH]1)C(=O)OCCOC(=O)c1ccc(-c2c3nc(c(-c4ccc(S(=O)(=O)[O-])cc4)c4ccc([nH]4)c(-c4ccc(S(=O)(=O)[O-])cc4)c4nc(c(-c5ccc(S(=O)(=O)[O-])cc5)c5ccc2[nH]5)C=C4)C=C3)cc1
REMARK SMILES IDX 20 1 19 2 17 3 18 4 5 5 4 6 3 7 2 8 1 9 6 10 7 11 8 13 9 14
REMARK SMILES IDX 10 15 16 16 11 17 15 18 12 20 13 21 14 22 21 23 22 24 23 25
REMARK SMILES IDX 24 26 25 27 26 28 84 29 27 30 83 31 28 32 29 33 30 34 77 35
REMARK SMILES IDX 31 36 82 37 76 38 78 39 32 40 81 41 75 42 74 43 33 45 63 46
REMARK SMILES IDX 44 47 62 48 45 49 48 50 61 51 79 52 46 53 47 54 60 56 80 57
REMARK SMILES IDX 49 58 34 59 35 60 43 61 36 62 42 63 37 64 38 65 39 66 40 67
REMARK SMILES IDX 41 68 64 69 65 70 73 71 66 72 72 73 67 74 68 75 69 76 70 77
REMARK SMILES IDX 71 78 50 79 51 80 59 81 52 82 58 83 53 84 54 85 55 86 56 87
REMARK SMILES IDX 57 88
REMARK H PARENT 6 12 16 19 78 44 48 55
REMARK Flexibility Score: inf
ROOT
ATOM      1  C   UNL A   1      31.815  30.378  25.860  1.00  0.00     0.274 C 
ENDROOT
BRANCH   1   2
ATOM      2  O   UNL A   1      31.416  29.241  25.069  1.00  0.00    -0.461 OA
BRANCH   2   3
ATOM      3  C   UNL A   1      32.078  29.052  23.887  1.00  0.00     0.328 C 
ATOM      4  O   UNL A   1      33.291  29.173  23.756  1.00  0.00    -0.250 OA
BRANCH   3   5
ATOM      5  C   UNL A   1      31.101  28.786  22.708  1.00  0.00     0.193 C 
BRANCH   5   6
ATOM      6  C   UNL A   1      29.725  28.650  23.376  1.00  0.00     0.048 C 
BRANCH   6   7
ATOM      7  C   UNL A   1      28.554  29.074  22.465  1.00  0.00     0.072 C 
BRANCH   7   8
ATOM      8  S   UNL A   1      28.492  30.851  22.051  1.00  0.00    -0.165 SA
ATOM      9  C   UNL A   1      27.632  31.518  23.497  1.00  0.00     0.085 C 
ENDBRANCH   7   8
ENDBRANCH   6   7
ENDBRANCH   5   6
BRANCH   5  10
ATOM     10  N   UNL A   1      31.620  27.629  21.950  1.00  0.00    -0.336 N 
ATOM     11  C   UNL A   1      31.820  26.301  22.210  1.00  0.00     0.289 C 
ATOM     12  H   UNL A   1      31.888  27.874  21.035  1.00  0.00     0.164 HD
ATOM     13  O   UNL A   1      32.129  25.590  21.249  1.00  0.00    -0.266 OA
BRANCH  11  14
ATOM     14  C   UNL A   1      31.794  25.763  23.542  1.00  0.00     0.214 A 
ATOM     15  N   UNL A   1      32.781  25.605  24.394  1.00  0.00    -0.207 NA
ATOM     16  N   UNL A   1      30.666  25.221  24.089  1.00  0.00    -0.255 N 
ATOM     17  C   UNL A   1      32.246  24.793  25.366  1.00  0.00     0.153 A 
ATOM     18  N   UNL A   1      30.939  24.538  25.214  1.00  0.00    -0.158 NA
ATOM     19  H   UNL A   1      29.765  25.320  23.707  1.00  0.00     0.192 HD
BRANCH  17  20
ATOM     20  C   UNL A   1      33.118  24.111  26.375  1.00  0.00     0.053 C 
ATOM     21  C   UNL A   1      32.495  22.844  26.956  1.00  0.00     0.016 C 
ATOM     22  C   UNL A   1      34.491  23.794  25.772  1.00  0.00     0.016 C 
ENDBRANCH  17  20
ENDBRANCH  11  14
ENDBRANCH   5  10
ENDBRANCH   3   5
ENDBRANCH   2   3
ENDBRANCH   1   2
BRANCH   1  23
ATOM     23  C   UNL A   1      32.335  29.970  27.242  1.00  0.00     0.275 C 
BRANCH  23  24
ATOM     24  O   UNL A   1      33.751  29.729  27.227  1.00  0.00    -0.458 OA
BRANCH  24  25
ATOM     25  C   UNL A   1      34.485  30.605  27.958  1.00  0.00     0.338 C 
ATOM     26  O   UNL A   1      34.067  31.598  28.529  1.00  0.00    -0.246 OA
BRANCH  25  27
ATOM     27  C   UNL A   1      35.862  30.096  28.135  1.00  0.00     0.060 A 
ATOM     28  C   UNL A   1      36.220  29.653  29.413  1.00  0.00     0.016 A 
ATOM     29  C   UNL A   1      36.792  30.065  27.091  1.00  0.00     0.016 A 
ATOM     30  C   UNL A   1      37.508  29.191  29.656  1.00  0.00     0.010 A 
ATOM     31  C   UNL A   1      38.092  29.613  27.339  1.00  0.00     0.010 A 
ATOM     32  C   UNL A   1      38.457  29.188  28.627  1.00  0.00    -0.014 A 
BRANCH  32  33
ATOM     33  C   UNL A   1      39.855  28.830  28.951  1.00  0.00     0.031 A 
ATOM     34  C   UNL A   1      40.700  29.804  29.722  1.00  0.00     0.074 A 
ATOM     35  C   UNL A   1      40.332  27.613  28.639  1.00  0.00     0.049 A 
ATOM     36  N   UNL A   1      41.926  29.669  30.152  1.00  0.00    -0.248 NA
ATOM     37  C   UNL A   1      40.075  31.093  30.061  1.00  0.00     0.031 C 
ATOM     38  C   UNL A   1      39.585  26.563  27.945  1.00  0.00     0.029 A 
ATOM     39  N   UNL A   1      41.557  27.049  28.887  1.00  0.00    -0.354 N 
ATOM     40  C   UNL A   1      42.223  30.852  30.815  1.00  0.00     0.074 A 
ATOM     41  C   UNL A   1      41.053  31.700  30.719  1.00  0.00     0.031 C 
ATOM     42  C   UNL A   1      40.365  25.474  27.837  1.00  0.00     0.029 A 
ATOM     43  C   UNL A   1      41.670  25.758  28.431  1.00  0.00     0.049 A 
ATOM     44  H   UNL A   1      42.287  27.524  29.347  1.00  0.00     0.167 HD
ATOM     45  C   UNL A   1      43.368  31.205  31.445  1.00  0.00     0.031 A 
ATOM     46  C   UNL A   1      42.712  24.905  28.483  1.00  0.00     0.031 A 
ATOM     47  C   UNL A   1      44.540  30.378  31.524  1.00  0.00     0.049 A 
ATOM     48  C   UNL A   1      43.994  25.343  29.135  1.00  0.00     0.074 A 
ATOM     49  C   UNL A   1      45.760  30.664  32.109  1.00  0.00     0.029 A 
ATOM     50  N   UNL A   1      44.636  29.100  30.997  1.00  0.00    -0.354 N 
ATOM     51  N   UNL A   1      44.265  26.476  29.736  1.00  0.00    -0.248 NA
ATOM     52  C   UNL A   1      45.110  24.387  29.110  1.00  0.00     0.031 C 
ATOM     53  C   UNL A   1      46.606  29.566  31.910  1.00  0.00     0.029 A 
ATOM     54  C   UNL A   1      45.900  28.586  31.229  1.00  0.00     0.049 A 
ATOM     55  H   UNL A   1      43.912  28.626  30.528  1.00  0.00     0.167 HD
ATOM     56  C   UNL A   1      45.584  26.370  30.163  1.00  0.00     0.074 A 
ATOM     57  C   UNL A   1      46.048  25.055  29.768  1.00  0.00     0.031 C 
ATOM     58  C   UNL A   1      46.345  27.281  30.817  1.00  0.00     0.031 A 
BRANCH  45  59
ATOM     59  C   UNL A   1      43.406  32.574  32.061  1.00  0.00    -0.014 A 
ATOM     60  C   UNL A   1      43.113  32.760  33.423  1.00  0.00     0.010 A 
ATOM     61  C   UNL A   1      43.727  33.686  31.264  1.00  0.00     0.010 A 
ATOM     62  C   UNL A   1      43.102  34.045  33.971  1.00  0.00     0.020 A 
ATOM     63  C   UNL A   1      43.731  34.971  31.812  1.00  0.00     0.020 A 
ATOM     64  C   UNL A   1      43.399  35.144  33.159  1.00  0.00     0.054 A 
BRANCH  64  65
ATOM     65  S   UNL A   1      43.370  36.807  33.881  1.00  0.00     0.124 S 
ATOM     66  O   UNL A   1      44.507  36.754  34.799  1.00  0.00    -0.237 OA
ATOM     67  O   UNL A   1      43.546  37.672  32.717  1.00  0.00    -0.237 OA
ATOM     68  O   UNL A   1      42.058  36.884  34.516  1.00  0.00    -0.744 OA
ENDBRANCH  64  65
ENDBRANCH  45  59
BRANCH  46  69
ATOM     69  C   UNL A   1      42.589  23.554  27.879  1.00  0.00    -0.014 A 
ATOM     70  C   UNL A   1      42.218  22.450  28.663  1.00  0.00     0.010 A 
ATOM     71  C   UNL A   1      42.834  23.372  26.506  1.00  0.00     0.010 A 
ATOM     72  C   UNL A   1      42.099  21.181  28.085  1.00  0.00     0.020 A 
ATOM     73  C   UNL A   1      42.701  22.110  25.922  1.00  0.00     0.020 A 
ATOM     74  C   UNL A   1      42.343  21.020  26.718  1.00  0.00     0.054 A 
BRANCH  74  75
ATOM     75  S   UNL A   1      42.124  19.385  25.961  1.00  0.00     0.124 S 
ATOM     76  O   UNL A   1      42.534  18.494  27.040  1.00  0.00    -0.237 OA
ATOM     77  O   UNL A   1      40.700  19.368  25.632  1.00  0.00    -0.237 OA
ATOM     78  O   UNL A   1      43.018  19.429  24.806  1.00  0.00    -0.744 OA
ENDBRANCH  74  75
ENDBRANCH  46  69
BRANCH  58  79
ATOM     79  C   UNL A   1      47.757  26.887  31.143  1.00  0.00    -0.014 A 
ATOM     80  C   UNL A   1      48.807  27.191  30.259  1.00  0.00     0.010 A 
ATOM     81  C   UNL A   1      48.044  26.250  32.363  1.00  0.00     0.010 A 
ATOM     82  C   UNL A   1      50.122  26.844  30.581  1.00  0.00     0.020 A 
ATOM     83  C   UNL A   1      49.358  25.914  32.694  1.00  0.00     0.020 A 
ATOM     84  C   UNL A   1      50.388  26.202  31.794  1.00  0.00     0.054 A 
BRANCH  84  85
ATOM     85  S   UNL A   1      52.105  25.795  32.218  1.00  0.00     0.124 S 
ATOM     86  O   UNL A   1      52.833  26.310  31.062  1.00  0.00    -0.237 OA
ATOM     87  O   UNL A   1      52.316  26.523  33.468  1.00  0.00    -0.237 OA
ATOM     88  O   UNL A   1      52.089  24.340  32.351  1.00  0.00    -0.744 OA
ENDBRANCH  84  85
ENDBRANCH  58  79
ENDBRANCH  32  33
ENDBRANCH  25  27
ENDBRANCH  24  25
ENDBRANCH  23  24
ENDBRANCH   1  23
TORSDOF 20
ENDMDL
MODEL 2
REMARK VINA RESULT:      -9.4      4.154      9.728
REMARK SMILES CSCC[C@H](NC(=O)c1nc(C(C)C)n[nH]1)C(=O)OCCOC(=O)c1ccc(-c2c3nc(c(-c4ccc(S(=O)(=O)[O-])cc4)c4ccc([nH]4)c(-c4ccc(S(=O)(=O)[O-])cc4)c4nc(c(-c5ccc(S(=O)(=O)[O-])cc5)c5ccc2[nH]5)C=C4)C=C3)cc1
REMARK SMILES IDX 20 1 19 2 17 3 18 4 5 5 4 6 3 7 2 8 1 9 6 10 7 11 8 13 9 14
REMARK SMILES IDX 10 15 16 16 11 17 15 18 12 20 13 21 14 22 21 23 22 24 23 25
REMARK SMILES IDX 24 26 25 27 26 28 84 29 27 30 83 31 28 32 29 33 30 34 77 35
REMARK SMILES IDX 31 36 82 37 76 38 78 39 32 40 81 41 75 42 74 43 33 45 63 46
REMARK SMILES IDX 44 47 62 48 45 49 48 50 61 51 79 52 46 53 47 54 60 56 80 57
REMARK SMILES IDX 49 58 34 59 35 60 43 61 36 62 42 63 37 64 38 65 39 66 40 67
REMARK SMILES IDX 41 68 64 69 65 70 73 71 66 72 72 73 67 74 68 75 69 76 70 77
REMARK SMILES IDX 71 78 50 79 51 80 59 81 52 82 58 83 53 84 54 85 55 86 56 87
REMARK SMILES IDX 57 88
REMARK H PARENT 6 12 16 19 78 44 48 55
REMARK Flexibility Score: inf
ROOT
ATOM      1  C   UNL A   1      38.337  20.540  25.178  1.00  0.00     0.274 C 
ENDROOT
BRANCH   1   2
ATOM      2  O   UNL A   1      37.246  21.339  25.675  1.00  0.00    -0.461 OA
BRANCH   2   3
ATOM      3  C   UNL A   1      36.816  22.360  24.871  1.00  0.00     0.328 C 
ATOM      4  O   UNL A   1      37.469  23.371  24.641  1.00  0.00    -0.250 OA
BRANCH   3   5
ATOM      5  C   UNL A   1      35.356  22.141  24.385  1.00  0.00     0.193 C 
BRANCH   5   6
ATOM      6  C   UNL A   1      35.145  23.219  23.311  1.00  0.00     0.048 C 
BRANCH   6   7
ATOM      7  C   UNL A   1      33.711  23.249  22.743  1.00  0.00     0.072 C 
BRANCH   7   8
ATOM      8  S   UNL A   1      32.692  24.668  23.273  1.00  0.00    -0.165 SA
ATOM      9  C   UNL A   1      33.403  26.002  22.278  1.00  0.00     0.085 C 
ENDBRANCH   7   8
ENDBRANCH   6   7
ENDBRANCH   5   6
BRANCH   5  10
ATOM     10  N   UNL A   1      34.480  22.169  25.575  1.00  0.00    -0.336 N 
ATOM     11  C   UNL A   1      33.797  21.238  26.306  1.00  0.00     0.289 C 
ATOM     12  H   UNL A   1      34.359  23.081  25.925  1.00  0.00     0.164 HD
ATOM     13  O   UNL A   1      33.288  21.628  27.362  1.00  0.00    -0.266 OA
BRANCH  11  14
ATOM     14  C   UNL A   1      33.568  19.901  25.833  1.00  0.00     0.214 A 
ATOM     15  N   UNL A   1      33.846  19.375  24.662  1.00  0.00    -0.207 NA
ATOM     16  N   UNL A   1      32.895  18.969  26.571  1.00  0.00    -0.255 N 
ATOM     17  C   UNL A   1      33.155  18.186  24.666  1.00  0.00     0.153 A 
ATOM     18  N   UNL A   1      32.558  17.899  25.831  1.00  0.00    -0.158 NA
ATOM     19  H   UNL A   1      32.683  19.070  27.527  1.00  0.00     0.192 HD
BRANCH  17  20
ATOM     20  C   UNL A   1      32.943  17.406  23.405  1.00  0.00     0.053 C 
ATOM     21  C   UNL A   1      32.342  18.236  22.273  1.00  0.00     0.016 C 
ATOM     22  C   UNL A   1      34.255  16.759  22.947  1.00  0.00     0.016 C 
ENDBRANCH  17  20
ENDBRANCH  11  14
ENDBRANCH   5  10
ENDBRANCH   3   5
ENDBRANCH   2   3
ENDBRANCH   1   2
BRANCH   1  23
ATOM     23  C   UNL A   1      39.570  20.612  26.083  1.00  0.00     0.275 C 
BRANCH  23  24
ATOM     24  O   UNL A   1      40.632  19.770  25.605  1.00  0.00    -0.458 OA
BRANCH  24  25
ATOM     25  C   UNL A   1      41.699  19.674  26.435  1.00  0.00     0.338 C 
ATOM     26  O   UNL A   1      42.187  18.644  26.869  1.00  0.00    -0.246 OA
BRANCH  25  27
ATOM     27  C   UNL A   1      42.331  20.999  26.612  1.00  0.00     0.060 A 
ATOM     28  C   UNL A   1      42.583  21.416  27.924  1.00  0.00     0.016 A 
ATOM     29  C   UNL A   1      42.656  21.828  25.534  1.00  0.00     0.016 A 
ATOM     30  C   UNL A   1      43.146  22.664  28.164  1.00  0.00     0.010 A 
ATOM     31  C   UNL A   1      43.210  23.089  25.776  1.00  0.00     0.010 A 
ATOM     32  C   UNL A   1      43.443  23.515  27.094  1.00  0.00    -0.014 A 
BRANCH  32  33
ATOM     33  C   UNL A   1      43.903  24.890  27.387  1.00  0.00     0.031 A 
ATOM     34  C   UNL A   1      45.330  25.261  27.098  1.00  0.00     0.074 A 
ATOM     35  C   UNL A   1      43.032  25.818  27.820  1.00  0.00     0.049 A 
ATOM     36  N   UNL A   1      45.922  26.418  27.231  1.00  0.00    -0.248 NA
ATOM     37  C   UNL A   1      46.197  24.190  26.580  1.00  0.00     0.031 C 
ATOM     38  C   UNL A   1      41.611  25.589  28.079  1.00  0.00     0.029 A 
ATOM     39  N   UNL A   1      43.217  27.148  28.099  1.00  0.00    -0.354 N 
ATOM     40  C   UNL A   1      47.231  26.219  26.813  1.00  0.00     0.074 A 
ATOM     41  C   UNL A   1      47.350  24.826  26.434  1.00  0.00     0.031 C 
ATOM     42  C   UNL A   1      41.048  26.747  28.464  1.00  0.00     0.029 A 
ATOM     43  C   UNL A   1      42.072  27.789  28.501  1.00  0.00     0.049 A 
ATOM     44  H   UNL A   1      44.089  27.600  28.018  1.00  0.00     0.167 HD
ATOM     45  C   UNL A   1      48.246  27.113  26.752  1.00  0.00     0.031 A 
ATOM     46  C   UNL A   1      41.874  29.072  28.865  1.00  0.00     0.031 A 
ATOM     47  C   UNL A   1      48.140  28.490  27.149  1.00  0.00     0.049 A 
ATOM     48  C   UNL A   1      43.032  30.031  28.847  1.00  0.00     0.074 A 
ATOM     49  C   UNL A   1      49.123  29.463  27.158  1.00  0.00     0.029 A 
ATOM     50  N   UNL A   1      46.978  29.088  27.609  1.00  0.00    -0.354 N 
ATOM     51  N   UNL A   1      44.270  29.819  28.472  1.00  0.00    -0.248 NA
ATOM     52  C   UNL A   1      42.763  31.401  29.307  1.00  0.00     0.031 C 
ATOM     53  C   UNL A   1      48.559  30.646  27.653  1.00  0.00     0.029 A 
ATOM     54  C   UNL A   1      47.219  30.414  27.920  1.00  0.00     0.049 A 
ATOM     55  H   UNL A   1      46.108  28.636  27.700  1.00  0.00     0.167 HD
ATOM     56  C   UNL A   1      44.930  31.030  28.649  1.00  0.00     0.074 A 
ATOM     57  C   UNL A   1      43.950  31.974  29.147  1.00  0.00     0.031 C 
ATOM     58  C   UNL A   1      46.232  31.332  28.426  1.00  0.00     0.031 A 
BRANCH  45  59
ATOM     59  C   UNL A   1      49.572  26.599  26.274  1.00  0.00    -0.014 A 
ATOM     60  C   UNL A   1      50.345  25.741  27.077  1.00  0.00     0.010 A 
ATOM     61  C   UNL A   1      50.056  26.987  25.012  1.00  0.00     0.010 A 
ATOM     62  C   UNL A   1      51.601  25.311  26.641  1.00  0.00     0.020 A 
ATOM     63  C   UNL A   1      51.304  26.547  24.568  1.00  0.00     0.020 A 
ATOM     64  C   UNL A   1      52.078  25.727  25.394  1.00  0.00     0.054 A 
BRANCH  64  65
ATOM     65  S   UNL A   1      53.715  25.170  24.845  1.00  0.00     0.124 S 
ATOM     66  O   UNL A   1      53.816  25.794  23.527  1.00  0.00    -0.237 OA
ATOM     67  O   UNL A   1      54.605  25.715  25.866  1.00  0.00    -0.237 OA
ATOM     68  O   UNL A   1      53.598  23.714  24.839  1.00  0.00    -0.744 OA
ENDBRANCH  64  65
ENDBRANCH  45  59
BRANCH  46  69
ATOM     69  C   UNL A   1      40.525  29.516  29.298  1.00  0.00    -0.014 A 
ATOM     70  C   UNL A   1      40.218  29.651  30.661  1.00  0.00     0.010 A 
ATOM     71  C   UNL A   1      39.542  29.818  28.338  1.00  0.00     0.010 A 
ATOM     72  C   UNL A   1      38.947  30.076  31.060  1.00  0.00     0.020 A 
ATOM     73  C   UNL A   1      38.276  30.258  28.733  1.00  0.00     0.020 A 
ATOM     74  C   UNL A   1      37.984  30.376  30.093  1.00  0.00     0.054 A 
BRANCH  74  75
ATOM     75  S   UNL A   1      36.357  30.989  30.614  1.00  0.00     0.124 S 
ATOM     76  O   UNL A   1      35.573  30.844  29.393  1.00  0.00    -0.237 OA
ATOM     77  O   UNL A   1      36.004  30.084  31.706  1.00  0.00    -0.237 OA
ATOM     78  O   UNL A   1      36.635  32.364  31.026  1.00  0.00    -0.744 OA
ENDBRANCH  74  75
ENDBRANCH  46  69
BRANCH  58  79
ATOM     79  C   UNL A   1      46.669  32.738  28.721  1.00  0.00    -0.014 A 
ATOM     80  C   UNL A   1      46.582  33.737  27.736  1.00  0.00     0.010 A 
ATOM     81  C   UNL A   1      47.126  33.076  30.008  1.00  0.00     0.010 A 
ATOM     82  C   UNL A   1      46.967  35.048  28.025  1.00  0.00     0.020 A 
ATOM     83  C   UNL A   1      47.498  34.388  30.305  1.00  0.00     0.020 A 
ATOM     84  C   UNL A   1      47.428  35.365  29.307  1.00  0.00     0.054 A 
BRANCH  84  85
ATOM     85  S   UNL A   1      47.884  37.080  29.682  1.00  0.00     0.124 S 
ATOM     86  O   UNL A   1      46.784  37.826  29.078  1.00  0.00    -0.237 OA
ATOM     87  O   UNL A   1      47.925  37.097  31.143  1.00  0.00    -0.237 OA
ATOM     88  O   UNL A   1      49.181  37.240  29.029  1.00  0.00    -0.744 OA
ENDBRANCH  84  85
ENDBRANCH  58  79
ENDBRANCH  32  33
ENDBRANCH  25  27
ENDBRANCH  24  25
ENDBRANCH  23  24
ENDBRANCH   1  23
TORSDOF 20
ENDMDL
MODEL 3
REMARK VINA RESULT:      -9.4      0.952      8.350
REMARK SMILES CSCC[C@H](NC(=O)c1nc(C(C)C)n[nH]1)C(=O)OCCOC(=O)c1ccc(-c2c3nc(c(-c4ccc(S(=O)(=O)[O-])cc4)c4ccc([nH]4)c(-c4ccc(S(=O)(=O)[O-])cc4)c4nc(c(-c5ccc(S(=O)(=O)[O-])cc5)c5ccc2[nH]5)C=C4)C=C3)cc1
REMARK SMILES IDX 20 1 19 2 17 3 18 4 5 5 4 6 3 7 2 8 1 9 6 10 7 11 8 13 9 14
REMARK SMILES IDX 10 15 16 16 11 17 15 18 12 20 13 21 14 22 21 23 22 24 23 25
REMARK SMILES IDX 24 26 25 27 26 28 84 29 27 30 83 31 28 32 29 33 30 34 77 35
REMARK SMILES IDX 31 36 82 37 76 38 78 39 32 40 81 41 75 42 74 43 33 45 63 46
REMARK SMILES IDX 44 47 62 48 45 49 48 50 61 51 79 52 46 53 47 54 60 56 80 57
REMARK SMILES IDX 49 58 34 59 35 60 43 61 36 62 42 63 37 64 38 65 39 66 40 67
REMARK SMILES IDX 41 68 64 69 65 70 73 71 66 72 72 73 67 74 68 75 69 76 70 77
REMARK SMILES IDX 71 78 50 79 51 80 59 81 52 82 58 83 53 84 54 85 55 86 56 87
REMARK SMILES IDX 57 88
REMARK H PARENT 6 12 16 19 78 44 48 55
REMARK Flexibility Score: inf
ROOT
ATOM      1  C   UNL A   1      31.819  29.733  25.824  1.00  0.00     0.274 C 
ENDROOT
BRANCH   1   2
ATOM      2  O   UNL A   1      31.608  28.505  25.099  1.00  0.00    -0.461 OA
BRANCH   2   3
ATOM      3  C   UNL A   1      32.353  28.325  23.965  1.00  0.00     0.328 C 
ATOM      4  O   UNL A   1      33.574  28.419  23.927  1.00  0.00    -0.250 OA
BRANCH   3   5
ATOM      5  C   UNL A   1      31.460  28.108  22.712  1.00  0.00     0.193 C 
BRANCH   5   6
ATOM      6  C   UNL A   1      30.170  27.484  23.264  1.00  0.00     0.048 C 
BRANCH   6   7
ATOM      7  C   UNL A   1      28.898  28.278  22.900  1.00  0.00     0.072 C 
BRANCH   7   8
ATOM      8  S   UNL A   1      29.070  30.095  22.954  1.00  0.00    -0.165 SA
ATOM      9  C   UNL A   1      28.198  30.575  21.442  1.00  0.00     0.085 C 
ENDBRANCH   7   8
ENDBRANCH   6   7
ENDBRANCH   5   6
BRANCH   5  10
ATOM     10  N   UNL A   1      32.245  27.325  21.735  1.00  0.00    -0.336 N 
ATOM     11  C   UNL A   1      32.568  26.006  21.575  1.00  0.00     0.289 C 
ATOM     12  H   UNL A   1      32.628  27.891  21.027  1.00  0.00     0.164 HD
ATOM     13  O   UNL A   1      33.124  25.696  20.517  1.00  0.00    -0.266 OA
BRANCH  11  14
ATOM     14  C   UNL A   1      32.389  25.035  22.620  1.00  0.00     0.214 A 
ATOM     15  N   UNL A   1      33.147  24.787  23.663  1.00  0.00    -0.207 NA
ATOM     16  N   UNL A   1      31.377  24.118  22.599  1.00  0.00    -0.255 N 
ATOM     17  C   UNL A   1      32.664  23.592  24.141  1.00  0.00     0.153 A 
ATOM     18  N   UNL A   1      31.566  23.149  23.511  1.00  0.00    -0.158 NA
ATOM     19  H   UNL A   1      30.604  24.162  21.991  1.00  0.00     0.192 HD
BRANCH  17  20
ATOM     20  C   UNL A   1      33.434  22.787  25.142  1.00  0.00     0.053 C 
ATOM     21  C   UNL A   1      34.074  21.534  24.548  1.00  0.00     0.016 C 
ATOM     22  C   UNL A   1      34.501  23.653  25.821  1.00  0.00     0.016 C 
ENDBRANCH  17  20
ENDBRANCH  11  14
ENDBRANCH   5  10
ENDBRANCH   3   5
ENDBRANCH   2   3
ENDBRANCH   1   2
BRANCH   1  23
ATOM     23  C   UNL A   1      32.379  29.490  27.228  1.00  0.00     0.275 C 
BRANCH  23  24
ATOM     24  O   UNL A   1      33.814  29.406  27.220  1.00  0.00    -0.458 OA
BRANCH  24  25
ATOM     25  C   UNL A   1      34.447  30.432  27.842  1.00  0.00     0.338 C 
ATOM     26  O   UNL A   1      33.932  31.460  28.246  1.00  0.00    -0.246 OA
BRANCH  25  27
ATOM     27  C   UNL A   1      35.847  30.062  28.140  1.00  0.00     0.060 A 
ATOM     28  C   UNL A   1      36.144  29.697  29.458  1.00  0.00     0.016 A 
ATOM     29  C   UNL A   1      36.855  30.086  27.171  1.00  0.00     0.016 A 
ATOM     30  C   UNL A   1      37.446  29.368  29.816  1.00  0.00     0.010 A 
ATOM     31  C   UNL A   1      38.168  29.768  27.534  1.00  0.00     0.010 A 
ATOM     32  C   UNL A   1      38.469  29.422  28.861  1.00  0.00    -0.014 A 
BRANCH  32  33
ATOM     33  C   UNL A   1      39.864  29.210  29.303  1.00  0.00     0.031 A 
ATOM     34  C   UNL A   1      40.538  27.903  28.996  1.00  0.00     0.074 A 
ATOM     35  C   UNL A   1      40.548  30.207  29.890  1.00  0.00     0.049 A 
ATOM     36  N   UNL A   1      41.766  27.531  29.246  1.00  0.00    -0.248 NA
ATOM     37  C   UNL A   1      39.724  26.888  28.308  1.00  0.00     0.031 C 
ATOM     38  C   UNL A   1      40.017  31.538  30.184  1.00  0.00     0.029 A 
ATOM     39  N   UNL A   1      41.847  30.257  30.325  1.00  0.00    -0.354 N 
ATOM     40  C   UNL A   1      41.876  26.241  28.745  1.00  0.00     0.074 A 
ATOM     41  C   UNL A   1      40.586  25.889  28.188  1.00  0.00     0.031 C 
ATOM     42  C   UNL A   1      40.991  32.281  30.738  1.00  0.00     0.029 A 
ATOM     43  C   UNL A   1      42.201  31.472  30.858  1.00  0.00     0.049 A 
ATOM     44  H   UNL A   1      42.468  29.495  30.261  1.00  0.00     0.167 HD
ATOM     45  C   UNL A   1      42.953  25.420  28.749  1.00  0.00     0.031 A 
ATOM     46  C   UNL A   1      43.370  31.882  31.389  1.00  0.00     0.031 A 
ATOM     47  C   UNL A   1      44.227  25.755  29.320  1.00  0.00     0.049 A 
ATOM     48  C   UNL A   1      44.534  30.931  31.438  1.00  0.00     0.074 A 
ATOM     49  C   UNL A   1      45.366  24.976  29.406  1.00  0.00     0.029 A 
ATOM     50  N   UNL A   1      44.529  26.975  29.907  1.00  0.00    -0.354 N 
ATOM     51  N   UNL A   1      44.613  29.704  30.981  1.00  0.00    -0.248 NA
ATOM     52  C   UNL A   1      45.763  31.419  32.079  1.00  0.00     0.031 C 
ATOM     53  C   UNL A   1      46.351  25.717  30.072  1.00  0.00     0.029 A 
ATOM     54  C   UNL A   1      45.833  26.967  30.371  1.00  0.00     0.049 A 
ATOM     55  H   UNL A   1      43.909  27.735  29.981  1.00  0.00     0.167 HD
ATOM     56  C   UNL A   1      45.901  29.273  31.278  1.00  0.00     0.074 A 
ATOM     57  C   UNL A   1      46.571  30.377  31.936  1.00  0.00     0.031 C 
ATOM     58  C   UNL A   1      46.476  28.071  31.034  1.00  0.00     0.031 A 
BRANCH  45  59
ATOM     59  C   UNL A   1      42.766  24.058  28.148  1.00  0.00    -0.014 A 
ATOM     60  C   UNL A   1      43.086  23.814  26.801  1.00  0.00     0.010 A 
ATOM     61  C   UNL A   1      42.254  23.013  28.937  1.00  0.00     0.010 A 
ATOM     62  C   UNL A   1      42.859  22.555  26.240  1.00  0.00     0.020 A 
ATOM     63  C   UNL A   1      42.039  21.749  28.383  1.00  0.00     0.020 A 
ATOM     64  C   UNL A   1      42.324  21.534  27.032  1.00  0.00     0.054 A 
BRANCH  64  65
ATOM     65  S   UNL A   1      42.025  19.906  26.289  1.00  0.00     0.124 S 
ATOM     66  O   UNL A   1      42.423  19.006  27.369  1.00  0.00    -0.237 OA
ATOM     67  O   UNL A   1      40.594  19.939  25.996  1.00  0.00    -0.237 OA
ATOM     68  O   UNL A   1      42.896  19.898  25.116  1.00  0.00    -0.744 OA
ENDBRANCH  64  65
ENDBRANCH  45  59
BRANCH  46  69
ATOM     69  C   UNL A   1      43.490  33.257  31.937  1.00  0.00    -0.014 A 
ATOM     70  C   UNL A   1      43.892  34.323  31.117  1.00  0.00     0.010 A 
ATOM     71  C   UNL A   1      43.187  33.504  33.289  1.00  0.00     0.010 A 
ATOM     72  C   UNL A   1      43.996  35.616  31.640  1.00  0.00     0.020 A 
ATOM     73  C   UNL A   1      43.274  34.797  33.810  1.00  0.00     0.020 A 
ATOM     74  C   UNL A   1      43.688  35.844  32.983  1.00  0.00     0.054 A 
BRANCH  74  75
ATOM     75  S   UNL A   1      43.761  37.535  33.640  1.00  0.00     0.124 S 
ATOM     76  O   UNL A   1      42.459  37.667  34.284  1.00  0.00    -0.237 OA
ATOM     77  O   UNL A   1      44.911  37.484  34.541  1.00  0.00    -0.237 OA
ATOM     78  O   UNL A   1      43.958  38.350  32.443  1.00  0.00    -0.744 OA
ENDBRANCH  74  75
ENDBRANCH  46  69
BRANCH  58  79
ATOM     79  C   UNL A   1      47.896  27.887  31.483  1.00  0.00    -0.014 A 
ATOM     80  C   UNL A   1      48.183  27.368  32.758  1.00  0.00     0.010 A 
ATOM     81  C   UNL A   1      48.955  28.188  30.608  1.00  0.00     0.010 A 
ATOM     82  C   UNL A   1      49.507  27.176  33.160  1.00  0.00     0.020 A 
ATOM     83  C   UNL A   1      50.279  27.985  31.001  1.00  0.00     0.020 A 
ATOM     84  C   UNL A   1      50.547  27.491  32.281  1.00  0.00     0.054 A 
BRANCH  84  85
ATOM     85  S   UNL A   1      52.261  27.196  32.799  1.00  0.00     0.124 S 
ATOM     86  O   UNL A   1      52.699  26.187  31.840  1.00  0.00    -0.237 OA
ATOM     87  O   UNL A   1      52.879  28.513  32.653  1.00  0.00    -0.237 OA
ATOM     88  O   UNL A   1      52.125  26.732  34.178  1.00  0.00    -0.744 OA
ENDBRANCH  84  85
ENDBRANCH  58  79
ENDBRANCH  32  33
ENDBRANCH  25  27
ENDBRANCH  24  25
ENDBRANCH  23  24
ENDBRANCH   1  23
TORSDOF 20
ENDMDL
