MODEL 1
REMARK VINA RESULT:      -9.1      0.000      0.000
REMARK SMILES N#C[C@@H]1CN(C(=O)NCCCC(=O)OCCOC(=O)c2ccc(-c3c4nc(c(-c5ccc(S(=O)(=O)[O-])cc5)c5ccc([nH]5)c(-c5ccc(S(=O)(=O)[O-])cc5)c5nc(c(-c6ccc(S(=O)(=O)[O-])cc6)c6ccc3[nH]6)C=C5)C=C4)cc2)CCO1
REMARK SMILES IDX 15 1 14 2 12 3 13 4 11 5 10 6 9 7 8 8 6 9 7 10 5 12 3 13
REMARK SMILES IDX 4 14 82 15 81 16 80 17 2 18 1 19 16 20 17 21 18 22 19 23
REMARK SMILES IDX 20 24 21 25 79 26 22 27 78 28 23 29 24 30 25 31 72 32 26 33
REMARK SMILES IDX 77 34 71 35 73 36 27 37 76 38 70 39 69 40 28 42 58 43 39 44
REMARK SMILES IDX 57 45 40 46 43 47 56 48 74 49 41 50 42 51 55 53 75 54 44 55
REMARK SMILES IDX 29 56 30 57 38 58 31 59 37 60 32 61 33 62 34 63 35 64 36 65
REMARK SMILES IDX 59 66 60 67 68 68 61 69 67 70 62 71 63 72 64 73 65 74 66 75
REMARK SMILES IDX 45 76 46 77 54 78 47 79 53 80 48 81 49 82 50 83 51 84 52 85
REMARK H PARENT 8 11 73 41 43 52
REMARK Flexibility Score: inf
ROOT
ATOM      1  C   UNL A   1      41.584  20.419  26.619  1.00  0.00     0.274 C 
ENDROOT
BRANCH   1   2
ATOM      2  O   UNL A   1      42.293  19.962  25.454  1.00  0.00    -0.462 OA
BRANCH   2   3
ATOM      3  C   UNL A   1      43.104  18.883  25.580  1.00  0.00     0.305 C 
ATOM      4  O   UNL A   1      42.726  17.748  25.830  1.00  0.00    -0.252 OA
BRANCH   3   5
ATOM      5  C   UNL A   1      44.561  19.264  25.413  1.00  0.00     0.124 C 
BRANCH   5   6
ATOM      6  C   UNL A   1      44.778  20.597  24.693  1.00  0.00     0.033 C 
BRANCH   6   7
ATOM      7  C   UNL A   1      45.299  21.704  25.609  1.00  0.00     0.118 C 
BRANCH   7   8
ATOM      8  N   UNL A   1      46.047  22.688  24.848  1.00  0.00    -0.338 N 
ATOM      9  C   UNL A   1      46.261  24.009  24.843  1.00  0.00     0.317 C 
ATOM     10  O   UNL A   1      47.011  24.412  23.948  1.00  0.00    -0.249 OA
ATOM     11  H   UNL A   1      46.545  22.253  24.118  1.00  0.00     0.165 HD
BRANCH   9  12
ATOM     12  N   UNL A   1      45.743  24.859  25.768  1.00  0.00    -0.319 N 
ATOM     13  C   UNL A   1      46.189  27.247  25.993  1.00  0.00     0.240 C 
ATOM     14  C   UNL A   1      46.420  25.856  26.585  1.00  0.00     0.169 C 
ATOM     15  O   UNL A   1      44.745  27.502  26.042  1.00  0.00    -0.360 OA
ATOM     16  C   UNL A   1      43.989  26.510  25.304  1.00  0.00     0.183 C 
ATOM     17  C   UNL A   1      44.291  25.075  25.772  1.00  0.00     0.150 C 
BRANCH  13  18
ATOM     18  C   UNL A   1      46.685  27.495  24.577  1.00  0.00     0.096 C 
ATOM     19  N   UNL A   1      47.095  27.701  23.403  1.00  0.00    -0.195 NA
ENDBRANCH  13  18
ENDBRANCH   9  12
ENDBRANCH   7   8
ENDBRANCH   6   7
ENDBRANCH   5   6
ENDBRANCH   3   5
ENDBRANCH   2   3
ENDBRANCH   1   2
BRANCH   1  20
ATOM     20  C   UNL A   1      40.197  20.937  26.234  1.00  0.00     0.275 C 
BRANCH  20  21
ATOM     21  O   UNL A   1      40.249  22.347  25.954  1.00  0.00    -0.458 OA
BRANCH  21  22
ATOM     22  C   UNL A   1      39.127  23.047  26.231  1.00  0.00     0.338 C 
ATOM     23  O   UNL A   1      37.969  22.680  26.080  1.00  0.00    -0.246 OA
BRANCH  22  24
ATOM     24  C   UNL A   1      39.504  24.306  26.891  1.00  0.00     0.060 A 
ATOM     25  C   UNL A   1      40.262  25.239  26.177  1.00  0.00     0.016 A 
ATOM     26  C   UNL A   1      39.134  24.556  28.213  1.00  0.00     0.016 A 
ATOM     27  C   UNL A   1      40.651  26.432  26.783  1.00  0.00     0.010 A 
ATOM     28  C   UNL A   1      39.525  25.753  28.820  1.00  0.00     0.010 A 
ATOM     29  C   UNL A   1      40.291  26.694  28.111  1.00  0.00    -0.014 A 
BRANCH  29  30
ATOM     30  C   UNL A   1      40.750  27.939  28.772  1.00  0.00     0.031 A 
ATOM     31  C   UNL A   1      42.165  28.043  29.263  1.00  0.00     0.074 A 
ATOM     32  C   UNL A   1      39.902  28.974  28.922  1.00  0.00     0.049 A 
ATOM     33  N   UNL A   1      42.742  29.016  29.919  1.00  0.00    -0.248 NA
ATOM     34  C   UNL A   1      43.046  26.899  28.980  1.00  0.00     0.031 C 
ATOM     35  C   UNL A   1      38.519  29.008  28.446  1.00  0.00     0.029 A 
ATOM     36  N   UNL A   1      40.083  30.195  29.520  1.00  0.00    -0.354 N 
ATOM     37  C   UNL A   1      44.050  28.600  30.140  1.00  0.00     0.074 A 
ATOM     38  C   UNL A   1      44.173  27.277  29.567  1.00  0.00     0.031 C 
ATOM     39  C   UNL A   1      37.977  30.196  28.766  1.00  0.00     0.029 A 
ATOM     40  C   UNL A   1      38.959  30.985  29.506  1.00  0.00     0.049 A 
ATOM     41  H   UNL A   1      40.936  30.478  29.920  1.00  0.00     0.167 HD
ATOM     42  C   UNL A   1      45.054  29.261  30.764  1.00  0.00     0.031 A 
ATOM     43  C   UNL A   1      38.738  32.199  30.048  1.00  0.00     0.031 A 
ATOM     44  C   UNL A   1      44.922  30.570  31.346  1.00  0.00     0.049 A 
ATOM     45  C   UNL A   1      39.847  32.883  30.798  1.00  0.00     0.074 A 
ATOM     46  C   UNL A   1      45.882  31.324  32.000  1.00  0.00     0.029 A 
ATOM     47  N   UNL A   1      43.755  31.321  31.348  1.00  0.00    -0.354 N 
ATOM     48  N   UNL A   1      41.077  32.475  31.001  1.00  0.00    -0.248 NA
ATOM     49  C   UNL A   1      39.538  34.190  31.393  1.00  0.00     0.031 C 
ATOM     50  C   UNL A   1      45.282  32.510  32.438  1.00  0.00     0.029 A 
ATOM     51  C   UNL A   1      43.963  32.518  32.011  1.00  0.00     0.049 A 
ATOM     52  H   UNL A   1      42.905  31.043  30.938  1.00  0.00     0.167 HD
ATOM     53  C   UNL A   1      41.695  33.484  31.732  1.00  0.00     0.074 A 
ATOM     54  C   UNL A   1      40.707  34.526  31.923  1.00  0.00     0.031 C 
ATOM     55  C   UNL A   1      42.967  33.543  32.200  1.00  0.00     0.031 A 
BRANCH  42  56
ATOM     56  C   UNL A   1      46.374  28.547  30.884  1.00  0.00    -0.014 A 
ATOM     57  C   UNL A   1      47.370  28.687  29.901  1.00  0.00     0.010 A 
ATOM     58  C   UNL A   1      46.623  27.729  32.001  1.00  0.00     0.010 A 
ATOM     59  C   UNL A   1      48.571  27.981  30.007  1.00  0.00     0.020 A 
ATOM     60  C   UNL A   1      47.833  27.040  32.123  1.00  0.00     0.020 A 
ATOM     61  C   UNL A   1      48.790  27.153  31.112  1.00  0.00     0.054 A 
BRANCH  61  62
ATOM     62  S   UNL A   1      50.353  26.237  31.222  1.00  0.00     0.124 S 
ATOM     63  O   UNL A   1      50.047  25.033  30.452  1.00  0.00    -0.237 OA
ATOM     64  O   UNL A   1      51.307  27.152  30.602  1.00  0.00    -0.237 OA
ATOM     65  O   UNL A   1      50.533  26.031  32.657  1.00  0.00    -0.744 OA
ENDBRANCH  61  62
ENDBRANCH  42  56
BRANCH  43  66
ATOM     66  C   UNL A   1      37.399  32.834  29.912  1.00  0.00    -0.014 A 
ATOM     67  C   UNL A   1      36.465  32.762  30.959  1.00  0.00     0.010 A 
ATOM     68  C   UNL A   1      37.062  33.537  28.741  1.00  0.00     0.010 A 
ATOM     69  C   UNL A   1      35.215  33.376  30.836  1.00  0.00     0.020 A 
ATOM     70  C   UNL A   1      35.824  34.173  28.623  1.00  0.00     0.020 A 
ATOM     71  C   UNL A   1      34.903  34.082  29.669  1.00  0.00     0.054 A 
BRANCH  71  72
ATOM     72  S   UNL A   1      33.303  34.930  29.556  1.00  0.00     0.124 S 
ATOM     73  O   UNL A   1      32.846  34.899  30.942  1.00  0.00    -0.237 OA
ATOM     74  O   UNL A   1      33.678  36.246  29.044  1.00  0.00    -0.237 OA
ATOM     75  O   UNL A   1      32.542  34.101  28.626  1.00  0.00    -0.744 OA
ENDBRANCH  71  72
ENDBRANCH  43  66
BRANCH  55  76
ATOM     76  C   UNL A   1      43.372  34.788  32.942  1.00  0.00    -0.014 A 
ATOM     77  C   UNL A   1      43.658  35.981  32.257  1.00  0.00     0.010 A 
ATOM     78  C   UNL A   1      43.414  34.775  34.348  1.00  0.00     0.010 A 
ATOM     79  C   UNL A   1      44.009  37.135  32.965  1.00  0.00     0.020 A 
ATOM     80  C   UNL A   1      43.742  35.932  35.060  1.00  0.00     0.020 A 
ATOM     81  C   UNL A   1      44.050  37.102  34.363  1.00  0.00     0.054 A 
BRANCH  81  82
ATOM     82  S   UNL A   1      44.463  38.621  35.263  1.00  0.00     0.124 S 
ATOM     83  O   UNL A   1      45.922  38.604  35.234  1.00  0.00    -0.237 OA
ATOM     84  O   UNL A   1      43.831  39.659  34.452  1.00  0.00    -0.237 OA
ATOM     85  O   UNL A   1      43.862  38.417  36.579  1.00  0.00    -0.744 OA
ENDBRANCH  81  82
ENDBRANCH  55  76
ENDBRANCH  29  30
ENDBRANCH  22  24
ENDBRANCH  21  22
ENDBRANCH  20  21
ENDBRANCH   1  20
TORSDOF 19
ENDMDL
MODEL 2
REMARK VINA RESULT:      -8.9      4.305     12.369
REMARK SMILES N#C[C@@H]1CN(C(=O)NCCCC(=O)OCCOC(=O)c2ccc(-c3c4nc(c(-c5ccc(S(=O)(=O)[O-])cc5)c5ccc([nH]5)c(-c5ccc(S(=O)(=O)[O-])cc5)c5nc(c(-c6ccc(S(=O)(=O)[O-])cc6)c6ccc3[nH]6)C=C5)C=C4)cc2)CCO1
REMARK SMILES IDX 15 1 14 2 12 3 13 4 11 5 10 6 9 7 8 8 6 9 7 10 5 12 3 13
REMARK SMILES IDX 4 14 82 15 81 16 80 17 2 18 1 19 16 20 17 21 18 22 19 23
REMARK SMILES IDX 20 24 21 25 79 26 22 27 78 28 23 29 24 30 25 31 72 32 26 33
REMARK SMILES IDX 77 34 71 35 73 36 27 37 76 38 70 39 69 40 28 42 58 43 39 44
REMARK SMILES IDX 57 45 40 46 43 47 56 48 74 49 41 50 42 51 55 53 75 54 44 55
REMARK SMILES IDX 29 56 30 57 38 58 31 59 37 60 32 61 33 62 34 63 35 64 36 65
REMARK SMILES IDX 59 66 60 67 68 68 61 69 67 70 62 71 63 72 64 73 65 74 66 75
REMARK SMILES IDX 45 76 46 77 54 78 47 79 53 80 48 81 49 82 50 83 51 84 52 85
REMARK H PARENT 8 11 73 41 43 52
REMARK Flexibility Score: inf
ROOT
ATOM      1  C   UNL A   1      36.762  33.650  33.789  1.00  0.00     0.274 C 
ENDROOT
BRANCH   1   2
ATOM      2  O   UNL A   1      35.929  34.429  32.912  1.00  0.00    -0.462 OA
BRANCH   2   3
ATOM      3  C   UNL A   1      34.603  34.504  33.187  1.00  0.00     0.305 C 
ATOM      4  O   UNL A   1      33.892  33.552  33.471  1.00  0.00    -0.252 OA
BRANCH   3   5
ATOM      5  C   UNL A   1      34.091  35.924  33.058  1.00  0.00     0.124 C 
BRANCH   5   6
ATOM      6  C   UNL A   1      32.881  36.069  32.133  1.00  0.00     0.033 C 
BRANCH   6   7
ATOM      7  C   UNL A   1      33.236  36.615  30.750  1.00  0.00     0.118 C 
BRANCH   7   8
ATOM      8  N   UNL A   1      32.822  35.688  29.713  1.00  0.00    -0.338 N 
ATOM      9  C   UNL A   1      33.266  34.572  29.121  1.00  0.00     0.317 C 
ATOM     10  O   UNL A   1      32.531  34.123  28.237  1.00  0.00    -0.249 OA
ATOM     11  H   UNL A   1      31.956  35.961  29.332  1.00  0.00     0.165 HD
BRANCH   9  12
ATOM     12  N   UNL A   1      34.413  33.936  29.478  1.00  0.00    -0.319 N 
ATOM     13  C   UNL A   1      34.968  31.586  29.128  1.00  0.00     0.240 C 
ATOM     14  C   UNL A   1      34.585  32.656  30.151  1.00  0.00     0.169 C 
ATOM     15  O   UNL A   1      36.254  31.987  28.545  1.00  0.00    -0.360 OA
ATOM     16  C   UNL A   1      36.184  33.288  27.910  1.00  0.00     0.183 C 
ATOM     17  C   UNL A   1      35.670  34.380  28.864  1.00  0.00     0.150 C 
BRANCH  13  18
ATOM     18  C   UNL A   1      33.983  31.310  28.003  1.00  0.00     0.096 C 
ATOM     19  N   UNL A   1      33.165  31.081  27.071  1.00  0.00    -0.195 NA
ENDBRANCH  13  18
ENDBRANCH   9  12
ENDBRANCH   7   8
ENDBRANCH   6   7
ENDBRANCH   5   6
ENDBRANCH   3   5
ENDBRANCH   2   3
ENDBRANCH   1   2
BRANCH   1  20
ATOM     20  C   UNL A   1      36.641  32.162  33.459  1.00  0.00     0.275 C 
BRANCH  20  21
ATOM     21  O   UNL A   1      37.303  31.869  32.216  1.00  0.00    -0.458 OA
BRANCH  21  22
ATOM     22  C   UNL A   1      37.345  30.566  31.860  1.00  0.00     0.338 C 
ATOM     23  O   UNL A   1      36.434  29.750  31.925  1.00  0.00    -0.246 OA
BRANCH  22  24
ATOM     24  C   UNL A   1      38.645  30.288  31.230  1.00  0.00     0.060 A 
ATOM     25  C   UNL A   1      38.784  30.493  29.855  1.00  0.00     0.016 A 
ATOM     26  C   UNL A   1      39.714  29.805  31.987  1.00  0.00     0.016 A 
ATOM     27  C   UNL A   1      39.997  30.219  29.227  1.00  0.00     0.010 A 
ATOM     28  C   UNL A   1      40.931  29.531  31.356  1.00  0.00     0.010 A 
ATOM     29  C   UNL A   1      41.077  29.730  29.973  1.00  0.00    -0.014 A 
BRANCH  29  30
ATOM     30  C   UNL A   1      42.351  29.389  29.295  1.00  0.00     0.031 A 
ATOM     31  C   UNL A   1      42.552  28.009  28.737  1.00  0.00     0.074 A 
ATOM     32  C   UNL A   1      43.319  30.316  29.176  1.00  0.00     0.049 A 
ATOM     33  N   UNL A   1      43.610  27.495  28.167  1.00  0.00    -0.248 NA
ATOM     34  C   UNL A   1      41.409  27.087  28.836  1.00  0.00     0.031 C 
ATOM     35  C   UNL A   1      43.224  31.701  29.636  1.00  0.00     0.029 A 
ATOM     36  N   UNL A   1      44.574  30.229  28.629  1.00  0.00    -0.354 N 
ATOM     37  C   UNL A   1      43.270  26.185  27.850  1.00  0.00     0.074 A 
ATOM     38  C   UNL A   1      41.913  25.979  28.311  1.00  0.00     0.031 C 
ATOM     39  C   UNL A   1      44.372  32.337  29.348  1.00  0.00     0.029 A 
ATOM     40  C   UNL A   1      45.297  31.394  28.723  1.00  0.00     0.049 A 
ATOM     41  H   UNL A   1      44.924  29.410  28.209  1.00  0.00     0.167 HD
ATOM     42  C   UNL A   1      44.020  25.242  27.231  1.00  0.00     0.031 A 
ATOM     43  C   UNL A   1      46.567  31.665  28.368  1.00  0.00     0.031 A 
ATOM     44  C   UNL A   1      45.373  25.448  26.788  1.00  0.00     0.049 A 
ATOM     45  C   UNL A   1      47.405  30.581  27.747  1.00  0.00     0.074 A 
ATOM     46  C   UNL A   1      46.216  24.553  26.151  1.00  0.00     0.029 A 
ATOM     47  N   UNL A   1      46.084  26.629  26.940  1.00  0.00    -0.354 N 
ATOM     48  N   UNL A   1      47.069  29.346  27.456  1.00  0.00    -0.248 NA
ATOM     49  C   UNL A   1      48.792  30.926  27.408  1.00  0.00     0.031 C 
ATOM     50  C   UNL A   1      47.453  25.180  25.959  1.00  0.00     0.029 A 
ATOM     51  C   UNL A   1      47.363  26.481  26.430  1.00  0.00     0.049 A 
ATOM     52  H   UNL A   1      45.732  27.451  27.350  1.00  0.00     0.167 HD
ATOM     53  C   UNL A   1      48.199  28.772  26.883  1.00  0.00     0.074 A 
ATOM     54  C   UNL A   1      49.222  29.799  26.856  1.00  0.00     0.031 C 
ATOM     55  C   UNL A   1      48.372  27.510  26.417  1.00  0.00     0.031 A 
BRANCH  42  56
ATOM     56  C   UNL A   1      43.396  23.886  27.041  1.00  0.00    -0.014 A 
ATOM     57  C   UNL A   1      43.156  23.034  28.135  1.00  0.00     0.010 A 
ATOM     58  C   UNL A   1      43.039  23.458  25.750  1.00  0.00     0.010 A 
ATOM     59  C   UNL A   1      42.618  21.760  27.934  1.00  0.00     0.020 A 
ATOM     60  C   UNL A   1      42.478  22.195  25.547  1.00  0.00     0.020 A 
ATOM     61  C   UNL A   1      42.292  21.345  26.640  1.00  0.00     0.054 A 
BRANCH  61  62
ATOM     62  S   UNL A   1      41.606  19.682  26.402  1.00  0.00     0.124 S 
ATOM     63  O   UNL A   1      42.004  19.015  27.640  1.00  0.00    -0.237 OA
ATOM     64  O   UNL A   1      40.175  19.941  26.262  1.00  0.00    -0.237 OA
ATOM     65  O   UNL A   1      42.270  19.202  25.193  1.00  0.00    -0.744 OA
ENDBRANCH  61  62
ENDBRANCH  42  56
BRANCH  43  66
ATOM     66  C   UNL A   1      47.128  33.022  28.609  1.00  0.00    -0.014 A 
ATOM     67  C   UNL A   1      47.789  33.318  29.813  1.00  0.00     0.010 A 
ATOM     68  C   UNL A   1      47.023  34.019  27.623  1.00  0.00     0.010 A 
ATOM     69  C   UNL A   1      48.331  34.589  30.029  1.00  0.00     0.020 A 
ATOM     70  C   UNL A   1      47.584  35.283  27.824  1.00  0.00     0.020 A 
ATOM     71  C   UNL A   1      48.228  35.563  29.031  1.00  0.00     0.054 A 
BRANCH  71  72
ATOM     72  S   UNL A   1      48.998  37.183  29.303  1.00  0.00     0.124 S 
ATOM     73  O   UNL A   1      49.504  37.053  30.665  1.00  0.00    -0.237 OA
ATOM     74  O   UNL A   1      50.013  37.232  28.253  1.00  0.00    -0.237 OA
ATOM     75  O   UNL A   1      47.891  38.121  29.132  1.00  0.00    -0.744 OA
ENDBRANCH  71  72
ENDBRANCH  43  66
BRANCH  55  76
ATOM     76  C   UNL A   1      49.710  27.175  25.814  1.00  0.00    -0.014 A 
ATOM     77  C   UNL A   1      49.963  27.382  24.447  1.00  0.00     0.010 A 
ATOM     78  C   UNL A   1      50.742  26.695  26.640  1.00  0.00     0.010 A 
ATOM     79  C   UNL A   1      51.220  27.087  23.910  1.00  0.00     0.020 A 
ATOM     80  C   UNL A   1      52.007  26.422  26.111  1.00  0.00     0.020 A 
ATOM     81  C   UNL A   1      52.233  26.607  24.745  1.00  0.00     0.054 A 
BRANCH  81  82
ATOM     82  S   UNL A   1      53.869  26.275  24.036  1.00  0.00     0.124 S 
ATOM     83  O   UNL A   1      54.218  25.003  24.661  1.00  0.00    -0.237 OA
ATOM     84  O   UNL A   1      53.594  26.216  22.603  1.00  0.00    -0.237 OA
ATOM     85  O   UNL A   1      54.670  27.420  24.463  1.00  0.00    -0.744 OA
ENDBRANCH  81  82
ENDBRANCH  55  76
ENDBRANCH  29  30
ENDBRANCH  22  24
ENDBRANCH  21  22
ENDBRANCH  20  21
ENDBRANCH   1  20
TORSDOF 19
ENDMDL
MODEL 3
REMARK VINA RESULT:      -8.8      4.606     11.150
REMARK SMILES N#C[C@@H]1CN(C(=O)NCCCC(=O)OCCOC(=O)c2ccc(-c3c4nc(c(-c5ccc(S(=O)(=O)[O-])cc5)c5ccc([nH]5)c(-c5ccc(S(=O)(=O)[O-])cc5)c5nc(c(-c6ccc(S(=O)(=O)[O-])cc6)c6ccc3[nH]6)C=C5)C=C4)cc2)CCO1
REMARK SMILES IDX 15 1 14 2 12 3 13 4 11 5 10 6 9 7 8 8 6 9 7 10 5 12 3 13
REMARK SMILES IDX 4 14 82 15 81 16 80 17 2 18 1 19 16 20 17 21 18 22 19 23
REMARK SMILES IDX 20 24 21 25 79 26 22 27 78 28 23 29 24 30 25 31 72 32 26 33
REMARK SMILES IDX 77 34 71 35 73 36 27 37 76 38 70 39 69 40 28 42 58 43 39 44
REMARK SMILES IDX 57 45 40 46 43 47 56 48 74 49 41 50 42 51 55 53 75 54 44 55
REMARK SMILES IDX 29 56 30 57 38 58 31 59 37 60 32 61 33 62 34 63 35 64 36 65
REMARK SMILES IDX 59 66 60 67 68 68 61 69 67 70 62 71 63 72 64 73 65 74 66 75
REMARK SMILES IDX 45 76 46 77 54 78 47 79 53 80 48 81 49 82 50 83 51 84 52 85
REMARK H PARENT 8 11 73 41 43 52
REMARK Flexibility Score: inf
ROOT
ATOM      1  C   UNL A   1      33.272  28.643  24.420  1.00  0.00     0.274 C 
ENDROOT
BRANCH   1   2
ATOM      2  O   UNL A   1      32.386  29.020  23.352  1.00  0.00    -0.462 OA
BRANCH   2   3
ATOM      3  C   UNL A   1      31.532  28.085  22.868  1.00  0.00     0.305 C 
ATOM      4  O   UNL A   1      31.864  27.099  22.227  1.00  0.00    -0.252 OA
BRANCH   3   5
ATOM      5  C   UNL A   1      30.092  28.434  23.186  1.00  0.00     0.124 C 
BRANCH   5   6
ATOM      6  C   UNL A   1      29.250  27.243  23.650  1.00  0.00     0.033 C 
BRANCH   6   7
ATOM      7  C   UNL A   1      29.981  26.331  24.637  1.00  0.00     0.118 C 
BRANCH   7   8
ATOM      8  N   UNL A   1      30.230  25.031  24.042  1.00  0.00    -0.338 N 
ATOM      9  C   UNL A   1      31.188  24.096  24.027  1.00  0.00     0.317 C 
ATOM     10  O   UNL A   1      30.939  23.106  23.332  1.00  0.00    -0.249 OA
ATOM     11  H   UNL A   1      29.467  24.754  23.485  1.00  0.00     0.165 HD
BRANCH   9  12
ATOM     12  N   UNL A   1      32.337  24.184  24.747  1.00  0.00    -0.319 N 
ATOM     13  C   UNL A   1      33.328  22.461  26.163  1.00  0.00     0.240 C 
ATOM     14  C   UNL A   1      32.591  23.800  26.128  1.00  0.00     0.169 C 
ATOM     15  O   UNL A   1      34.616  22.660  25.487  1.00  0.00    -0.360 OA
ATOM     16  C   UNL A   1      34.452  23.110  24.119  1.00  0.00     0.183 C 
ATOM     17  C   UNL A   1      33.596  24.385  24.019  1.00  0.00     0.150 C 
BRANCH  13  18
ATOM     18  C   UNL A   1      32.628  21.262  25.543  1.00  0.00     0.096 C 
ATOM     19  N   UNL A   1      32.048  20.268  25.029  1.00  0.00    -0.195 NA
ENDBRANCH  13  18
ENDBRANCH   9  12
ENDBRANCH   7   8
ENDBRANCH   6   7
ENDBRANCH   5   6
ENDBRANCH   3   5
ENDBRANCH   2   3
ENDBRANCH   1   2
BRANCH   1  20
ATOM     20  C   UNL A   1      32.939  29.421  25.694  1.00  0.00     0.275 C 
BRANCH  20  21
ATOM     21  O   UNL A   1      33.872  29.096  26.739  1.00  0.00    -0.458 OA
BRANCH  21  22
ATOM     22  C   UNL A   1      34.294  30.129  27.500  1.00  0.00     0.338 C 
ATOM     23  O   UNL A   1      33.632  31.086  27.883  1.00  0.00    -0.246 OA
BRANCH  22  24
ATOM     24  C   UNL A   1      35.674  29.866  27.936  1.00  0.00     0.060 A 
ATOM     25  C   UNL A   1      36.707  29.975  27.000  1.00  0.00     0.016 A 
ATOM     26  C   UNL A   1      35.946  29.489  29.252  1.00  0.00     0.016 A 
ATOM     27  C   UNL A   1      38.021  29.712  27.378  1.00  0.00     0.010 A 
ATOM     28  C   UNL A   1      37.266  29.225  29.631  1.00  0.00     0.010 A 
ATOM     29  C   UNL A   1      38.309  29.329  28.695  1.00  0.00    -0.014 A 
BRANCH  29  30
ATOM     30  C   UNL A   1      39.701  28.998  29.083  1.00  0.00     0.031 A 
ATOM     31  C   UNL A   1      40.539  30.021  29.795  1.00  0.00     0.074 A 
ATOM     32  C   UNL A   1      40.207  27.782  28.804  1.00  0.00     0.049 A 
ATOM     33  N   UNL A   1      41.792  29.950  30.163  1.00  0.00    -0.248 NA
ATOM     34  C   UNL A   1      39.879  31.290  30.136  1.00  0.00     0.031 C 
ATOM     35  C   UNL A   1      39.476  26.691  28.158  1.00  0.00     0.029 A 
ATOM     36  N   UNL A   1      41.456  27.263  29.030  1.00  0.00    -0.354 N 
ATOM     37  C   UNL A   1      42.078  31.169  30.767  1.00  0.00     0.074 A 
ATOM     38  C   UNL A   1      40.872  31.967  30.696  1.00  0.00     0.031 C 
ATOM     39  C   UNL A   1      40.291  25.628  28.044  1.00  0.00     0.029 A 
ATOM     40  C   UNL A   1      41.609  25.977  28.568  1.00  0.00     0.049 A 
ATOM     41  H   UNL A   1      42.175  27.763  29.480  1.00  0.00     0.167 HD
ATOM     42  C   UNL A   1      43.238  31.584  31.329  1.00  0.00     0.031 A 
ATOM     43  C   UNL A   1      42.694  25.180  28.549  1.00  0.00     0.031 A 
ATOM     44  C   UNL A   1      44.438  30.793  31.383  1.00  0.00     0.049 A 
ATOM     45  C   UNL A   1      43.992  25.688  29.114  1.00  0.00     0.074 A 
ATOM     46  C   UNL A   1      45.666  31.125  31.931  1.00  0.00     0.029 A 
ATOM     47  N   UNL A   1      44.565  29.511  30.867  1.00  0.00    -0.354 N 
ATOM     48  N   UNL A   1      44.246  26.845  29.680  1.00  0.00    -0.248 NA
ATOM     49  C   UNL A   1      45.148  24.786  29.037  1.00  0.00     0.031 C 
ATOM     50  C   UNL A   1      46.547  30.062  31.705  1.00  0.00     0.029 A 
ATOM     51  C   UNL A   1      45.855  29.047  31.062  1.00  0.00     0.049 A 
ATOM     52  H   UNL A   1      43.844  29.007  30.426  1.00  0.00     0.167 HD
ATOM     53  C   UNL A   1      45.587  26.801  30.043  1.00  0.00     0.074 A 
ATOM     54  C   UNL A   1      46.086  25.500  29.645  1.00  0.00     0.031 C 
ATOM     55  C   UNL A   1      46.338  27.752  30.654  1.00  0.00     0.031 A 
BRANCH  42  56
ATOM     56  C   UNL A   1      43.268  32.981  31.889  1.00  0.00    -0.014 A 
ATOM     57  C   UNL A   1      43.712  34.067  31.114  1.00  0.00     0.010 A 
ATOM     58  C   UNL A   1      42.840  33.210  33.209  1.00  0.00     0.010 A 
ATOM     59  C   UNL A   1      43.776  35.349  31.666  1.00  0.00     0.020 A 
ATOM     60  C   UNL A   1      42.879  34.495  33.757  1.00  0.00     0.020 A 
ATOM     61  C   UNL A   1      43.369  35.553  32.988  1.00  0.00     0.054 A 
BRANCH  61  62
ATOM     62  S   UNL A   1      43.471  37.224  33.687  1.00  0.00     0.124 S 
ATOM     63  O   UNL A   1      42.228  37.305  34.451  1.00  0.00    -0.237 OA
ATOM     64  O   UNL A   1      44.694  37.166  34.483  1.00  0.00    -0.237 OA
ATOM     65  O   UNL A   1      43.538  38.088  32.510  1.00  0.00    -0.744 OA
ENDBRANCH  61  62
ENDBRANCH  42  56
BRANCH  43  66
ATOM     66  C   UNL A   1      42.599  23.819  27.955  1.00  0.00    -0.014 A 
ATOM     67  C   UNL A   1      42.221  22.720  28.745  1.00  0.00     0.010 A 
ATOM     68  C   UNL A   1      42.864  23.620  26.588  1.00  0.00     0.010 A 
ATOM     69  C   UNL A   1      42.114  21.446  28.180  1.00  0.00     0.020 A 
ATOM     70  C   UNL A   1      42.735  22.353  26.013  1.00  0.00     0.020 A 
ATOM     71  C   UNL A   1      42.369  21.270  26.816  1.00  0.00     0.054 A 
BRANCH  71  72
ATOM     72  S   UNL A   1      42.157  19.622  26.087  1.00  0.00     0.124 S 
ATOM     73  O   UNL A   1      43.045  19.687  24.930  1.00  0.00    -0.237 OA
ATOM     74  O   UNL A   1      42.591  18.740  27.168  1.00  0.00    -0.237 OA
ATOM     75  O   UNL A   1      40.731  19.565  25.781  1.00  0.00    -0.744 OA
ENDBRANCH  71  72
ENDBRANCH  43  66
BRANCH  55  76
ATOM     76  C   UNL A   1      47.773  27.411  30.955  1.00  0.00    -0.014 A 
ATOM     77  C   UNL A   1      48.796  27.698  30.035  1.00  0.00     0.010 A 
ATOM     78  C   UNL A   1      48.105  26.844  32.198  1.00  0.00     0.010 A 
ATOM     79  C   UNL A   1      50.126  27.396  30.342  1.00  0.00     0.020 A 
ATOM     80  C   UNL A   1      49.436  26.562  32.518  1.00  0.00     0.020 A 
ATOM     81  C   UNL A   1      50.437  26.829  31.582  1.00  0.00     0.054 A 
BRANCH  81  82
ATOM     82  S   UNL A   1      52.173  26.488  31.978  1.00  0.00     0.124 S 
ATOM     83  O   UNL A   1      52.749  26.263  30.656  1.00  0.00    -0.237 OA
ATOM     84  O   UNL A   1      52.599  27.714  32.648  1.00  0.00    -0.237 OA
ATOM     85  O   UNL A   1      52.107  25.308  32.838  1.00  0.00    -0.744 OA
ENDBRANCH  81  82
ENDBRANCH  55  76
ENDBRANCH  29  30
ENDBRANCH  22  24
ENDBRANCH  21  22
ENDBRANCH  20  21
ENDBRANCH   1  20
TORSDOF 19
ENDMDL
