MODEL 1
REMARK VINA RESULT:     -12.1      0.000      0.000
REMARK SMILES CCc1cc(C(=O)c2[nH]c3cc(Cl)ccc3c2CC(=O)OCCOC(=O)c2ccc(-c3c4nc(c(-c5ccc(S(=O)(=O)[O-])cc5)c5ccc([nH]5)c(-c5ccc(S(=O)(=O)[O-])cc5)c5nc(c(-c6ccc(S(=O)(=O)[O-])cc6)c6ccc3[nH]6)C=C5)C=C4)cc2)ncc1Cl
REMARK SMILES IDX 22 1 21 2 19 3 20 4 18 5 17 6 8 7 9 8 10 9 16 11 11 12 15 13
REMARK SMILES IDX 12 14 14 15 13 16 6 17 7 18 5 19 3 20 4 21 89 22 88 23 90 24
REMARK SMILES IDX 87 25 2 26 1 27 23 28 24 29 25 30 26 31 27 32 28 33 86 34
REMARK SMILES IDX 29 35 85 36 30 37 31 38 32 39 79 40 33 41 84 42 78 43 80 44
REMARK SMILES IDX 34 45 83 46 77 47 76 48 35 50 65 51 46 52 64 53 47 54 50 55
REMARK SMILES IDX 63 56 81 57 48 58 49 59 62 61 82 62 51 63 36 64 37 65 45 66
REMARK SMILES IDX 38 67 44 68 39 69 40 70 41 71 42 72 43 73 66 74 67 75 75 76
REMARK SMILES IDX 68 77 74 78 69 79 70 80 71 81 72 82 73 83 52 84 53 85 61 86
REMARK SMILES IDX 54 87 60 88 55 89 56 90 57 91 58 92 59 93
REMARK H PARENT 9 10 80 49 50 60
REMARK Flexibility Score: inf
ROOT
ATOM      1  C   UNL A   1      37.480  23.665  26.236  1.00  0.00     0.274 C 
ENDROOT
BRANCH   1   2
ATOM      2  O   UNL A   1      36.792  23.695  24.967  1.00  0.00    -0.462 OA
BRANCH   2   3
ATOM      3  C   UNL A   1      35.449  23.881  25.012  1.00  0.00     0.310 C 
ATOM      4  O   UNL A   1      34.807  24.475  24.148  1.00  0.00    -0.252 OA
BRANCH   3   5
ATOM      5  C   UNL A   1      34.756  23.149  26.143  1.00  0.00     0.161 C 
BRANCH   5   6
ATOM      6  C   UNL A   1      33.688  22.161  25.789  1.00  0.00     0.000 A 
ATOM      7  C   UNL A   1      32.311  22.279  25.960  1.00  0.00     0.093 A 
ATOM      8  N   UNL A   1      31.743  21.114  25.502  1.00  0.00    -0.351 N 
ATOM      9  C   UNL A   1      32.704  20.190  25.190  1.00  0.00     0.048 A 
ATOM     10  H   UNL A   1      30.775  20.963  25.411  1.00  0.00     0.167 HD
ATOM     11  C   UNL A   1      33.934  20.834  25.291  1.00  0.00     0.004 A 
ATOM     12  C   UNL A   1      32.568  18.848  24.817  1.00  0.00     0.047 A 
ATOM     13  C   UNL A   1      35.097  20.107  24.954  1.00  0.00     0.012 A 
ATOM     14  C   UNL A   1      33.737  18.149  24.516  1.00  0.00     0.043 A 
ATOM     15  C   UNL A   1      34.984  18.765  24.566  1.00  0.00     0.021 A 
ATOM     16  Cl  UNL A   1      33.626  16.488  24.070  1.00  0.00    -0.084 Cl
BRANCH   7  17
ATOM     17  C   UNL A   1      31.448  23.345  26.448  1.00  0.00     0.227 C 
ATOM     18  O   UNL A   1      30.916  23.252  27.554  1.00  0.00    -0.285 OA
BRANCH  17  19
ATOM     19  C   UNL A   1      31.461  24.685  25.747  1.00  0.00     0.113 A 
ATOM     20  C   UNL A   1      32.000  27.053  25.818  1.00  0.00    -0.026 A 
ATOM     21  C   UNL A   1      32.242  25.733  26.244  1.00  0.00     0.037 A 
ATOM     22  C   UNL A   1      31.028  27.243  24.824  1.00  0.00     0.062 A 
ATOM     23  C   UNL A   1      30.337  26.139  24.343  1.00  0.00     0.132 A 
ATOM     24  Cl  UNL A   1      30.627  28.799  24.207  1.00  0.00    -0.082 Cl
ATOM     25  N   UNL A   1      30.515  24.874  24.793  1.00  0.00    -0.251 NA
BRANCH  20  26
ATOM     26  C   UNL A   1      32.728  28.239  26.421  1.00  0.00     0.034 C 
ATOM     27  C   UNL A   1      31.894  29.172  27.292  1.00  0.00     0.009 C 
ENDBRANCH  20  26
ENDBRANCH  17  19
ENDBRANCH   7  17
ENDBRANCH   5   6
ENDBRANCH   3   5
ENDBRANCH   2   3
ENDBRANCH   1   2
BRANCH   1  28
ATOM     28  C   UNL A   1      38.861  23.008  26.099  1.00  0.00     0.275 C 
BRANCH  28  29
ATOM     29  O   UNL A   1      39.821  23.549  27.031  1.00  0.00    -0.458 OA
BRANCH  29  30
ATOM     30  C   UNL A   1      40.234  24.793  26.713  1.00  0.00     0.338 C 
ATOM     31  O   UNL A   1      40.393  25.246  25.592  1.00  0.00    -0.246 OA
BRANCH  30  32
ATOM     32  C   UNL A   1      40.397  25.659  27.875  1.00  0.00     0.060 A 
ATOM     33  C   UNL A   1      39.324  25.779  28.763  1.00  0.00     0.016 A 
ATOM     34  C   UNL A   1      41.480  26.536  27.928  1.00  0.00     0.016 A 
ATOM     35  C   UNL A   1      39.311  26.820  29.683  1.00  0.00     0.010 A 
ATOM     36  C   UNL A   1      41.491  27.543  28.894  1.00  0.00     0.010 A 
ATOM     37  C   UNL A   1      40.398  27.704  29.762  1.00  0.00    -0.014 A 
BRANCH  37  38
ATOM     38  C   UNL A   1      40.417  28.762  30.796  1.00  0.00     0.031 A 
ATOM     39  C   UNL A   1      41.375  28.707  31.949  1.00  0.00     0.074 A 
ATOM     40  C   UNL A   1      39.533  29.771  30.692  1.00  0.00     0.049 A 
ATOM     41  N   UNL A   1      41.447  29.485  32.997  1.00  0.00    -0.248 NA
ATOM     42  C   UNL A   1      42.384  27.636  31.923  1.00  0.00     0.031 C 
ATOM     43  C   UNL A   1      38.570  29.939  29.600  1.00  0.00     0.029 A 
ATOM     44  N   UNL A   1      39.293  30.837  31.517  1.00  0.00    -0.354 N 
ATOM     45  C   UNL A   1      42.494  28.991  33.767  1.00  0.00     0.074 A 
ATOM     46  C   UNL A   1      43.018  27.837  33.071  1.00  0.00     0.031 C 
ATOM     47  C   UNL A   1      37.848  31.047  29.820  1.00  0.00     0.029 A 
ATOM     48  C   UNL A   1      38.252  31.626  31.096  1.00  0.00     0.049 A 
ATOM     49  H   UNL A   1      39.815  31.020  32.332  1.00  0.00     0.167 HD
ATOM     50  C   UNL A   1      42.969  29.455  34.947  1.00  0.00     0.031 A 
ATOM     51  C   UNL A   1      37.655  32.675  31.690  1.00  0.00     0.031 A 
ATOM     52  C   UNL A   1      42.427  30.595  35.639  1.00  0.00     0.049 A 
ATOM     53  C   UNL A   1      38.147  33.129  33.030  1.00  0.00     0.074 A 
ATOM     54  C   UNL A   1      42.833  31.150  36.840  1.00  0.00     0.029 A 
ATOM     55  N   UNL A   1      41.351  31.348  35.194  1.00  0.00    -0.354 N 
ATOM     56  N   UNL A   1      39.134  32.645  33.746  1.00  0.00    -0.248 NA
ATOM     57  C   UNL A   1      37.441  34.257  33.647  1.00  0.00     0.031 C 
ATOM     58  C   UNL A   1      41.976  32.217  37.140  1.00  0.00     0.029 A 
ATOM     59  C   UNL A   1      41.063  32.349  36.105  1.00  0.00     0.049 A 
ATOM     60  H   UNL A   1      40.864  31.193  34.352  1.00  0.00     0.167 HD
ATOM     61  C   UNL A   1      39.171  33.415  34.901  1.00  0.00     0.074 A 
ATOM     62  C   UNL A   1      38.118  34.404  34.778  1.00  0.00     0.031 C 
ATOM     63  C   UNL A   1      40.002  33.312  35.966  1.00  0.00     0.031 A 
BRANCH  50  64
ATOM     64  C   UNL A   1      44.113  28.710  35.582  1.00  0.00    -0.014 A 
ATOM     65  C   UNL A   1      45.445  29.118  35.390  1.00  0.00     0.010 A 
ATOM     66  C   UNL A   1      43.848  27.608  36.416  1.00  0.00     0.010 A 
ATOM     67  C   UNL A   1      46.494  28.421  35.998  1.00  0.00     0.020 A 
ATOM     68  C   UNL A   1      44.894  26.917  37.038  1.00  0.00     0.020 A 
ATOM     69  C   UNL A   1      46.212  27.319  36.813  1.00  0.00     0.054 A 
BRANCH  69  70
ATOM     70  S   UNL A   1      47.587  26.443  37.610  1.00  0.00     0.124 S 
ATOM     71  O   UNL A   1      47.942  25.452  36.598  1.00  0.00    -0.237 OA
ATOM     72  O   UNL A   1      48.569  27.504  37.822  1.00  0.00    -0.237 OA
ATOM     73  O   UNL A   1      46.990  25.902  38.830  1.00  0.00    -0.744 OA
ENDBRANCH  69  70
ENDBRANCH  50  64
BRANCH  51  74
ATOM     74  C   UNL A   1      36.497  33.319  31.021  1.00  0.00    -0.014 A 
ATOM     75  C   UNL A   1      35.321  33.591  31.736  1.00  0.00     0.010 A 
ATOM     76  C   UNL A   1      36.603  33.736  29.681  1.00  0.00     0.010 A 
ATOM     77  C   UNL A   1      34.269  34.278  31.125  1.00  0.00     0.020 A 
ATOM     78  C   UNL A   1      35.562  34.443  29.074  1.00  0.00     0.020 A 
ATOM     79  C   UNL A   1      34.399  34.704  29.799  1.00  0.00     0.054 A 
BRANCH  79  80
ATOM     80  S   UNL A   1      33.065  35.680  29.050  1.00  0.00     0.124 S 
ATOM     81  O   UNL A   1      32.283  36.069  30.218  1.00  0.00    -0.237 OA
ATOM     82  O   UNL A   1      33.791  36.760  28.385  1.00  0.00    -0.237 OA
ATOM     83  O   UNL A   1      32.419  34.730  28.147  1.00  0.00    -0.744 OA
ENDBRANCH  79  80
ENDBRANCH  51  74
BRANCH  63  84
ATOM     84  C   UNL A   1      39.809  34.304  37.075  1.00  0.00    -0.014 A 
ATOM     85  C   UNL A   1      39.143  33.938  38.258  1.00  0.00     0.010 A 
ATOM     86  C   UNL A   1      40.335  35.600  36.950  1.00  0.00     0.010 A 
ATOM     87  C   UNL A   1      38.987  34.863  39.292  1.00  0.00     0.020 A 
ATOM     88  C   UNL A   1      40.196  36.524  37.988  1.00  0.00     0.020 A 
ATOM     89  C   UNL A   1      39.512  36.152  39.148  1.00  0.00     0.054 A 
BRANCH  89  90
ATOM     90  S   UNL A   1      39.341  37.327  40.520  1.00  0.00     0.124 S 
ATOM     91  O   UNL A   1      40.733  37.553  40.898  1.00  0.00    -0.237 OA
ATOM     92  O   UNL A   1      38.667  38.463  39.893  1.00  0.00    -0.237 OA
ATOM     93  O   UNL A   1      38.537  36.598  41.498  1.00  0.00    -0.744 OA
ENDBRANCH  89  90
ENDBRANCH  63  84
ENDBRANCH  37  38
ENDBRANCH  30  32
ENDBRANCH  29  30
ENDBRANCH  28  29
ENDBRANCH   1  28
TORSDOF 18
ENDMDL
MODEL 2
REMARK VINA RESULT:     -12.0      2.771      8.056
REMARK SMILES CCc1cc(C(=O)c2[nH]c3cc(Cl)ccc3c2CC(=O)OCCOC(=O)c2ccc(-c3c4nc(c(-c5ccc(S(=O)(=O)[O-])cc5)c5ccc([nH]5)c(-c5ccc(S(=O)(=O)[O-])cc5)c5nc(c(-c6ccc(S(=O)(=O)[O-])cc6)c6ccc3[nH]6)C=C5)C=C4)cc2)ncc1Cl
REMARK SMILES IDX 22 1 21 2 19 3 20 4 18 5 17 6 8 7 9 8 10 9 16 11 11 12 15 13
REMARK SMILES IDX 12 14 14 15 13 16 6 17 7 18 5 19 3 20 4 21 89 22 88 23 90 24
REMARK SMILES IDX 87 25 2 26 1 27 23 28 24 29 25 30 26 31 27 32 28 33 86 34
REMARK SMILES IDX 29 35 85 36 30 37 31 38 32 39 79 40 33 41 84 42 78 43 80 44
REMARK SMILES IDX 34 45 83 46 77 47 76 48 35 50 65 51 46 52 64 53 47 54 50 55
REMARK SMILES IDX 63 56 81 57 48 58 49 59 62 61 82 62 51 63 36 64 37 65 45 66
REMARK SMILES IDX 38 67 44 68 39 69 40 70 41 71 42 72 43 73 66 74 67 75 75 76
REMARK SMILES IDX 68 77 74 78 69 79 70 80 71 81 72 82 73 83 52 84 53 85 61 86
REMARK SMILES IDX 54 87 60 88 55 89 56 90 57 91 58 92 59 93
REMARK H PARENT 9 10 80 49 50 60
REMARK Flexibility Score: inf
ROOT
ATOM      1  C   UNL A   1      31.547  29.267  27.135  1.00  0.00     0.274 C 
ENDROOT
BRANCH   1   2
ATOM      2  O   UNL A   1      31.524  28.244  26.118  1.00  0.00    -0.462 OA
BRANCH   2   3
ATOM      3  C   UNL A   1      31.990  27.023  26.477  1.00  0.00     0.310 C 
ATOM      4  O   UNL A   1      31.285  26.120  26.926  1.00  0.00    -0.252 OA
BRANCH   3   5
ATOM      5  C   UNL A   1      33.445  26.783  26.128  1.00  0.00     0.161 C 
BRANCH   5   6
ATOM      6  C   UNL A   1      33.754  25.783  25.059  1.00  0.00     0.000 A 
ATOM      7  C   UNL A   1      33.566  25.901  23.683  1.00  0.00     0.093 A 
ATOM      8  N   UNL A   1      33.982  24.722  23.112  1.00  0.00    -0.351 N 
ATOM      9  C   UNL A   1      34.284  23.793  24.071  1.00  0.00     0.048 A 
ATOM     10  H   UNL A   1      34.054  24.566  22.143  1.00  0.00     0.167 HD
ATOM     11  C   UNL A   1      34.219  24.443  25.301  1.00  0.00     0.004 A 
ATOM     12  C   UNL A   1      34.616  22.441  23.934  1.00  0.00     0.047 A 
ATOM     13  C   UNL A   1      34.554  23.711  26.461  1.00  0.00     0.012 A 
ATOM     14  C   UNL A   1      34.917  21.737  25.101  1.00  0.00     0.043 A 
ATOM     15  C   UNL A   1      34.902  22.358  26.346  1.00  0.00     0.021 A 
ATOM     16  Cl  UNL A   1      35.314  20.064  24.988  1.00  0.00    -0.084 Cl
BRANCH   7  17
ATOM     17  C   UNL A   1      33.094  26.979  22.824  1.00  0.00     0.227 C 
ATOM     18  O   UNL A   1      33.849  27.481  21.992  1.00  0.00    -0.285 OA
BRANCH  17  19
ATOM     19  C   UNL A   1      31.611  27.257  22.737  1.00  0.00     0.113 A 
ATOM     20  C   UNL A   1      29.815  28.890  22.623  1.00  0.00    -0.026 A 
ATOM     21  C   UNL A   1      31.153  28.528  22.374  1.00  0.00     0.037 A 
ATOM     22  C   UNL A   1      28.966  27.904  23.148  1.00  0.00     0.062 A 
ATOM     23  C   UNL A   1      29.489  26.648  23.427  1.00  0.00     0.132 A 
ATOM     24  Cl  UNL A   1      27.308  28.203  23.502  1.00  0.00    -0.082 Cl
ATOM     25  N   UNL A   1      30.789  26.310  23.254  1.00  0.00    -0.251 NA
BRANCH  20  26
ATOM     26  C   UNL A   1      29.302  30.294  22.369  1.00  0.00     0.034 C 
ATOM     27  C   UNL A   1      29.162  31.194  23.593  1.00  0.00     0.009 C 
ENDBRANCH  20  26
ENDBRANCH  17  19
ENDBRANCH   7  17
ENDBRANCH   5   6
ENDBRANCH   3   5
ENDBRANCH   2   3
ENDBRANCH   1   2
BRANCH   1  28
ATOM     28  C   UNL A   1      32.180  30.561  26.604  1.00  0.00     0.275 C 
BRANCH  28  29
ATOM     29  O   UNL A   1      33.623  30.518  26.632  1.00  0.00    -0.458 OA
BRANCH  29  30
ATOM     30  C   UNL A   1      34.167  31.373  27.521  1.00  0.00     0.338 C 
ATOM     31  O   UNL A   1      33.645  32.369  27.992  1.00  0.00    -0.246 OA
BRANCH  30  32
ATOM     32  C   UNL A   1      35.479  30.948  27.997  1.00  0.00     0.060 A 
ATOM     33  C   UNL A   1      35.572  29.728  28.670  1.00  0.00     0.016 A 
ATOM     34  C   UNL A   1      36.529  31.865  28.016  1.00  0.00     0.016 A 
ATOM     35  C   UNL A   1      36.711  29.441  29.413  1.00  0.00     0.010 A 
ATOM     36  C   UNL A   1      37.695  31.548  28.712  1.00  0.00     0.010 A 
ATOM     37  C   UNL A   1      37.785  30.344  29.432  1.00  0.00    -0.014 A 
BRANCH  37  38
ATOM     38  C   UNL A   1      39.027  30.000  30.159  1.00  0.00     0.031 A 
ATOM     39  C   UNL A   1      39.919  28.887  29.691  1.00  0.00     0.074 A 
ATOM     40  C   UNL A   1      39.331  30.696  31.270  1.00  0.00     0.049 A 
ATOM     41  N   UNL A   1      40.977  28.383  30.271  1.00  0.00    -0.248 NA
ATOM     42  C   UNL A   1      39.577  28.257  28.407  1.00  0.00     0.031 C 
ATOM     43  C   UNL A   1      38.548  31.815  31.803  1.00  0.00     0.029 A 
ATOM     44  N   UNL A   1      40.368  30.561  32.153  1.00  0.00    -0.354 N 
ATOM     45  C   UNL A   1      41.419  27.363  29.435  1.00  0.00     0.074 A 
ATOM     46  C   UNL A   1      40.505  27.313  28.315  1.00  0.00     0.031 C 
ATOM     47  C   UNL A   1      39.137  32.268  32.918  1.00  0.00     0.029 A 
ATOM     48  C   UNL A   1      40.297  31.433  33.210  1.00  0.00     0.049 A 
ATOM     49  H   UNL A   1      41.093  29.904  32.040  1.00  0.00     0.167 HD
ATOM     50  C   UNL A   1      42.485  26.544  29.591  1.00  0.00     0.031 A 
ATOM     51  C   UNL A   1      41.052  31.523  34.319  1.00  0.00     0.031 A 
ATOM     52  C   UNL A   1      43.377  26.591  30.719  1.00  0.00     0.049 A 
ATOM     53  C   UNL A   1      42.183  30.560  34.510  1.00  0.00     0.074 A 
ATOM     54  C   UNL A   1      44.488  25.807  30.976  1.00  0.00     0.029 A 
ATOM     55  N   UNL A   1      43.252  27.469  31.786  1.00  0.00    -0.354 N 
ATOM     56  N   UNL A   1      42.582  29.599  33.712  1.00  0.00    -0.248 NA
ATOM     57  C   UNL A   1      42.956  30.683  35.751  1.00  0.00     0.031 C 
ATOM     58  C   UNL A   1      45.012  26.186  32.219  1.00  0.00     0.029 A 
ATOM     59  C   UNL A   1      44.250  27.232  32.715  1.00  0.00     0.049 A 
ATOM     60  H   UNL A   1      42.555  28.159  31.869  1.00  0.00     0.167 HD
ATOM     61  C   UNL A   1      43.659  29.002  34.354  1.00  0.00     0.074 A 
ATOM     62  C   UNL A   1      43.856  29.722  35.597  1.00  0.00     0.031 C 
ATOM     63  C   UNL A   1      44.416  27.953  33.950  1.00  0.00     0.031 A 
BRANCH  50  64
ATOM     64  C   UNL A   1      42.726  25.501  28.531  1.00  0.00    -0.014 A 
ATOM     65  C   UNL A   1      43.414  25.814  27.345  1.00  0.00     0.010 A 
ATOM     66  C   UNL A   1      42.294  24.180  28.744  1.00  0.00     0.010 A 
ATOM     67  C   UNL A   1      43.639  24.830  26.377  1.00  0.00     0.020 A 
ATOM     68  C   UNL A   1      42.531  23.189  27.785  1.00  0.00     0.020 A 
ATOM     69  C   UNL A   1      43.190  23.524  26.600  1.00  0.00     0.054 A 
BRANCH  69  70
ATOM     70  S   UNL A   1      43.514  22.257  25.342  1.00  0.00     0.124 S 
ATOM     71  O   UNL A   1      43.674  23.064  24.135  1.00  0.00    -0.237 OA
ATOM     72  O   UNL A   1      44.731  21.615  25.833  1.00  0.00    -0.237 OA
ATOM     73  O   UNL A   1      42.316  21.421  25.377  1.00  0.00    -0.744 OA
ENDBRANCH  69  70
ENDBRANCH  50  64
BRANCH  51  74
ATOM     74  C   UNL A   1      40.712  32.545  35.341  1.00  0.00    -0.014 A 
ATOM     75  C   UNL A   1      39.908  32.211  36.443  1.00  0.00     0.010 A 
ATOM     76  C   UNL A   1      41.263  33.837  35.255  1.00  0.00     0.010 A 
ATOM     77  C   UNL A   1      39.666  33.152  37.447  1.00  0.00     0.020 A 
ATOM     78  C   UNL A   1      41.041  34.772  36.268  1.00  0.00     0.020 A 
ATOM     79  C   UNL A   1      40.239  34.424  37.356  1.00  0.00     0.054 A 
BRANCH  79  80
ATOM     80  S   UNL A   1      39.996  35.603  38.715  1.00  0.00     0.124 S 
ATOM     81  O   UNL A   1      39.650  36.824  37.997  1.00  0.00    -0.237 OA
ATOM     82  O   UNL A   1      38.914  34.990  39.482  1.00  0.00    -0.237 OA
ATOM     83  O   UNL A   1      41.294  35.614  39.387  1.00  0.00    -0.744 OA
ENDBRANCH  79  80
ENDBRANCH  51  74
BRANCH  63  84
ATOM     84  C   UNL A   1      45.533  27.533  34.859  1.00  0.00    -0.014 A 
ATOM     85  C   UNL A   1      45.329  26.547  35.839  1.00  0.00     0.010 A 
ATOM     86  C   UNL A   1      46.809  28.100  34.703  1.00  0.00     0.010 A 
ATOM     87  C   UNL A   1      46.381  26.149  36.666  1.00  0.00     0.020 A 
ATOM     88  C   UNL A   1      47.868  27.693  35.517  1.00  0.00     0.020 A 
ATOM     89  C   UNL A   1      47.644  26.728  36.502  1.00  0.00     0.054 A 
BRANCH  89  90
ATOM     90  S   UNL A   1      49.010  26.166  37.554  1.00  0.00     0.124 S 
ATOM     91  O   UNL A   1      49.373  27.394  38.257  1.00  0.00    -0.237 OA
ATOM     92  O   UNL A   1      48.385  25.132  38.376  1.00  0.00    -0.237 OA
ATOM     93  O   UNL A   1      50.001  25.678  36.598  1.00  0.00    -0.744 OA
ENDBRANCH  89  90
ENDBRANCH  63  84
ENDBRANCH  37  38
ENDBRANCH  30  32
ENDBRANCH  29  30
ENDBRANCH  28  29
ENDBRANCH   1  28
TORSDOF 18
ENDMDL
MODEL 3
REMARK VINA RESULT:     -12.0      3.001      8.949
REMARK SMILES CCc1cc(C(=O)c2[nH]c3cc(Cl)ccc3c2CC(=O)OCCOC(=O)c2ccc(-c3c4nc(c(-c5ccc(S(=O)(=O)[O-])cc5)c5ccc([nH]5)c(-c5ccc(S(=O)(=O)[O-])cc5)c5nc(c(-c6ccc(S(=O)(=O)[O-])cc6)c6ccc3[nH]6)C=C5)C=C4)cc2)ncc1Cl
REMARK SMILES IDX 22 1 21 2 19 3 20 4 18 5 17 6 8 7 9 8 10 9 16 11 11 12 15 13
REMARK SMILES IDX 12 14 14 15 13 16 6 17 7 18 5 19 3 20 4 21 89 22 88 23 90 24
REMARK SMILES IDX 87 25 2 26 1 27 23 28 24 29 25 30 26 31 27 32 28 33 86 34
REMARK SMILES IDX 29 35 85 36 30 37 31 38 32 39 79 40 33 41 84 42 78 43 80 44
REMARK SMILES IDX 34 45 83 46 77 47 76 48 35 50 65 51 46 52 64 53 47 54 50 55
REMARK SMILES IDX 63 56 81 57 48 58 49 59 62 61 82 62 51 63 36 64 37 65 45 66
REMARK SMILES IDX 38 67 44 68 39 69 40 70 41 71 42 72 43 73 66 74 67 75 75 76
REMARK SMILES IDX 68 77 74 78 69 79 70 80 71 81 72 82 73 83 52 84 53 85 61 86
REMARK SMILES IDX 54 87 60 88 55 89 56 90 57 91 58 92 59 93
REMARK H PARENT 9 10 80 49 50 60
REMARK Flexibility Score: inf
ROOT
ATOM      1  C   UNL A   1      31.759  28.981  27.388  1.00  0.00     0.274 C 
ENDROOT
BRANCH   1   2
ATOM      2  O   UNL A   1      31.462  28.040  26.334  1.00  0.00    -0.462 OA
BRANCH   2   3
ATOM      3  C   UNL A   1      32.000  26.801  26.459  1.00  0.00     0.310 C 
ATOM      4  O   UNL A   1      31.349  25.791  26.721  1.00  0.00    -0.252 OA
BRANCH   3   5
ATOM      5  C   UNL A   1      33.466  26.718  26.086  1.00  0.00     0.161 C 
BRANCH   5   6
ATOM      6  C   UNL A   1      33.863  25.749  25.017  1.00  0.00     0.000 A 
ATOM      7  C   UNL A   1      33.667  25.850  23.642  1.00  0.00     0.093 A 
ATOM      8  N   UNL A   1      34.186  24.712  23.071  1.00  0.00    -0.351 N 
ATOM      9  C   UNL A   1      34.568  23.813  24.030  1.00  0.00     0.048 A 
ATOM     10  H   UNL A   1      34.272  24.563  22.102  1.00  0.00     0.167 HD
ATOM     11  C   UNL A   1      34.444  24.455  25.260  1.00  0.00     0.004 A 
ATOM     12  C   UNL A   1      35.018  22.496  23.894  1.00  0.00     0.047 A 
ATOM     13  C   UNL A   1      34.841  23.755  26.421  1.00  0.00     0.012 A 
ATOM     14  C   UNL A   1      35.378  21.822  25.061  1.00  0.00     0.043 A 
ATOM     15  C   UNL A   1      35.308  22.438  26.306  1.00  0.00     0.021 A 
ATOM     16  Cl  UNL A   1      35.922  20.190  24.948  1.00  0.00    -0.084 Cl
BRANCH   7  17
ATOM     17  C   UNL A   1      33.103  26.882  22.782  1.00  0.00     0.227 C 
ATOM     18  O   UNL A   1      33.788  27.389  21.894  1.00  0.00    -0.285 OA
BRANCH  17  19
ATOM     19  C   UNL A   1      31.607  27.098  22.773  1.00  0.00     0.113 A 
ATOM     20  C   UNL A   1      29.738  28.644  22.913  1.00  0.00    -0.026 A 
ATOM     21  C   UNL A   1      31.081  28.380  22.582  1.00  0.00     0.037 A 
ATOM     22  C   UNL A   1      28.951  27.562  23.337  1.00  0.00     0.062 A 
ATOM     23  C   UNL A   1      29.539  26.308  23.444  1.00  0.00     0.132 A 
ATOM     24  Cl  UNL A   1      27.295  27.736  23.772  1.00  0.00    -0.082 Cl
ATOM     25  N   UNL A   1      30.845  26.056  23.192  1.00  0.00    -0.251 NA
BRANCH  20  26
ATOM     26  C   UNL A   1      29.155  30.043  22.849  1.00  0.00     0.034 C 
ATOM     27  C   UNL A   1      29.016  30.655  21.459  1.00  0.00     0.009 C 
ENDBRANCH  20  26
ENDBRANCH  17  19
ENDBRANCH   7  17
ENDBRANCH   5   6
ENDBRANCH   3   5
ENDBRANCH   2   3
ENDBRANCH   1   2
BRANCH   1  28
ATOM     28  C   UNL A   1      32.189  30.338  26.812  1.00  0.00     0.275 C 
BRANCH  28  29
ATOM     29  O   UNL A   1      33.616  30.422  26.613  1.00  0.00    -0.458 OA
BRANCH  29  30
ATOM     30  C   UNL A   1      34.225  31.279  27.459  1.00  0.00     0.338 C 
ATOM     31  O   UNL A   1      33.774  32.328  27.887  1.00  0.00    -0.246 OA
BRANCH  30  32
ATOM     32  C   UNL A   1      35.511  30.790  27.944  1.00  0.00     0.060 A 
ATOM     33  C   UNL A   1      35.558  29.519  28.522  1.00  0.00     0.016 A 
ATOM     34  C   UNL A   1      36.577  31.681  28.071  1.00  0.00     0.016 A 
ATOM     35  C   UNL A   1      36.663  29.151  29.278  1.00  0.00     0.010 A 
ATOM     36  C   UNL A   1      37.711  31.285  28.780  1.00  0.00     0.010 A 
ATOM     37  C   UNL A   1      37.752  30.027  29.405  1.00  0.00    -0.014 A 
BRANCH  37  38
ATOM     38  C   UNL A   1      38.962  29.601  30.144  1.00  0.00     0.031 A 
ATOM     39  C   UNL A   1      39.399  30.308  31.393  1.00  0.00     0.074 A 
ATOM     40  C   UNL A   1      39.679  28.572  29.657  1.00  0.00     0.049 A 
ATOM     41  N   UNL A   1      40.489  30.139  32.095  1.00  0.00    -0.248 NA
ATOM     42  C   UNL A   1      38.497  31.343  31.921  1.00  0.00     0.031 C 
ATOM     43  C   UNL A   1      39.333  27.795  28.463  1.00  0.00     0.029 A 
ATOM     44  N   UNL A   1      40.847  28.010  30.095  1.00  0.00    -0.354 N 
ATOM     45  C   UNL A   1      40.417  31.056  33.138  1.00  0.00     0.074 A 
ATOM     46  C   UNL A   1      39.181  31.789  32.967  1.00  0.00     0.031 C 
ATOM     47  C   UNL A   1      40.266  26.854  28.268  1.00  0.00     0.029 A 
ATOM     48  C   UNL A   1      41.304  27.004  29.282  1.00  0.00     0.049 A 
ATOM     49  H   UNL A   1      41.314  28.300  30.913  1.00  0.00     0.167 HD
ATOM     50  C   UNL A   1      41.301  31.268  34.141  1.00  0.00     0.031 A 
ATOM     51  C   UNL A   1      42.454  26.307  29.318  1.00  0.00     0.031 A 
ATOM     52  C   UNL A   1      42.536  30.545  34.290  1.00  0.00     0.049 A 
ATOM     53  C   UNL A   1      43.453  26.607  30.392  1.00  0.00     0.074 A 
ATOM     54  C   UNL A   1      43.505  30.681  35.269  1.00  0.00     0.029 A 
ATOM     55  N   UNL A   1      42.978  29.554  33.426  1.00  0.00    -0.354 N 
ATOM     56  N   UNL A   1      43.371  27.482  31.365  1.00  0.00    -0.248 NA
ATOM     57  C   UNL A   1      44.703  25.838  30.366  1.00  0.00     0.031 C 
ATOM     58  C   UNL A   1      44.551  29.798  34.974  1.00  0.00     0.029 A 
ATOM     59  C   UNL A   1      44.214  29.084  33.834  1.00  0.00     0.049 A 
ATOM     60  H   UNL A   1      42.483  29.232  32.638  1.00  0.00     0.167 HD
ATOM     61  C   UNL A   1      44.559  27.367  32.075  1.00  0.00     0.074 A 
ATOM     62  C   UNL A   1      45.334  26.328  31.426  1.00  0.00     0.031 C 
ATOM     63  C   UNL A   1      44.970  28.059  33.164  1.00  0.00     0.031 A 
BRANCH  50  64
ATOM     64  C   UNL A   1      40.981  32.351  35.137  1.00  0.00    -0.014 A 
ATOM     65  C   UNL A   1      40.323  32.058  36.345  1.00  0.00     0.010 A 
ATOM     66  C   UNL A   1      41.380  33.675  34.879  1.00  0.00     0.010 A 
ATOM     67  C   UNL A   1      40.044  33.074  37.264  1.00  0.00     0.020 A 
ATOM     68  C   UNL A   1      41.117  34.692  35.803  1.00  0.00     0.020 A 
ATOM     69  C   UNL A   1      40.437  34.387  36.984  1.00  0.00     0.054 A 
BRANCH  69  70
ATOM     70  S   UNL A   1      40.087  35.686  38.202  1.00  0.00     0.124 S 
ATOM     71  O   UNL A   1      38.936  35.134  38.911  1.00  0.00    -0.237 OA
ATOM     72  O   UNL A   1      41.326  35.752  38.973  1.00  0.00    -0.237 OA
ATOM     73  O   UNL A   1      39.806  36.862  37.381  1.00  0.00    -0.744 OA
ENDBRANCH  69  70
ENDBRANCH  50  64
BRANCH  51  74
ATOM     74  C   UNL A   1      42.716  25.295  28.264  1.00  0.00    -0.014 A 
ATOM     75  C   UNL A   1      43.279  25.674  27.035  1.00  0.00     0.010 A 
ATOM     76  C   UNL A   1      42.475  23.932  28.522  1.00  0.00     0.010 A 
ATOM     77  C   UNL A   1      43.607  24.705  26.083  1.00  0.00     0.020 A 
ATOM     78  C   UNL A   1      42.821  22.960  27.581  1.00  0.00     0.020 A 
ATOM     79  C   UNL A   1      43.381  23.354  26.365  1.00  0.00     0.054 A 
BRANCH  79  80
ATOM     80  S   UNL A   1      43.900  22.100  25.159  1.00  0.00     0.124 S 
ATOM     81  O   UNL A   1      42.886  21.068  25.341  1.00  0.00    -0.237 OA
ATOM     82  O   UNL A   1      43.843  22.829  23.894  1.00  0.00    -0.237 OA
ATOM     83  O   UNL A   1      45.247  21.746  25.601  1.00  0.00    -0.744 OA
ENDBRANCH  79  80
ENDBRANCH  51  74
BRANCH  63  84
ATOM     84  C   UNL A   1      46.315  27.703  33.726  1.00  0.00    -0.014 A 
ATOM     85  C   UNL A   1      46.445  26.683  34.684  1.00  0.00     0.010 A 
ATOM     86  C   UNL A   1      47.463  28.366  33.260  1.00  0.00     0.010 A 
ATOM     87  C   UNL A   1      47.705  26.346  35.185  1.00  0.00     0.020 A 
ATOM     88  C   UNL A   1      48.726  28.021  33.747  1.00  0.00     0.020 A 
ATOM     89  C   UNL A   1      48.836  27.021  34.716  1.00  0.00     0.054 A 
BRANCH  89  90
ATOM     90  S   UNL A   1      50.468  26.539  35.343  1.00  0.00     0.124 S 
ATOM     91  O   UNL A   1      51.195  27.805  35.296  1.00  0.00    -0.237 OA
ATOM     92  O   UNL A   1      50.167  26.037  36.683  1.00  0.00    -0.237 OA
ATOM     93  O   UNL A   1      50.917  25.524  34.392  1.00  0.00    -0.744 OA
ENDBRANCH  89  90
ENDBRANCH  63  84
ENDBRANCH  37  38
ENDBRANCH  30  32
ENDBRANCH  29  30
ENDBRANCH  28  29
ENDBRANCH   1  28
TORSDOF 18
ENDMDL
