MODEL 1
REMARK VINA RESULT:      -7.7      0.000      0.000
REMARK SMILES Cc1c(CC(=O)N[C@@H](CCO)C(=O)OCCOC(=O)c2ccc(-c3c4nc(c(-c5ccc(S(=O)(=O)[O-])cc5)c5ccc([nH]5)c(-c5ccc(S(=O)(=O)[O-])cc5)c5nc(c(-c6ccc(S(=O)(=O)[O-])cc6)c6ccc3[nH]6)C=C5)C=C4)cc2)cc(-c2ccc(S(C)(=O)=O)cc2)n1-c1ccc(F)cc1
REMARK SMILES IDX 15 1 14 2 12 3 13 4 8 5 7 6 5 7 6 8 4 10 3 11 1 12 2 13
REMARK SMILES IDX 92 14 80 15 81 16 93 17 94 18 99 19 95 20 98 21 96 22 97 23
REMARK SMILES IDX 82 24 83 25 91 26 84 27 90 28 85 29 86 30 87 31 88 32 89 33
REMARK SMILES IDX 9 34 10 35 11 36 16 38 17 39 18 40 19 41 20 42 21 43 79 44
REMARK SMILES IDX 22 45 78 46 23 47 24 48 25 49 72 50 26 51 77 52 71 53 73 54
REMARK SMILES IDX 27 55 76 56 70 57 69 58 28 60 58 61 39 62 57 63 40 64 43 65
REMARK SMILES IDX 56 66 74 67 41 68 42 69 55 71 75 72 44 73 29 74 30 75 38 76
REMARK SMILES IDX 31 77 37 78 32 79 33 80 34 81 35 82 36 83 59 84 60 85 68 86
REMARK SMILES IDX 61 87 67 88 62 89 63 90 64 91 65 92 66 93 45 94 46 95 54 96
REMARK SMILES IDX 47 97 53 98 48 99 49 100 50 101 51 102 52 103
REMARK H PARENT 7 9 11 37 73 59 43 70
REMARK Flexibility Score: inf
ROOT
ATOM      1  C   UNL A   1      45.600  27.890  25.490  1.00  0.00     0.274 C 
ENDROOT
BRANCH   1   2
ATOM      2  O   UNL A   1      45.657  26.566  26.094  1.00  0.00    -0.461 OA
BRANCH   2   3
ATOM      3  C   UNL A   1      45.630  25.492  25.251  1.00  0.00     0.328 C 
ATOM      4  O   UNL A   1      46.570  25.134  24.551  1.00  0.00    -0.250 OA
BRANCH   3   5
ATOM      5  C   UNL A   1      44.306  24.697  25.353  1.00  0.00     0.194 C 
BRANCH   5   6
ATOM      6  N   UNL A   1      43.073  25.408  25.002  1.00  0.00    -0.342 N 
ATOM      7  C   UNL A   1      41.947  25.596  25.756  1.00  0.00     0.225 C 
ATOM      8  O   UNL A   1      40.968  26.095  25.197  1.00  0.00    -0.275 OA
ATOM      9  H   UNL A   1      43.052  25.804  24.101  1.00  0.00     0.164 HD
BRANCH   7  10
ATOM     10  C   UNL A   1      41.923  25.207  27.231  1.00  0.00     0.137 C 
BRANCH  10  11
ATOM     11  C   UNL A   1      41.514  26.338  28.134  1.00  0.00    -0.017 A 
ATOM     12  C   UNL A   1      43.779  26.919  29.227  1.00  0.00     0.065 C 
ATOM     13  C   UNL A   1      42.326  27.123  28.942  1.00  0.00     0.024 A 
ATOM     14  N   UNL A   1      41.540  28.111  29.526  1.00  0.00    -0.314 N 
ATOM     15  C   UNL A   1      40.184  26.798  28.327  1.00  0.00     0.033 A 
ATOM     16  C   UNL A   1      40.214  27.930  29.119  1.00  0.00     0.053 A 
BRANCH  14  17
ATOM     17  C   UNL A   1      41.992  29.163  30.370  1.00  0.00     0.046 A 
ATOM     18  C   UNL A   1      42.130  28.933  31.747  1.00  0.00     0.029 A 
ATOM     19  C   UNL A   1      42.194  30.444  29.839  1.00  0.00     0.029 A 
ATOM     20  C   UNL A   1      42.442  29.990  32.598  1.00  0.00     0.041 A 
ATOM     21  C   UNL A   1      42.496  31.500  30.700  1.00  0.00     0.041 A 
ATOM     22  C   UNL A   1      42.610  31.265  32.069  1.00  0.00     0.123 A 
ATOM     23  F   UNL A   1      42.875  32.287  32.894  1.00  0.00    -0.207 F 
ENDBRANCH  14  17
BRANCH  16  24
ATOM     24  C   UNL A   1      39.094  28.833  29.426  1.00  0.00    -0.001 A 
ATOM     25  C   UNL A   1      38.791  29.926  28.598  1.00  0.00     0.011 A 
ATOM     26  C   UNL A   1      38.324  28.619  30.576  1.00  0.00     0.011 A 
ATOM     27  C   UNL A   1      37.789  30.833  28.950  1.00  0.00     0.021 A 
ATOM     28  C   UNL A   1      37.316  29.518  30.934  1.00  0.00     0.021 A 
ATOM     29  C   UNL A   1      37.072  30.636  30.133  1.00  0.00     0.067 A 
BRANCH  29  30
ATOM     30  S   UNL A   1      35.827  31.815  30.595  1.00  0.00     0.175 S 
ATOM     31  C   UNL A   1      36.705  33.355  30.689  1.00  0.00     0.163 C 
ATOM     32  O   UNL A   1      34.881  31.897  29.513  1.00  0.00    -0.224 OA
ATOM     33  O   UNL A   1      35.392  31.492  31.952  1.00  0.00    -0.224 OA
ENDBRANCH  29  30
ENDBRANCH  16  24
ENDBRANCH  10  11
ENDBRANCH   7  10
ENDBRANCH   5   6
BRANCH   5  34
ATOM     34  C   UNL A   1      44.341  23.315  24.672  1.00  0.00     0.065 C 
BRANCH  34  35
ATOM     35  C   UNL A   1      43.568  22.206  25.378  1.00  0.00     0.159 C 
BRANCH  35  36
ATOM     36  O   UNL A   1      42.181  22.283  25.103  1.00  0.00    -0.396 OA
ATOM     37  H   UNL A   1      41.936  23.205  24.926  1.00  0.00     0.210 HD
ENDBRANCH  35  36
ENDBRANCH  34  35
ENDBRANCH   5  34
ENDBRANCH   3   5
ENDBRANCH   2   3
ENDBRANCH   1   2
BRANCH   1  38
ATOM     38  C   UNL A   1      45.884  29.010  26.538  1.00  0.00     0.275 C 
BRANCH  38  39
ATOM     39  O   UNL A   1      47.201  29.069  27.216  1.00  0.00    -0.458 OA
BRANCH  39  40
ATOM     40  C   UNL A   1      47.304  28.544  28.487  1.00  0.00     0.338 C 
ATOM     41  O   UNL A   1      47.530  27.356  28.676  1.00  0.00    -0.246 OA
BRANCH  40  42
ATOM     42  C   UNL A   1      47.218  29.570  29.656  1.00  0.00     0.060 A 
ATOM     43  C   UNL A   1      45.994  29.803  30.272  1.00  0.00     0.016 A 
ATOM     44  C   UNL A   1      48.218  30.496  30.039  1.00  0.00     0.016 A 
ATOM     45  C   UNL A   1      45.819  30.843  31.274  1.00  0.00     0.010 A 
ATOM     46  C   UNL A   1      48.007  31.614  31.016  1.00  0.00     0.010 A 
ATOM     47  C   UNL A   1      46.792  31.835  31.702  1.00  0.00    -0.014 A 
BRANCH  47  48
ATOM     48  C   UNL A   1      46.194  33.226  32.471  1.00  0.00     0.031 A 
ATOM     49  C   UNL A   1      46.695  32.992  33.853  1.00  0.00     0.074 A 
ATOM     50  C   UNL A   1      45.335  34.359  32.414  1.00  0.00     0.049 A 
ATOM     51  N   UNL A   1      46.349  31.878  34.432  1.00  0.00    -0.248 NA
ATOM     52  C   UNL A   1      47.839  33.664  34.465  1.00  0.00     0.031 C 
ATOM     53  C   UNL A   1      44.378  34.742  31.355  1.00  0.00     0.029 A 
ATOM     54  N   UNL A   1      45.080  35.479  33.321  1.00  0.00    -0.354 N 
ATOM     55  C   UNL A   1      46.979  31.849  35.644  1.00  0.00     0.074 A 
ATOM     56  C   UNL A   1      48.050  32.835  35.498  1.00  0.00     0.031 C 
ATOM     57  C   UNL A   1      43.830  35.986  31.550  1.00  0.00     0.029 A 
ATOM     58  C   UNL A   1      44.284  36.602  32.802  1.00  0.00     0.049 A 
ATOM     59  H   UNL A   1      45.427  35.480  34.243  1.00  0.00     0.167 HD
ATOM     60  C   UNL A   1      46.150  31.635  36.707  1.00  0.00     0.031 A 
ATOM     61  C   UNL A   1      43.924  37.855  33.356  1.00  0.00     0.031 A 
ATOM     62  C   UNL A   1      45.820  32.871  37.370  1.00  0.00     0.049 A 
ATOM     63  C   UNL A   1      43.783  37.583  34.792  1.00  0.00     0.074 A 
ATOM     64  C   UNL A   1      46.560  33.989  37.704  1.00  0.00     0.029 A 
ATOM     65  N   UNL A   1      44.499  33.265  37.327  1.00  0.00    -0.354 N 
ATOM     66  N   UNL A   1      42.772  36.926  35.272  1.00  0.00    -0.248 NA
ATOM     67  C   UNL A   1      44.696  38.157  35.775  1.00  0.00     0.031 C 
ATOM     68  C   UNL A   1      45.747  35.077  37.325  1.00  0.00     0.029 A 
ATOM     69  C   UNL A   1      44.435  34.638  37.204  1.00  0.00     0.049 A 
ATOM     70  H   UNL A   1      43.723  32.662  37.377  1.00  0.00     0.167 HD
ATOM     71  C   UNL A   1      43.210  36.564  36.512  1.00  0.00     0.074 A 
ATOM     72  C   UNL A   1      44.235  37.535  36.860  1.00  0.00     0.031 C 
ATOM     73  C   UNL A   1      43.189  35.238  36.792  1.00  0.00     0.031 A 
BRANCH  60  74
ATOM     74  C   UNL A   1      45.136  30.521  36.513  1.00  0.00    -0.014 A 
ATOM     75  C   UNL A   1      43.796  30.839  36.266  1.00  0.00     0.010 A 
ATOM     76  C   UNL A   1      45.486  29.152  36.620  1.00  0.00     0.010 A 
ATOM     77  C   UNL A   1      42.831  29.824  36.190  1.00  0.00     0.020 A 
ATOM     78  C   UNL A   1      44.527  28.140  36.584  1.00  0.00     0.020 A 
ATOM     79  C   UNL A   1      43.199  28.484  36.373  1.00  0.00     0.054 A 
BRANCH  79  80
ATOM     80  S   UNL A   1      41.906  27.214  36.387  1.00  0.00     0.124 S 
ATOM     81  O   UNL A   1      41.891  26.766  34.995  1.00  0.00    -0.237 OA
ATOM     82  O   UNL A   1      42.437  26.244  37.340  1.00  0.00    -0.237 OA
ATOM     83  O   UNL A   1      40.704  27.933  36.801  1.00  0.00    -0.744 OA
ENDBRANCH  79  80
ENDBRANCH  60  74
BRANCH  61  84
ATOM     84  C   UNL A   1      43.362  39.352  33.133  1.00  0.00    -0.014 A 
ATOM     85  C   UNL A   1      43.341  40.305  34.226  1.00  0.00     0.010 A 
ATOM     86  C   UNL A   1      43.309  39.980  31.872  1.00  0.00     0.010 A 
ATOM     87  C   UNL A   1      43.418  41.726  34.080  1.00  0.00     0.020 A 
ATOM     88  C   UNL A   1      43.352  41.416  31.713  1.00  0.00     0.020 A 
ATOM     89  C   UNL A   1      43.460  42.280  32.811  1.00  0.00     0.054 A 
BRANCH  89  90
ATOM     90  S   UNL A   1      43.812  44.081  32.610  1.00  0.00     0.124 S 
ATOM     91  O   UNL A   1      43.729  44.593  33.975  1.00  0.00    -0.237 OA
ATOM     92  O   UNL A   1      45.152  44.088  32.024  1.00  0.00    -0.237 OA
ATOM     93  O   UNL A   1      42.756  44.541  31.711  1.00  0.00    -0.744 OA
ENDBRANCH  89  90
ENDBRANCH  61  84
BRANCH  73  94
ATOM     94  C   UNL A   1      41.932  34.460  36.462  1.00  0.00    -0.014 A 
ATOM     95  C   UNL A   1      40.931  34.075  37.382  1.00  0.00     0.010 A 
ATOM     96  C   UNL A   1      41.772  34.061  35.124  1.00  0.00     0.010 A 
ATOM     97  C   UNL A   1      39.844  33.279  36.984  1.00  0.00     0.020 A 
ATOM     98  C   UNL A   1      40.673  33.304  34.711  1.00  0.00     0.020 A 
ATOM     99  C   UNL A   1      39.729  32.891  35.649  1.00  0.00     0.054 A 
BRANCH  99 100
ATOM    100  S   UNL A   1      38.365  31.802  35.155  1.00  0.00     0.124 S 
ATOM    101  O   UNL A   1      37.636  31.632  36.412  1.00  0.00    -0.237 OA
ATOM    102  O   UNL A   1      37.673  32.589  34.140  1.00  0.00    -0.237 OA
ATOM    103  O   UNL A   1      39.039  30.598  34.678  1.00  0.00    -0.744 OA
ENDBRANCH  99 100
ENDBRANCH  73  94
ENDBRANCH  47  48
ENDBRANCH  40  42
ENDBRANCH  39  40
ENDBRANCH  38  39
ENDBRANCH   1  38
TORSDOF 23
ENDMDL
MODEL 2
REMARK VINA RESULT:      -7.4      4.361     10.376
REMARK SMILES Cc1c(CC(=O)N[C@@H](CCO)C(=O)OCCOC(=O)c2ccc(-c3c4nc(c(-c5ccc(S(=O)(=O)[O-])cc5)c5ccc([nH]5)c(-c5ccc(S(=O)(=O)[O-])cc5)c5nc(c(-c6ccc(S(=O)(=O)[O-])cc6)c6ccc3[nH]6)C=C5)C=C4)cc2)cc(-c2ccc(S(C)(=O)=O)cc2)n1-c1ccc(F)cc1
REMARK SMILES IDX 15 1 14 2 12 3 13 4 8 5 7 6 5 7 6 8 4 10 3 11 1 12 2 13
REMARK SMILES IDX 92 14 80 15 81 16 93 17 94 18 99 19 95 20 98 21 96 22 97 23
REMARK SMILES IDX 82 24 83 25 91 26 84 27 90 28 85 29 86 30 87 31 88 32 89 33
REMARK SMILES IDX 9 34 10 35 11 36 16 38 17 39 18 40 19 41 20 42 21 43 79 44
REMARK SMILES IDX 22 45 78 46 23 47 24 48 25 49 72 50 26 51 77 52 71 53 73 54
REMARK SMILES IDX 27 55 76 56 70 57 69 58 28 60 58 61 39 62 57 63 40 64 43 65
REMARK SMILES IDX 56 66 74 67 41 68 42 69 55 71 75 72 44 73 29 74 30 75 38 76
REMARK SMILES IDX 31 77 37 78 32 79 33 80 34 81 35 82 36 83 59 84 60 85 68 86
REMARK SMILES IDX 61 87 67 88 62 89 63 90 64 91 65 92 66 93 45 94 46 95 54 96
REMARK SMILES IDX 47 97 53 98 48 99 49 100 50 101 51 102 52 103
REMARK H PARENT 7 9 11 37 73 59 43 70
REMARK Flexibility Score: inf
ROOT
ATOM      1  C   UNL A   1      49.596  26.401  37.923  1.00  0.00     0.274 C 
ENDROOT
BRANCH   1   2
ATOM      2  O   UNL A   1      48.405  26.994  37.329  1.00  0.00    -0.461 OA
BRANCH   2   3
ATOM      3  C   UNL A   1      47.941  28.154  37.880  1.00  0.00     0.328 C 
ATOM      4  O   UNL A   1      48.279  28.586  38.976  1.00  0.00    -0.250 OA
BRANCH   3   5
ATOM      5  C   UNL A   1      47.013  28.933  36.919  1.00  0.00     0.194 C 
BRANCH   5   6
ATOM      6  N   UNL A   1      46.195  30.001  37.501  1.00  0.00    -0.342 N 
ATOM      7  C   UNL A   1      44.945  30.421  37.134  1.00  0.00     0.225 C 
ATOM      8  O   UNL A   1      44.513  31.444  37.669  1.00  0.00    -0.275 OA
ATOM      9  H   UNL A   1      46.598  30.481  38.259  1.00  0.00     0.164 HD
BRANCH   7  10
ATOM     10  C   UNL A   1      44.131  29.640  36.109  1.00  0.00     0.137 C 
BRANCH  10  11
ATOM     11  C   UNL A   1      43.325  30.523  35.196  1.00  0.00    -0.017 A 
ATOM     12  C   UNL A   1      45.172  31.377  33.607  1.00  0.00     0.065 C 
ATOM     13  C   UNL A   1      43.761  31.216  34.074  1.00  0.00     0.024 A 
ATOM     14  N   UNL A   1      42.660  31.822  33.478  1.00  0.00    -0.314 N 
ATOM     15  C   UNL A   1      41.943  30.815  35.342  1.00  0.00     0.033 A 
ATOM     16  C   UNL A   1      41.524  31.547  34.246  1.00  0.00     0.053 A 
BRANCH  14  17
ATOM     17  C   UNL A   1      42.658  32.572  32.269  1.00  0.00     0.046 A 
ATOM     18  C   UNL A   1      42.804  33.966  32.320  1.00  0.00     0.029 A 
ATOM     19  C   UNL A   1      42.407  31.927  31.051  1.00  0.00     0.029 A 
ATOM     20  C   UNL A   1      42.669  34.720  31.157  1.00  0.00     0.041 A 
ATOM     21  C   UNL A   1      42.263  32.691  29.891  1.00  0.00     0.041 A 
ATOM     22  C   UNL A   1      42.389  34.077  29.957  1.00  0.00     0.123 A 
ATOM     23  F   UNL A   1      42.225  34.807  28.846  1.00  0.00    -0.207 F 
ENDBRANCH  14  17
BRANCH  16  24
ATOM     24  C   UNL A   1      40.144  31.913  33.893  1.00  0.00    -0.001 A 
ATOM     25  C   UNL A   1      39.706  33.247  33.948  1.00  0.00     0.011 A 
ATOM     26  C   UNL A   1      39.236  30.916  33.514  1.00  0.00     0.011 A 
ATOM     27  C   UNL A   1      38.369  33.570  33.706  1.00  0.00     0.021 A 
ATOM     28  C   UNL A   1      37.899  31.231  33.264  1.00  0.00     0.021 A 
ATOM     29  C   UNL A   1      37.466  32.553  33.388  1.00  0.00     0.067 A 
BRANCH  29  30
ATOM     30  S   UNL A   1      35.759  32.967  33.121  1.00  0.00     0.175 S 
ATOM     31  C   UNL A   1      35.818  34.332  31.988  1.00  0.00     0.163 C 
ATOM     32  O   UNL A   1      35.140  31.851  32.455  1.00  0.00    -0.224 OA
ATOM     33  O   UNL A   1      35.226  33.484  34.379  1.00  0.00    -0.224 OA
ENDBRANCH  29  30
ENDBRANCH  16  24
ENDBRANCH  10  11
ENDBRANCH   7  10
ENDBRANCH   5   6
BRANCH   5  34
ATOM     34  C   UNL A   1      47.703  29.427  35.631  1.00  0.00     0.065 C 
BRANCH  34  35
ATOM     35  C   UNL A   1      48.458  30.747  35.746  1.00  0.00     0.159 C 
BRANCH  35  36
ATOM     36  O   UNL A   1      49.836  30.584  35.464  1.00  0.00    -0.396 OA
ATOM     37  H   UNL A   1      50.109  31.233  34.797  1.00  0.00     0.210 HD
ENDBRANCH  35  36
ENDBRANCH  34  35
ENDBRANCH   5  34
ENDBRANCH   3   5
ENDBRANCH   2   3
ENDBRANCH   1   2
BRANCH   1  38
ATOM     38  C   UNL A   1      50.057  25.135  37.139  1.00  0.00     0.275 C 
BRANCH  38  39
ATOM     39  O   UNL A   1      49.441  24.813  35.829  1.00  0.00    -0.458 OA
BRANCH  39  40
ATOM     40  C   UNL A   1      48.344  23.977  35.813  1.00  0.00     0.338 C 
ATOM     41  O   UNL A   1      48.112  23.202  36.731  1.00  0.00    -0.246 OA
BRANCH  40  42
ATOM     42  C   UNL A   1      47.372  24.154  34.608  1.00  0.00     0.060 A 
ATOM     43  C   UNL A   1      47.511  25.257  33.775  1.00  0.00     0.016 A 
ATOM     44  C   UNL A   1      46.181  23.427  34.374  1.00  0.00     0.016 A 
ATOM     45  C   UNL A   1      46.556  25.552  32.717  1.00  0.00     0.010 A 
ATOM     46  C   UNL A   1      45.163  23.782  33.331  1.00  0.00     0.010 A 
ATOM     47  C   UNL A   1      45.308  24.861  32.432  1.00  0.00    -0.014 A 
BRANCH  47  48
ATOM     48  C   UNL A   1      44.151  25.700  31.515  1.00  0.00     0.031 A 
ATOM     49  C   UNL A   1      44.411  25.112  30.172  1.00  0.00     0.074 A 
ATOM     50  C   UNL A   1      43.217  26.771  31.442  1.00  0.00     0.049 A 
ATOM     51  N   UNL A   1      45.623  25.205  29.705  1.00  0.00    -0.248 NA
ATOM     52  C   UNL A   1      43.582  24.106  29.512  1.00  0.00     0.031 C 
ATOM     53  C   UNL A   1      42.936  27.824  32.441  1.00  0.00     0.029 A 
ATOM     54  N   UNL A   1      42.267  27.213  30.420  1.00  0.00    -0.354 N 
ATOM     55  C   UNL A   1      45.640  24.538  28.513  1.00  0.00     0.074 A 
ATOM     56  C   UNL A   1      44.447  23.695  28.573  1.00  0.00     0.031 C 
ATOM     57  C   UNL A   1      41.855  28.604  32.110  1.00  0.00     0.029 A 
ATOM     58  C   UNL A   1      41.285  28.239  30.808  1.00  0.00     0.049 A 
ATOM     59  H   UNL A   1      42.285  26.841  29.509  1.00  0.00     0.167 HD
ATOM     60  C   UNL A   1      46.123  25.269  27.465  1.00  0.00     0.031 A 
ATOM     61  C   UNL A   1      40.193  28.824  30.123  1.00  0.00     0.031 A 
ATOM     62  C   UNL A   1      45.050  25.817  26.673  1.00  0.00     0.049 A 
ATOM     63  C   UNL A   1      40.626  28.855  28.720  1.00  0.00     0.074 A 
ATOM     64  C   UNL A   1      43.842  25.306  26.238  1.00  0.00     0.029 A 
ATOM     65  N   UNL A   1      44.932  27.191  26.654  1.00  0.00    -0.354 N 
ATOM     66  N   UNL A   1      41.519  29.695  28.295  1.00  0.00    -0.248 NA
ATOM     67  C   UNL A   1      39.976  28.042  27.699  1.00  0.00     0.031 C 
ATOM     68  C   UNL A   1      42.912  26.335  26.490  1.00  0.00     0.029 A 
ATOM     69  C   UNL A   1      43.596  27.535  26.634  1.00  0.00     0.049 A 
ATOM     70  H   UNL A   1      45.683  27.827  26.655  1.00  0.00     0.167 HD
ATOM     71  C   UNL A   1      41.903  29.147  27.106  1.00  0.00     0.074 A 
ATOM     72  C   UNL A   1      40.782  28.328  26.676  1.00  0.00     0.031 C 
ATOM     73  C   UNL A   1      43.227  28.891  26.964  1.00  0.00     0.031 A 
BRANCH  60  74
ATOM     74  C   UNL A   1      47.396  26.042  27.757  1.00  0.00    -0.014 A 
ATOM     75  C   UNL A   1      47.564  26.653  29.005  1.00  0.00     0.010 A 
ATOM     76  C   UNL A   1      48.415  26.215  26.788  1.00  0.00     0.010 A 
ATOM     77  C   UNL A   1      48.685  27.459  29.251  1.00  0.00     0.020 A 
ATOM     78  C   UNL A   1      49.513  27.046  27.013  1.00  0.00     0.020 A 
ATOM     79  C   UNL A   1      49.640  27.669  28.247  1.00  0.00     0.054 A 
BRANCH  79  80
ATOM     80  S   UNL A   1      51.011  28.812  28.564  1.00  0.00     0.124 S 
ATOM     81  O   UNL A   1      52.123  28.170  27.861  1.00  0.00    -0.237 OA
ATOM     82  O   UNL A   1      50.530  30.047  27.954  1.00  0.00    -0.237 OA
ATOM     83  O   UNL A   1      51.141  28.817  30.018  1.00  0.00    -0.744 OA
ENDBRANCH  79  80
ENDBRANCH  60  74
BRANCH  61  84
ATOM     84  C   UNL A   1      38.828  29.683  30.183  1.00  0.00    -0.014 A 
ATOM     85  C   UNL A   1      38.831  31.101  29.871  1.00  0.00     0.010 A 
ATOM     86  C   UNL A   1      37.545  29.111  30.064  1.00  0.00     0.010 A 
ATOM     87  C   UNL A   1      37.717  31.830  29.349  1.00  0.00     0.020 A 
ATOM     88  C   UNL A   1      36.404  29.848  29.569  1.00  0.00     0.020 A 
ATOM     89  C   UNL A   1      36.505  31.185  29.164  1.00  0.00     0.054 A 
BRANCH  89  90
ATOM     90  S   UNL A   1      35.142  32.042  28.260  1.00  0.00     0.124 S 
ATOM     91  O   UNL A   1      34.632  31.008  27.364  1.00  0.00    -0.237 OA
ATOM     92  O   UNL A   1      34.233  32.435  29.337  1.00  0.00    -0.237 OA
ATOM     93  O   UNL A   1      35.814  33.158  27.598  1.00  0.00    -0.744 OA
ENDBRANCH  89  90
ENDBRANCH  61  84
BRANCH  73  94
ATOM     94  C   UNL A   1      44.209  29.976  27.352  1.00  0.00    -0.014 A 
ATOM     95  C   UNL A   1      45.109  29.929  28.440  1.00  0.00     0.010 A 
ATOM     96  C   UNL A   1      44.194  31.145  26.571  1.00  0.00     0.010 A 
ATOM     97  C   UNL A   1      45.920  31.029  28.762  1.00  0.00     0.020 A 
ATOM     98  C   UNL A   1      45.027  32.229  26.860  1.00  0.00     0.020 A 
ATOM     99  C   UNL A   1      45.865  32.178  27.973  1.00  0.00     0.054 A 
BRANCH  99 100
ATOM    100  S   UNL A   1      46.859  33.623  28.435  1.00  0.00     0.124 S 
ATOM    101  O   UNL A   1      46.111  34.720  27.822  1.00  0.00    -0.237 OA
ATOM    102  O   UNL A   1      46.823  33.588  29.893  1.00  0.00    -0.237 OA
ATOM    103  O   UNL A   1      48.159  33.359  27.823  1.00  0.00    -0.744 OA
ENDBRANCH  99 100
ENDBRANCH  73  94
ENDBRANCH  47  48
ENDBRANCH  40  42
ENDBRANCH  39  40
ENDBRANCH  38  39
ENDBRANCH   1  38
TORSDOF 23
ENDMDL
MODEL 3
REMARK VINA RESULT:      -7.3      4.866      8.757
REMARK SMILES Cc1c(CC(=O)N[C@@H](CCO)C(=O)OCCOC(=O)c2ccc(-c3c4nc(c(-c5ccc(S(=O)(=O)[O-])cc5)c5ccc([nH]5)c(-c5ccc(S(=O)(=O)[O-])cc5)c5nc(c(-c6ccc(S(=O)(=O)[O-])cc6)c6ccc3[nH]6)C=C5)C=C4)cc2)cc(-c2ccc(S(C)(=O)=O)cc2)n1-c1ccc(F)cc1
REMARK SMILES IDX 15 1 14 2 12 3 13 4 8 5 7 6 5 7 6 8 4 10 3 11 1 12 2 13
REMARK SMILES IDX 92 14 80 15 81 16 93 17 94 18 99 19 95 20 98 21 96 22 97 23
REMARK SMILES IDX 82 24 83 25 91 26 84 27 90 28 85 29 86 30 87 31 88 32 89 33
REMARK SMILES IDX 9 34 10 35 11 36 16 38 17 39 18 40 19 41 20 42 21 43 79 44
REMARK SMILES IDX 22 45 78 46 23 47 24 48 25 49 72 50 26 51 77 52 71 53 73 54
REMARK SMILES IDX 27 55 76 56 70 57 69 58 28 60 58 61 39 62 57 63 40 64 43 65
REMARK SMILES IDX 56 66 74 67 41 68 42 69 55 71 75 72 44 73 29 74 30 75 38 76
REMARK SMILES IDX 31 77 37 78 32 79 33 80 34 81 35 82 36 83 59 84 60 85 68 86
REMARK SMILES IDX 61 87 67 88 62 89 63 90 64 91 65 92 66 93 45 94 46 95 54 96
REMARK SMILES IDX 47 97 53 98 48 99 49 100 50 101 51 102 52 103
REMARK H PARENT 7 9 11 37 73 59 43 70
REMARK Flexibility Score: inf
ROOT
ATOM      1  C   UNL A   1      43.365  26.216  29.555  1.00  0.00     0.274 C 
ENDROOT
BRANCH   1   2
ATOM      2  O   UNL A   1      42.682  25.167  28.809  1.00  0.00    -0.461 OA
BRANCH   2   3
ATOM      3  C   UNL A   1      43.382  24.023  28.553  1.00  0.00     0.328 C 
ATOM      4  O   UNL A   1      44.389  23.675  29.160  1.00  0.00    -0.250 OA
BRANCH   3   5
ATOM      5  C   UNL A   1      42.704  23.146  27.475  1.00  0.00     0.194 C 
BRANCH   5   6
ATOM      6  N   UNL A   1      43.537  22.136  26.815  1.00  0.00    -0.342 N 
ATOM      7  C   UNL A   1      44.075  22.156  25.558  1.00  0.00     0.225 C 
ATOM      8  O   UNL A   1      44.616  21.124  25.157  1.00  0.00    -0.275 OA
ATOM      9  H   UNL A   1      43.736  21.334  27.349  1.00  0.00     0.164 HD
BRANCH   7  10
ATOM     10  C   UNL A   1      44.009  23.417  24.702  1.00  0.00     0.137 C 
BRANCH  10  11
ATOM     11  C   UNL A   1      45.056  24.434  25.065  1.00  0.00    -0.017 A 
ATOM     12  C   UNL A   1      43.570  26.471  25.619  1.00  0.00     0.065 C 
ATOM     13  C   UNL A   1      44.865  25.729  25.529  1.00  0.00     0.024 A 
ATOM     14  N   UNL A   1      46.109  26.274  25.830  1.00  0.00    -0.314 N 
ATOM     15  C   UNL A   1      46.460  24.237  24.978  1.00  0.00     0.033 A 
ATOM     16  C   UNL A   1      47.099  25.337  25.520  1.00  0.00     0.053 A 
BRANCH  14  17
ATOM     17  C   UNL A   1      46.356  27.556  26.396  1.00  0.00     0.046 A 
ATOM     18  C   UNL A   1      46.358  27.707  27.791  1.00  0.00     0.029 A 
ATOM     19  C   UNL A   1      46.490  28.672  25.560  1.00  0.00     0.029 A 
ATOM     20  C   UNL A   1      46.465  28.978  28.350  1.00  0.00     0.041 A 
ATOM     21  C   UNL A   1      46.586  29.943  26.128  1.00  0.00     0.041 A 
ATOM     22  C   UNL A   1      46.567  30.084  27.514  1.00  0.00     0.123 A 
ATOM     23  F   UNL A   1      46.633  31.308  28.053  1.00  0.00    -0.207 F 
ENDBRANCH  14  17
BRANCH  16  24
ATOM     24  C   UNL A   1      48.535  25.486  25.798  1.00  0.00    -0.001 A 
ATOM     25  C   UNL A   1      49.086  25.080  27.025  1.00  0.00     0.011 A 
ATOM     26  C   UNL A   1      49.374  26.062  24.835  1.00  0.00     0.011 A 
ATOM     27  C   UNL A   1      50.432  25.316  27.316  1.00  0.00     0.021 A 
ATOM     28  C   UNL A   1      50.722  26.296  25.115  1.00  0.00     0.021 A 
ATOM     29  C   UNL A   1      51.238  25.946  26.365  1.00  0.00     0.067 A 
BRANCH  29  30
ATOM     30  S   UNL A   1      52.938  26.279  26.759  1.00  0.00     0.175 S 
ATOM     31  C   UNL A   1      53.813  24.878  26.112  1.00  0.00     0.163 C 
ATOM     32  O   UNL A   1      53.336  27.446  26.015  1.00  0.00    -0.224 OA
ATOM     33  O   UNL A   1      53.075  26.230  28.213  1.00  0.00    -0.224 OA
ENDBRANCH  29  30
ENDBRANCH  16  24
ENDBRANCH  10  11
ENDBRANCH   7  10
ENDBRANCH   5   6
BRANCH   5  34
ATOM     34  C   UNL A   1      41.359  22.531  27.910  1.00  0.00     0.065 C 
BRANCH  34  35
ATOM     35  C   UNL A   1      41.150  21.064  27.549  1.00  0.00     0.159 C 
BRANCH  35  36
ATOM     36  O   UNL A   1      40.803  20.909  26.184  1.00  0.00    -0.396 OA
ATOM     37  H   UNL A   1      41.463  20.351  25.744  1.00  0.00     0.210 HD
ENDBRANCH  35  36
ENDBRANCH  34  35
ENDBRANCH   5  34
ENDBRANCH   3   5
ENDBRANCH   2   3
ENDBRANCH   1   2
BRANCH   1  38
ATOM     38  C   UNL A   1      42.858  27.632  29.146  1.00  0.00     0.275 C 
BRANCH  38  39
ATOM     39  O   UNL A   1      43.329  28.827  29.886  1.00  0.00    -0.458 OA
BRANCH  39  40
ATOM     40  C   UNL A   1      42.389  29.741  30.315  1.00  0.00     0.338 C 
ATOM     41  O   UNL A   1      41.505  29.433  31.103  1.00  0.00    -0.246 OA
BRANCH  40  42
ATOM     42  C   UNL A   1      42.586  31.203  29.815  1.00  0.00     0.060 A 
ATOM     43  C   UNL A   1      43.415  31.448  28.727  1.00  0.00     0.016 A 
ATOM     44  C   UNL A   1      42.190  32.383  30.489  1.00  0.00     0.016 A 
ATOM     45  C   UNL A   1      43.747  32.798  28.296  1.00  0.00     0.010 A 
ATOM     46  C   UNL A   1      42.600  33.768  30.083  1.00  0.00     0.010 A 
ATOM     47  C   UNL A   1      43.391  34.049  28.948  1.00  0.00    -0.014 A 
BRANCH  47  48
ATOM     48  C   UNL A   1      44.319  35.416  28.556  1.00  0.00     0.031 A 
ATOM     49  C   UNL A   1      45.526  35.155  29.387  1.00  0.00     0.074 A 
ATOM     50  C   UNL A   1      44.372  36.703  27.951  1.00  0.00     0.049 A 
ATOM     51  N   UNL A   1      45.346  34.988  30.666  1.00  0.00    -0.248 NA
ATOM     52  C   UNL A   1      46.810  34.669  28.887  1.00  0.00     0.031 C 
ATOM     53  C   UNL A   1      43.275  37.486  27.344  1.00  0.00     0.029 A 
ATOM     54  N   UNL A   1      45.446  37.672  27.734  1.00  0.00    -0.354 N 
ATOM     55  C   UNL A   1      46.566  34.691  31.202  1.00  0.00     0.074 A 
ATOM     56  C   UNL A   1      47.358  34.274  30.045  1.00  0.00     0.031 C 
ATOM     57  C   UNL A   1      43.713  38.621  26.707  1.00  0.00     0.029 A 
ATOM     58  C   UNL A   1      45.162  38.810  26.845  1.00  0.00     0.049 A 
ATOM     59  H   UNL A   1      46.325  37.568  28.167  1.00  0.00     0.167 HD
ATOM     60  C   UNL A   1      46.931  35.486  32.250  1.00  0.00     0.031 A 
ATOM     61  C   UNL A   1      45.969  39.864  26.353  1.00  0.00     0.031 A 
ATOM     62  C   UNL A   1      47.831  36.529  31.826  1.00  0.00     0.049 A 
ATOM     63  C   UNL A   1      46.913  40.131  27.446  1.00  0.00     0.074 A 
ATOM     64  C   UNL A   1      48.906  36.552  30.958  1.00  0.00     0.029 A 
ATOM     65  N   UNL A   1      47.369  37.825  31.925  1.00  0.00    -0.354 N 
ATOM     66  N   UNL A   1      46.550  40.733  28.537  1.00  0.00    -0.248 NA
ATOM     67  C   UNL A   1      48.340  39.861  27.311  1.00  0.00     0.031 C 
ATOM     68  C   UNL A   1      48.708  37.713  30.183  1.00  0.00     0.029 A 
ATOM     69  C   UNL A   1      47.833  38.558  30.852  1.00  0.00     0.049 A 
ATOM     70  H   UNL A   1      46.799  38.173  32.648  1.00  0.00     0.167 HD
ATOM     71  C   UNL A   1      47.563  40.430  29.399  1.00  0.00     0.074 A 
ATOM     72  C   UNL A   1      48.714  40.143  28.559  1.00  0.00     0.031 C 
ATOM     73  C   UNL A   1      47.204  39.823  30.557  1.00  0.00     0.031 A 
BRANCH  60  74
ATOM     74  C   UNL A   1      45.844  35.720  33.284  1.00  0.00    -0.014 A 
ATOM     75  C   UNL A   1      45.694  34.823  34.347  1.00  0.00     0.010 A 
ATOM     76  C   UNL A   1      44.931  36.800  33.190  1.00  0.00     0.010 A 
ATOM     77  C   UNL A   1      44.629  34.966  35.249  1.00  0.00     0.020 A 
ATOM     78  C   UNL A   1      43.848  36.927  34.060  1.00  0.00     0.020 A 
ATOM     79  C   UNL A   1      43.700  36.004  35.086  1.00  0.00     0.054 A 
BRANCH  79  80
ATOM     80  S   UNL A   1      42.272  36.085  36.199  1.00  0.00     0.124 S 
ATOM     81  O   UNL A   1      41.222  36.607  35.324  1.00  0.00    -0.237 OA
ATOM     82  O   UNL A   1      42.107  34.690  36.593  1.00  0.00    -0.237 OA
ATOM     83  O   UNL A   1      42.692  37.007  37.251  1.00  0.00    -0.744 OA
ENDBRANCH  79  80
ENDBRANCH  60  74
BRANCH  61  84
ATOM     84  C   UNL A   1      46.182  41.057  25.286  1.00  0.00    -0.014 A 
ATOM     85  C   UNL A   1      46.922  40.828  24.059  1.00  0.00     0.010 A 
ATOM     86  C   UNL A   1      45.338  42.182  25.202  1.00  0.00     0.010 A 
ATOM     87  C   UNL A   1      46.728  41.543  22.836  1.00  0.00     0.020 A 
ATOM     88  C   UNL A   1      45.158  42.933  23.980  1.00  0.00     0.020 A 
ATOM     89  C   UNL A   1      45.811  42.581  22.791  1.00  0.00     0.054 A 
BRANCH  89  90
ATOM     90  S   UNL A   1      45.367  43.340  21.167  1.00  0.00     0.124 S 
ATOM     91  O   UNL A   1      44.174  42.601  20.766  1.00  0.00    -0.237 OA
ATOM     92  O   UNL A   1      45.144  44.743  21.514  1.00  0.00    -0.237 OA
ATOM     93  O   UNL A   1      46.549  43.101  20.341  1.00  0.00    -0.744 OA
ENDBRANCH  89  90
ENDBRANCH  61  84
BRANCH  73  94
ATOM     94  C   UNL A   1      46.045  40.406  31.338  1.00  0.00    -0.014 A 
ATOM     95  C   UNL A   1      44.692  40.017  31.227  1.00  0.00     0.010 A 
ATOM     96  C   UNL A   1      46.349  41.452  32.227  1.00  0.00     0.010 A 
ATOM     97  C   UNL A   1      43.681  40.685  31.939  1.00  0.00     0.020 A 
ATOM     98  C   UNL A   1      45.356  42.094  32.970  1.00  0.00     0.020 A 
ATOM     99  C   UNL A   1      44.022  41.727  32.800  1.00  0.00     0.054 A 
BRANCH  99 100
ATOM    100  S   UNL A   1      42.708  42.635  33.661  1.00  0.00     0.124 S 
ATOM    101  O   UNL A   1      42.323  43.636  32.666  1.00  0.00    -0.237 OA
ATOM    102  O   UNL A   1      41.712  41.599  33.915  1.00  0.00    -0.237 OA
ATOM    103  O   UNL A   1      43.378  43.178  34.840  1.00  0.00    -0.744 OA
ENDBRANCH  99 100
ENDBRANCH  73  94
ENDBRANCH  47  48
ENDBRANCH  40  42
ENDBRANCH  39  40
ENDBRANCH  38  39
ENDBRANCH   1  38
TORSDOF 23
ENDMDL
