MODEL 1
REMARK VINA RESULT:     -12.8      0.000      0.000
REMARK SMILES Cc1cccc(NC(=O)[C@H]2C=C[C@@H]([NH3+])C2)c1C(=O)OCCOC(=O)c1ccc(-c2c3nc(c(-c4ccc(S(=O)(=O)[O-])cc4)c4ccc([nH]4)c(-c4ccc(S(=O)(=O)[O-])cc4)c4nc(c(-c5ccc(S(=O)(=O)[O-])cc5)c5ccc2[nH]5)C=C4)C=C3)cc1
REMARK SMILES IDX 20 1 19 2 17 3 18 4 16 5 1 6 2 7 3 8 4 9 6 10 5 11 7 12 8 13
REMARK SMILES IDX 9 15 10 16 11 17 15 18 12 19 13 20 14 21 21 25 22 26 23 27
REMARK SMILES IDX 24 28 25 29 26 30 84 31 27 32 83 33 28 34 29 35 30 36 77 37
REMARK SMILES IDX 31 38 82 39 76 40 78 41 32 42 81 43 75 44 74 45 33 47 63 48
REMARK SMILES IDX 44 49 62 50 45 51 48 52 61 53 79 54 46 55 47 56 60 58 80 59
REMARK SMILES IDX 49 60 34 61 35 62 43 63 36 64 42 65 37 66 38 67 39 68 40 69
REMARK SMILES IDX 41 70 64 71 65 72 73 73 66 74 72 75 67 76 68 77 69 78 70 79
REMARK SMILES IDX 71 80 50 81 51 82 59 83 52 84 58 85 53 86 54 87 55 88 56 89
REMARK SMILES IDX 57 90
REMARK H PARENT 7 14 14 22 14 23 14 24 78 46 48 57
REMARK Flexibility Score: inf
ROOT
ATOM      1  C   UNL A   1      33.082  28.526  27.187  1.00  0.00     0.275 C 
ENDROOT
BRANCH   1   2
ATOM      2  O   UNL A   1      32.988  27.556  26.116  1.00  0.00    -0.458 OA
BRANCH   2   3
ATOM      3  C   UNL A   1      32.280  27.960  25.021  1.00  0.00     0.340 C 
ATOM      4  O   UNL A   1      31.429  28.828  24.993  1.00  0.00    -0.246 OA
BRANCH   3   5
ATOM      5  C   UNL A   1      32.336  26.932  23.961  1.00  0.00     0.086 A 
ATOM      6  C   UNL A   1      33.716  28.691  22.669  1.00  0.00     0.045 C 
ATOM      7  C   UNL A   1      33.059  27.338  22.807  1.00  0.00    -0.034 A 
ATOM      8  C   UNL A   1      33.274  26.417  21.778  1.00  0.00     0.004 A 
ATOM      9  C   UNL A   1      32.699  25.157  21.842  1.00  0.00     0.002 A 
ATOM     10  C   UNL A   1      31.886  25.593  24.090  1.00  0.00     0.056 A 
ATOM     11  C   UNL A   1      31.972  24.782  22.969  1.00  0.00     0.027 A 
BRANCH  10  12
ATOM     12  N   UNL A   1      31.422  25.044  25.300  1.00  0.00    -0.325 N 
ATOM     13  C   UNL A   1      31.900  24.146  26.205  1.00  0.00     0.231 C 
ATOM     14  H   UNL A   1      30.539  25.396  25.553  1.00  0.00     0.169 HD
ATOM     15  O   UNL A   1      31.241  24.081  27.254  1.00  0.00    -0.274 OA
BRANCH  13  16
ATOM     16  C   UNL A   1      33.096  23.177  26.179  1.00  0.00     0.107 C 
ATOM     17  C   UNL A   1      33.440  22.708  27.562  1.00  0.00    -0.012 C 
ATOM     18  C   UNL A   1      33.273  21.943  25.294  1.00  0.00     0.087 C 
ATOM     19  C   UNL A   1      33.876  21.445  27.569  1.00  0.00     0.033 C 
ATOM     20  C   UNL A   1      33.880  20.845  26.202  1.00  0.00     0.205 C 
BRANCH  20  21
ATOM     21  N   UNL A   1      33.134  19.595  26.202  1.00  0.00    -0.352 N 
ATOM     22  H   UNL A   1      33.719  18.849  26.579  1.00  0.00     0.345 HD
ATOM     23  H   UNL A   1      32.861  19.363  25.247  1.00  0.00     0.345 HD
ATOM     24  H   UNL A   1      32.299  19.697  26.779  1.00  0.00     0.345 HD
ENDBRANCH  20  21
ENDBRANCH  13  16
ENDBRANCH  10  12
ENDBRANCH   3   5
ENDBRANCH   2   3
ENDBRANCH   1   2
BRANCH   1  25
ATOM     25  C   UNL A   1      34.213  29.557  26.974  1.00  0.00     0.275 C 
BRANCH  25  26
ATOM     26  O   UNL A   1      35.469  29.283  27.622  1.00  0.00    -0.458 OA
BRANCH  26  27
ATOM     27  C   UNL A   1      35.987  30.326  28.323  1.00  0.00     0.338 C 
ATOM     28  O   UNL A   1      35.296  31.197  28.840  1.00  0.00    -0.246 OA
BRANCH  27  29
ATOM     29  C   UNL A   1      37.366  29.927  28.718  1.00  0.00     0.060 A 
ATOM     30  C   UNL A   1      37.511  29.015  29.767  1.00  0.00     0.016 A 
ATOM     31  C   UNL A   1      38.419  30.133  27.817  1.00  0.00     0.016 A 
ATOM     32  C   UNL A   1      38.619  28.177  29.817  1.00  0.00     0.010 A 
ATOM     33  C   UNL A   1      39.495  29.273  27.831  1.00  0.00     0.010 A 
ATOM     34  C   UNL A   1      39.578  28.276  28.811  1.00  0.00    -0.014 A 
BRANCH  34  35
ATOM     35  C   UNL A   1      40.863  27.604  28.900  1.00  0.00     0.031 A 
ATOM     36  C   UNL A   1      41.097  26.211  28.459  1.00  0.00     0.074 A 
ATOM     37  C   UNL A   1      41.815  28.397  29.439  1.00  0.00     0.049 A 
ATOM     38  N   UNL A   1      42.064  25.475  28.894  1.00  0.00    -0.248 NA
ATOM     39  C   UNL A   1      40.236  25.499  27.515  1.00  0.00     0.031 C 
ATOM     40  C   UNL A   1      43.239  28.176  29.569  1.00  0.00     0.029 A 
ATOM     41  N   UNL A   1      41.567  29.532  30.230  1.00  0.00    -0.354 N 
ATOM     42  C   UNL A   1      42.123  24.337  28.113  1.00  0.00     0.074 A 
ATOM     43  C   UNL A   1      40.908  24.352  27.336  1.00  0.00     0.031 C 
ATOM     44  C   UNL A   1      43.669  28.895  30.624  1.00  0.00     0.029 A 
ATOM     45  C   UNL A   1      42.489  29.472  31.267  1.00  0.00     0.049 A 
ATOM     46  H   UNL A   1      40.883  30.224  30.081  1.00  0.00     0.167 HD
ATOM     47  C   UNL A   1      43.273  23.599  28.104  1.00  0.00     0.031 A 
ATOM     48  C   UNL A   1      42.092  29.271  32.558  1.00  0.00     0.031 A 
ATOM     49  C   UNL A   1      44.208  24.116  29.099  1.00  0.00     0.049 A 
ATOM     50  C   UNL A   1      42.737  28.024  33.101  1.00  0.00     0.074 A 
ATOM     51  C   UNL A   1      45.236  25.038  28.999  1.00  0.00     0.029 A 
ATOM     52  N   UNL A   1      43.908  23.991  30.450  1.00  0.00    -0.354 N 
ATOM     53  N   UNL A   1      43.013  26.969  32.381  1.00  0.00    -0.248 NA
ATOM     54  C   UNL A   1      43.205  27.921  34.477  1.00  0.00     0.031 C 
ATOM     55  C   UNL A   1      45.447  25.581  30.291  1.00  0.00     0.029 A 
ATOM     56  C   UNL A   1      44.588  24.949  31.176  1.00  0.00     0.049 A 
ATOM     57  H   UNL A   1      43.299  23.319  30.834  1.00  0.00     0.167 HD
ATOM     58  C   UNL A   1      43.803  26.130  33.125  1.00  0.00     0.074 A 
ATOM     59  C   UNL A   1      43.852  26.743  34.442  1.00  0.00     0.031 C 
ATOM     60  C   UNL A   1      44.439  25.034  32.617  1.00  0.00     0.031 A 
BRANCH  47  61
ATOM     61  C   UNL A   1      43.691  22.653  26.994  1.00  0.00    -0.014 A 
ATOM     62  C   UNL A   1      42.836  21.575  26.663  1.00  0.00     0.010 A 
ATOM     63  C   UNL A   1      44.913  22.703  26.300  1.00  0.00     0.010 A 
ATOM     64  C   UNL A   1      43.216  20.554  25.778  1.00  0.00     0.020 A 
ATOM     65  C   UNL A   1      45.314  21.677  25.419  1.00  0.00     0.020 A 
ATOM     66  C   UNL A   1      44.470  20.596  25.182  1.00  0.00     0.054 A 
BRANCH  66  67
ATOM     67  S   UNL A   1      44.977  19.220  24.112  1.00  0.00     0.124 S 
ATOM     68  O   UNL A   1      44.511  19.655  22.798  1.00  0.00    -0.237 OA
ATOM     69  O   UNL A   1      46.427  19.196  24.289  1.00  0.00    -0.237 OA
ATOM     70  O   UNL A   1      44.268  18.069  24.666  1.00  0.00    -0.744 OA
ENDBRANCH  66  67
ENDBRANCH  47  61
BRANCH  48  71
ATOM     71  C   UNL A   1      40.741  29.803  32.936  1.00  0.00    -0.014 A 
ATOM     72  C   UNL A   1      40.554  31.203  32.885  1.00  0.00     0.010 A 
ATOM     73  C   UNL A   1      39.593  28.999  33.054  1.00  0.00     0.010 A 
ATOM     74  C   UNL A   1      39.279  31.776  32.834  1.00  0.00     0.020 A 
ATOM     75  C   UNL A   1      38.302  29.578  33.020  1.00  0.00     0.020 A 
ATOM     76  C   UNL A   1      38.151  30.962  32.872  1.00  0.00     0.054 A 
BRANCH  76  77
ATOM     77  S   UNL A   1      36.530  31.742  32.532  1.00  0.00     0.124 S 
ATOM     78  O   UNL A   1      35.713  30.599  32.135  1.00  0.00    -0.237 OA
ATOM     79  O   UNL A   1      36.184  32.340  33.822  1.00  0.00    -0.237 OA
ATOM     80  O   UNL A   1      36.815  32.717  31.491  1.00  0.00    -0.744 OA
ENDBRANCH  76  77
ENDBRANCH  48  71
BRANCH  60  81
ATOM     81  C   UNL A   1      45.127  23.990  33.451  1.00  0.00    -0.014 A 
ATOM     82  C   UNL A   1      46.434  24.141  33.937  1.00  0.00     0.010 A 
ATOM     83  C   UNL A   1      44.390  22.869  33.899  1.00  0.00     0.010 A 
ATOM     84  C   UNL A   1      47.011  23.174  34.766  1.00  0.00     0.020 A 
ATOM     85  C   UNL A   1      44.940  21.924  34.765  1.00  0.00     0.020 A 
ATOM     86  C   UNL A   1      46.261  22.067  35.169  1.00  0.00     0.054 A 
BRANCH  86  87
ATOM     87  S   UNL A   1      46.995  20.846  36.282  1.00  0.00     0.124 S 
ATOM     88  O   UNL A   1      46.987  21.562  37.555  1.00  0.00    -0.237 OA
ATOM     89  O   UNL A   1      46.069  19.719  36.192  1.00  0.00    -0.237 OA
ATOM     90  O   UNL A   1      48.314  20.607  35.702  1.00  0.00    -0.744 OA
ENDBRANCH  86  87
ENDBRANCH  60  81
ENDBRANCH  34  35
ENDBRANCH  27  29
ENDBRANCH  26  27
ENDBRANCH  25  26
ENDBRANCH   1  25
TORSDOF 17
ENDMDL
MODEL 2
REMARK VINA RESULT:     -12.6      4.548     10.964
REMARK SMILES Cc1cccc(NC(=O)[C@H]2C=C[C@@H]([NH3+])C2)c1C(=O)OCCOC(=O)c1ccc(-c2c3nc(c(-c4ccc(S(=O)(=O)[O-])cc4)c4ccc([nH]4)c(-c4ccc(S(=O)(=O)[O-])cc4)c4nc(c(-c5ccc(S(=O)(=O)[O-])cc5)c5ccc2[nH]5)C=C4)C=C3)cc1
REMARK SMILES IDX 20 1 19 2 17 3 18 4 16 5 1 6 2 7 3 8 4 9 6 10 5 11 7 12 8 13
REMARK SMILES IDX 9 15 10 16 11 17 15 18 12 19 13 20 14 21 21 25 22 26 23 27
REMARK SMILES IDX 24 28 25 29 26 30 84 31 27 32 83 33 28 34 29 35 30 36 77 37
REMARK SMILES IDX 31 38 82 39 76 40 78 41 32 42 81 43 75 44 74 45 33 47 63 48
REMARK SMILES IDX 44 49 62 50 45 51 48 52 61 53 79 54 46 55 47 56 60 58 80 59
REMARK SMILES IDX 49 60 34 61 35 62 43 63 36 64 42 65 37 66 38 67 39 68 40 69
REMARK SMILES IDX 41 70 64 71 65 72 73 73 66 74 72 75 67 76 68 77 69 78 70 79
REMARK SMILES IDX 71 80 50 81 51 82 59 83 52 84 58 85 53 86 54 87 55 88 56 89
REMARK SMILES IDX 57 90
REMARK H PARENT 7 14 14 22 14 23 14 24 78 46 48 57
REMARK Flexibility Score: inf
ROOT
ATOM      1  C   UNL A   1      35.773  23.746  25.747  1.00  0.00     0.275 C 
ENDROOT
BRANCH   1   2
ATOM      2  O   UNL A   1      35.387  25.003  25.141  1.00  0.00    -0.458 OA
BRANCH   2   3
ATOM      3  C   UNL A   1      34.207  25.527  25.585  1.00  0.00     0.340 C 
ATOM      4  O   UNL A   1      33.449  25.020  26.389  1.00  0.00    -0.246 OA
BRANCH   3   5
ATOM      5  C   UNL A   1      33.723  26.570  24.656  1.00  0.00     0.086 A 
ATOM      6  C   UNL A   1      34.188  28.185  26.617  1.00  0.00     0.045 C 
ATOM      7  C   UNL A   1      33.729  27.878  25.212  1.00  0.00    -0.034 A 
ATOM      8  C   UNL A   1      33.395  28.966  24.399  1.00  0.00     0.004 A 
ATOM      9  C   UNL A   1      32.965  28.755  23.099  1.00  0.00     0.002 A 
ATOM     10  C   UNL A   1      33.436  26.377  23.281  1.00  0.00     0.056 A 
ATOM     11  C   UNL A   1      32.942  27.463  22.576  1.00  0.00     0.027 A 
BRANCH  10  12
ATOM     12  N   UNL A   1      33.683  25.172  22.599  1.00  0.00    -0.325 N 
ATOM     13  C   UNL A   1      33.071  23.958  22.518  1.00  0.00     0.231 C 
ATOM     14  H   UNL A   1      34.496  25.217  22.046  1.00  0.00     0.169 HD
ATOM     15  O   UNL A   1      33.528  23.215  21.635  1.00  0.00    -0.274 OA
BRANCH  13  16
ATOM     16  C   UNL A   1      31.925  23.314  23.319  1.00  0.00     0.107 C 
ATOM     17  C   UNL A   1      32.438  22.226  24.215  1.00  0.00    -0.012 C 
ATOM     18  C   UNL A   1      30.855  24.027  24.146  1.00  0.00     0.087 C 
ATOM     19  C   UNL A   1      31.756  22.158  25.362  1.00  0.00     0.033 C 
ATOM     20  C   UNL A   1      30.687  23.196  25.442  1.00  0.00     0.205 C 
BRANCH  20  21
ATOM     21  N   UNL A   1      30.831  23.969  26.667  1.00  0.00    -0.352 N 
ATOM     22  H   UNL A   1      31.703  23.714  27.130  1.00  0.00     0.345 HD
ATOM     23  H   UNL A   1      30.045  23.772  27.287  1.00  0.00     0.345 HD
ATOM     24  H   UNL A   1      30.844  24.964  26.441  1.00  0.00     0.345 HD
ENDBRANCH  20  21
ENDBRANCH  13  16
ENDBRANCH  10  12
ENDBRANCH   3   5
ENDBRANCH   2   3
ENDBRANCH   1   2
BRANCH   1  25
ATOM     25  C   UNL A   1      37.305  23.541  25.794  1.00  0.00     0.275 C 
BRANCH  25  26
ATOM     26  O   UNL A   1      38.087  24.627  26.325  1.00  0.00    -0.458 OA
BRANCH  26  27
ATOM     27  C   UNL A   1      39.268  24.256  26.884  1.00  0.00     0.338 C 
ATOM     28  O   UNL A   1      39.929  23.302  26.489  1.00  0.00    -0.246 OA
BRANCH  27  29
ATOM     29  C   UNL A   1      39.768  25.439  27.639  1.00  0.00     0.060 A 
ATOM     30  C   UNL A   1      40.169  26.561  26.910  1.00  0.00     0.016 A 
ATOM     31  C   UNL A   1      39.457  25.560  29.000  1.00  0.00     0.016 A 
ATOM     32  C   UNL A   1      40.085  27.828  27.475  1.00  0.00     0.010 A 
ATOM     33  C   UNL A   1      39.322  26.815  29.550  1.00  0.00     0.010 A 
ATOM     34  C   UNL A   1      39.605  27.949  28.778  1.00  0.00    -0.014 A 
BRANCH  34  35
ATOM     35  C   UNL A   1      39.689  29.195  29.520  1.00  0.00     0.031 A 
ATOM     36  C   UNL A   1      38.662  30.259  29.463  1.00  0.00     0.074 A 
ATOM     37  C   UNL A   1      40.817  29.271  30.259  1.00  0.00     0.049 A 
ATOM     38  N   UNL A   1      38.895  31.494  29.755  1.00  0.00    -0.248 NA
ATOM     39  C   UNL A   1      37.283  30.038  29.031  1.00  0.00     0.031 C 
ATOM     40  C   UNL A   1      41.216  30.257  31.241  1.00  0.00     0.029 A 
ATOM     41  N   UNL A   1      41.980  28.513  30.038  1.00  0.00    -0.354 N 
ATOM     42  C   UNL A   1      37.683  32.157  29.822  1.00  0.00     0.074 A 
ATOM     43  C   UNL A   1      36.723  31.234  29.268  1.00  0.00     0.031 C 
ATOM     44  C   UNL A   1      42.563  30.274  31.279  1.00  0.00     0.029 A 
ATOM     45  C   UNL A   1      43.039  29.396  30.211  1.00  0.00     0.049 A 
ATOM     46  H   UNL A   1      42.034  27.558  29.808  1.00  0.00     0.167 HD
ATOM     47  C   UNL A   1      37.616  33.348  30.485  1.00  0.00     0.031 A 
ATOM     48  C   UNL A   1      43.841  29.754  29.166  1.00  0.00     0.031 A 
ATOM     49  C   UNL A   1      38.953  33.777  30.884  1.00  0.00     0.049 A 
ATOM     50  C   UNL A   1      43.792  31.248  28.976  1.00  0.00     0.074 A 
ATOM     51  C   UNL A   1      39.665  33.586  32.056  1.00  0.00     0.029 A 
ATOM     52  N   UNL A   1      39.871  34.150  29.909  1.00  0.00    -0.354 N 
ATOM     53  N   UNL A   1      42.736  31.982  29.210  1.00  0.00    -0.248 NA
ATOM     54  C   UNL A   1      44.964  32.027  28.602  1.00  0.00     0.031 C 
ATOM     55  C   UNL A   1      41.042  33.699  31.740  1.00  0.00     0.029 A 
ATOM     56  C   UNL A   1      41.157  34.010  30.394  1.00  0.00     0.049 A 
ATOM     57  H   UNL A   1      39.640  34.465  29.006  1.00  0.00     0.167 HD
ATOM     58  C   UNL A   1      43.107  33.301  29.168  1.00  0.00     0.074 A 
ATOM     59  C   UNL A   1      44.495  33.279  28.734  1.00  0.00     0.031 C 
ATOM     60  C   UNL A   1      42.303  34.331  29.562  1.00  0.00     0.031 A 
BRANCH  47  61
ATOM     61  C   UNL A   1      36.350  33.949  31.068  1.00  0.00    -0.014 A 
ATOM     62  C   UNL A   1      35.195  34.020  30.254  1.00  0.00     0.010 A 
ATOM     63  C   UNL A   1      36.237  34.525  32.347  1.00  0.00     0.010 A 
ATOM     64  C   UNL A   1      34.037  34.712  30.644  1.00  0.00     0.020 A 
ATOM     65  C   UNL A   1      35.087  35.236  32.746  1.00  0.00     0.020 A 
ATOM     66  C   UNL A   1      34.002  35.344  31.881  1.00  0.00     0.054 A 
BRANCH  66  67
ATOM     67  S   UNL A   1      32.532  36.310  32.328  1.00  0.00     0.124 S 
ATOM     68  O   UNL A   1      31.523  35.272  32.531  1.00  0.00    -0.237 OA
ATOM     69  O   UNL A   1      32.965  37.010  33.535  1.00  0.00    -0.237 OA
ATOM     70  O   UNL A   1      32.309  37.164  31.164  1.00  0.00    -0.744 OA
ENDBRANCH  66  67
ENDBRANCH  47  61
BRANCH  48  71
ATOM     71  C   UNL A   1      44.032  28.733  28.084  1.00  0.00    -0.014 A 
ATOM     72  C   UNL A   1      44.553  27.474  28.463  1.00  0.00     0.010 A 
ATOM     73  C   UNL A   1      43.472  28.844  26.800  1.00  0.00     0.010 A 
ATOM     74  C   UNL A   1      44.416  26.344  27.648  1.00  0.00     0.020 A 
ATOM     75  C   UNL A   1      43.348  27.705  25.967  1.00  0.00     0.020 A 
ATOM     76  C   UNL A   1      43.786  26.453  26.412  1.00  0.00     0.054 A 
BRANCH  76  77
ATOM     77  S   UNL A   1      43.399  24.903  25.518  1.00  0.00     0.124 S 
ATOM     78  O   UNL A   1      44.650  24.625  24.822  1.00  0.00    -0.237 OA
ATOM     79  O   UNL A   1      43.069  23.979  26.605  1.00  0.00    -0.237 OA
ATOM     80  O   UNL A   1      42.263  25.249  24.679  1.00  0.00    -0.744 OA
ENDBRANCH  76  77
ENDBRANCH  48  71
BRANCH  60  81
ATOM     81  C   UNL A   1      42.606  35.784  29.326  1.00  0.00    -0.014 A 
ATOM     82  C   UNL A   1      43.560  36.496  30.067  1.00  0.00     0.010 A 
ATOM     83  C   UNL A   1      42.023  36.438  28.215  1.00  0.00     0.010 A 
ATOM     84  C   UNL A   1      43.859  37.828  29.767  1.00  0.00     0.020 A 
ATOM     85  C   UNL A   1      42.350  37.751  27.878  1.00  0.00     0.020 A 
ATOM     86  C   UNL A   1      43.246  38.450  28.678  1.00  0.00     0.054 A 
BRANCH  86  87
ATOM     87  S   UNL A   1      43.673  40.156  28.264  1.00  0.00     0.124 S 
ATOM     88  O   UNL A   1      42.665  40.480  27.259  1.00  0.00    -0.237 OA
ATOM     89  O   UNL A   1      43.529  40.852  29.541  1.00  0.00    -0.237 OA
ATOM     90  O   UNL A   1      45.044  40.053  27.770  1.00  0.00    -0.744 OA
ENDBRANCH  86  87
ENDBRANCH  60  81
ENDBRANCH  34  35
ENDBRANCH  27  29
ENDBRANCH  26  27
ENDBRANCH  25  26
ENDBRANCH   1  25
TORSDOF 17
ENDMDL
MODEL 3
REMARK VINA RESULT:     -12.5      4.569     11.213
REMARK SMILES Cc1cccc(NC(=O)[C@H]2C=C[C@@H]([NH3+])C2)c1C(=O)OCCOC(=O)c1ccc(-c2c3nc(c(-c4ccc(S(=O)(=O)[O-])cc4)c4ccc([nH]4)c(-c4ccc(S(=O)(=O)[O-])cc4)c4nc(c(-c5ccc(S(=O)(=O)[O-])cc5)c5ccc2[nH]5)C=C4)C=C3)cc1
REMARK SMILES IDX 20 1 19 2 17 3 18 4 16 5 1 6 2 7 3 8 4 9 6 10 5 11 7 12 8 13
REMARK SMILES IDX 9 15 10 16 11 17 15 18 12 19 13 20 14 21 21 25 22 26 23 27
REMARK SMILES IDX 24 28 25 29 26 30 84 31 27 32 83 33 28 34 29 35 30 36 77 37
REMARK SMILES IDX 31 38 82 39 76 40 78 41 32 42 81 43 75 44 74 45 33 47 63 48
REMARK SMILES IDX 44 49 62 50 45 51 48 52 61 53 79 54 46 55 47 56 60 58 80 59
REMARK SMILES IDX 49 60 34 61 35 62 43 63 36 64 42 65 37 66 38 67 39 68 40 69
REMARK SMILES IDX 41 70 64 71 65 72 73 73 66 74 72 75 67 76 68 77 69 78 70 79
REMARK SMILES IDX 71 80 50 81 51 82 59 83 52 84 58 85 53 86 54 87 55 88 56 89
REMARK SMILES IDX 57 90
REMARK H PARENT 7 14 14 22 14 23 14 24 78 46 48 57
REMARK Flexibility Score: inf
ROOT
ATOM      1  C   UNL A   1      36.811  23.533  24.507  1.00  0.00     0.275 C 
ENDROOT
BRANCH   1   2
ATOM      2  O   UNL A   1      35.394  23.775  24.686  1.00  0.00    -0.458 OA
BRANCH   2   3
ATOM      3  C   UNL A   1      34.617  22.657  24.779  1.00  0.00     0.340 C 
ATOM      4  O   UNL A   1      34.821  21.589  24.234  1.00  0.00    -0.246 OA
BRANCH   3   5
ATOM      5  C   UNL A   1      33.261  23.007  25.252  1.00  0.00     0.086 A 
ATOM      6  C   UNL A   1      34.105  22.153  27.538  1.00  0.00     0.045 C 
ATOM      7  C   UNL A   1      33.049  22.739  26.631  1.00  0.00    -0.034 A 
ATOM      8  C   UNL A   1      31.843  23.125  27.223  1.00  0.00     0.004 A 
ATOM      9  C   UNL A   1      30.831  23.669  26.448  1.00  0.00     0.002 A 
ATOM     10  C   UNL A   1      32.284  23.708  24.499  1.00  0.00     0.056 A 
ATOM     11  C   UNL A   1      31.046  23.904  25.091  1.00  0.00     0.027 A 
BRANCH  10  12
ATOM     12  N   UNL A   1      32.530  24.256  23.228  1.00  0.00    -0.325 N 
ATOM     13  C   UNL A   1      33.115  25.392  22.756  1.00  0.00     0.231 C 
ATOM     14  H   UNL A   1      32.201  23.677  22.503  1.00  0.00     0.169 HD
ATOM     15  O   UNL A   1      33.296  25.400  21.528  1.00  0.00    -0.274 OA
BRANCH  13  16
ATOM     16  C   UNL A   1      33.588  26.684  23.447  1.00  0.00     0.107 C 
ATOM     17  C   UNL A   1      33.873  27.760  22.441  1.00  0.00    -0.012 C 
ATOM     18  C   UNL A   1      32.921  27.410  24.615  1.00  0.00     0.087 C 
ATOM     19  C   UNL A   1      33.565  28.974  22.906  1.00  0.00     0.033 C 
ATOM     20  C   UNL A   1      33.004  28.921  24.288  1.00  0.00     0.205 C 
BRANCH  20  21
ATOM     21  N   UNL A   1      31.723  29.611  24.335  1.00  0.00    -0.352 N 
ATOM     22  H   UNL A   1      31.870  30.584  24.603  1.00  0.00     0.345 HD
ATOM     23  H   UNL A   1      31.118  29.157  25.019  1.00  0.00     0.345 HD
ATOM     24  H   UNL A   1      31.283  29.575  23.415  1.00  0.00     0.345 HD
ENDBRANCH  20  21
ENDBRANCH  13  16
ENDBRANCH  10  12
ENDBRANCH   3   5
ENDBRANCH   2   3
ENDBRANCH   1   2
BRANCH   1  25
ATOM     25  C   UNL A   1      37.589  23.469  25.841  1.00  0.00     0.275 C 
BRANCH  25  26
ATOM     26  O   UNL A   1      38.543  24.520  26.084  1.00  0.00    -0.458 OA
BRANCH  26  27
ATOM     27  C   UNL A   1      39.638  24.141  26.792  1.00  0.00     0.338 C 
ATOM     28  O   UNL A   1      40.312  23.155  26.514  1.00  0.00    -0.246 OA
BRANCH  27  29
ATOM     29  C   UNL A   1      40.082  25.339  27.558  1.00  0.00     0.060 A 
ATOM     30  C   UNL A   1      40.485  26.467  26.838  1.00  0.00     0.016 A 
ATOM     31  C   UNL A   1      39.716  25.460  28.905  1.00  0.00     0.016 A 
ATOM     32  C   UNL A   1      40.349  27.735  27.391  1.00  0.00     0.010 A 
ATOM     33  C   UNL A   1      39.531  26.715  29.443  1.00  0.00     0.010 A 
ATOM     34  C   UNL A   1      39.817  27.851  28.675  1.00  0.00    -0.014 A 
BRANCH  34  35
ATOM     35  C   UNL A   1      39.844  29.103  29.412  1.00  0.00     0.031 A 
ATOM     36  C   UNL A   1      38.788  30.136  29.320  1.00  0.00     0.074 A 
ATOM     37  C   UNL A   1      40.949  29.216  30.180  1.00  0.00     0.049 A 
ATOM     38  N   UNL A   1      38.976  31.379  29.611  1.00  0.00    -0.248 NA
ATOM     39  C   UNL A   1      37.428  29.871  28.853  1.00  0.00     0.031 C 
ATOM     40  C   UNL A   1      41.292  30.218  31.167  1.00  0.00     0.029 A 
ATOM     41  N   UNL A   1      42.139  28.492  29.994  1.00  0.00    -0.354 N 
ATOM     42  C   UNL A   1      37.744  32.004  29.642  1.00  0.00     0.074 A 
ATOM     43  C   UNL A   1      36.827  31.051  29.068  1.00  0.00     0.031 C 
ATOM     44  C   UNL A   1      42.636  30.276  31.241  1.00  0.00     0.029 A 
ATOM     45  C   UNL A   1      43.167  29.407  30.191  1.00  0.00     0.049 A 
ATOM     46  H   UNL A   1      42.228  27.537  29.772  1.00  0.00     0.167 HD
ATOM     47  C   UNL A   1      37.623  33.197  30.296  1.00  0.00     0.031 A 
ATOM     48  C   UNL A   1      43.985  29.784  29.165  1.00  0.00     0.031 A 
ATOM     49  C   UNL A   1      38.936  33.667  30.728  1.00  0.00     0.049 A 
ATOM     50  C   UNL A   1      43.897  31.274  28.966  1.00  0.00     0.074 A 
ATOM     51  C   UNL A   1      39.621  33.504  31.920  1.00  0.00     0.029 A 
ATOM     52  N   UNL A   1      39.868  34.062  29.777  1.00  0.00    -0.354 N 
ATOM     53  N   UNL A   1      42.814  31.977  29.167  1.00  0.00    -0.248 NA
ATOM     54  C   UNL A   1      45.056  32.086  28.620  1.00  0.00     0.031 C 
ATOM     55  C   UNL A   1      41.003  33.656  31.641  1.00  0.00     0.029 A 
ATOM     56  C   UNL A   1      41.144  33.964  30.297  1.00  0.00     0.049 A 
ATOM     57  H   UNL A   1      39.653  34.366  28.866  1.00  0.00     0.167 HD
ATOM     58  C   UNL A   1      43.147  33.307  29.128  1.00  0.00     0.074 A 
ATOM     59  C   UNL A   1      44.546  33.324  28.732  1.00  0.00     0.031 C 
ATOM     60  C   UNL A   1      42.302  34.315  29.494  1.00  0.00     0.031 A 
BRANCH  47  61
ATOM     61  C   UNL A   1      36.325  33.763  30.842  1.00  0.00    -0.014 A 
ATOM     62  C   UNL A   1      35.283  34.068  29.934  1.00  0.00     0.010 A 
ATOM     63  C   UNL A   1      36.083  34.091  32.188  1.00  0.00     0.010 A 
ATOM     64  C   UNL A   1      34.120  34.753  30.321  1.00  0.00     0.020 A 
ATOM     65  C   UNL A   1      34.927  34.791  32.589  1.00  0.00     0.020 A 
ATOM     66  C   UNL A   1      33.962  35.138  31.647  1.00  0.00     0.054 A 
BRANCH  66  67
ATOM     67  S   UNL A   1      32.495  36.101  32.109  1.00  0.00     0.124 S 
ATOM     68  O   UNL A   1      31.545  35.061  32.497  1.00  0.00    -0.237 OA
ATOM     69  O   UNL A   1      32.993  36.937  33.199  1.00  0.00    -0.237 OA
ATOM     70  O   UNL A   1      32.152  36.822  30.885  1.00  0.00    -0.744 OA
ENDBRANCH  66  67
ENDBRANCH  47  61
BRANCH  48  71
ATOM     71  C   UNL A   1      44.237  28.763  28.095  1.00  0.00    -0.014 A 
ATOM     72  C   UNL A   1      44.665  27.480  28.507  1.00  0.00     0.010 A 
ATOM     73  C   UNL A   1      43.806  28.908  26.765  1.00  0.00     0.010 A 
ATOM     74  C   UNL A   1      44.560  26.364  27.670  1.00  0.00     0.020 A 
ATOM     75  C   UNL A   1      43.715  27.782  25.911  1.00  0.00     0.020 A 
ATOM     76  C   UNL A   1      44.056  26.508  26.381  1.00  0.00     0.054 A 
BRANCH  76  77
ATOM     77  S   UNL A   1      43.691  24.983  25.437  1.00  0.00     0.124 S 
ATOM     78  O   UNL A   1      44.924  24.782  24.683  1.00  0.00    -0.237 OA
ATOM     79  O   UNL A   1      43.438  24.003  26.495  1.00  0.00    -0.237 OA
ATOM     80  O   UNL A   1      42.511  25.320  24.657  1.00  0.00    -0.744 OA
ENDBRANCH  76  77
ENDBRANCH  48  71
BRANCH  60  81
ATOM     81  C   UNL A   1      42.569  35.775  29.258  1.00  0.00    -0.014 A 
ATOM     82  C   UNL A   1      43.461  36.525  30.038  1.00  0.00     0.010 A 
ATOM     83  C   UNL A   1      42.020  36.399  28.113  1.00  0.00     0.010 A 
ATOM     84  C   UNL A   1      43.730  37.864  29.739  1.00  0.00     0.020 A 
ATOM     85  C   UNL A   1      42.320  37.719  27.779  1.00  0.00     0.020 A 
ATOM     86  C   UNL A   1      43.151  38.455  28.615  1.00  0.00     0.054 A 
BRANCH  86  87
ATOM     87  S   UNL A   1      43.541  40.171  28.204  1.00  0.00     0.124 S 
ATOM     88  O   UNL A   1      43.095  40.253  26.816  1.00  0.00    -0.237 OA
ATOM     89  O   UNL A   1      42.743  40.930  29.164  1.00  0.00    -0.237 OA
ATOM     90  O   UNL A   1      44.986  40.248  28.406  1.00  0.00    -0.744 OA
ENDBRANCH  86  87
ENDBRANCH  60  81
ENDBRANCH  34  35
ENDBRANCH  27  29
ENDBRANCH  26  27
ENDBRANCH  25  26
ENDBRANCH   1  25
TORSDOF 17
ENDMDL
