MODEL 1
REMARK VINA RESULT:      -9.7      0.000      0.000
REMARK SMILES CCOC(=O)c1noc(C)c1C(=O)OCCOC(=O)c1ccc(-c2c3nc(c(-c4ccc(S(=O)(=O)[O-])cc4)c4ccc([nH]4)c(-c4ccc(S(=O)(=O)[O-])cc4)c4nc(c(-c5ccc(S(=O)(=O)[O-])cc5)c5ccc2[nH]5)C=C4)C=C3)cc1
REMARK SMILES IDX 15 1 14 2 12 3 13 4 11 5 6 6 7 7 8 8 9 9 10 10 4 11 5 12
REMARK SMILES IDX 3 13 2 14 1 15 16 16 17 17 18 18 19 19 20 20 21 21 79 22
REMARK SMILES IDX 22 23 78 24 23 25 24 26 25 27 72 28 26 29 77 30 71 31 73 32
REMARK SMILES IDX 27 33 76 34 70 35 69 36 28 38 58 39 39 40 57 41 40 42 43 43
REMARK SMILES IDX 56 44 74 45 41 46 42 47 55 49 75 50 44 51 29 52 30 53 38 54
REMARK SMILES IDX 31 55 37 56 32 57 33 58 34 59 35 60 36 61 59 62 60 63 68 64
REMARK SMILES IDX 61 65 67 66 62 67 63 68 64 69 65 70 66 71 45 72 46 73 54 74
REMARK SMILES IDX 47 75 53 76 48 77 49 78 50 79 51 80 52 81
REMARK H PARENT 73 37 43 48
REMARK Flexibility Score: inf
ROOT
ATOM      1  C   UNL A   1      44.965  22.817  25.677  1.00  0.00     0.275 C 
ENDROOT
BRANCH   1   2
ATOM      2  O   UNL A   1      43.744  22.082  25.417  1.00  0.00    -0.458 OA
BRANCH   2   3
ATOM      3  C   UNL A   1      43.035  21.710  26.531  1.00  0.00     0.344 C 
ATOM      4  O   UNL A   1      43.408  21.968  27.668  1.00  0.00    -0.246 OA
BRANCH   3   5
ATOM      5  C   UNL A   1      41.884  20.876  26.239  1.00  0.00     0.137 A 
ATOM      6  C   UNL A   1      40.409  20.992  26.203  1.00  0.00     0.206 A 
ATOM      7  N   UNL A   1      39.938  19.751  25.912  1.00  0.00    -0.072 NA
ATOM      8  O   UNL A   1      40.989  18.903  25.722  1.00  0.00    -0.360 OA
ATOM      9  C   UNL A   1      42.147  19.563  25.892  1.00  0.00     0.149 A 
ATOM     10  C   UNL A   1      43.394  18.784  25.698  1.00  0.00     0.092 C 
BRANCH   6  11
ATOM     11  C   UNL A   1      39.271  22.055  26.288  1.00  0.00     0.361 C 
ATOM     12  O   UNL A   1      38.182  21.764  25.777  1.00  0.00    -0.244 OA
BRANCH  11  13
ATOM     13  O   UNL A   1      39.310  23.370  26.939  1.00  0.00    -0.461 OA
BRANCH  13  14
ATOM     14  C   UNL A   1      39.788  25.033  27.977  1.00  0.00     0.230 C 
ATOM     15  C   UNL A   1      39.771  26.601  27.480  1.00  0.00     0.049 C 
ENDBRANCH  13  14
ENDBRANCH  11  13
ENDBRANCH   6  11
ENDBRANCH   3   5
ENDBRANCH   2   3
ENDBRANCH   1   2
BRANCH   1  16
ATOM     16  C   UNL A   1      45.167  23.908  24.622  1.00  0.00     0.275 C 
BRANCH  16  17
ATOM     17  O   UNL A   1      45.119  25.196  25.259  1.00  0.00    -0.458 OA
BRANCH  17  18
ATOM     18  C   UNL A   1      43.858  25.551  25.558  1.00  0.00     0.338 C 
ATOM     19  O   UNL A   1      42.854  25.372  24.884  1.00  0.00    -0.246 OA
BRANCH  18  20
ATOM     20  C   UNL A   1      43.726  26.159  26.866  1.00  0.00     0.060 A 
ATOM     21  C   UNL A   1      43.317  25.362  28.466  1.00  0.00     0.016 A 
ATOM     22  C   UNL A   1      43.452  27.927  26.661  1.00  0.00     0.016 A 
ATOM     23  C   UNL A   1      42.656  26.393  29.829  1.00  0.00     0.010 A 
ATOM     24  C   UNL A   1      42.842  28.900  28.014  1.00  0.00     0.010 A 
ATOM     25  C   UNL A   1      42.431  28.168  29.595  1.00  0.00    -0.014 A 
BRANCH  25  26
ATOM     26  C   UNL A   1      42.130  29.117  30.737  1.00  0.00     0.031 A 
ATOM     27  C   UNL A   1      43.003  29.225  31.974  1.00  0.00     0.074 A 
ATOM     28  C   UNL A   1      40.932  29.739  30.800  1.00  0.00     0.049 A 
ATOM     29  N   UNL A   1      42.796  29.925  33.067  1.00  0.00    -0.248 NA
ATOM     30  C   UNL A   1      44.198  28.374  32.040  1.00  0.00     0.031 C 
ATOM     31  C   UNL A   1      39.818  29.497  29.900  1.00  0.00     0.029 A 
ATOM     32  N   UNL A   1      40.422  30.690  31.656  1.00  0.00    -0.354 N 
ATOM     33  C   UNL A   1      43.769  29.525  33.982  1.00  0.00     0.074 A 
ATOM     34  C   UNL A   1      44.561  28.514  33.310  1.00  0.00     0.031 C 
ATOM     35  C   UNL A   1      38.831  30.368  30.121  1.00  0.00     0.029 A 
ATOM     36  C   UNL A   1      39.208  31.204  31.241  1.00  0.00     0.049 A 
ATOM     37  H   UNL A   1      40.877  30.975  32.481  1.00  0.00     0.167 HD
ATOM     38  C   UNL A   1      43.977  29.952  35.257  1.00  0.00     0.031 A 
ATOM     39  C   UNL A   1      38.473  32.240  31.683  1.00  0.00     0.031 A 
ATOM     40  C   UNL A   1      43.220  31.005  35.897  1.00  0.00     0.049 A 
ATOM     41  C   UNL A   1      38.915  32.941  32.923  1.00  0.00     0.074 A 
ATOM     42  C   UNL A   1      43.418  31.583  37.143  1.00  0.00     0.029 A 
ATOM     43  N   UNL A   1      42.132  31.659  35.333  1.00  0.00    -0.354 N 
ATOM     44  N   UNL A   1      39.896  32.615  33.726  1.00  0.00    -0.248 NA
ATOM     45  C   UNL A   1      38.151  34.123  33.333  1.00  0.00     0.031 C 
ATOM     46  C   UNL A   1      42.445  32.575  37.334  1.00  0.00     0.029 A 
ATOM     47  C   UNL A   1      41.665  32.644  36.192  1.00  0.00     0.049 A 
ATOM     48  H   UNL A   1      41.749  31.453  34.451  1.00  0.00     0.167 HD
ATOM     49  C   UNL A   1      39.844  33.527  34.765  1.00  0.00     0.074 A 
ATOM     50  C   UNL A   1      38.780  34.462  34.451  1.00  0.00     0.031 C 
ATOM     51  C   UNL A   1      40.590  33.556  35.895  1.00  0.00     0.031 A 
BRANCH  38  52
ATOM     52  C   UNL A   1      45.074  29.277  36.056  1.00  0.00    -0.014 A 
ATOM     53  C   UNL A   1      46.407  29.722  35.996  1.00  0.00     0.010 A 
ATOM     54  C   UNL A   1      44.764  28.194  36.903  1.00  0.00     0.010 A 
ATOM     55  C   UNL A   1      47.417  29.056  36.700  1.00  0.00     0.020 A 
ATOM     56  C   UNL A   1      45.765  27.545  37.638  1.00  0.00     0.020 A 
ATOM     57  C   UNL A   1      47.090  27.961  37.508  1.00  0.00     0.054 A 
BRANCH  57  58
ATOM     58  S   UNL A   1      48.419  27.103  38.398  1.00  0.00     0.124 S 
ATOM     59  O   UNL A   1      47.693  26.016  39.050  1.00  0.00    -0.237 OA
ATOM     60  O   UNL A   1      49.322  26.697  37.324  1.00  0.00    -0.237 OA
ATOM     61  O   UNL A   1      48.951  28.124  39.297  1.00  0.00    -0.744 OA
ENDBRANCH  57  58
ENDBRANCH  38  52
BRANCH  39  62
ATOM     62  C   UNL A   1      37.320  32.725  30.876  1.00  0.00    -0.014 A 
ATOM     63  C   UNL A   1      36.022  32.297  31.216  1.00  0.00     0.010 A 
ATOM     64  C   UNL A   1      37.476  33.670  29.846  1.00  0.00     0.010 A 
ATOM     65  C   UNL A   1      34.905  32.802  30.545  1.00  0.00     0.020 A 
ATOM     66  C   UNL A   1      36.357  34.202  29.195  1.00  0.00     0.020 A 
ATOM     67  C   UNL A   1      35.079  33.758  29.543  1.00  0.00     0.054 A 
BRANCH  67  68
ATOM     68  S   UNL A   1      33.612  34.480  28.752  1.00  0.00     0.124 S 
ATOM     69  O   UNL A   1      33.130  33.369  27.939  1.00  0.00    -0.237 OA
ATOM     70  O   UNL A   1      32.775  34.839  29.894  1.00  0.00    -0.237 OA
ATOM     71  O   UNL A   1      34.155  35.615  28.010  1.00  0.00    -0.744 OA
ENDBRANCH  67  68
ENDBRANCH  39  62
BRANCH  51  72
ATOM     72  C   UNL A   1      40.252  34.636  36.883  1.00  0.00    -0.014 A 
ATOM     73  C   UNL A   1      40.994  35.830  36.923  1.00  0.00     0.010 A 
ATOM     74  C   UNL A   1      39.206  34.441  37.800  1.00  0.00     0.010 A 
ATOM     75  C   UNL A   1      40.730  36.791  37.903  1.00  0.00     0.020 A 
ATOM     76  C   UNL A   1      38.925  35.409  38.766  1.00  0.00     0.020 A 
ATOM     77  C   UNL A   1      39.704  36.568  38.826  1.00  0.00     0.054 A 
BRANCH  77  78
ATOM     78  S   UNL A   1      39.384  37.821  40.096  1.00  0.00     0.124 S 
ATOM     79  O   UNL A   1      39.271  37.007  41.303  1.00  0.00    -0.237 OA
ATOM     80  O   UNL A   1      40.569  38.671  40.020  1.00  0.00    -0.237 OA
ATOM     81  O   UNL A   1      38.143  38.453  39.651  1.00  0.00    -0.744 OA
ENDBRANCH  77  78
ENDBRANCH  51  72
ENDBRANCH  25  26
ENDBRANCH  18  20
ENDBRANCH  17  18
ENDBRANCH  16  17
ENDBRANCH   1  16
TORSDOF 17
ENDMDL
MODEL 2
REMARK VINA RESULT:      -9.5      3.964     10.209
REMARK SMILES CCOC(=O)c1noc(C)c1C(=O)OCCOC(=O)c1ccc(-c2c3nc(c(-c4ccc(S(=O)(=O)[O-])cc4)c4ccc([nH]4)c(-c4ccc(S(=O)(=O)[O-])cc4)c4nc(c(-c5ccc(S(=O)(=O)[O-])cc5)c5ccc2[nH]5)C=C4)C=C3)cc1
REMARK SMILES IDX 15 1 14 2 12 3 13 4 11 5 6 6 7 7 8 8 9 9 10 10 4 11 5 12
REMARK SMILES IDX 3 13 2 14 1 15 16 16 17 17 18 18 19 19 20 20 21 21 79 22
REMARK SMILES IDX 22 23 78 24 23 25 24 26 25 27 72 28 26 29 77 30 71 31 73 32
REMARK SMILES IDX 27 33 76 34 70 35 69 36 28 38 58 39 39 40 57 41 40 42 43 43
REMARK SMILES IDX 56 44 74 45 41 46 42 47 55 49 75 50 44 51 29 52 30 53 38 54
REMARK SMILES IDX 31 55 37 56 32 57 33 58 34 59 35 60 36 61 59 62 60 63 68 64
REMARK SMILES IDX 61 65 67 66 62 67 63 68 64 69 65 70 66 71 45 72 46 73 54 74
REMARK SMILES IDX 47 75 53 76 48 77 49 78 50 79 51 80 52 81
REMARK H PARENT 73 37 43 48
REMARK Flexibility Score: inf
ROOT
ATOM      1  C   UNL A   1      49.171  22.404  38.668  1.00  0.00     0.275 C 
ENDROOT
BRANCH   1   2
ATOM      2  O   UNL A   1      48.621  21.235  39.323  1.00  0.00    -0.458 OA
BRANCH   2   3
ATOM      3  C   UNL A   1      48.702  20.068  38.604  1.00  0.00     0.344 C 
ATOM      4  O   UNL A   1      49.742  19.684  38.084  1.00  0.00    -0.246 OA
BRANCH   3   5
ATOM      5  C   UNL A   1      47.422  19.413  38.410  1.00  0.00     0.137 A 
ATOM      6  C   UNL A   1      46.321  19.399  37.421  1.00  0.00     0.206 A 
ATOM      7  N   UNL A   1      45.364  18.580  37.930  1.00  0.00    -0.072 NA
ATOM      8  O   UNL A   1      45.800  18.058  39.112  1.00  0.00    -0.360 OA
ATOM      9  C   UNL A   1      47.026  18.528  39.396  1.00  0.00     0.149 A 
ATOM     10  C   UNL A   1      47.657  18.037  40.646  1.00  0.00     0.092 C 
BRANCH   6  11
ATOM     11  C   UNL A   1      45.961  19.920  35.995  1.00  0.00     0.361 C 
ATOM     12  O   UNL A   1      46.291  19.216  35.033  1.00  0.00    -0.244 OA
BRANCH  11  13
ATOM     13  O   UNL A   1      45.234  21.144  35.638  1.00  0.00    -0.461 OA
BRANCH  13  14
ATOM     14  C   UNL A   1      44.360  22.962  35.580  1.00  0.00     0.230 C 
ATOM     15  C   UNL A   1      43.777  23.786  34.282  1.00  0.00     0.049 C 
ENDBRANCH  13  14
ENDBRANCH  11  13
ENDBRANCH   6  11
ENDBRANCH   3   5
ENDBRANCH   2   3
ENDBRANCH   1   2
BRANCH   1  16
ATOM     16  C   UNL A   1      48.591  23.682  39.282  1.00  0.00     0.275 C 
BRANCH  16  17
ATOM     17  O   UNL A   1      47.464  24.113  38.500  1.00  0.00    -0.458 OA
BRANCH  17  18
ATOM     18  C   UNL A   1      47.049  25.336  38.867  1.00  0.00     0.338 C 
ATOM     19  O   UNL A   1      47.237  25.896  39.938  1.00  0.00    -0.246 OA
BRANCH  18  20
ATOM     20  C   UNL A   1      46.354  26.049  37.815  1.00  0.00     0.060 A 
ATOM     21  C   UNL A   1      46.949  27.448  36.791  1.00  0.00     0.016 A 
ATOM     22  C   UNL A   1      44.583  25.772  37.996  1.00  0.00     0.016 A 
ATOM     23  C   UNL A   1      45.722  28.523  35.956  1.00  0.00     0.010 A 
ATOM     24  C   UNL A   1      43.425  26.812  37.145  1.00  0.00     0.010 A 
ATOM     25  C   UNL A   1      43.957  28.189  36.132  1.00  0.00    -0.014 A 
BRANCH  25  26
ATOM     26  C   UNL A   1      42.902  28.869  35.283  1.00  0.00     0.031 A 
ATOM     27  C   UNL A   1      42.512  28.380  33.900  1.00  0.00     0.074 A 
ATOM     28  C   UNL A   1      42.433  30.086  35.637  1.00  0.00     0.049 A 
ATOM     29  N   UNL A   1      41.697  28.938  33.032  1.00  0.00    -0.248 NA
ATOM     30  C   UNL A   1      43.188  27.183  33.386  1.00  0.00     0.031 C 
ATOM     31  C   UNL A   1      42.937  30.887  36.739  1.00  0.00     0.029 A 
ATOM     32  N   UNL A   1      41.443  30.889  35.115  1.00  0.00    -0.354 N 
ATOM     33  C   UNL A   1      41.838  28.223  31.844  1.00  0.00     0.074 A 
ATOM     34  C   UNL A   1      42.826  27.195  32.108  1.00  0.00     0.031 C 
ATOM     35  C   UNL A   1      42.174  31.966  36.930  1.00  0.00     0.029 A 
ATOM     36  C   UNL A   1      41.149  31.981  35.909  1.00  0.00     0.049 A 
ATOM     37  H   UNL A   1      40.990  30.703  34.261  1.00  0.00     0.167 HD
ATOM     38  C   UNL A   1      41.214  28.408  30.649  1.00  0.00     0.031 A 
ATOM     39  C   UNL A   1      40.162  32.893  35.852  1.00  0.00     0.031 A 
ATOM     40  C   UNL A   1      40.185  29.397  30.413  1.00  0.00     0.049 A 
ATOM     41  C   UNL A   1      39.243  32.867  34.678  1.00  0.00     0.074 A 
ATOM     42  C   UNL A   1      39.418  29.597  29.274  1.00  0.00     0.029 A 
ATOM     43  N   UNL A   1      39.759  30.339  31.340  1.00  0.00    -0.354 N 
ATOM     44  N   UNL A   1      39.328  32.121  33.606  1.00  0.00    -0.248 NA
ATOM     45  C   UNL A   1      38.121  33.811  34.684  1.00  0.00     0.031 C 
ATOM     46  C   UNL A   1      38.539  30.664  29.511  1.00  0.00     0.029 A 
ATOM     47  C   UNL A   1      38.730  31.105  30.810  1.00  0.00     0.049 A 
ATOM     48  H   UNL A   1      40.134  30.447  32.243  1.00  0.00     0.167 HD
ATOM     49  C   UNL A   1      38.292  32.532  32.786  1.00  0.00     0.074 A 
ATOM     50  C   UNL A   1      37.552  33.543  33.516  1.00  0.00     0.031 C 
ATOM     51  C   UNL A   1      38.011  32.129  31.524  1.00  0.00     0.031 A 
BRANCH  38  52
ATOM     52  C   UNL A   1      41.627  27.520  29.493  1.00  0.00    -0.014 A 
ATOM     53  C   UNL A   1      40.913  26.351  29.173  1.00  0.00     0.010 A 
ATOM     54  C   UNL A   1      42.732  27.872  28.693  1.00  0.00     0.010 A 
ATOM     55  C   UNL A   1      41.337  25.514  28.134  1.00  0.00     0.020 A 
ATOM     56  C   UNL A   1      43.141  27.057  27.630  1.00  0.00     0.020 A 
ATOM     57  C   UNL A   1      42.458  25.867  27.376  1.00  0.00     0.054 A 
BRANCH  57  58
ATOM     58  S   UNL A   1      43.000  24.758  26.045  1.00  0.00     0.124 S 
ATOM     59  O   UNL A   1      43.017  25.654  24.892  1.00  0.00    -0.237 OA
ATOM     60  O   UNL A   1      44.310  24.307  26.507  1.00  0.00    -0.237 OA
ATOM     61  O   UNL A   1      41.968  23.724  26.014  1.00  0.00    -0.744 OA
ENDBRANCH  57  58
ENDBRANCH  38  52
BRANCH  39  62
ATOM     62  C   UNL A   1      39.944  33.818  37.000  1.00  0.00    -0.014 A 
ATOM     63  C   UNL A   1      40.394  35.147  36.898  1.00  0.00     0.010 A 
ATOM     64  C   UNL A   1      39.220  33.430  38.141  1.00  0.00     0.010 A 
ATOM     65  C   UNL A   1      40.127  36.072  37.911  1.00  0.00     0.020 A 
ATOM     66  C   UNL A   1      38.921  34.362  39.142  1.00  0.00     0.020 A 
ATOM     67  C   UNL A   1      39.385  35.675  39.024  1.00  0.00     0.054 A 
BRANCH  67  68
ATOM     68  S   UNL A   1      38.957  36.913  40.283  1.00  0.00     0.124 S 
ATOM     69  O   UNL A   1      37.969  36.200  41.084  1.00  0.00    -0.237 OA
ATOM     70  O   UNL A   1      40.240  37.164  40.936  1.00  0.00    -0.237 OA
ATOM     71  O   UNL A   1      38.443  38.030  39.495  1.00  0.00    -0.744 OA
ENDBRANCH  67  68
ENDBRANCH  39  62
BRANCH  51  72
ATOM     72  C   UNL A   1      36.854  32.813  30.853  1.00  0.00    -0.014 A 
ATOM     73  C   UNL A   1      37.072  33.779  29.853  1.00  0.00     0.010 A 
ATOM     74  C   UNL A   1      35.540  32.513  31.249  1.00  0.00     0.010 A 
ATOM     75  C   UNL A   1      35.994  34.473  29.298  1.00  0.00     0.020 A 
ATOM     76  C   UNL A   1      34.460  33.190  30.680  1.00  0.00     0.020 A 
ATOM     77  C   UNL A   1      34.695  34.182  29.725  1.00  0.00     0.054 A 
BRANCH  77  78
ATOM     78  S   UNL A   1      33.310  35.102  29.001  1.00  0.00     0.124 S 
ATOM     79  O   UNL A   1      33.989  36.247  28.400  1.00  0.00    -0.237 OA
ATOM     80  O   UNL A   1      32.741  34.142  28.058  1.00  0.00    -0.237 OA
ATOM     81  O   UNL A   1      32.464  35.412  30.151  1.00  0.00    -0.744 OA
ENDBRANCH  77  78
ENDBRANCH  51  72
ENDBRANCH  25  26
ENDBRANCH  18  20
ENDBRANCH  17  18
ENDBRANCH  16  17
ENDBRANCH   1  16
TORSDOF 17
ENDMDL
MODEL 3
REMARK VINA RESULT:      -9.2      8.497     16.735
REMARK SMILES CCOC(=O)c1noc(C)c1C(=O)OCCOC(=O)c1ccc(-c2c3nc(c(-c4ccc(S(=O)(=O)[O-])cc4)c4ccc([nH]4)c(-c4ccc(S(=O)(=O)[O-])cc4)c4nc(c(-c5ccc(S(=O)(=O)[O-])cc5)c5ccc2[nH]5)C=C4)C=C3)cc1
REMARK SMILES IDX 15 1 14 2 12 3 13 4 11 5 6 6 7 7 8 8 9 9 10 10 4 11 5 12
REMARK SMILES IDX 3 13 2 14 1 15 16 16 17 17 18 18 19 19 20 20 21 21 79 22
REMARK SMILES IDX 22 23 78 24 23 25 24 26 25 27 72 28 26 29 77 30 71 31 73 32
REMARK SMILES IDX 27 33 76 34 70 35 69 36 28 38 58 39 39 40 57 41 40 42 43 43
REMARK SMILES IDX 56 44 74 45 41 46 42 47 55 49 75 50 44 51 29 52 30 53 38 54
REMARK SMILES IDX 31 55 37 56 32 57 33 58 34 59 35 60 36 61 59 62 60 63 68 64
REMARK SMILES IDX 61 65 67 66 62 67 63 68 64 69 65 70 66 71 45 72 46 73 54 74
REMARK SMILES IDX 47 75 53 76 48 77 49 78 50 79 51 80 52 81
REMARK H PARENT 73 37 43 48
REMARK Flexibility Score: inf
ROOT
ATOM      1  C   UNL A   1      44.961  40.740  26.636  1.00  0.00     0.275 C 
ENDROOT
BRANCH   1   2
ATOM      2  O   UNL A   1      45.123  41.658  25.528  1.00  0.00    -0.458 OA
BRANCH   2   3
ATOM      3  C   UNL A   1      43.966  42.001  24.876  1.00  0.00     0.344 C 
ATOM      4  O   UNL A   1      42.932  41.355  24.983  1.00  0.00    -0.246 OA
BRANCH   3   5
ATOM      5  C   UNL A   1      44.121  43.111  23.954  1.00  0.00     0.137 A 
ATOM      6  C   UNL A   1      43.832  43.424  22.537  1.00  0.00     0.206 A 
ATOM      7  N   UNL A   1      44.331  44.669  22.315  1.00  0.00    -0.072 NA
ATOM      8  O   UNL A   1      44.853  45.159  23.475  1.00  0.00    -0.360 OA
ATOM      9  C   UNL A   1      44.716  44.253  24.458  1.00  0.00     0.149 A 
ATOM     10  C   UNL A   1      45.216  44.641  25.799  1.00  0.00     0.092 C 
BRANCH   6  11
ATOM     11  C   UNL A   1      43.083  42.854  21.293  1.00  0.00     0.361 C 
ATOM     12  O   UNL A   1      42.715  41.674  21.343  1.00  0.00    -0.244 OA
BRANCH  11  13
ATOM     13  O   UNL A   1      42.717  43.559  20.058  1.00  0.00    -0.461 OA
BRANCH  13  14
ATOM     14  C   UNL A   1      41.808  44.594  18.584  1.00  0.00     0.230 C 
ATOM     15  C   UNL A   1      42.200  44.682  16.990  1.00  0.00     0.049 C 
ENDBRANCH  13  14
ENDBRANCH  11  13
ENDBRANCH   6  11
ENDBRANCH   3   5
ENDBRANCH   2   3
ENDBRANCH   1   2
BRANCH   1  16
ATOM     16  C   UNL A   1      46.305  40.104  27.004  1.00  0.00     0.275 C 
BRANCH  16  17
ATOM     17  O   UNL A   1      46.077  38.993  27.888  1.00  0.00    -0.458 OA
BRANCH  17  18
ATOM     18  C   UNL A   1      47.134  38.165  27.922  1.00  0.00     0.338 C 
ATOM     19  O   UNL A   1      48.319  38.469  27.903  1.00  0.00    -0.246 OA
BRANCH  18  20
ATOM     20  C   UNL A   1      46.769  36.770  28.053  1.00  0.00     0.060 A 
ATOM     21  C   UNL A   1      47.057  35.636  29.464  1.00  0.00     0.016 A 
ATOM     22  C   UNL A   1      46.482  36.087  26.411  1.00  0.00     0.016 A 
ATOM     23  C   UNL A   1      47.026  33.827  29.171  1.00  0.00     0.010 A 
ATOM     24  C   UNL A   1      46.425  34.330  26.171  1.00  0.00     0.010 A 
ATOM     25  C   UNL A   1      46.699  33.183  27.518  1.00  0.00    -0.014 A 
BRANCH  25  26
ATOM     26  C   UNL A   1      46.411  31.720  27.247  1.00  0.00     0.031 A 
ATOM     27  C   UNL A   1      45.023  31.117  27.350  1.00  0.00     0.074 A 
ATOM     28  C   UNL A   1      47.433  30.843  27.131  1.00  0.00     0.049 A 
ATOM     29  N   UNL A   1      44.664  29.856  27.244  1.00  0.00    -0.248 NA
ATOM     30  C   UNL A   1      43.917  32.012  27.715  1.00  0.00     0.031 C 
ATOM     31  C   UNL A   1      48.833  31.157  27.354  1.00  0.00     0.029 A 
ATOM     32  N   UNL A   1      47.476  29.502  26.815  1.00  0.00    -0.354 N 
ATOM     33  C   UNL A   1      43.325  29.793  27.625  1.00  0.00     0.074 A 
ATOM     34  C   UNL A   1      42.942  31.148  27.971  1.00  0.00     0.031 C 
ATOM     35  C   UNL A   1      49.612  30.126  27.015  1.00  0.00     0.029 A 
ATOM     36  C   UNL A   1      48.757  29.029  26.610  1.00  0.00     0.049 A 
ATOM     37  H   UNL A   1      46.673  28.937  26.743  1.00  0.00     0.167 HD
ATOM     38  C   UNL A   1      42.499  28.714  27.688  1.00  0.00     0.031 A 
ATOM     39  C   UNL A   1      49.218  27.859  26.134  1.00  0.00     0.031 A 
ATOM     40  C   UNL A   1      42.873  27.378  27.281  1.00  0.00     0.049 A 
ATOM     41  C   UNL A   1      48.236  26.769  25.870  1.00  0.00     0.074 A 
ATOM     42  C   UNL A   1      42.083  26.239  27.206  1.00  0.00     0.029 A 
ATOM     43  N   UNL A   1      44.140  27.000  26.857  1.00  0.00    -0.354 N 
ATOM     44  N   UNL A   1      46.955  26.755  26.142  1.00  0.00    -0.248 NA
ATOM     45  C   UNL A   1      48.749  25.536  25.266  1.00  0.00     0.031 C 
ATOM     46  C   UNL A   1      42.874  25.176  26.748  1.00  0.00     0.029 A 
ATOM     47  C   UNL A   1      44.148  25.659  26.499  1.00  0.00     0.049 A 
ATOM     48  H   UNL A   1      44.920  27.599  26.815  1.00  0.00     0.167 HD
ATOM     49  C   UNL A   1      46.512  25.495  25.780  1.00  0.00     0.074 A 
ATOM     50  C   UNL A   1      47.647  24.800  25.204  1.00  0.00     0.031 C 
ATOM     51  C   UNL A   1      45.282  24.958  25.952  1.00  0.00     0.031 A 
BRANCH  38  52
ATOM     52  C   UNL A   1      41.096  28.931  28.220  1.00  0.00    -0.014 A 
ATOM     53  C   UNL A   1      40.011  29.165  27.357  1.00  0.00     0.010 A 
ATOM     54  C   UNL A   1      40.852  28.872  29.607  1.00  0.00     0.010 A 
ATOM     55  C   UNL A   1      38.731  29.413  27.866  1.00  0.00     0.020 A 
ATOM     56  C   UNL A   1      39.567  29.086  30.121  1.00  0.00     0.020 A 
ATOM     57  C   UNL A   1      38.519  29.385  29.248  1.00  0.00     0.054 A 
BRANCH  57  58
ATOM     58  S   UNL A   1      36.855  29.727  29.886  1.00  0.00     0.124 S 
ATOM     59  O   UNL A   1      36.905  31.171  30.103  1.00  0.00    -0.237 OA
ATOM     60  O   UNL A   1      35.989  29.288  28.795  1.00  0.00    -0.237 OA
ATOM     61  O   UNL A   1      36.775  28.918  31.099  1.00  0.00    -0.744 OA
ENDBRANCH  57  58
ENDBRANCH  38  52
BRANCH  39  62
ATOM     62  C   UNL A   1      50.659  27.721  25.781  1.00  0.00    -0.014 A 
ATOM     63  C   UNL A   1      51.560  27.268  26.762  1.00  0.00     0.010 A 
ATOM     64  C   UNL A   1      51.128  27.937  24.473  1.00  0.00     0.010 A 
ATOM     65  C   UNL A   1      52.902  27.034  26.447  1.00  0.00     0.020 A 
ATOM     66  C   UNL A   1      52.463  27.671  24.146  1.00  0.00     0.020 A 
ATOM     67  C   UNL A   1      53.343  27.230  25.138  1.00  0.00     0.054 A 
BRANCH  67  68
ATOM     68  S   UNL A   1      55.064  26.824  24.720  1.00  0.00     0.124 S 
ATOM     69  O   UNL A   1      55.294  27.656  23.545  1.00  0.00    -0.237 OA
ATOM     70  O   UNL A   1      55.789  27.216  25.926  1.00  0.00    -0.237 OA
ATOM     71  O   UNL A   1      55.019  25.384  24.475  1.00  0.00    -0.744 OA
ENDBRANCH  67  68
ENDBRANCH  39  62
BRANCH  51  72
ATOM     72  C   UNL A   1      45.119  23.528  25.521  1.00  0.00    -0.014 A 
ATOM     73  C   UNL A   1      45.408  22.473  26.405  1.00  0.00     0.010 A 
ATOM     74  C   UNL A   1      44.705  23.237  24.210  1.00  0.00     0.010 A 
ATOM     75  C   UNL A   1      45.338  21.148  25.968  1.00  0.00     0.020 A 
ATOM     76  C   UNL A   1      44.614  21.913  23.777  1.00  0.00     0.020 A 
ATOM     77  C   UNL A   1      44.953  20.877  24.652  1.00  0.00     0.054 A 
BRANCH  77  78
ATOM     78  S   UNL A   1      44.880  19.152  24.100  1.00  0.00     0.124 S 
ATOM     79  O   UNL A   1      46.205  18.660  24.465  1.00  0.00    -0.237 OA
ATOM     80  O   UNL A   1      43.771  18.608  24.880  1.00  0.00    -0.237 OA
ATOM     81  O   UNL A   1      44.628  19.260  22.664  1.00  0.00    -0.744 OA
ENDBRANCH  77  78
ENDBRANCH  51  72
ENDBRANCH  25  26
ENDBRANCH  18  20
ENDBRANCH  17  18
ENDBRANCH  16  17
ENDBRANCH   1  16
TORSDOF 17
ENDMDL
