MODEL 1
REMARK VINA RESULT:     -10.0      0.000      0.000
REMARK SMILES O=C1NC[C@@H](CSc2ccnc(C(=O)OCCOC(=O)c3ccc(-c4c5nc(c(-c6ccc(S(=O)(=O)[O-])cc6)c6ccc([nH]6)c(-c6ccc(S(=O)(=O)[O-])cc6)c6nc(c(-c7ccc(S(=O)(=O)[O-])cc7)c7ccc4[nH]7)C=C6)C=C5)cc3)c2)O1
REMARK SMILES IDX 16 1 15 2 13 3 14 4 12 5 8 6 9 7 81 8 10 9 11 10 7 11 6 12
REMARK SMILES IDX 5 13 1 14 2 15 3 16 82 17 4 18 17 20 18 21 19 22 20 23 21 24
REMARK SMILES IDX 22 25 80 26 23 27 79 28 24 29 25 30 26 31 73 32 27 33 78 34
REMARK SMILES IDX 72 35 74 36 28 37 77 38 71 39 70 40 29 42 59 43 40 44 58 45
REMARK SMILES IDX 41 46 44 47 57 48 75 49 42 50 43 51 56 53 76 54 45 55 30 56
REMARK SMILES IDX 31 57 39 58 32 59 38 60 33 61 34 62 35 63 36 64 37 65 60 66
REMARK SMILES IDX 61 67 69 68 62 69 68 70 63 71 64 72 65 73 66 74 67 75 46 76
REMARK SMILES IDX 47 77 55 78 48 79 54 80 49 81 50 82 51 83 52 84 53 85
REMARK H PARENT 3 19 74 41 44 52
REMARK Flexibility Score: inf
ROOT
ATOM      1  C   UNL A   1      35.258  33.998  30.058  1.00  0.00     0.275 C 
ENDROOT
BRANCH   1   2
ATOM      2  O   UNL A   1      35.340  33.470  28.718  1.00  0.00    -0.457 OA
BRANCH   2   3
ATOM      3  C   UNL A   1      34.151  33.047  28.211  1.00  0.00     0.357 C 
ATOM      4  O   UNL A   1      33.191  33.771  27.989  1.00  0.00    -0.244 OA
BRANCH   3   5
ATOM      5  C   UNL A   1      34.162  31.586  27.873  1.00  0.00     0.149 A 
ATOM      6  C   UNL A   1      33.202  29.545  27.093  1.00  0.00     0.011 A 
ATOM      7  C   UNL A   1      34.481  28.995  27.091  1.00  0.00     0.035 A 
ATOM      8  C   UNL A   1      33.033  30.877  27.482  1.00  0.00     0.051 A 
ATOM      9  C   UNL A   1      35.535  29.748  27.553  1.00  0.00     0.113 A 
ATOM     10  N   UNL A   1      35.400  31.027  27.928  1.00  0.00    -0.249 NA
BRANCH   6  11
ATOM     11  S   UNL A   1      31.851  28.602  26.417  1.00  0.00    -0.122 SA
BRANCH  11  12
ATOM     12  C   UNL A   1      31.189  29.702  25.097  1.00  0.00     0.122 C 
BRANCH  12  13
ATOM     13  C   UNL A   1      30.722  29.102  23.760  1.00  0.00     0.208 C 
ATOM     14  O   UNL A   1      28.928  30.696  21.272  1.00  0.00    -0.225 OA
ATOM     15  C   UNL A   1      29.740  30.113  21.967  1.00  0.00     0.407 C 
ATOM     16  N   UNL A   1      31.010  29.794  21.586  1.00  0.00    -0.318 N 
ATOM     17  O   UNL A   1      29.526  29.719  23.255  1.00  0.00    -0.443 OA
ATOM     18  C   UNL A   1      31.731  29.153  22.628  1.00  0.00     0.165 C 
ATOM     19  H   UNL A   1      31.383  29.986  20.695  1.00  0.00     0.167 HD
ENDBRANCH  12  13
ENDBRANCH  11  12
ENDBRANCH   6  11
ENDBRANCH   3   5
ENDBRANCH   2   3
ENDBRANCH   1   2
BRANCH   1  20
ATOM     20  C   UNL A   1      35.700  32.972  31.108  1.00  0.00     0.275 C 
BRANCH  20  21
ATOM     21  O   UNL A   1      37.023  32.453  30.870  1.00  0.00    -0.458 OA
BRANCH  21  22
ATOM     22  C   UNL A   1      37.228  31.182  31.292  1.00  0.00     0.338 C 
ATOM     23  O   UNL A   1      36.523  30.537  32.051  1.00  0.00    -0.246 OA
BRANCH  22  24
ATOM     24  C   UNL A   1      38.427  30.622  30.648  1.00  0.00     0.060 A 
ATOM     25  C   UNL A   1      39.502  30.251  31.454  1.00  0.00     0.016 A 
ATOM     26  C   UNL A   1      38.539  30.576  29.259  1.00  0.00     0.016 A 
ATOM     27  C   UNL A   1      40.714  29.866  30.884  1.00  0.00     0.010 A 
ATOM     28  C   UNL A   1      39.747  30.161  28.685  1.00  0.00     0.010 A 
ATOM     29  C   UNL A   1      40.851  29.823  29.491  1.00  0.00    -0.014 A 
BRANCH  29  30
ATOM     30  C   UNL A   1      42.153  29.477  28.867  1.00  0.00     0.031 A 
ATOM     31  C   UNL A   1      42.389  28.077  28.369  1.00  0.00     0.074 A 
ATOM     32  C   UNL A   1      43.126  30.403  28.761  1.00  0.00     0.049 A 
ATOM     33  N   UNL A   1      43.501  27.517  27.967  1.00  0.00    -0.248 NA
ATOM     34  C   UNL A   1      41.218  27.188  28.326  1.00  0.00     0.031 C 
ATOM     35  C   UNL A   1      43.002  31.812  29.139  1.00  0.00     0.029 A 
ATOM     36  N   UNL A   1      44.421  30.292  28.315  1.00  0.00    -0.354 N 
ATOM     37  C   UNL A   1      43.173  26.200  27.665  1.00  0.00     0.074 A 
ATOM     38  C   UNL A   1      41.762  26.042  27.940  1.00  0.00     0.031 C 
ATOM     39  C   UNL A   1      44.171  32.432  28.913  1.00  0.00     0.029 A 
ATOM     40  C   UNL A   1      45.146  31.453  28.442  1.00  0.00     0.049 A 
ATOM     41  H   UNL A   1      44.793  29.461  27.940  1.00  0.00     0.167 HD
ATOM     42  C   UNL A   1      43.980  25.213  27.205  1.00  0.00     0.031 A 
ATOM     43  C   UNL A   1      46.458  31.694  28.249  1.00  0.00     0.031 A 
ATOM     44  C   UNL A   1      45.383  25.385  26.930  1.00  0.00     0.049 A 
ATOM     45  C   UNL A   1      47.351  30.564  27.813  1.00  0.00     0.074 A 
ATOM     46  C   UNL A   1      46.290  24.450  26.462  1.00  0.00     0.029 A 
ATOM     47  N   UNL A   1      46.081  26.572  27.095  1.00  0.00    -0.354 N 
ATOM     48  N   UNL A   1      47.037  29.315  27.561  1.00  0.00    -0.248 NA
ATOM     49  C   UNL A   1      48.777  30.873  27.638  1.00  0.00     0.031 C 
ATOM     50  C   UNL A   1      47.547  25.057  26.396  1.00  0.00     0.029 A 
ATOM     51  C   UNL A   1      47.411  26.389  26.755  1.00  0.00     0.049 A 
ATOM     52  H   UNL A   1      45.690  27.420  27.409  1.00  0.00     0.167 HD
ATOM     53  C   UNL A   1      48.218  28.701  27.161  1.00  0.00     0.074 A 
ATOM     54  C   UNL A   1      49.252  29.713  27.202  1.00  0.00     0.031 C 
ATOM     55  C   UNL A   1      48.425  27.414  26.786  1.00  0.00     0.031 A 
BRANCH  42  56
ATOM     56  C   UNL A   1      43.375  23.845  27.020  1.00  0.00    -0.014 A 
ATOM     57  C   UNL A   1      43.190  22.969  28.104  1.00  0.00     0.010 A 
ATOM     58  C   UNL A   1      42.956  23.441  25.738  1.00  0.00     0.010 A 
ATOM     59  C   UNL A   1      42.642  21.698  27.902  1.00  0.00     0.020 A 
ATOM     60  C   UNL A   1      42.379  22.184  25.537  1.00  0.00     0.020 A 
ATOM     61  C   UNL A   1      42.244  21.312  26.618  1.00  0.00     0.054 A 
BRANCH  61  62
ATOM     62  S   UNL A   1      41.532  19.660  26.387  1.00  0.00     0.124 S 
ATOM     63  O   UNL A   1      41.780  19.042  27.687  1.00  0.00    -0.237 OA
ATOM     64  O   UNL A   1      40.133  19.953  26.089  1.00  0.00    -0.237 OA
ATOM     65  O   UNL A   1      42.300  19.102  25.276  1.00  0.00    -0.744 OA
ENDBRANCH  61  62
ENDBRANCH  42  56
BRANCH  43  66
ATOM     66  C   UNL A   1      47.010  33.054  28.502  1.00  0.00    -0.014 A 
ATOM     67  C   UNL A   1      47.043  34.016  27.478  1.00  0.00     0.010 A 
ATOM     68  C   UNL A   1      47.495  33.400  29.778  1.00  0.00     0.010 A 
ATOM     69  C   UNL A   1      47.563  35.291  27.720  1.00  0.00     0.020 A 
ATOM     70  C   UNL A   1      47.986  34.683  30.033  1.00  0.00     0.020 A 
ATOM     71  C   UNL A   1      48.029  35.617  28.997  1.00  0.00     0.054 A 
BRANCH  71  72
ATOM     72  S   UNL A   1      48.654  37.293  29.299  1.00  0.00     0.124 S 
ATOM     73  O   UNL A   1      50.066  37.157  28.956  1.00  0.00    -0.237 OA
ATOM     74  O   UNL A   1      47.855  38.098  28.378  1.00  0.00    -0.237 OA
ATOM     75  O   UNL A   1      48.371  37.515  30.715  1.00  0.00    -0.744 OA
ENDBRANCH  71  72
ENDBRANCH  43  66
BRANCH  55  76
ATOM     76  C   UNL A   1      49.806  27.034  26.320  1.00  0.00    -0.014 A 
ATOM     77  C   UNL A   1      50.788  26.582  27.218  1.00  0.00     0.010 A 
ATOM     78  C   UNL A   1      50.093  27.055  24.943  1.00  0.00     0.010 A 
ATOM     79  C   UNL A   1      52.039  26.173  26.746  1.00  0.00     0.020 A 
ATOM     80  C   UNL A   1      51.331  26.621  24.465  1.00  0.00     0.020 A 
ATOM     81  C   UNL A   1      52.301  26.190  25.372  1.00  0.00     0.054 A 
BRANCH  81  82
ATOM     82  S   UNL A   1      53.906  25.588  24.780  1.00  0.00     0.124 S 
ATOM     83  O   UNL A   1      53.683  24.145  24.711  1.00  0.00    -0.237 OA
ATOM     84  O   UNL A   1      54.045  26.265  23.493  1.00  0.00    -0.237 OA
ATOM     85  O   UNL A   1      54.843  26.025  25.812  1.00  0.00    -0.744 OA
ENDBRANCH  81  82
ENDBRANCH  55  76
ENDBRANCH  29  30
ENDBRANCH  22  24
ENDBRANCH  21  22
ENDBRANCH  20  21
ENDBRANCH   1  20
TORSDOF 17
ENDMDL
MODEL 2
REMARK VINA RESULT:     -10.0      6.789     13.079
REMARK SMILES O=C1NC[C@@H](CSc2ccnc(C(=O)OCCOC(=O)c3ccc(-c4c5nc(c(-c6ccc(S(=O)(=O)[O-])cc6)c6ccc([nH]6)c(-c6ccc(S(=O)(=O)[O-])cc6)c6nc(c(-c7ccc(S(=O)(=O)[O-])cc7)c7ccc4[nH]7)C=C6)C=C5)cc3)c2)O1
REMARK SMILES IDX 16 1 15 2 13 3 14 4 12 5 8 6 9 7 81 8 10 9 11 10 7 11 6 12
REMARK SMILES IDX 5 13 1 14 2 15 3 16 82 17 4 18 17 20 18 21 19 22 20 23 21 24
REMARK SMILES IDX 22 25 80 26 23 27 79 28 24 29 25 30 26 31 73 32 27 33 78 34
REMARK SMILES IDX 72 35 74 36 28 37 77 38 71 39 70 40 29 42 59 43 40 44 58 45
REMARK SMILES IDX 41 46 44 47 57 48 75 49 42 50 43 51 56 53 76 54 45 55 30 56
REMARK SMILES IDX 31 57 39 58 32 59 38 60 33 61 34 62 35 63 36 64 37 65 60 66
REMARK SMILES IDX 61 67 69 68 62 69 68 70 63 71 64 72 65 73 66 74 67 75 46 76
REMARK SMILES IDX 47 77 55 78 48 79 54 80 49 81 50 82 51 83 52 84 53 85
REMARK H PARENT 3 19 74 41 44 52
REMARK Flexibility Score: inf
ROOT
ATOM      1  C   UNL A   1      41.452  22.780  27.217  1.00  0.00     0.275 C 
ENDROOT
BRANCH   1   2
ATOM      2  O   UNL A   1      40.011  22.743  27.265  1.00  0.00    -0.457 OA
BRANCH   2   3
ATOM      3  C   UNL A   1      39.443  21.925  26.338  1.00  0.00     0.357 C 
ATOM      4  O   UNL A   1      39.961  20.912  25.891  1.00  0.00    -0.244 OA
BRANCH   3   5
ATOM      5  C   UNL A   1      38.057  22.359  25.966  1.00  0.00     0.149 A 
ATOM      6  C   UNL A   1      35.720  22.039  25.603  1.00  0.00     0.011 A 
ATOM      7  C   UNL A   1      35.589  23.422  25.504  1.00  0.00     0.035 A 
ATOM      8  C   UNL A   1      36.980  21.488  25.852  1.00  0.00     0.051 A 
ATOM      9  C   UNL A   1      36.717  24.207  25.567  1.00  0.00     0.113 A 
ATOM     10  N   UNL A   1      37.935  23.705  25.808  1.00  0.00    -0.249 NA
BRANCH   6  11
ATOM     11  S   UNL A   1      34.254  21.027  25.607  1.00  0.00    -0.122 SA
BRANCH  11  12
ATOM     12  C   UNL A   1      34.741  19.577  24.582  1.00  0.00     0.122 C 
BRANCH  12  13
ATOM     13  C   UNL A   1      33.811  18.354  24.491  1.00  0.00     0.208 C 
ATOM     14  O   UNL A   1      34.563  15.096  25.367  1.00  0.00    -0.225 OA
ATOM     15  C   UNL A   1      34.122  16.223  25.244  1.00  0.00     0.407 C 
ATOM     16  N   UNL A   1      33.183  16.790  26.055  1.00  0.00    -0.318 N 
ATOM     17  O   UNL A   1      34.524  17.121  24.299  1.00  0.00    -0.443 OA
ATOM     18  C   UNL A   1      32.901  18.131  25.684  1.00  0.00     0.165 C 
ATOM     19  H   UNL A   1      32.753  16.324  26.808  1.00  0.00     0.167 HD
ENDBRANCH  12  13
ENDBRANCH  11  12
ENDBRANCH   6  11
ENDBRANCH   3   5
ENDBRANCH   2   3
ENDBRANCH   1   2
BRANCH   1  20
ATOM     20  C   UNL A   1      41.967  23.794  26.189  1.00  0.00     0.275 C 
BRANCH  20  21
ATOM     21  O   UNL A   1      41.047  24.876  25.950  1.00  0.00    -0.458 OA
BRANCH  21  22
ATOM     22  C   UNL A   1      41.608  26.107  25.884  1.00  0.00     0.338 C 
ATOM     23  O   UNL A   1      42.299  26.552  24.982  1.00  0.00    -0.246 OA
BRANCH  22  24
ATOM     24  C   UNL A   1      41.216  26.906  27.057  1.00  0.00     0.060 A 
ATOM     25  C   UNL A   1      41.881  28.108  27.294  1.00  0.00     0.016 A 
ATOM     26  C   UNL A   1      40.290  26.419  27.979  1.00  0.00     0.016 A 
ATOM     27  C   UNL A   1      41.658  28.818  28.472  1.00  0.00     0.010 A 
ATOM     28  C   UNL A   1      40.044  27.147  29.149  1.00  0.00     0.010 A 
ATOM     29  C   UNL A   1      40.741  28.341  29.416  1.00  0.00    -0.014 A 
BRANCH  29  30
ATOM     30  C   UNL A   1      40.538  29.052  30.704  1.00  0.00     0.031 A 
ATOM     31  C   UNL A   1      39.465  30.101  30.812  1.00  0.00     0.074 A 
ATOM     32  C   UNL A   1      41.319  28.775  31.766  1.00  0.00     0.049 A 
ATOM     33  N   UNL A   1      39.242  30.963  31.771  1.00  0.00    -0.248 NA
ATOM     34  C   UNL A   1      38.523  30.198  29.686  1.00  0.00     0.031 C 
ATOM     35  C   UNL A   1      42.346  27.733  31.815  1.00  0.00     0.029 A 
ATOM     36  N   UNL A   1      41.378  29.358  33.008  1.00  0.00    -0.354 N 
ATOM     37  C   UNL A   1      38.163  31.731  31.346  1.00  0.00     0.074 A 
ATOM     38  C   UNL A   1      37.785  31.241  30.039  1.00  0.00     0.031 C 
ATOM     39  C   UNL A   1      42.934  27.753  33.022  1.00  0.00     0.029 A 
ATOM     40  C   UNL A   1      42.378  28.852  33.805  1.00  0.00     0.049 A 
ATOM     41  H   UNL A   1      40.764  30.071  33.300  1.00  0.00     0.167 HD
ATOM     42  C   UNL A   1      37.552  32.756  31.988  1.00  0.00     0.031 A 
ATOM     43  C   UNL A   1      42.830  29.256  35.009  1.00  0.00     0.031 A 
ATOM     44  C   UNL A   1      37.936  33.231  33.292  1.00  0.00     0.049 A 
ATOM     45  C   UNL A   1      42.187  30.446  35.669  1.00  0.00     0.074 A 
ATOM     46  C   UNL A   1      37.382  34.262  34.031  1.00  0.00     0.029 A 
ATOM     47  N   UNL A   1      38.970  32.704  34.053  1.00  0.00    -0.354 N 
ATOM     48  N   UNL A   1      41.189  31.184  35.244  1.00  0.00    -0.248 NA
ATOM     49  C   UNL A   1      42.730  30.858  36.970  1.00  0.00     0.031 C 
ATOM     50  C   UNL A   1      38.115  34.393  35.214  1.00  0.00     0.029 A 
ATOM     51  C   UNL A   1      39.081  33.399  35.245  1.00  0.00     0.049 A 
ATOM     52  H   UNL A   1      39.541  31.948  33.785  1.00  0.00     0.167 HD
ATOM     53  C   UNL A   1      40.961  32.124  36.243  1.00  0.00     0.074 A 
ATOM     54  C   UNL A   1      41.923  31.861  37.293  1.00  0.00     0.031 C 
ATOM     55  C   UNL A   1      40.034  33.112  36.288  1.00  0.00     0.031 A 
BRANCH  42  56
ATOM     56  C   UNL A   1      36.435  33.466  31.267  1.00  0.00    -0.014 A 
ATOM     57  C   UNL A   1      35.215  33.754  31.903  1.00  0.00     0.010 A 
ATOM     58  C   UNL A   1      36.623  33.879  29.934  1.00  0.00     0.010 A 
ATOM     59  C   UNL A   1      34.188  34.399  31.206  1.00  0.00     0.020 A 
ATOM     60  C   UNL A   1      35.611  34.551  29.244  1.00  0.00     0.020 A 
ATOM     61  C   UNL A   1      34.391  34.790  29.879  1.00  0.00     0.054 A 
BRANCH  61  62
ATOM     62  S   UNL A   1      33.043  35.628  29.002  1.00  0.00     0.124 S 
ATOM     63  O   UNL A   1      32.425  34.524  28.273  1.00  0.00    -0.237 OA
ATOM     64  O   UNL A   1      32.247  36.182  30.094  1.00  0.00    -0.237 OA
ATOM     65  O   UNL A   1      33.729  36.615  28.171  1.00  0.00    -0.744 OA
ENDBRANCH  61  62
ENDBRANCH  42  56
BRANCH  43  66
ATOM     66  C   UNL A   1      43.975  28.549  35.648  1.00  0.00    -0.014 A 
ATOM     67  C   UNL A   1      45.297  28.950  35.392  1.00  0.00     0.010 A 
ATOM     68  C   UNL A   1      43.747  27.476  36.530  1.00  0.00     0.010 A 
ATOM     69  C   UNL A   1      46.369  28.283  35.994  1.00  0.00     0.020 A 
ATOM     70  C   UNL A   1      44.813  26.826  37.158  1.00  0.00     0.020 A 
ATOM     71  C   UNL A   1      46.119  27.227  36.875  1.00  0.00     0.054 A 
BRANCH  71  72
ATOM     72  S   UNL A   1      47.525  26.409  37.680  1.00  0.00     0.124 S 
ATOM     73  O   UNL A   1      47.729  25.244  36.824  1.00  0.00    -0.237 OA
ATOM     74  O   UNL A   1      48.565  27.432  37.614  1.00  0.00    -0.237 OA
ATOM     75  O   UNL A   1      47.029  26.121  39.024  1.00  0.00    -0.744 OA
ENDBRANCH  71  72
ENDBRANCH  43  66
BRANCH  55  76
ATOM     76  C   UNL A   1      39.959  33.945  37.541  1.00  0.00    -0.014 A 
ATOM     77  C   UNL A   1      40.711  35.123  37.689  1.00  0.00     0.010 A 
ATOM     78  C   UNL A   1      39.053  33.578  38.553  1.00  0.00     0.010 A 
ATOM     79  C   UNL A   1      40.570  35.909  38.836  1.00  0.00     0.020 A 
ATOM     80  C   UNL A   1      38.887  34.376  39.686  1.00  0.00     0.020 A 
ATOM     81  C   UNL A   1      39.654  35.534  39.825  1.00  0.00     0.054 A 
BRANCH  81  82
ATOM     82  S   UNL A   1      39.437  36.609  41.270  1.00  0.00     0.124 S 
ATOM     83  O   UNL A   1      38.871  37.814  40.670  1.00  0.00    -0.237 OA
ATOM     84  O   UNL A   1      38.525  35.835  42.109  1.00  0.00    -0.237 OA
ATOM     85  O   UNL A   1      40.791  36.753  41.801  1.00  0.00    -0.744 OA
ENDBRANCH  81  82
ENDBRANCH  55  76
ENDBRANCH  29  30
ENDBRANCH  22  24
ENDBRANCH  21  22
ENDBRANCH  20  21
ENDBRANCH   1  20
TORSDOF 17
ENDMDL
MODEL 3
REMARK VINA RESULT:      -9.9      6.172     13.719
REMARK SMILES O=C1NC[C@@H](CSc2ccnc(C(=O)OCCOC(=O)c3ccc(-c4c5nc(c(-c6ccc(S(=O)(=O)[O-])cc6)c6ccc([nH]6)c(-c6ccc(S(=O)(=O)[O-])cc6)c6nc(c(-c7ccc(S(=O)(=O)[O-])cc7)c7ccc4[nH]7)C=C6)C=C5)cc3)c2)O1
REMARK SMILES IDX 16 1 15 2 13 3 14 4 12 5 8 6 9 7 81 8 10 9 11 10 7 11 6 12
REMARK SMILES IDX 5 13 1 14 2 15 3 16 82 17 4 18 17 20 18 21 19 22 20 23 21 24
REMARK SMILES IDX 22 25 80 26 23 27 79 28 24 29 25 30 26 31 73 32 27 33 78 34
REMARK SMILES IDX 72 35 74 36 28 37 77 38 71 39 70 40 29 42 59 43 40 44 58 45
REMARK SMILES IDX 41 46 44 47 57 48 75 49 42 50 43 51 56 53 76 54 45 55 30 56
REMARK SMILES IDX 31 57 39 58 32 59 38 60 33 61 34 62 35 63 36 64 37 65 60 66
REMARK SMILES IDX 61 67 69 68 62 69 68 70 63 71 64 72 65 73 66 74 67 75 46 76
REMARK SMILES IDX 47 77 55 78 48 79 54 80 49 81 50 82 51 83 52 84 53 85
REMARK H PARENT 3 19 74 41 44 52
REMARK Flexibility Score: inf
ROOT
ATOM      1  C   UNL A   1      44.084  24.649  25.234  1.00  0.00     0.275 C 
ENDROOT
BRANCH   1   2
ATOM      2  O   UNL A   1      44.121  23.575  24.273  1.00  0.00    -0.457 OA
BRANCH   2   3
ATOM      3  C   UNL A   1      45.326  22.953  24.177  1.00  0.00     0.357 C 
ATOM      4  O   UNL A   1      46.353  23.481  23.774  1.00  0.00    -0.244 OA
BRANCH   3   5
ATOM      5  C   UNL A   1      45.287  21.547  24.694  1.00  0.00     0.149 A 
ATOM      6  C   UNL A   1      44.213  19.569  25.490  1.00  0.00     0.011 A 
ATOM      7  C   UNL A   1      45.434  18.910  25.373  1.00  0.00     0.035 A 
ATOM      8  C   UNL A   1      44.127  20.918  25.132  1.00  0.00     0.051 A 
ATOM      9  C   UNL A   1      46.546  19.625  24.992  1.00  0.00     0.113 A 
ATOM     10  N   UNL A   1      46.491  20.916  24.641  1.00  0.00    -0.249 NA
BRANCH   6  11
ATOM     11  S   UNL A   1      42.756  18.629  25.901  1.00  0.00    -0.122 SA
BRANCH  11  12
ATOM     12  C   UNL A   1      42.073  19.529  27.355  1.00  0.00     0.122 C 
BRANCH  12  13
ATOM     13  C   UNL A   1      40.718  20.250  27.244  1.00  0.00     0.208 C 
ATOM     14  O   UNL A   1      40.091  23.604  27.791  1.00  0.00    -0.225 OA
ATOM     15  C   UNL A   1      40.233  22.475  27.360  1.00  0.00     0.407 C 
ATOM     16  N   UNL A   1      40.065  22.108  26.058  1.00  0.00    -0.318 N 
ATOM     17  O   UNL A   1      40.622  21.399  28.102  1.00  0.00    -0.443 OA
ATOM     18  C   UNL A   1      40.341  20.730  25.856  1.00  0.00     0.165 C 
ATOM     19  H   UNL A   1      39.787  22.725  25.343  1.00  0.00     0.167 HD
ENDBRANCH  12  13
ENDBRANCH  11  12
ENDBRANCH   6  11
ENDBRANCH   3   5
ENDBRANCH   2   3
ENDBRANCH   1   2
BRANCH   1  20
ATOM     20  C   UNL A   1      42.700  24.799  25.876  1.00  0.00     0.275 C 
BRANCH  20  21
ATOM     21  O   UNL A   1      41.862  25.756  25.199  1.00  0.00    -0.458 OA
BRANCH  21  22
ATOM     22  C   UNL A   1      42.287  27.041  25.262  1.00  0.00     0.338 C 
ATOM     23  O   UNL A   1      42.951  27.637  24.430  1.00  0.00    -0.246 OA
BRANCH  22  24
ATOM     24  C   UNL A   1      41.776  27.684  26.484  1.00  0.00     0.060 A 
ATOM     25  C   UNL A   1      42.261  28.947  26.822  1.00  0.00     0.016 A 
ATOM     26  C   UNL A   1      40.922  27.002  27.350  1.00  0.00     0.016 A 
ATOM     27  C   UNL A   1      41.930  29.526  28.046  1.00  0.00     0.010 A 
ATOM     28  C   UNL A   1      40.565  27.597  28.565  1.00  0.00     0.010 A 
ATOM     29  C   UNL A   1      41.082  28.853  28.934  1.00  0.00    -0.014 A 
BRANCH  29  30
ATOM     30  C   UNL A   1      40.771  29.428  30.267  1.00  0.00     0.031 A 
ATOM     31  C   UNL A   1      39.636  30.406  30.408  1.00  0.00     0.074 A 
ATOM     32  C   UNL A   1      41.507  29.091  31.344  1.00  0.00     0.049 A 
ATOM     33  N   UNL A   1      39.313  31.160  31.426  1.00  0.00    -0.248 NA
ATOM     34  C   UNL A   1      38.752  30.561  29.241  1.00  0.00     0.031 C 
ATOM     35  C   UNL A   1      42.587  28.103  31.358  1.00  0.00     0.029 A 
ATOM     36  N   UNL A   1      41.466  29.557  32.636  1.00  0.00    -0.354 N 
ATOM     37  C   UNL A   1      38.218  31.910  31.010  1.00  0.00     0.074 A 
ATOM     38  C   UNL A   1      37.938  31.526  29.644  1.00  0.00     0.031 C 
ATOM     39  C   UNL A   1      43.107  28.039  32.594  1.00  0.00     0.029 A 
ATOM     40  C   UNL A   1      42.448  29.029  33.440  1.00  0.00     0.049 A 
ATOM     41  H   UNL A   1      40.797  30.207  32.954  1.00  0.00     0.167 HD
ATOM     42  C   UNL A   1      37.515  32.836  31.706  1.00  0.00     0.031 A 
ATOM     43  C   UNL A   1      42.811  29.340  34.701  1.00  0.00     0.031 A 
ATOM     44  C   UNL A   1      37.801  33.205  33.069  1.00  0.00     0.049 A 
ATOM     45  C   UNL A   1      42.066  30.427  35.428  1.00  0.00     0.074 A 
ATOM     46  C   UNL A   1      37.151  34.132  33.864  1.00  0.00     0.029 A 
ATOM     47  N   UNL A   1      38.820  32.661  33.837  1.00  0.00    -0.354 N 
ATOM     48  N   UNL A   1      41.053  31.151  35.014  1.00  0.00    -0.248 NA
ATOM     49  C   UNL A   1      42.515  30.742  36.791  1.00  0.00     0.031 C 
ATOM     50  C   UNL A   1      37.810  34.188  35.096  1.00  0.00     0.029 A 
ATOM     51  C   UNL A   1      38.827  33.246  35.093  1.00  0.00     0.049 A 
ATOM     52  H   UNL A   1      39.446  31.964  33.536  1.00  0.00     0.167 HD
ATOM     53  C   UNL A   1      40.719  31.979  36.080  1.00  0.00     0.074 A 
ATOM     54  C   UNL A   1      41.636  31.667  37.156  1.00  0.00     0.031 C 
ATOM     55  C   UNL A   1      39.737  32.910  36.160  1.00  0.00     0.031 A 
BRANCH  42  56
ATOM     56  C   UNL A   1      36.401  33.553  30.988  1.00  0.00    -0.014 A 
ATOM     57  C   UNL A   1      36.601  34.153  29.732  1.00  0.00     0.010 A 
ATOM     58  C   UNL A   1      35.120  33.600  31.569  1.00  0.00     0.010 A 
ATOM     59  C   UNL A   1      35.554  34.827  29.094  1.00  0.00     0.020 A 
ATOM     60  C   UNL A   1      34.063  34.246  30.921  1.00  0.00     0.020 A 
ATOM     61  C   UNL A   1      34.292  34.873  29.695  1.00  0.00     0.054 A 
BRANCH  61  62
ATOM     62  S   UNL A   1      32.954  35.750  28.843  1.00  0.00     0.124 S 
ATOM     63  O   UNL A   1      32.339  34.677  28.065  1.00  0.00    -0.237 OA
ATOM     64  O   UNL A   1      32.150  36.261  29.950  1.00  0.00    -0.237 OA
ATOM     65  O   UNL A   1      33.648  36.768  28.058  1.00  0.00    -0.744 OA
ENDBRANCH  61  62
ENDBRANCH  42  56
BRANCH  43  66
ATOM     66  C   UNL A   1      43.957  28.635  35.340  1.00  0.00    -0.014 A 
ATOM     67  C   UNL A   1      43.748  27.473  36.101  1.00  0.00     0.010 A 
ATOM     68  C   UNL A   1      45.269  29.118  35.178  1.00  0.00     0.010 A 
ATOM     69  C   UNL A   1      44.828  26.815  36.700  1.00  0.00     0.020 A 
ATOM     70  C   UNL A   1      46.354  28.447  35.749  1.00  0.00     0.020 A 
ATOM     71  C   UNL A   1      46.124  27.306  36.517  1.00  0.00     0.054 A 
BRANCH  71  72
ATOM     72  S   UNL A   1      47.512  26.407  37.265  1.00  0.00     0.124 S 
ATOM     73  O   UNL A   1      48.300  26.037  36.094  1.00  0.00    -0.237 OA
ATOM     74  O   UNL A   1      48.110  27.418  38.135  1.00  0.00    -0.237 OA
ATOM     75  O   UNL A   1      46.866  25.298  37.963  1.00  0.00    -0.744 OA
ENDBRANCH  71  72
ENDBRANCH  43  66
BRANCH  55  76
ATOM     76  C   UNL A   1      39.547  33.616  37.477  1.00  0.00    -0.014 A 
ATOM     77  C   UNL A   1      38.785  33.051  38.513  1.00  0.00     0.010 A 
ATOM     78  C   UNL A   1      40.218  34.832  37.704  1.00  0.00     0.010 A 
ATOM     79  C   UNL A   1      38.684  33.699  39.747  1.00  0.00     0.020 A 
ATOM     80  C   UNL A   1      40.144  35.468  38.944  1.00  0.00     0.020 A 
ATOM     81  C   UNL A   1      39.368  34.901  39.957  1.00  0.00     0.054 A 
BRANCH  81  82
ATOM     82  S   UNL A   1      39.278  35.686  41.590  1.00  0.00     0.124 S 
ATOM     83  O   UNL A   1      39.351  37.105  41.251  1.00  0.00    -0.237 OA
ATOM     84  O   UNL A   1      37.987  35.225  42.095  1.00  0.00    -0.237 OA
ATOM     85  O   UNL A   1      40.441  35.153  42.296  1.00  0.00    -0.744 OA
ENDBRANCH  81  82
ENDBRANCH  55  76
ENDBRANCH  29  30
ENDBRANCH  22  24
ENDBRANCH  21  22
ENDBRANCH  20  21
ENDBRANCH   1  20
TORSDOF 17
ENDMDL
