MODEL 1
REMARK VINA RESULT:     -15.3      0.000      0.000
REMARK SMILES O=C(OCCOC(=O)c1nccnc1C(=O)Nc1ccc2c(c1)OCO2)c1ccc(-c2c3nc(c(-c4ccc(S(=O)(=O)[O-])cc4)c4ccc([nH]4)c(-c4ccc(S(=O)(=O)[O-])cc4)c4nc(c(-c5ccc(S(=O)(=O)[O-])cc5)c5ccc2[nH]5)C=C4)C=C3)cc1
REMARK SMILES IDX 4 1 3 2 2 3 1 4 27 5 28 6 86 7 29 8 85 9 30 10 31 11 32 12
REMARK SMILES IDX 79 13 33 14 84 15 78 16 80 17 34 18 83 19 77 20 76 21 35 23
REMARK SMILES IDX 65 24 46 25 64 26 47 27 50 28 63 29 81 30 48 31 49 32 62 34
REMARK SMILES IDX 82 35 51 36 36 37 37 38 45 39 38 40 44 41 39 42 40 43 41 44
REMARK SMILES IDX 42 45 43 46 66 47 67 48 75 49 68 50 74 51 69 52 70 53 71 54
REMARK SMILES IDX 72 55 73 56 52 57 53 58 61 59 54 60 60 61 55 62 56 63 57 64
REMARK SMILES IDX 58 65 59 66 5 67 6 68 7 69 8 70 9 71 10 72 14 73 11 74 13 75
REMARK SMILES IDX 12 76 15 77 16 78 17 79 18 81 19 82 23 83 20 84 22 85 21 86
REMARK SMILES IDX 24 87 26 88 25 89
REMARK H PARENT 80 22 50 33 17 80
REMARK Flexibility Score: inf
ROOT
ATOM      1  C   UNL A   1      34.184  32.501  28.236  1.00  0.00     0.275 C 
ENDROOT
BRANCH   1   2
ATOM      2  O   UNL A   1      34.147  32.420  29.990  1.00  0.00    -0.458 OA
BRANCH   2   3
ATOM      3  C   UNL A   1      35.470  31.923  30.961  1.00  0.00     0.338 C 
ATOM      4  O   UNL A   1      35.091  32.283  32.095  1.00  0.00    -0.246 OA
BRANCH   3   5
ATOM      5  C   UNL A   1      37.134  30.862  30.348  1.00  0.00     0.060 A 
ATOM      6  C   UNL A   1      37.776  30.718  29.020  1.00  0.00     0.016 A 
ATOM      7  C   UNL A   1      38.127  30.143  31.218  1.00  0.00     0.016 A 
ATOM      8  C   UNL A   1      39.032  30.139  28.664  1.00  0.00     0.010 A 
ATOM      9  C   UNL A   1      39.424  29.641  30.901  1.00  0.00     0.010 A 
ATOM     10  C   UNL A   1      39.905  29.665  29.614  1.00  0.00    -0.014 A 
BRANCH  10  11
ATOM     11  C   UNL A   1      41.284  29.239  29.284  1.00  0.00     0.031 A 
ATOM     12  C   UNL A   1      42.420  30.218  29.323  1.00  0.00     0.074 A 
ATOM     13  C   UNL A   1      41.506  27.973  28.879  1.00  0.00     0.049 A 
ATOM     14  N   UNL A   1      43.646  30.076  28.889  1.00  0.00    -0.248 NA
ATOM     15  C   UNL A   1      42.134  31.538  29.905  1.00  0.00     0.031 C 
ATOM     16  C   UNL A   1      40.488  26.923  28.778  1.00  0.00     0.029 A 
ATOM     17  N   UNL A   1      42.659  27.356  28.464  1.00  0.00    -0.354 N 
ATOM     18  C   UNL A   1      44.257  31.309  29.077  1.00  0.00     0.074 A 
ATOM     19  C   UNL A   1      43.272  32.181  29.683  1.00  0.00     0.031 C 
ATOM     20  C   UNL A   1      41.066  25.790  28.354  1.00  0.00     0.029 A 
ATOM     21  C   UNL A   1      42.480  26.044  28.100  1.00  0.00     0.049 A 
ATOM     22  H   UNL A   1      43.532  27.811  28.431  1.00  0.00     0.167 HD
ATOM     23  C   UNL A   1      45.520  31.686  28.758  1.00  0.00     0.031 A 
ATOM     24  C   UNL A   1      43.345  25.144  27.594  1.00  0.00     0.031 A 
ATOM     25  C   UNL A   1      46.508  30.811  28.192  1.00  0.00     0.049 A 
ATOM     26  C   UNL A   1      44.764  25.550  27.343  1.00  0.00     0.074 A 
ATOM     27  C   UNL A   1      47.812  31.098  27.828  1.00  0.00     0.029 A 
ATOM     28  N   UNL A   1      46.305  29.465  27.925  1.00  0.00    -0.354 N 
ATOM     29  N   UNL A   1      45.315  26.730  27.495  1.00  0.00    -0.248 NA
ATOM     30  C   UNL A   1      45.679  24.510  26.853  1.00  0.00     0.031 C 
ATOM     31  C   UNL A   1      48.398  29.922  27.342  1.00  0.00     0.029 A 
ATOM     32  C   UNL A   1      47.463  28.902  27.418  1.00  0.00     0.049 A 
ATOM     33  H   UNL A   1      45.461  28.982  28.074  1.00  0.00     0.167 HD
ATOM     34  C   UNL A   1      46.640  26.580  27.112  1.00  0.00     0.074 A 
ATOM     35  C   UNL A   1      46.814  25.189  26.740  1.00  0.00     0.031 C 
ATOM     36  C   UNL A   1      47.619  27.515  27.061  1.00  0.00     0.031 A 
BRANCH  23  37
ATOM     37  C   UNL A   1      45.859  33.133  28.978  1.00  0.00    -0.014 A 
ATOM     38  C   UNL A   1      45.650  34.090  27.971  1.00  0.00     0.010 A 
ATOM     39  C   UNL A   1      46.452  33.525  30.192  1.00  0.00     0.010 A 
ATOM     40  C   UNL A   1      46.095  35.404  28.146  1.00  0.00     0.020 A 
ATOM     41  C   UNL A   1      46.883  34.841  30.377  1.00  0.00     0.020 A 
ATOM     42  C   UNL A   1      46.730  35.763  29.339  1.00  0.00     0.054 A 
BRANCH  42  43
ATOM     43  S   UNL A   1      47.367  37.451  29.534  1.00  0.00     0.124 S 
ATOM     44  O   UNL A   1      47.256  37.970  28.174  1.00  0.00    -0.237 OA
ATOM     45  O   UNL A   1      46.451  38.042  30.506  1.00  0.00    -0.237 OA
ATOM     46  O   UNL A   1      48.731  37.245  30.017  1.00  0.00    -0.744 OA
ENDBRANCH  42  43
ENDBRANCH  23  37
BRANCH  24  47
ATOM     47  C   UNL A   1      42.850  23.777  27.294  1.00  0.00    -0.014 A 
ATOM     48  C   UNL A   1      42.384  23.462  26.007  1.00  0.00     0.010 A 
ATOM     49  C   UNL A   1      42.982  22.754  28.250  1.00  0.00     0.010 A 
ATOM     50  C   UNL A   1      42.091  22.137  25.668  1.00  0.00     0.020 A 
ATOM     51  C   UNL A   1      42.703  21.428  27.911  1.00  0.00     0.020 A 
ATOM     52  C   UNL A   1      42.266  21.127  26.618  1.00  0.00     0.054 A 
BRANCH  52  53
ATOM     53  S   UNL A   1      42.043  19.393  26.126  1.00  0.00     0.124 S 
ATOM     54  O   UNL A   1      42.936  19.288  24.976  1.00  0.00    -0.237 OA
ATOM     55  O   UNL A   1      42.458  18.659  27.318  1.00  0.00    -0.237 OA
ATOM     56  O   UNL A   1      40.615  19.315  25.824  1.00  0.00    -0.744 OA
ENDBRANCH  52  53
ENDBRANCH  24  47
BRANCH  36  57
ATOM     57  C   UNL A   1      48.973  27.065  26.600  1.00  0.00    -0.014 A 
ATOM     58  C   UNL A   1      49.871  26.469  27.502  1.00  0.00     0.010 A 
ATOM     59  C   UNL A   1      49.323  27.176  25.244  1.00  0.00     0.010 A 
ATOM     60  C   UNL A   1      51.106  25.997  27.054  1.00  0.00     0.020 A 
ATOM     61  C   UNL A   1      50.555  26.700  24.792  1.00  0.00     0.020 A 
ATOM     62  C   UNL A   1      51.443  26.119  25.702  1.00  0.00     0.054 A 
BRANCH  62  63
ATOM     63  S   UNL A   1      53.026  25.449  25.120  1.00  0.00     0.124 S 
ATOM     64  O   UNL A   1      52.974  25.747  23.692  1.00  0.00    -0.237 OA
ATOM     65  O   UNL A   1      54.008  26.214  25.886  1.00  0.00    -0.237 OA
ATOM     66  O   UNL A   1      52.944  24.032  25.468  1.00  0.00    -0.744 OA
ENDBRANCH  62  63
ENDBRANCH  36  57
ENDBRANCH  10  11
ENDBRANCH   3   5
ENDBRANCH   2   3
ENDBRANCH   1   2
BRANCH   1  67
ATOM     67  C   UNL A   1      34.684  30.830  27.427  1.00  0.00     0.275 C 
BRANCH  67  68
ATOM     68  O   UNL A   1      33.157  30.020  26.286  1.00  0.00    -0.457 OA
BRANCH  68  69
ATOM     69  C   UNL A   1      32.865  28.866  24.989  1.00  0.00     0.359 C 
ATOM     70  O   UNL A   1      33.218  29.320  23.888  1.00  0.00    -0.244 OA
BRANCH  69  71
ATOM     71  C   UNL A   1      31.797  27.301  24.911  1.00  0.00     0.179 A 
ATOM     72  N   UNL A   1      31.013  27.244  26.011  1.00  0.00    -0.245 NA
ATOM     73  C   UNL A   1      31.720  26.034  23.788  1.00  0.00     0.161 A 
ATOM     74  C   UNL A   1      30.244  26.116  26.078  1.00  0.00     0.132 A 
ATOM     75  N   UNL A   1      30.904  24.976  23.970  1.00  0.00    -0.247 NA
ATOM     76  C   UNL A   1      30.193  25.063  25.129  1.00  0.00     0.132 A 
BRANCH  73  77
ATOM     77  C   UNL A   1      32.804  25.758  22.242  1.00  0.00     0.276 C 
ATOM     78  O   UNL A   1      33.108  26.667  21.466  1.00  0.00    -0.267 OA
ATOM     79  N   UNL A   1      33.181  24.131  21.680  1.00  0.00    -0.320 N 
ATOM     80  H   UNL A   1      33.414  24.021  20.729  1.00  0.00     0.170 HD
BRANCH  79  81
ATOM     81  C   UNL A   1      33.171  22.659  22.707  1.00  0.00     0.045 A 
ATOM     82  C   UNL A   1      34.338  22.561  24.002  1.00  0.00     0.030 A 
ATOM     83  C   UNL A   1      32.127  21.029  22.298  1.00  0.00     0.076 A 
ATOM     84  C   UNL A   1      34.503  21.037  24.835  1.00  0.00     0.053 A 
ATOM     85  C   UNL A   1      32.426  19.582  23.241  1.00  0.00     0.167 A 
ATOM     86  C   UNL A   1      33.575  19.647  24.442  1.00  0.00     0.165 A 
ATOM     87  O   UNL A   1      31.871  18.358  23.211  1.00  0.00    -0.454 OA
ATOM     88  O   UNL A   1      33.626  18.413  25.013  1.00  0.00    -0.454 OA
ATOM     89  C   UNL A   1      32.793  17.629  24.089  1.00  0.00     0.468 C 
ENDBRANCH  79  81
ENDBRANCH  73  77
ENDBRANCH  69  71
ENDBRANCH  68  69
ENDBRANCH  67  68
ENDBRANCH   1  67
TORSDOF 16
ENDMDL
MODEL 2
REMARK VINA RESULT:     -15.3      5.601     11.082
REMARK SMILES O=C(OCCOC(=O)c1nccnc1C(=O)Nc1ccc2c(c1)OCO2)c1ccc(-c2c3nc(c(-c4ccc(S(=O)(=O)[O-])cc4)c4ccc([nH]4)c(-c4ccc(S(=O)(=O)[O-])cc4)c4nc(c(-c5ccc(S(=O)(=O)[O-])cc5)c5ccc2[nH]5)C=C4)C=C3)cc1
REMARK SMILES IDX 4 1 3 2 2 3 1 4 27 5 28 6 86 7 29 8 85 9 30 10 31 11 32 12
REMARK SMILES IDX 79 13 33 14 84 15 78 16 80 17 34 18 83 19 77 20 76 21 35 23
REMARK SMILES IDX 65 24 46 25 64 26 47 27 50 28 63 29 81 30 48 31 49 32 62 34
REMARK SMILES IDX 82 35 51 36 36 37 37 38 45 39 38 40 44 41 39 42 40 43 41 44
REMARK SMILES IDX 42 45 43 46 66 47 67 48 75 49 68 50 74 51 69 52 70 53 71 54
REMARK SMILES IDX 72 55 73 56 52 57 53 58 61 59 54 60 60 61 55 62 56 63 57 64
REMARK SMILES IDX 58 65 59 66 5 67 6 68 7 69 8 70 9 71 10 72 14 73 11 74 13 75
REMARK SMILES IDX 12 76 15 77 16 78 17 79 18 81 19 82 23 83 20 84 22 85 21 86
REMARK SMILES IDX 24 87 26 88 25 89
REMARK H PARENT 80 22 50 33 17 80
REMARK Flexibility Score: inf
ROOT
ATOM      1  C   UNL A   1      40.383  21.108  26.340  1.00  0.00     0.275 C 
ENDROOT
BRANCH   1   2
ATOM      2  O   UNL A   1      41.799  21.588  25.419  1.00  0.00    -0.458 OA
BRANCH   2   3
ATOM      3  C   UNL A   1      42.507  23.149  25.482  1.00  0.00     0.338 C 
ATOM      4  O   UNL A   1      43.346  23.075  24.561  1.00  0.00    -0.246 OA
BRANCH   3   5
ATOM      5  C   UNL A   1      41.935  24.727  26.688  1.00  0.00     0.060 A 
ATOM      6  C   UNL A   1      40.981  24.807  27.820  1.00  0.00     0.016 A 
ATOM      7  C   UNL A   1      42.538  26.103  26.735  1.00  0.00     0.016 A 
ATOM      8  C   UNL A   1      40.752  25.859  28.756  1.00  0.00     0.010 A 
ATOM      9  C   UNL A   1      42.393  27.132  27.712  1.00  0.00     0.010 A 
ATOM     10  C   UNL A   1      41.513  27.003  28.760  1.00  0.00    -0.014 A 
BRANCH  10  11
ATOM     11  C   UNL A   1      41.421  28.017  29.835  1.00  0.00     0.031 A 
ATOM     12  C   UNL A   1      42.356  27.979  31.008  1.00  0.00     0.074 A 
ATOM     13  C   UNL A   1      40.441  28.942  29.789  1.00  0.00     0.049 A 
ATOM     14  N   UNL A   1      42.305  28.659  32.125  1.00  0.00    -0.248 NA
ATOM     15  C   UNL A   1      43.481  27.036  30.925  1.00  0.00     0.031 C 
ATOM     16  C   UNL A   1      39.454  29.080  28.715  1.00  0.00     0.029 A 
ATOM     17  N   UNL A   1      40.108  29.934  30.676  1.00  0.00    -0.354 N 
ATOM     18  C   UNL A   1      43.345  28.175  32.908  1.00  0.00     0.074 A 
ATOM     19  C   UNL A   1      44.022  27.158  32.129  1.00  0.00     0.031 C 
ATOM     20  C   UNL A   1      38.643  30.111  28.994  1.00  0.00     0.029 A 
ATOM     21  C   UNL A   1      39.015  30.671  30.290  1.00  0.00     0.049 A 
ATOM     22  H   UNL A   1      40.605  30.102  31.510  1.00  0.00     0.167 HD
ATOM     23  C   UNL A   1      43.695  28.534  34.167  1.00  0.00     0.031 A 
ATOM     24  C   UNL A   1      38.362  31.671  30.912  1.00  0.00     0.031 A 
ATOM     25  C   UNL A   1      43.047  29.568  34.925  1.00  0.00     0.049 A 
ATOM     26  C   UNL A   1      38.826  32.124  32.262  1.00  0.00     0.074 A 
ATOM     27  C   UNL A   1      43.323  30.002  36.210  1.00  0.00     0.029 A 
ATOM     28  N   UNL A   1      42.001  30.348  34.455  1.00  0.00    -0.354 N 
ATOM     29  N   UNL A   1      39.791  31.631  33.001  1.00  0.00    -0.248 NA
ATOM     30  C   UNL A   1      38.118  33.261  32.864  1.00  0.00     0.031 C 
ATOM     31  C   UNL A   1      42.442  31.047  36.515  1.00  0.00     0.029 A 
ATOM     32  C   UNL A   1      41.629  31.273  35.415  1.00  0.00     0.049 A 
ATOM     33  H   UNL A   1      41.584  30.257  33.568  1.00  0.00     0.167 HD
ATOM     34  C   UNL A   1      39.803  32.392  34.161  1.00  0.00     0.074 A 
ATOM     35  C   UNL A   1      38.762  33.392  34.018  1.00  0.00     0.031 C 
ATOM     36  C   UNL A   1      40.597  32.264  35.250  1.00  0.00     0.031 A 
BRANCH  23  37
ATOM     37  C   UNL A   1      44.804  27.744  34.801  1.00  0.00    -0.014 A 
ATOM     38  C   UNL A   1      44.537  26.579  35.541  1.00  0.00     0.010 A 
ATOM     39  C   UNL A   1      46.127  28.212  34.704  1.00  0.00     0.010 A 
ATOM     40  C   UNL A   1      45.566  25.934  36.234  1.00  0.00     0.020 A 
ATOM     41  C   UNL A   1      47.161  27.561  35.381  1.00  0.00     0.020 A 
ATOM     42  C   UNL A   1      46.867  26.445  36.168  1.00  0.00     0.054 A 
BRANCH  42  43
ATOM     43  S   UNL A   1      48.186  25.645  37.123  1.00  0.00     0.124 S 
ATOM     44  O   UNL A   1      49.012  26.788  37.503  1.00  0.00    -0.237 OA
ATOM     45  O   UNL A   1      47.462  25.003  38.218  1.00  0.00    -0.237 OA
ATOM     46  O   UNL A   1      48.792  24.726  36.161  1.00  0.00    -0.744 OA
ENDBRANCH  42  43
ENDBRANCH  23  37
BRANCH  24  47
ATOM     47  C   UNL A   1      37.192  32.284  30.232  1.00  0.00    -0.014 A 
ATOM     48  C   UNL A   1      35.896  31.808  30.493  1.00  0.00     0.010 A 
ATOM     49  C   UNL A   1      37.360  33.434  29.441  1.00  0.00     0.010 A 
ATOM     50  C   UNL A   1      34.782  32.496  30.003  1.00  0.00     0.020 A 
ATOM     51  C   UNL A   1      36.248  34.131  28.962  1.00  0.00     0.020 A 
ATOM     52  C   UNL A   1      34.965  33.661  29.252  1.00  0.00     0.054 A 
BRANCH  52  53
ATOM     53  S   UNL A   1      33.516  34.638  28.758  1.00  0.00     0.124 S 
ATOM     54  O   UNL A   1      34.133  35.858  28.249  1.00  0.00    -0.237 OA
ATOM     55  O   UNL A   1      32.874  33.789  27.759  1.00  0.00    -0.237 OA
ATOM     56  O   UNL A   1      32.772  34.782  30.008  1.00  0.00    -0.744 OA
ENDBRANCH  52  53
ENDBRANCH  24  47
BRANCH  36  57
ATOM     57  C   UNL A   1      40.383  33.236  36.372  1.00  0.00    -0.014 A 
ATOM     58  C   UNL A   1      41.157  34.407  36.456  1.00  0.00     0.010 A 
ATOM     59  C   UNL A   1      39.359  33.012  37.307  1.00  0.00     0.010 A 
ATOM     60  C   UNL A   1      40.913  35.337  37.469  1.00  0.00     0.020 A 
ATOM     61  C   UNL A   1      39.110  33.944  38.316  1.00  0.00     0.020 A 
ATOM     62  C   UNL A   1      39.893  35.098  38.395  1.00  0.00     0.054 A 
BRANCH  62  63
ATOM     63  S   UNL A   1      39.546  36.343  39.669  1.00  0.00     0.124 S 
ATOM     64  O   UNL A   1      40.887  36.675  40.141  1.00  0.00    -0.237 OA
ATOM     65  O   UNL A   1      38.864  37.397  38.921  1.00  0.00    -0.237 OA
ATOM     66  O   UNL A   1      38.706  35.626  40.625  1.00  0.00    -0.744 OA
ENDBRANCH  62  63
ENDBRANCH  36  57
ENDBRANCH  10  11
ENDBRANCH   3   5
ENDBRANCH   2   3
ENDBRANCH   1   2
BRANCH   1  67
ATOM     67  C   UNL A   1      39.065  22.503  26.457  1.00  0.00     0.275 C 
BRANCH  67  68
ATOM     68  O   UNL A   1      37.412  22.128  25.268  1.00  0.00    -0.457 OA
BRANCH  68  69
ATOM     69  C   UNL A   1      36.301  22.922  24.156  1.00  0.00     0.359 C 
ATOM     70  O   UNL A   1      36.825  23.110  23.046  1.00  0.00    -0.244 OA
BRANCH  69  71
ATOM     71  C   UNL A   1      34.677  23.856  24.450  1.00  0.00     0.179 A 
ATOM     72  N   UNL A   1      34.671  24.349  25.708  1.00  0.00    -0.245 NA
ATOM     73  C   UNL A   1      33.315  24.101  23.471  1.00  0.00     0.161 A 
ATOM     74  C   UNL A   1      33.512  24.993  26.039  1.00  0.00     0.132 A 
ATOM     75  N   UNL A   1      32.233  24.767  23.920  1.00  0.00    -0.247 NA
ATOM     76  C   UNL A   1      32.379  25.187  25.207  1.00  0.00     0.132 A 
BRANCH  73  77
ATOM     77  C   UNL A   1      32.969  23.397  21.732  1.00  0.00     0.276 C 
ATOM     78  O   UNL A   1      33.028  24.082  20.708  1.00  0.00    -0.267 OA
ATOM     79  N   UNL A   1      32.253  21.799  21.528  1.00  0.00    -0.320 N 
ATOM     80  H   UNL A   1      31.770  21.621  20.689  1.00  0.00     0.170 HD
BRANCH  79  81
ATOM     81  C   UNL A   1      32.339  20.472  22.734  1.00  0.00     0.045 A 
ATOM     82  C   UNL A   1      32.488  20.909  24.418  1.00  0.00     0.030 A 
ATOM     83  C   UNL A   1      32.562  18.563  22.266  1.00  0.00     0.076 A 
ATOM     84  C   UNL A   1      32.827  19.636  25.562  1.00  0.00     0.053 A 
ATOM     85  C   UNL A   1      32.900  17.418  23.551  1.00  0.00     0.167 A 
ATOM     86  C   UNL A   1      33.015  17.991  25.108  1.00  0.00     0.165 A 
ATOM     87  O   UNL A   1      33.075  16.085  23.545  1.00  0.00    -0.454 OA
ATOM     88  O   UNL A   1      33.288  16.924  25.907  1.00  0.00    -0.454 OA
ATOM     89  C   UNL A   1      33.564  15.877  24.912  1.00  0.00     0.468 C 
ENDBRANCH  79  81
ENDBRANCH  73  77
ENDBRANCH  69  71
ENDBRANCH  68  69
ENDBRANCH  67  68
ENDBRANCH   1  67
TORSDOF 16
ENDMDL
MODEL 3
REMARK VINA RESULT:     -15.2      3.239      4.922
REMARK SMILES O=C(OCCOC(=O)c1nccnc1C(=O)Nc1ccc2c(c1)OCO2)c1ccc(-c2c3nc(c(-c4ccc(S(=O)(=O)[O-])cc4)c4ccc([nH]4)c(-c4ccc(S(=O)(=O)[O-])cc4)c4nc(c(-c5ccc(S(=O)(=O)[O-])cc5)c5ccc2[nH]5)C=C4)C=C3)cc1
REMARK SMILES IDX 4 1 3 2 2 3 1 4 27 5 28 6 86 7 29 8 85 9 30 10 31 11 32 12
REMARK SMILES IDX 79 13 33 14 84 15 78 16 80 17 34 18 83 19 77 20 76 21 35 23
REMARK SMILES IDX 65 24 46 25 64 26 47 27 50 28 63 29 81 30 48 31 49 32 62 34
REMARK SMILES IDX 82 35 51 36 36 37 37 38 45 39 38 40 44 41 39 42 40 43 41 44
REMARK SMILES IDX 42 45 43 46 66 47 67 48 75 49 68 50 74 51 69 52 70 53 71 54
REMARK SMILES IDX 72 55 73 56 52 57 53 58 61 59 54 60 60 61 55 62 56 63 57 64
REMARK SMILES IDX 58 65 59 66 5 67 6 68 7 69 8 70 9 71 10 72 14 73 11 74 13 75
REMARK SMILES IDX 12 76 15 77 16 78 17 79 18 81 19 82 23 83 20 84 22 85 21 86
REMARK SMILES IDX 24 87 26 88 25 89
REMARK H PARENT 80 22 50 33 17 80
REMARK Flexibility Score: inf
ROOT
ATOM      1  C   UNL A   1      32.197  27.492  25.857  1.00  0.00     0.275 C 
ENDROOT
BRANCH   1   2
ATOM      2  O   UNL A   1      32.232  28.735  27.098  1.00  0.00    -0.458 OA
BRANCH   2   3
ATOM      3  C   UNL A   1      33.388  29.999  27.164  1.00  0.00     0.338 C 
ATOM      4  O   UNL A   1      32.734  30.954  26.696  1.00  0.00    -0.246 OA
BRANCH   3   5
ATOM      5  C   UNL A   1      35.285  29.910  27.979  1.00  0.00     0.060 A 
ATOM      6  C   UNL A   1      35.757  29.559  29.340  1.00  0.00     0.016 A 
ATOM      7  C   UNL A   1      36.595  30.036  27.254  1.00  0.00     0.016 A 
ATOM      8  C   UNL A   1      37.079  29.317  29.820  1.00  0.00     0.010 A 
ATOM      9  C   UNL A   1      37.915  29.710  27.687  1.00  0.00     0.010 A 
ATOM     10  C   UNL A   1      38.165  29.313  28.979  1.00  0.00    -0.014 A 
BRANCH  10  11
ATOM     11  C   UNL A   1      39.510  28.878  29.418  1.00  0.00     0.031 A 
ATOM     12  C   UNL A   1      40.384  29.787  30.230  1.00  0.00     0.074 A 
ATOM     13  C   UNL A   1      39.978  27.676  29.023  1.00  0.00     0.049 A 
ATOM     14  N   UNL A   1      41.649  29.655  30.540  1.00  0.00    -0.248 NA
ATOM     15  C   UNL A   1      39.762  31.018  30.740  1.00  0.00     0.031 C 
ATOM     16  C   UNL A   1      39.240  26.701  28.216  1.00  0.00     0.029 A 
ATOM     17  N   UNL A   1      41.193  27.076  29.238  1.00  0.00    -0.354 N 
ATOM     18  C   UNL A   1      41.994  30.817  31.218  1.00  0.00     0.074 A 
ATOM     19  C   UNL A   1      40.799  31.634  31.290  1.00  0.00     0.031 C 
ATOM     20  C   UNL A   1      40.006  25.618  28.026  1.00  0.00     0.029 A 
ATOM     21  C   UNL A   1      41.308  25.842  28.647  1.00  0.00     0.049 A 
ATOM     22  H   UNL A   1      41.913  27.490  29.767  1.00  0.00     0.167 HD
ATOM     23  C   UNL A   1      43.200  31.179  31.719  1.00  0.00     0.031 A 
ATOM     24  C   UNL A   1      42.347  24.988  28.584  1.00  0.00     0.031 A 
ATOM     25  C   UNL A   1      44.375  30.353  31.680  1.00  0.00     0.049 A 
ATOM     26  C   UNL A   1      43.645  25.361  29.233  1.00  0.00     0.074 A 
ATOM     27  C   UNL A   1      45.644  30.631  32.155  1.00  0.00     0.029 A 
ATOM     28  N   UNL A   1      44.417  29.072  31.149  1.00  0.00    -0.354 N 
ATOM     29  N   UNL A   1      43.962  26.480  29.839  1.00  0.00    -0.248 NA
ATOM     30  C   UNL A   1      44.723  24.365  29.189  1.00  0.00     0.031 C 
ATOM     31  C   UNL A   1      46.455  29.515  31.912  1.00  0.00     0.029 A 
ATOM     32  C   UNL A   1      45.685  28.538  31.299  1.00  0.00     0.049 A 
ATOM     33  H   UNL A   1      43.657  28.611  30.727  1.00  0.00     0.167 HD
ATOM     34  C   UNL A   1      45.280  26.328  30.245  1.00  0.00     0.074 A 
ATOM     35  C   UNL A   1      45.695  25.001  29.833  1.00  0.00     0.031 C 
ATOM     36  C   UNL A   1      46.076  27.214  30.890  1.00  0.00     0.031 A 
BRANCH  23  37
ATOM     37  C   UNL A   1      43.291  32.560  32.303  1.00  0.00    -0.014 A 
ATOM     38  C   UNL A   1      43.633  33.666  31.505  1.00  0.00     0.010 A 
ATOM     39  C   UNL A   1      43.093  32.740  33.683  1.00  0.00     0.010 A 
ATOM     40  C   UNL A   1      43.843  34.918  32.091  1.00  0.00     0.020 A 
ATOM     41  C   UNL A   1      43.286  33.992  34.270  1.00  0.00     0.020 A 
ATOM     42  C   UNL A   1      43.693  35.066  33.473  1.00  0.00     0.054 A 
BRANCH  42  43
ATOM     43  S   UNL A   1      44.034  36.676  34.238  1.00  0.00     0.124 S 
ATOM     44  O   UNL A   1      44.312  37.506  33.069  1.00  0.00    -0.237 OA
ATOM     45  O   UNL A   1      42.791  36.981  34.941  1.00  0.00    -0.237 OA
ATOM     46  O   UNL A   1      45.182  36.404  35.101  1.00  0.00    -0.744 OA
ENDBRANCH  42  43
ENDBRANCH  23  37
BRANCH  24  47
ATOM     47  C   UNL A   1      42.168  23.704  27.859  1.00  0.00    -0.014 A 
ATOM     48  C   UNL A   1      42.922  23.434  26.706  1.00  0.00     0.010 A 
ATOM     49  C   UNL A   1      41.353  22.696  28.404  1.00  0.00     0.010 A 
ATOM     50  C   UNL A   1      42.893  22.161  26.128  1.00  0.00     0.020 A 
ATOM     51  C   UNL A   1      41.333  21.420  27.837  1.00  0.00     0.020 A 
ATOM     52  C   UNL A   1      42.109  21.158  26.706  1.00  0.00     0.054 A 
BRANCH  52  53
ATOM     53  S   UNL A   1      42.202  19.467  26.051  1.00  0.00     0.124 S 
ATOM     54  O   UNL A   1      43.116  19.628  24.925  1.00  0.00    -0.237 OA
ATOM     55  O   UNL A   1      42.722  18.706  27.184  1.00  0.00    -0.237 OA
ATOM     56  O   UNL A   1      40.815  19.170  25.700  1.00  0.00    -0.744 OA
ENDBRANCH  52  53
ENDBRANCH  24  47
BRANCH  36  57
ATOM     57  C   UNL A   1      47.475  26.775  31.203  1.00  0.00    -0.014 A 
ATOM     58  C   UNL A   1      47.737  25.987  32.337  1.00  0.00     0.010 A 
ATOM     59  C   UNL A   1      48.523  27.096  30.324  1.00  0.00     0.010 A 
ATOM     60  C   UNL A   1      49.033  25.532  32.591  1.00  0.00     0.020 A 
ATOM     61  C   UNL A   1      49.818  26.637  30.572  1.00  0.00     0.020 A 
ATOM     62  C   UNL A   1      50.067  25.863  31.709  1.00  0.00     0.054 A 
BRANCH  62  63
ATOM     63  S   UNL A   1      51.734  25.216  32.017  1.00  0.00     0.124 S 
ATOM     64  O   UNL A   1      52.459  25.675  30.837  1.00  0.00    -0.237 OA
ATOM     65  O   UNL A   1      52.108  25.860  33.275  1.00  0.00    -0.237 OA
ATOM     66  O   UNL A   1      51.528  23.772  32.103  1.00  0.00    -0.744 OA
ENDBRANCH  62  63
ENDBRANCH  36  57
ENDBRANCH  10  11
ENDBRANCH   3   5
ENDBRANCH   2   3
ENDBRANCH   1   2
BRANCH   1  67
ATOM     67  C   UNL A   1      33.835  26.491  25.764  1.00  0.00     0.275 C 
BRANCH  67  68
ATOM     68  O   UNL A   1      33.539  24.465  26.080  1.00  0.00    -0.457 OA
BRANCH  68  69
ATOM     69  C   UNL A   1      34.343  23.036  26.721  1.00  0.00     0.359 C 
ATOM     70  O   UNL A   1      34.217  22.958  27.954  1.00  0.00    -0.244 OA
BRANCH  69  71
ATOM     71  C   UNL A   1      35.637  21.873  25.967  1.00  0.00     0.179 A 
ATOM     72  N   UNL A   1      36.862  22.425  26.104  1.00  0.00    -0.245 NA
ATOM     73  C   UNL A   1      35.496  20.387  25.163  1.00  0.00     0.161 A 
ATOM     74  C   UNL A   1      37.863  21.687  25.536  1.00  0.00     0.132 A 
ATOM     75  N   UNL A   1      36.573  19.754  24.655  1.00  0.00    -0.247 NA
ATOM     76  C   UNL A   1      37.728  20.445  24.864  1.00  0.00     0.132 A 
BRANCH  73  77
ATOM     77  C   UNL A   1      33.906  19.450  24.681  1.00  0.00     0.276 C 
ATOM     78  O   UNL A   1      33.762  18.239  24.860  1.00  0.00    -0.267 OA
ATOM     79  N   UNL A   1      32.673  20.215  23.681  1.00  0.00    -0.320 N 
ATOM     80  H   UNL A   1      32.073  19.625  23.168  1.00  0.00     0.170 HD
BRANCH  79  81
ATOM     81  C   UNL A   1      32.425  21.986  23.527  1.00  0.00     0.045 A 
ATOM     82  C   UNL A   1      31.008  22.680  24.275  1.00  0.00     0.030 A 
ATOM     83  C   UNL A   1      33.489  23.154  22.336  1.00  0.00     0.076 A 
ATOM     84  C   UNL A   1      30.630  24.344  23.915  1.00  0.00     0.053 A 
ATOM     85  C   UNL A   1      32.958  24.806  22.088  1.00  0.00     0.167 A 
ATOM     86  C   UNL A   1      31.583  25.319  22.871  1.00  0.00     0.165 A 
ATOM     87  O   UNL A   1      33.475  25.819  21.370  1.00  0.00    -0.454 OA
ATOM     88  O   UNL A   1      31.380  26.616  22.513  1.00  0.00    -0.454 OA
ATOM     89  C   UNL A   1      32.369  26.780  21.437  1.00  0.00     0.468 C 
ENDBRANCH  79  81
ENDBRANCH  73  77
ENDBRANCH  69  71
ENDBRANCH  68  69
ENDBRANCH  67  68
ENDBRANCH   1  67
TORSDOF 16
ENDMDL
