MODEL 1
REMARK VINA RESULT:     -10.3      0.000      0.000
REMARK SMILES CC1=C(C)C[C@@H](C(=O)OCCOC(=O)c2ccc(-c3c4nc(c(-c5ccc(S(=O)(=O)[O-])cc5)c5ccc([nH]5)c(-c5ccc(S(=O)(=O)[O-])cc5)c5nc(c(-c6ccc(S(=O)(=O)[O-])cc6)c6ccc3[nH]6)C=C5)C=C4)cc2)[C@@H](C(=O)N2CCN(c3cccc(C(F)(F)F)c3)CC2)C1
REMARK SMILES IDX 10 1 9 2 7 3 8 4 6 5 1 6 2 7 3 8 94 9 4 10 5 11 75 12 76 13
REMARK SMILES IDX 77 14 78 15 79 16 93 17 80 18 92 19 81 20 82 21 83 22 91 23
REMARK SMILES IDX 84 24 86 25 85 26 87 27 88 28 89 29 90 30 11 31 12 32 13 33
REMARK SMILES IDX 14 34 15 35 16 36 74 37 17 38 73 39 18 40 19 41 20 42 67 43
REMARK SMILES IDX 21 44 72 45 66 46 68 47 22 48 71 49 65 50 64 51 23 53 53 54
REMARK SMILES IDX 34 55 52 56 35 57 38 58 51 59 69 60 36 61 37 62 50 64 70 65
REMARK SMILES IDX 39 66 24 67 25 68 33 69 26 70 32 71 27 72 28 73 29 74 30 75
REMARK SMILES IDX 31 76 54 77 55 78 63 79 56 80 62 81 57 82 58 83 59 84 60 85
REMARK SMILES IDX 61 86 40 87 41 88 49 89 42 90 48 91 43 92 44 93 45 94 46 95
REMARK SMILES IDX 47 96
REMARK H PARENT 68 52 38 63
REMARK Flexibility Score: inf
ROOT
ATOM      1  C   UNL A   1      32.904  35.582  29.441  1.00  0.00     0.274 C 
ENDROOT
BRANCH   1   2
ATOM      2  O   UNL A   1      34.014  35.793  28.534  1.00  0.00    -0.462 OA
BRANCH   2   3
ATOM      3  C   UNL A   1      34.536  34.675  27.995  1.00  0.00     0.310 C 
ATOM      4  O   UNL A   1      34.840  34.585  26.807  1.00  0.00    -0.252 OA
BRANCH   3   5
ATOM      5  C   UNL A   1      34.684  33.479  28.924  1.00  0.00     0.116 C 
ATOM      6  C   UNL A   1      37.761  30.372  28.153  1.00  0.00     0.039 C 
ATOM      7  C   UNL A   1      36.776  31.425  28.585  1.00  0.00    -0.074 C 
ATOM      8  C   UNL A   1      37.120  32.650  29.021  1.00  0.00    -0.073 C 
ATOM      9  C   UNL A   1      35.346  30.964  28.621  1.00  0.00     0.045 C 
ATOM     10  C   UNL A   1      38.527  33.175  29.094  1.00  0.00     0.039 C 
ATOM     11  C   UNL A   1      36.075  33.582  29.575  1.00  0.00     0.046 C 
ATOM     12  C   UNL A   1      34.241  32.037  28.597  1.00  0.00     0.097 C 
BRANCH  12  13
ATOM     13  C   UNL A   1      33.179  31.819  27.507  1.00  0.00     0.227 C 
ATOM     14  O   UNL A   1      32.420  32.730  27.187  1.00  0.00    -0.275 OA
ATOM     15  N   UNL A   1      32.990  30.524  27.077  1.00  0.00    -0.339 N 
ATOM     16  C   UNL A   1      33.447  30.081  25.765  1.00  0.00     0.141 C 
ATOM     17  C   UNL A   1      31.807  29.784  27.526  1.00  0.00     0.141 C 
ATOM     18  C   UNL A   1      33.866  28.605  25.820  1.00  0.00     0.138 C 
ATOM     19  C   UNL A   1      32.114  28.274  27.595  1.00  0.00     0.138 C 
ATOM     20  N   UNL A   1      32.760  27.802  26.357  1.00  0.00    -0.368 N 
BRANCH  20  21
ATOM     21  C   UNL A   1      32.297  26.705  25.671  1.00  0.00     0.037 A 
ATOM     22  C   UNL A   1      32.286  26.672  24.272  1.00  0.00     0.026 A 
ATOM     23  C   UNL A   1      31.802  25.593  26.358  1.00  0.00     0.039 A 
ATOM     24  C   UNL A   1      31.823  25.552  23.579  1.00  0.00     0.003 A 
ATOM     25  C   UNL A   1      31.307  24.467  25.682  1.00  0.00     0.058 A 
ATOM     26  C   UNL A   1      31.336  24.452  24.281  1.00  0.00     0.013 A 
BRANCH  25  27
ATOM     27  C   UNL A   1      30.761  23.293  26.450  1.00  0.00     0.416 C 
ATOM     28  F   UNL A   1      30.551  22.204  25.660  1.00  0.00    -0.166 F 
ATOM     29  F   UNL A   1      31.608  22.881  27.434  1.00  0.00    -0.166 F 
ATOM     30  F   UNL A   1      29.571  23.543  27.064  1.00  0.00    -0.166 F 
ENDBRANCH  25  27
ENDBRANCH  20  21
ENDBRANCH  12  13
ENDBRANCH   3   5
ENDBRANCH   2   3
ENDBRANCH   1   2
BRANCH   1  31
ATOM     31  C   UNL A   1      32.697  36.766  30.386  1.00  0.00     0.275 C 
BRANCH  31  32
ATOM     32  O   UNL A   1      33.415  36.553  31.611  1.00  0.00    -0.458 OA
BRANCH  32  33
ATOM     33  C   UNL A   1      33.016  35.475  32.328  1.00  0.00     0.338 C 
ATOM     34  O   UNL A   1      31.869  35.149  32.576  1.00  0.00    -0.246 OA
BRANCH  33  35
ATOM     35  C   UNL A   1      34.191  34.768  32.860  1.00  0.00     0.060 A 
ATOM     36  C   UNL A   1      35.453  35.365  32.858  1.00  0.00     0.016 A 
ATOM     37  C   UNL A   1      34.040  33.446  33.277  1.00  0.00     0.016 A 
ATOM     38  C   UNL A   1      36.577  34.628  33.226  1.00  0.00     0.010 A 
ATOM     39  C   UNL A   1      35.157  32.727  33.702  1.00  0.00     0.010 A 
ATOM     40  C   UNL A   1      36.437  33.304  33.660  1.00  0.00    -0.014 A 
BRANCH  40  41
ATOM     41  C   UNL A   1      37.623  32.516  34.072  1.00  0.00     0.031 A 
ATOM     42  C   UNL A   1      38.344  32.847  35.348  1.00  0.00     0.074 A 
ATOM     43  C   UNL A   1      38.064  31.516  33.283  1.00  0.00     0.049 A 
ATOM     44  N   UNL A   1      39.484  32.386  35.794  1.00  0.00    -0.248 NA
ATOM     45  C   UNL A   1      37.701  33.828  36.236  1.00  0.00     0.031 C 
ATOM     46  C   UNL A   1      37.421  31.071  32.045  1.00  0.00     0.029 A 
ATOM     47  N   UNL A   1      39.158  30.699  33.404  1.00  0.00    -0.354 N 
ATOM     48  C   UNL A   1      39.717  33.047  36.995  1.00  0.00     0.074 A 
ATOM     49  C   UNL A   1      38.598  33.941  37.208  1.00  0.00     0.031 C 
ATOM     50  C   UNL A   1      38.127  30.054  31.527  1.00  0.00     0.029 A 
ATOM     51  C   UNL A   1      39.303  29.821  32.357  1.00  0.00     0.049 A 
ATOM     52  H   UNL A   1      39.780  30.738  34.166  1.00  0.00     0.167 HD
ATOM     53  C   UNL A   1      40.772  32.925  37.837  1.00  0.00     0.031 A 
ATOM     54  C   UNL A   1      40.292  28.952  32.074  1.00  0.00     0.031 A 
ATOM     55  C   UNL A   1      41.877  32.027  37.618  1.00  0.00     0.049 A 
ATOM     56  C   UNL A   1      41.471  28.863  32.998  1.00  0.00     0.074 A 
ATOM     57  C   UNL A   1      43.000  31.833  38.404  1.00  0.00     0.029 A 
ATOM     58  N   UNL A   1      41.993  31.166  36.535  1.00  0.00    -0.354 N 
ATOM     59  N   UNL A   1      41.699  29.528  34.107  1.00  0.00    -0.248 NA
ATOM     60  C   UNL A   1      42.531  27.915  32.630  1.00  0.00     0.031 C 
ATOM     61  C   UNL A   1      43.811  30.878  37.778  1.00  0.00     0.029 A 
ATOM     62  C   UNL A   1      43.172  30.448  36.627  1.00  0.00     0.049 A 
ATOM     63  H   UNL A   1      41.333  31.080  35.809  1.00  0.00     0.167 HD
ATOM     64  C   UNL A   1      42.923  29.071  34.575  1.00  0.00     0.074 A 
ATOM     65  C   UNL A   1      43.380  28.063  33.639  1.00  0.00     0.031 C 
ATOM     66  C   UNL A   1      43.610  29.453  35.680  1.00  0.00     0.031 A 
BRANCH  53  67
ATOM     67  C   UNL A   1      40.801  33.818  39.047  1.00  0.00    -0.014 A 
ATOM     68  C   UNL A   1      40.279  33.397  40.282  1.00  0.00     0.010 A 
ATOM     69  C   UNL A   1      41.388  35.094  38.952  1.00  0.00     0.010 A 
ATOM     70  C   UNL A   1      40.308  34.249  41.390  1.00  0.00     0.020 A 
ATOM     71  C   UNL A   1      41.437  35.942  40.062  1.00  0.00     0.020 A 
ATOM     72  C   UNL A   1      40.879  35.520  41.271  1.00  0.00     0.054 A 
BRANCH  72  73
ATOM     73  S   UNL A   1      40.916  36.607  42.725  1.00  0.00     0.124 S 
ATOM     74  O   UNL A   1      41.063  35.646  43.814  1.00  0.00    -0.237 OA
ATOM     75  O   UNL A   1      42.082  37.450  42.470  1.00  0.00    -0.237 OA
ATOM     76  O   UNL A   1      39.630  37.298  42.672  1.00  0.00    -0.744 OA
ENDBRANCH  72  73
ENDBRANCH  53  67
BRANCH  54  77
ATOM     77  C   UNL A   1      40.215  28.127  30.839  1.00  0.00    -0.014 A 
ATOM     78  C   UNL A   1      41.179  28.268  29.826  1.00  0.00     0.010 A 
ATOM     79  C   UNL A   1      39.200  27.163  30.691  1.00  0.00     0.010 A 
ATOM     80  C   UNL A   1      41.129  27.459  28.688  1.00  0.00     0.020 A 
ATOM     81  C   UNL A   1      39.161  26.337  29.567  1.00  0.00     0.020 A 
ATOM     82  C   UNL A   1      40.123  26.494  28.566  1.00  0.00     0.054 A 
BRANCH  82  83
ATOM     83  S   UNL A   1      40.123  25.397  27.121  1.00  0.00     0.124 S 
ATOM     84  O   UNL A   1      38.703  25.099  26.967  1.00  0.00    -0.237 OA
ATOM     85  O   UNL A   1      40.710  26.238  26.081  1.00  0.00    -0.237 OA
ATOM     86  O   UNL A   1      40.957  24.276  27.546  1.00  0.00    -0.744 OA
ENDBRANCH  82  83
ENDBRANCH  54  77
BRANCH  66  87
ATOM     87  C   UNL A   1      44.914  28.756  35.945  1.00  0.00    -0.014 A 
ATOM     88  C   UNL A   1      46.104  29.190  35.336  1.00  0.00     0.010 A 
ATOM     89  C   UNL A   1      44.952  27.671  36.838  1.00  0.00     0.010 A 
ATOM     90  C   UNL A   1      47.308  28.529  35.592  1.00  0.00     0.020 A 
ATOM     91  C   UNL A   1      46.157  27.020  37.112  1.00  0.00     0.020 A 
ATOM     92  C   UNL A   1      47.325  27.445  36.474  1.00  0.00     0.054 A 
BRANCH  92  93
ATOM     93  S   UNL A   1      48.903  26.618  36.819  1.00  0.00     0.124 S 
ATOM     94  O   UNL A   1      48.755  25.365  36.083  1.00  0.00    -0.237 OA
ATOM     95  O   UNL A   1      49.886  27.552  36.275  1.00  0.00    -0.237 OA
ATOM     96  O   UNL A   1      48.914  26.489  38.274  1.00  0.00    -0.744 OA
ENDBRANCH  92  93
ENDBRANCH  66  87
ENDBRANCH  40  41
ENDBRANCH  33  35
ENDBRANCH  32  33
ENDBRANCH  31  32
ENDBRANCH   1  31
TORSDOF 17
ENDMDL
MODEL 2
REMARK VINA RESULT:      -9.8      7.027     12.599
REMARK SMILES CC1=C(C)C[C@@H](C(=O)OCCOC(=O)c2ccc(-c3c4nc(c(-c5ccc(S(=O)(=O)[O-])cc5)c5ccc([nH]5)c(-c5ccc(S(=O)(=O)[O-])cc5)c5nc(c(-c6ccc(S(=O)(=O)[O-])cc6)c6ccc3[nH]6)C=C5)C=C4)cc2)[C@@H](C(=O)N2CCN(c3cccc(C(F)(F)F)c3)CC2)C1
REMARK SMILES IDX 10 1 9 2 7 3 8 4 6 5 1 6 2 7 3 8 94 9 4 10 5 11 75 12 76 13
REMARK SMILES IDX 77 14 78 15 79 16 93 17 80 18 92 19 81 20 82 21 83 22 91 23
REMARK SMILES IDX 84 24 86 25 85 26 87 27 88 28 89 29 90 30 11 31 12 32 13 33
REMARK SMILES IDX 14 34 15 35 16 36 74 37 17 38 73 39 18 40 19 41 20 42 67 43
REMARK SMILES IDX 21 44 72 45 66 46 68 47 22 48 71 49 65 50 64 51 23 53 53 54
REMARK SMILES IDX 34 55 52 56 35 57 38 58 51 59 69 60 36 61 37 62 50 64 70 65
REMARK SMILES IDX 39 66 24 67 25 68 33 69 26 70 32 71 27 72 28 73 29 74 30 75
REMARK SMILES IDX 31 76 54 77 55 78 63 79 56 80 62 81 57 82 58 83 59 84 60 85
REMARK SMILES IDX 61 86 40 87 41 88 49 89 42 90 48 91 43 92 44 93 45 94 46 95
REMARK SMILES IDX 47 96
REMARK H PARENT 68 52 38 63
REMARK Flexibility Score: inf
ROOT
ATOM      1  C   UNL A   1      37.039  31.045  33.018  1.00  0.00     0.274 C 
ENDROOT
BRANCH   1   2
ATOM      2  O   UNL A   1      37.651  32.355  33.112  1.00  0.00    -0.462 OA
BRANCH   2   3
ATOM      3  C   UNL A   1      38.998  32.362  33.113  1.00  0.00     0.310 C 
ATOM      4  O   UNL A   1      39.669  31.947  32.170  1.00  0.00    -0.252 OA
BRANCH   3   5
ATOM      5  C   UNL A   1      39.672  32.861  34.383  1.00  0.00     0.116 C 
ATOM      6  C   UNL A   1      44.098  32.878  34.745  1.00  0.00     0.039 C 
ATOM      7  C   UNL A   1      42.602  33.041  34.685  1.00  0.00    -0.074 C 
ATOM      8  C   UNL A   1      41.967  33.916  33.884  1.00  0.00    -0.073 C 
ATOM      9  C   UNL A   1      41.846  32.231  35.699  1.00  0.00     0.045 C 
ATOM     10  C   UNL A   1      42.642  34.823  32.892  1.00  0.00     0.039 C 
ATOM     11  C   UNL A   1      40.480  34.114  34.003  1.00  0.00     0.046 C 
ATOM     12  C   UNL A   1      40.351  31.965  35.441  1.00  0.00     0.097 C 
BRANCH  12  13
ATOM     13  C   UNL A   1      39.955  30.481  35.518  1.00  0.00     0.227 C 
ATOM     14  O   UNL A   1      38.970  30.133  36.163  1.00  0.00    -0.275 OA
ATOM     15  N   UNL A   1      40.861  29.572  35.016  1.00  0.00    -0.339 N 
ATOM     16  C   UNL A   1      40.621  28.869  33.761  1.00  0.00     0.141 C 
ATOM     17  C   UNL A   1      41.669  28.778  35.947  1.00  0.00     0.141 C 
ATOM     18  C   UNL A   1      41.952  28.600  33.044  1.00  0.00     0.138 C 
ATOM     19  C   UNL A   1      43.030  28.429  35.310  1.00  0.00     0.138 C 
ATOM     20  N   UNL A   1      42.862  27.888  33.950  1.00  0.00    -0.368 N 
BRANCH  20  21
ATOM     21  C   UNL A   1      43.457  26.712  33.560  1.00  0.00     0.037 A 
ATOM     22  C   UNL A   1      43.422  25.573  34.373  1.00  0.00     0.026 A 
ATOM     23  C   UNL A   1      44.134  26.627  32.340  1.00  0.00     0.039 A 
ATOM     24  C   UNL A   1      44.019  24.378  33.969  1.00  0.00     0.003 A 
ATOM     25  C   UNL A   1      44.764  25.444  31.926  1.00  0.00     0.058 A 
ATOM     26  C   UNL A   1      44.687  24.313  32.748  1.00  0.00     0.013 A 
BRANCH  25  27
ATOM     27  C   UNL A   1      45.504  25.391  30.615  1.00  0.00     0.416 C 
ATOM     28  F   UNL A   1      46.856  25.431  30.777  1.00  0.00    -0.166 F 
ATOM     29  F   UNL A   1      45.246  24.246  29.924  1.00  0.00    -0.166 F 
ATOM     30  F   UNL A   1      45.199  26.414  29.770  1.00  0.00    -0.166 F 
ENDBRANCH  25  27
ENDBRANCH  20  21
ENDBRANCH  12  13
ENDBRANCH   3   5
ENDBRANCH   2   3
ENDBRANCH   1   2
BRANCH   1  31
ATOM     31  C   UNL A   1      36.225  30.878  31.734  1.00  0.00     0.275 C 
BRANCH  31  32
ATOM     32  O   UNL A   1      36.538  29.624  31.109  1.00  0.00    -0.458 OA
BRANCH  32  33
ATOM     33  C   UNL A   1      36.581  29.655  29.756  1.00  0.00     0.338 C 
ATOM     34  O   UNL A   1      35.630  29.722  28.998  1.00  0.00    -0.246 OA
BRANCH  33  35
ATOM     35  C   UNL A   1      37.972  29.508  29.298  1.00  0.00     0.060 A 
ATOM     36  C   UNL A   1      38.298  29.597  27.944  1.00  0.00     0.016 A 
ATOM     37  C   UNL A   1      38.949  29.177  30.236  1.00  0.00     0.016 A 
ATOM     38  C   UNL A   1      39.591  29.307  27.514  1.00  0.00     0.010 A 
ATOM     39  C   UNL A   1      40.258  28.945  29.813  1.00  0.00     0.010 A 
ATOM     40  C   UNL A   1      40.586  28.987  28.447  1.00  0.00    -0.014 A 
BRANCH  40  41
ATOM     41  C   UNL A   1      41.970  28.695  28.004  1.00  0.00     0.031 A 
ATOM     42  C   UNL A   1      42.362  27.294  27.629  1.00  0.00     0.074 A 
ATOM     43  C   UNL A   1      42.879  29.689  27.963  1.00  0.00     0.049 A 
ATOM     44  N   UNL A   1      43.552  26.811  27.377  1.00  0.00    -0.248 NA
ATOM     45  C   UNL A   1      41.277  26.306  27.531  1.00  0.00     0.031 C 
ATOM     46  C   UNL A   1      42.606  31.097  28.259  1.00  0.00     0.029 A 
ATOM     47  N   UNL A   1      44.216  29.664  27.661  1.00  0.00    -0.354 N 
ATOM     48  C   UNL A   1      43.365  25.455  27.127  1.00  0.00     0.074 A 
ATOM     49  C   UNL A   1      41.947  25.194  27.258  1.00  0.00     0.031 C 
ATOM     50  C   UNL A   1      43.738  31.803  28.112  1.00  0.00     0.029 A 
ATOM     51  C   UNL A   1      44.825  30.890  27.779  1.00  0.00     0.049 A 
ATOM     52  H   UNL A   1      44.693  28.848  27.387  1.00  0.00     0.167 HD
ATOM     53  C   UNL A   1      44.294  24.516  26.825  1.00  0.00     0.031 A 
ATOM     54  C   UNL A   1      46.122  31.237  27.670  1.00  0.00     0.031 A 
ATOM     55  C   UNL A   1      45.702  24.790  26.691  1.00  0.00     0.049 A 
ATOM     56  C   UNL A   1      47.139  30.173  27.376  1.00  0.00     0.074 A 
ATOM     57  C   UNL A   1      46.728  23.908  26.397  1.00  0.00     0.029 A 
ATOM     58  N   UNL A   1      46.281  26.043  26.835  1.00  0.00    -0.354 N 
ATOM     59  N   UNL A   1      46.953  28.888  27.187  1.00  0.00    -0.248 NA
ATOM     60  C   UNL A   1      48.541  30.602  27.290  1.00  0.00     0.031 C 
ATOM     61  C   UNL A   1      47.932  24.624  26.396  1.00  0.00     0.029 A 
ATOM     62  C   UNL A   1      47.649  25.956  26.647  1.00  0.00     0.049 A 
ATOM     63  H   UNL A   1      45.790  26.871  27.041  1.00  0.00     0.167 HD
ATOM     64  C   UNL A   1      48.214  28.356  26.949  1.00  0.00     0.074 A 
ATOM     65  C   UNL A   1      49.151  29.460  27.002  1.00  0.00     0.031 C 
ATOM     66  C   UNL A   1      48.564  27.068  26.710  1.00  0.00     0.031 A 
BRANCH  53  67
ATOM     67  C   UNL A   1      43.820  23.097  26.666  1.00  0.00    -0.014 A 
ATOM     68  C   UNL A   1      43.077  22.455  27.673  1.00  0.00     0.010 A 
ATOM     69  C   UNL A   1      44.100  22.403  25.475  1.00  0.00     0.010 A 
ATOM     70  C   UNL A   1      42.657  21.132  27.507  1.00  0.00     0.020 A 
ATOM     71  C   UNL A   1      43.664  21.087  25.296  1.00  0.00     0.020 A 
ATOM     72  C   UNL A   1      42.960  20.453  26.322  1.00  0.00     0.054 A 
BRANCH  72  73
ATOM     73  S   UNL A   1      42.395  18.740  26.123  1.00  0.00     0.124 S 
ATOM     74  O   UNL A   1      41.016  18.928  25.682  1.00  0.00    -0.237 OA
ATOM     75  O   UNL A   1      43.310  18.212  25.112  1.00  0.00    -0.237 OA
ATOM     76  O   UNL A   1      42.551  18.166  27.457  1.00  0.00    -0.744 OA
ENDBRANCH  72  73
ENDBRANCH  53  67
BRANCH  54  77
ATOM     77  C   UNL A   1      46.524  32.654  27.878  1.00  0.00    -0.014 A 
ATOM     78  C   UNL A   1      46.564  33.549  26.796  1.00  0.00     0.010 A 
ATOM     79  C   UNL A   1      46.823  33.124  29.170  1.00  0.00     0.010 A 
ATOM     80  C   UNL A   1      46.897  34.891  27.003  1.00  0.00     0.020 A 
ATOM     81  C   UNL A   1      47.133  34.468  29.384  1.00  0.00     0.020 A 
ATOM     82  C   UNL A   1      47.176  35.344  28.296  1.00  0.00     0.054 A 
BRANCH  82  83
ATOM     83  S   UNL A   1      47.525  37.105  28.558  1.00  0.00     0.124 S 
ATOM     84  O   UNL A   1      46.223  37.615  28.971  1.00  0.00    -0.237 OA
ATOM     85  O   UNL A   1      48.553  37.077  29.597  1.00  0.00    -0.237 OA
ATOM     86  O   UNL A   1      47.990  37.557  27.249  1.00  0.00    -0.744 OA
ENDBRANCH  82  83
ENDBRANCH  54  77
BRANCH  66  87
ATOM     87  C   UNL A   1      50.021  26.795  26.463  1.00  0.00    -0.014 A 
ATOM     88  C   UNL A   1      50.541  26.767  25.158  1.00  0.00     0.010 A 
ATOM     89  C   UNL A   1      50.883  26.592  27.554  1.00  0.00     0.010 A 
ATOM     90  C   UNL A   1      51.898  26.510  24.946  1.00  0.00     0.020 A 
ATOM     91  C   UNL A   1      52.244  26.355  27.348  1.00  0.00     0.020 A 
ATOM     92  C   UNL A   1      52.739  26.300  26.042  1.00  0.00     0.054 A 
BRANCH  92  93
ATOM     93  S   UNL A   1      54.504  25.997  25.751  1.00  0.00     0.124 S 
ATOM     94  O   UNL A   1      55.126  27.079  26.509  1.00  0.00    -0.237 OA
ATOM     95  O   UNL A   1      54.699  24.656  26.296  1.00  0.00    -0.237 OA
ATOM     96  O   UNL A   1      54.635  26.097  24.299  1.00  0.00    -0.744 OA
ENDBRANCH  92  93
ENDBRANCH  66  87
ENDBRANCH  40  41
ENDBRANCH  33  35
ENDBRANCH  32  33
ENDBRANCH  31  32
ENDBRANCH   1  31
TORSDOF 17
ENDMDL
MODEL 3
REMARK VINA RESULT:      -9.7      5.802     15.432
REMARK SMILES CC1=C(C)C[C@@H](C(=O)OCCOC(=O)c2ccc(-c3c4nc(c(-c5ccc(S(=O)(=O)[O-])cc5)c5ccc([nH]5)c(-c5ccc(S(=O)(=O)[O-])cc5)c5nc(c(-c6ccc(S(=O)(=O)[O-])cc6)c6ccc3[nH]6)C=C5)C=C4)cc2)[C@@H](C(=O)N2CCN(c3cccc(C(F)(F)F)c3)CC2)C1
REMARK SMILES IDX 10 1 9 2 7 3 8 4 6 5 1 6 2 7 3 8 94 9 4 10 5 11 75 12 76 13
REMARK SMILES IDX 77 14 78 15 79 16 93 17 80 18 92 19 81 20 82 21 83 22 91 23
REMARK SMILES IDX 84 24 86 25 85 26 87 27 88 28 89 29 90 30 11 31 12 32 13 33
REMARK SMILES IDX 14 34 15 35 16 36 74 37 17 38 73 39 18 40 19 41 20 42 67 43
REMARK SMILES IDX 21 44 72 45 66 46 68 47 22 48 71 49 65 50 64 51 23 53 53 54
REMARK SMILES IDX 34 55 52 56 35 57 38 58 51 59 69 60 36 61 37 62 50 64 70 65
REMARK SMILES IDX 39 66 24 67 25 68 33 69 26 70 32 71 27 72 28 73 29 74 30 75
REMARK SMILES IDX 31 76 54 77 55 78 63 79 56 80 62 81 57 82 58 83 59 84 60 85
REMARK SMILES IDX 61 86 40 87 41 88 49 89 42 90 48 91 43 92 44 93 45 94 46 95
REMARK SMILES IDX 47 96
REMARK H PARENT 68 52 38 63
REMARK Flexibility Score: inf
ROOT
ATOM      1  C   UNL A   1      49.695  25.295  37.977  1.00  0.00     0.274 C 
ENDROOT
BRANCH   1   2
ATOM      2  O   UNL A   1      49.184  25.023  36.648  1.00  0.00    -0.462 OA
BRANCH   2   3
ATOM      3  C   UNL A   1      47.859  24.791  36.578  1.00  0.00     0.310 C 
ATOM      4  O   UNL A   1      47.160  24.599  37.572  1.00  0.00    -0.252 OA
BRANCH   3   5
ATOM      5  C   UNL A   1      47.257  24.714  35.183  1.00  0.00     0.116 C 
ATOM      6  C   UNL A   1      43.136  23.180  34.569  1.00  0.00     0.039 C 
ATOM      7  C   UNL A   1      44.487  23.837  34.669  1.00  0.00    -0.074 C 
ATOM      8  C   UNL A   1      44.704  25.039  35.233  1.00  0.00    -0.073 C 
ATOM      9  C   UNL A   1      45.592  23.101  33.966  1.00  0.00     0.045 C 
ATOM     10  C   UNL A   1      43.650  25.884  35.893  1.00  0.00     0.039 C 
ATOM     11  C   UNL A   1      46.062  25.683  35.152  1.00  0.00     0.046 C 
ATOM     12  C   UNL A   1      47.043  23.416  34.376  1.00  0.00     0.097 C 
BRANCH  12  13
ATOM     13  C   UNL A   1      47.876  22.175  34.736  1.00  0.00     0.227 C 
ATOM     14  O   UNL A   1      48.928  21.940  34.148  1.00  0.00    -0.275 OA
ATOM     15  N   UNL A   1      47.288  21.258  35.580  1.00  0.00    -0.339 N 
ATOM     16  C   UNL A   1      47.717  21.110  36.965  1.00  0.00     0.141 C 
ATOM     17  C   UNL A   1      46.773  20.002  35.026  1.00  0.00     0.141 C 
ATOM     18  C   UNL A   1      46.525  20.713  37.849  1.00  0.00     0.138 C 
ATOM     19  C   UNL A   1      45.577  19.499  35.861  1.00  0.00     0.138 C 
ATOM     20  N   UNL A   1      45.888  19.510  37.301  1.00  0.00    -0.368 N 
BRANCH  20  21
ATOM     21  C   UNL A   1      45.679  18.408  38.095  1.00  0.00     0.037 A 
ATOM     22  C   UNL A   1      44.645  17.503  37.828  1.00  0.00     0.026 A 
ATOM     23  C   UNL A   1      46.487  18.171  39.211  1.00  0.00     0.039 A 
ATOM     24  C   UNL A   1      44.442  16.380  38.632  1.00  0.00     0.003 A 
ATOM     25  C   UNL A   1      46.284  17.063  40.048  1.00  0.00     0.058 A 
ATOM     26  C   UNL A   1      45.259  16.159  39.738  1.00  0.00     0.013 A 
BRANCH  25  27
ATOM     27  C   UNL A   1      47.158  16.847  41.254  1.00  0.00     0.416 C 
ATOM     28  F   UNL A   1      46.873  15.683  41.904  1.00  0.00    -0.166 F 
ATOM     29  F   UNL A   1      48.479  16.775  40.928  1.00  0.00    -0.166 F 
ATOM     30  F   UNL A   1      47.057  17.831  42.190  1.00  0.00    -0.166 F 
ENDBRANCH  25  27
ENDBRANCH  20  21
ENDBRANCH  12  13
ENDBRANCH   3   5
ENDBRANCH   2   3
ENDBRANCH   1   2
BRANCH   1  31
ATOM     31  C   UNL A   1      50.070  26.766  38.161  1.00  0.00     0.275 C 
BRANCH  31  32
ATOM     32  O   UNL A   1      49.351  27.582  37.224  1.00  0.00    -0.458 OA
BRANCH  32  33
ATOM     33  C   UNL A   1      48.731  28.659  37.763  1.00  0.00     0.338 C 
ATOM     34  O   UNL A   1      49.068  29.271  38.760  1.00  0.00    -0.246 OA
BRANCH  33  35
ATOM     35  C   UNL A   1      47.503  28.956  37.008  1.00  0.00     0.060 A 
ATOM     36  C   UNL A   1      47.521  29.824  35.915  1.00  0.00     0.016 A 
ATOM     37  C   UNL A   1      46.297  28.430  37.468  1.00  0.00     0.016 A 
ATOM     38  C   UNL A   1      46.328  30.209  35.307  1.00  0.00     0.010 A 
ATOM     39  C   UNL A   1      45.108  28.768  36.821  1.00  0.00     0.010 A 
ATOM     40  C   UNL A   1      45.110  29.677  35.749  1.00  0.00    -0.014 A 
BRANCH  40  41
ATOM     41  C   UNL A   1      43.836  30.064  35.098  1.00  0.00     0.031 A 
ATOM     42  C   UNL A   1      43.447  29.455  33.781  1.00  0.00     0.074 A 
ATOM     43  C   UNL A   1      43.043  30.982  35.684  1.00  0.00     0.049 A 
ATOM     44  N   UNL A   1      42.463  29.782  32.981  1.00  0.00    -0.248 NA
ATOM     45  C   UNL A   1      44.273  28.339  33.296  1.00  0.00     0.031 C 
ATOM     46  C   UNL A   1      43.291  31.608  36.984  1.00  0.00     0.029 A 
ATOM     47  N   UNL A   1      41.870  31.550  35.259  1.00  0.00    -0.354 N 
ATOM     48  C   UNL A   1      42.573  28.938  31.881  1.00  0.00     0.074 A 
ATOM     49  C   UNL A   1      43.720  28.085  32.117  1.00  0.00     0.031 C 
ATOM     50  C   UNL A   1      42.295  32.465  37.255  1.00  0.00     0.029 A 
ATOM     51  C   UNL A   1      41.377  32.498  36.122  1.00  0.00     0.049 A 
ATOM     52  H   UNL A   1      41.425  31.303  34.416  1.00  0.00     0.167 HD
ATOM     53  C   UNL A   1      41.795  28.888  30.773  1.00  0.00     0.031 A 
ATOM     54  C   UNL A   1      40.325  33.330  36.002  1.00  0.00     0.031 A 
ATOM     55  C   UNL A   1      40.653  29.737  30.553  1.00  0.00     0.049 A 
ATOM     56  C   UNL A   1      39.500  33.285  34.748  1.00  0.00     0.074 A 
ATOM     57  C   UNL A   1      39.802  29.773  29.461  1.00  0.00     0.029 A 
ATOM     58  N   UNL A   1      40.197  30.696  31.446  1.00  0.00    -0.354 N 
ATOM     59  N   UNL A   1      39.644  32.513  33.697  1.00  0.00    -0.248 NA
ATOM     60  C   UNL A   1      38.379  34.230  34.659  1.00  0.00     0.031 C 
ATOM     61  C   UNL A   1      38.852  30.778  29.681  1.00  0.00     0.029 A 
ATOM     62  C   UNL A   1      39.084  31.336  30.927  1.00  0.00     0.049 A 
ATOM     63  H   UNL A   1      40.605  30.892  32.321  1.00  0.00     0.167 HD
ATOM     64  C   UNL A   1      38.625  32.871  32.824  1.00  0.00     0.074 A 
ATOM     65  C   UNL A   1      37.862  33.917  33.477  1.00  0.00     0.031 C 
ATOM     66  C   UNL A   1      38.345  32.379  31.592  1.00  0.00     0.031 A 
BRANCH  53  67
ATOM     67  C   UNL A   1      42.182  27.911  29.697  1.00  0.00    -0.014 A 
ATOM     68  C   UNL A   1      43.323  28.113  28.901  1.00  0.00     0.010 A 
ATOM     69  C   UNL A   1      41.404  26.757  29.497  1.00  0.00     0.010 A 
ATOM     70  C   UNL A   1      43.657  27.196  27.898  1.00  0.00     0.020 A 
ATOM     71  C   UNL A   1      41.745  25.827  28.510  1.00  0.00     0.020 A 
ATOM     72  C   UNL A   1      42.861  26.063  27.703  1.00  0.00     0.054 A 
BRANCH  72  73
ATOM     73  S   UNL A   1      43.319  24.881  26.404  1.00  0.00     0.124 S 
ATOM     74  O   UNL A   1      43.094  23.601  27.070  1.00  0.00    -0.237 OA
ATOM     75  O   UNL A   1      42.382  25.201  25.329  1.00  0.00    -0.237 OA
ATOM     76  O   UNL A   1      44.716  25.201  26.122  1.00  0.00    -0.744 OA
ENDBRANCH  72  73
ENDBRANCH  53  67
BRANCH  54  77
ATOM     77  C   UNL A   1      40.023  34.297  37.091  1.00  0.00    -0.014 A 
ATOM     78  C   UNL A   1      39.164  33.940  38.143  1.00  0.00     0.010 A 
ATOM     79  C   UNL A   1      40.633  35.565  37.103  1.00  0.00     0.010 A 
ATOM     80  C   UNL A   1      38.920  34.834  39.189  1.00  0.00     0.020 A 
ATOM     81  C   UNL A   1      40.410  36.452  38.157  1.00  0.00     0.020 A 
ATOM     82  C   UNL A   1      39.548  36.084  39.193  1.00  0.00     0.054 A 
BRANCH  82  83
ATOM     83  S   UNL A   1      39.284  37.200  40.599  1.00  0.00     0.124 S 
ATOM     84  O   UNL A   1      38.242  38.086  40.091  1.00  0.00    -0.237 OA
ATOM     85  O   UNL A   1      38.874  36.285  41.661  1.00  0.00    -0.237 OA
ATOM     86  O   UNL A   1      40.594  37.817  40.793  1.00  0.00    -0.744 OA
ENDBRANCH  82  83
ENDBRANCH  54  77
BRANCH  66  87
ATOM     87  C   UNL A   1      37.150  32.953  30.886  1.00  0.00    -0.014 A 
ATOM     88  C   UNL A   1      35.847  32.720  31.361  1.00  0.00     0.010 A 
ATOM     89  C   UNL A   1      37.335  33.760  29.751  1.00  0.00     0.010 A 
ATOM     90  C   UNL A   1      34.746  33.260  30.691  1.00  0.00     0.020 A 
ATOM     91  C   UNL A   1      36.239  34.318  29.090  1.00  0.00     0.020 A 
ATOM     92  C   UNL A   1      34.949  34.051  29.557  1.00  0.00     0.054 A 
BRANCH  92  93
ATOM     93  S   UNL A   1      33.511  34.769  28.718  1.00  0.00     0.124 S 
ATOM     94  O   UNL A   1      34.064  36.006  28.173  1.00  0.00    -0.237 OA
ATOM     95  O   UNL A   1      33.165  33.748  27.731  1.00  0.00    -0.237 OA
ATOM     96  O   UNL A   1      32.536  34.942  29.792  1.00  0.00    -0.744 OA
ENDBRANCH  92  93
ENDBRANCH  66  87
ENDBRANCH  40  41
ENDBRANCH  33  35
ENDBRANCH  32  33
ENDBRANCH  31  32
ENDBRANCH   1  31
TORSDOF 17
ENDMDL
