MODEL 1
REMARK VINA RESULT:     -11.0      0.000      0.000
REMARK SMILES O=C(OCCOC(=O)[C@H]1CCCCN1S(=O)(=O)c1cc[nH]c1)c1ccc(-c2c3nc(c(-c4ccc(S(=O)(=O)[O-])cc4)c4ccc([nH]4)c(-c4ccc(S(=O)(=O)[O-])cc4)c4nc(c(-c5ccc(S(=O)(=O)[O-])cc5)c5ccc2[nH]5)C=C4)C=C3)cc1
REMARK SMILES IDX 4 1 3 2 2 3 1 4 23 5 24 6 82 7 25 8 81 9 26 10 27 11 28 12
REMARK SMILES IDX 75 13 29 14 80 15 74 16 76 17 30 18 79 19 73 20 72 21 31 23
REMARK SMILES IDX 61 24 42 25 60 26 43 27 46 28 59 29 77 30 44 31 45 32 58 34
REMARK SMILES IDX 78 35 47 36 32 37 33 38 41 39 34 40 40 41 35 42 36 43 37 44
REMARK SMILES IDX 38 45 39 46 62 47 63 48 71 49 64 50 70 51 65 52 66 53 67 54
REMARK SMILES IDX 68 55 69 56 48 57 49 58 57 59 50 60 56 61 51 62 52 63 53 64
REMARK SMILES IDX 54 65 55 66 5 67 6 68 7 69 8 70 9 71 10 72 14 73 11 74 13 75
REMARK SMILES IDX 12 76 15 77 16 78 17 79 18 80 19 81 22 82 20 83 21 84
REMARK H PARENT 76 22 46 33 21 85
REMARK Flexibility Score: inf
ROOT
ATOM      1  C   UNL A   1      33.220  31.205  27.481  1.00  0.00     0.275 C 
ENDROOT
BRANCH   1   2
ATOM      2  O   UNL A   1      34.267  30.637  26.681  1.00  0.00    -0.458 OA
BRANCH   2   3
ATOM      3  C   UNL A   1      34.749  29.518  27.271  1.00  0.00     0.338 C 
ATOM      4  O   UNL A   1      34.186  28.435  27.293  1.00  0.00    -0.246 OA
BRANCH   3   5
ATOM      5  C   UNL A   1      35.992  29.763  28.005  1.00  0.00     0.060 A 
ATOM      6  C   UNL A   1      37.206  29.933  27.364  1.00  0.00     0.016 A 
ATOM      7  C   UNL A   1      35.961  29.502  29.366  1.00  0.00     0.016 A 
ATOM      8  C   UNL A   1      38.373  29.692  28.090  1.00  0.00     0.010 A 
ATOM      9  C   UNL A   1      37.095  29.200  30.071  1.00  0.00     0.010 A 
ATOM     10  C   UNL A   1      38.310  29.230  29.422  1.00  0.00    -0.014 A 
BRANCH  10  11
ATOM     11  C   UNL A   1      39.524  28.871  30.180  1.00  0.00     0.031 A 
ATOM     12  C   UNL A   1      39.885  29.973  31.142  1.00  0.00     0.074 A 
ATOM     13  C   UNL A   1      40.223  27.789  29.743  1.00  0.00     0.049 A 
ATOM     14  N   UNL A   1      40.654  30.981  30.887  1.00  0.00    -0.248 NA
ATOM     15  C   UNL A   1      39.114  30.167  32.393  1.00  0.00     0.031 C 
ATOM     16  C   UNL A   1      39.664  26.708  28.903  1.00  0.00     0.029 A 
ATOM     17  N   UNL A   1      41.532  27.396  29.865  1.00  0.00    -0.354 N 
ATOM     18  C   UNL A   1      40.587  31.840  31.990  1.00  0.00     0.074 A 
ATOM     19  C   UNL A   1      39.449  31.413  32.755  1.00  0.00     0.031 C 
ATOM     20  C   UNL A   1      40.643  25.876  28.486  1.00  0.00     0.029 A 
ATOM     21  C   UNL A   1      41.917  26.357  28.987  1.00  0.00     0.049 A 
ATOM     22  H   UNL A   1      42.153  27.806  30.512  1.00  0.00     0.167 HD
ATOM     23  C   UNL A   1      41.610  32.676  32.332  1.00  0.00     0.031 A 
ATOM     24  C   UNL A   1      43.178  25.990  28.607  1.00  0.00     0.031 A 
ATOM     25  C   UNL A   1      42.776  32.302  31.583  1.00  0.00     0.049 A 
ATOM     26  C   UNL A   1      44.087  26.968  29.238  1.00  0.00     0.074 A 
ATOM     27  C   UNL A   1      43.116  32.374  30.256  1.00  0.00     0.029 A 
ATOM     28  N   UNL A   1      43.568  31.346  32.193  1.00  0.00    -0.354 N 
ATOM     29  N   UNL A   1      44.384  27.032  30.497  1.00  0.00    -0.248 NA
ATOM     30  C   UNL A   1      44.657  28.029  28.391  1.00  0.00     0.031 C 
ATOM     31  C   UNL A   1      43.751  31.133  30.012  1.00  0.00     0.029 A 
ATOM     32  C   UNL A   1      43.968  30.463  31.223  1.00  0.00     0.049 A 
ATOM     33  H   UNL A   1      43.802  31.307  33.149  1.00  0.00     0.167 HD
ATOM     34  C   UNL A   1      44.834  28.323  30.633  1.00  0.00     0.074 A 
ATOM     35  C   UNL A   1      45.272  28.753  29.322  1.00  0.00     0.031 C 
ATOM     36  C   UNL A   1      44.310  29.109  31.611  1.00  0.00     0.031 A 
BRANCH  23  37
ATOM     37  C   UNL A   1      41.833  33.548  33.534  1.00  0.00    -0.014 A 
ATOM     38  C   UNL A   1      41.635  32.939  34.799  1.00  0.00     0.010 A 
ATOM     39  C   UNL A   1      41.983  34.940  33.504  1.00  0.00     0.010 A 
ATOM     40  C   UNL A   1      41.461  33.692  35.959  1.00  0.00     0.020 A 
ATOM     41  C   UNL A   1      41.847  35.703  34.673  1.00  0.00     0.020 A 
ATOM     42  C   UNL A   1      41.539  35.077  35.881  1.00  0.00     0.054 A 
BRANCH  42  43
ATOM     43  S   UNL A   1      41.173  36.043  37.366  1.00  0.00     0.124 S 
ATOM     44  O   UNL A   1      39.887  36.648  37.027  1.00  0.00    -0.237 OA
ATOM     45  O   UNL A   1      41.130  35.018  38.406  1.00  0.00    -0.237 OA
ATOM     46  O   UNL A   1      42.299  36.969  37.459  1.00  0.00    -0.744 OA
ENDBRANCH  42  43
ENDBRANCH  23  37
BRANCH  24  47
ATOM     47  C   UNL A   1      43.825  25.077  27.596  1.00  0.00    -0.014 A 
ATOM     48  C   UNL A   1      44.964  24.288  27.789  1.00  0.00     0.010 A 
ATOM     49  C   UNL A   1      43.158  24.911  26.348  1.00  0.00     0.010 A 
ATOM     50  C   UNL A   1      45.321  23.289  26.851  1.00  0.00     0.020 A 
ATOM     51  C   UNL A   1      43.464  23.896  25.444  1.00  0.00     0.020 A 
ATOM     52  C   UNL A   1      44.537  23.068  25.712  1.00  0.00     0.054 A 
BRANCH  52  53
ATOM     53  S   UNL A   1      44.817  21.633  24.637  1.00  0.00     0.124 S 
ATOM     54  O   UNL A   1      46.186  21.254  24.972  1.00  0.00    -0.237 OA
ATOM     55  O   UNL A   1      43.779  20.698  25.062  1.00  0.00    -0.237 OA
ATOM     56  O   UNL A   1      44.630  22.180  23.293  1.00  0.00    -0.744 OA
ENDBRANCH  52  53
ENDBRANCH  24  47
BRANCH  36  57
ATOM     57  C   UNL A   1      43.753  28.339  32.806  1.00  0.00    -0.014 A 
ATOM     58  C   UNL A   1      42.360  28.288  33.026  1.00  0.00     0.010 A 
ATOM     59  C   UNL A   1      44.574  27.785  33.803  1.00  0.00     0.010 A 
ATOM     60  C   UNL A   1      41.815  27.735  34.197  1.00  0.00     0.020 A 
ATOM     61  C   UNL A   1      44.042  27.227  34.982  1.00  0.00     0.020 A 
ATOM     62  C   UNL A   1      42.661  27.207  35.172  1.00  0.00     0.054 A 
BRANCH  62  63
ATOM     63  S   UNL A   1      41.934  26.525  36.694  1.00  0.00     0.124 S 
ATOM     64  O   UNL A   1      43.020  26.655  37.663  1.00  0.00    -0.237 OA
ATOM     65  O   UNL A   1      40.789  27.403  36.916  1.00  0.00    -0.237 OA
ATOM     66  O   UNL A   1      41.600  25.146  36.333  1.00  0.00    -0.744 OA
ENDBRANCH  62  63
ENDBRANCH  36  57
ENDBRANCH  10  11
ENDBRANCH   3   5
ENDBRANCH   2   3
ENDBRANCH   1   2
BRANCH   1  67
ATOM     67  C   UNL A   1      33.568  32.619  27.987  1.00  0.00     0.274 C 
BRANCH  67  68
ATOM     68  O   UNL A   1      34.370  32.604  29.190  1.00  0.00    -0.461 OA
BRANCH  68  69
ATOM     69  C   UNL A   1      35.353  33.543  29.391  1.00  0.00     0.324 C 
ATOM     70  O   UNL A   1      35.443  34.603  28.789  1.00  0.00    -0.250 OA
BRANCH  69  71
ATOM     71  C   UNL A   1      36.393  32.971  30.356  1.00  0.00     0.183 C 
ATOM     72  C   UNL A   1      37.785  32.982  29.691  1.00  0.00     0.032 C 
ATOM     73  N   UNL A   1      36.481  33.395  31.799  1.00  0.00    -0.184 NA
ATOM     74  C   UNL A   1      38.531  34.285  29.911  1.00  0.00     0.004 C 
ATOM     75  C   UNL A   1      37.221  34.660  32.005  1.00  0.00     0.103 C 
ATOM     76  C   UNL A   1      38.612  34.574  31.401  1.00  0.00     0.017 C 
BRANCH  73  77
ATOM     77  S   UNL A   1      35.051  33.339  32.764  1.00  0.00     0.245 S 
ATOM     78  O   UNL A   1      34.101  32.462  32.137  1.00  0.00    -0.207 OA
ATOM     79  O   UNL A   1      35.420  33.199  34.157  1.00  0.00    -0.207 OA
BRANCH  77  80
ATOM     80  C   UNL A   1      34.276  34.908  32.751  1.00  0.00     0.100 A 
ATOM     81  C   UNL A   1      34.403  35.902  33.758  1.00  0.00     0.041 A 
ATOM     82  C   UNL A   1      33.536  35.480  31.728  1.00  0.00     0.104 A 
ATOM     83  C   UNL A   1      33.736  37.029  33.322  1.00  0.00     0.083 A 
ATOM     84  N   UNL A   1      33.195  36.761  32.090  1.00  0.00    -0.366 N 
ATOM     85  H   UNL A   1      32.653  37.384  31.553  1.00  0.00     0.165 HD
ENDBRANCH  77  80
ENDBRANCH  73  77
ENDBRANCH  69  71
ENDBRANCH  68  69
ENDBRANCH  67  68
ENDBRANCH   1  67
TORSDOF 16
ENDMDL
MODEL 2
REMARK VINA RESULT:     -10.4      4.023     11.766
REMARK SMILES O=C(OCCOC(=O)[C@H]1CCCCN1S(=O)(=O)c1cc[nH]c1)c1ccc(-c2c3nc(c(-c4ccc(S(=O)(=O)[O-])cc4)c4ccc([nH]4)c(-c4ccc(S(=O)(=O)[O-])cc4)c4nc(c(-c5ccc(S(=O)(=O)[O-])cc5)c5ccc2[nH]5)C=C4)C=C3)cc1
REMARK SMILES IDX 4 1 3 2 2 3 1 4 23 5 24 6 82 7 25 8 81 9 26 10 27 11 28 12
REMARK SMILES IDX 75 13 29 14 80 15 74 16 76 17 30 18 79 19 73 20 72 21 31 23
REMARK SMILES IDX 61 24 42 25 60 26 43 27 46 28 59 29 77 30 44 31 45 32 58 34
REMARK SMILES IDX 78 35 47 36 32 37 33 38 41 39 34 40 40 41 35 42 36 43 37 44
REMARK SMILES IDX 38 45 39 46 62 47 63 48 71 49 64 50 70 51 65 52 66 53 67 54
REMARK SMILES IDX 68 55 69 56 48 57 49 58 57 59 50 60 56 61 51 62 52 63 53 64
REMARK SMILES IDX 54 65 55 66 5 67 6 68 7 69 8 70 9 71 10 72 14 73 11 74 13 75
REMARK SMILES IDX 12 76 15 77 16 78 17 79 18 80 19 81 22 82 20 83 21 84
REMARK H PARENT 76 22 46 33 21 85
REMARK Flexibility Score: inf
ROOT
ATOM      1  C   UNL A   1      38.795  21.365  25.463  1.00  0.00     0.275 C 
ENDROOT
BRANCH   1   2
ATOM      2  O   UNL A   1      38.172  22.151  26.489  1.00  0.00    -0.458 OA
BRANCH   2   3
ATOM      3  C   UNL A   1      38.089  23.445  26.099  1.00  0.00     0.338 C 
ATOM      4  O   UNL A   1      37.368  23.868  25.209  1.00  0.00    -0.246 OA
BRANCH   3   5
ATOM      5  C   UNL A   1      39.061  24.299  26.783  1.00  0.00     0.060 A 
ATOM      6  C   UNL A   1      38.910  24.676  28.106  1.00  0.00     0.016 A 
ATOM      7  C   UNL A   1      39.963  24.971  25.973  1.00  0.00     0.016 A 
ATOM      8  C   UNL A   1      39.574  25.823  28.543  1.00  0.00     0.010 A 
ATOM      9  C   UNL A   1      40.567  26.133  26.372  1.00  0.00     0.010 A 
ATOM     10  C   UNL A   1      40.328  26.606  27.643  1.00  0.00    -0.014 A 
BRANCH  10  11
ATOM     11  C   UNL A   1      40.956  27.876  28.054  1.00  0.00     0.031 A 
ATOM     12  C   UNL A   1      42.377  27.639  28.494  1.00  0.00     0.074 A 
ATOM     13  C   UNL A   1      40.133  28.949  28.200  1.00  0.00     0.049 A 
ATOM     14  N   UNL A   1      42.761  27.357  29.697  1.00  0.00    -0.248 NA
ATOM     15  C   UNL A   1      43.445  27.387  27.498  1.00  0.00     0.031 C 
ATOM     16  C   UNL A   1      38.801  29.081  27.571  1.00  0.00     0.029 A 
ATOM     17  N   UNL A   1      40.212  30.110  28.928  1.00  0.00    -0.354 N 
ATOM     18  C   UNL A   1      44.127  27.054  29.632  1.00  0.00     0.074 A 
ATOM     19  C   UNL A   1      44.421  26.848  28.242  1.00  0.00     0.031 C 
ATOM     20  C   UNL A   1      38.156  30.168  28.049  1.00  0.00     0.029 A 
ATOM     21  C   UNL A   1      38.991  30.814  29.045  1.00  0.00     0.049 A 
ATOM     22  H   UNL A   1      41.051  30.426  29.337  1.00  0.00     0.167 HD
ATOM     23  C   UNL A   1      44.969  27.242  30.689  1.00  0.00     0.031 A 
ATOM     24  C   UNL A   1      38.647  31.771  29.958  1.00  0.00     0.031 A 
ATOM     25  C   UNL A   1      44.293  28.029  31.680  1.00  0.00     0.049 A 
ATOM     26  C   UNL A   1      39.793  31.873  30.882  1.00  0.00     0.074 A 
ATOM     27  C   UNL A   1      43.237  27.792  32.522  1.00  0.00     0.029 A 
ATOM     28  N   UNL A   1      44.443  29.395  31.528  1.00  0.00    -0.354 N 
ATOM     29  N   UNL A   1      40.943  32.408  30.616  1.00  0.00    -0.248 NA
ATOM     30  C   UNL A   1      39.672  31.245  32.208  1.00  0.00     0.031 C 
ATOM     31  C   UNL A   1      42.491  28.993  32.459  1.00  0.00     0.029 A 
ATOM     32  C   UNL A   1      43.223  29.972  31.774  1.00  0.00     0.049 A 
ATOM     33  H   UNL A   1      45.272  29.868  31.288  1.00  0.00     0.167 HD
ATOM     34  C   UNL A   1      41.762  31.843  31.564  1.00  0.00     0.074 A 
ATOM     35  C   UNL A   1      40.911  31.426  32.657  1.00  0.00     0.031 C 
ATOM     36  C   UNL A   1      42.924  31.255  31.171  1.00  0.00     0.031 A 
BRANCH  23  37
ATOM     37  C   UNL A   1      46.464  27.147  30.809  1.00  0.00    -0.014 A 
ATOM     38  C   UNL A   1      47.212  28.160  30.155  1.00  0.00     0.010 A 
ATOM     39  C   UNL A   1      47.166  26.039  31.297  1.00  0.00     0.010 A 
ATOM     40  C   UNL A   1      48.571  28.011  29.884  1.00  0.00     0.020 A 
ATOM     41  C   UNL A   1      48.542  25.899  31.062  1.00  0.00     0.020 A 
ATOM     42  C   UNL A   1      49.222  26.862  30.316  1.00  0.00     0.054 A 
BRANCH  42  43
ATOM     43  S   UNL A   1      50.950  26.620  29.835  1.00  0.00     0.124 S 
ATOM     44  O   UNL A   1      50.862  25.459  28.953  1.00  0.00    -0.237 OA
ATOM     45  O   UNL A   1      51.272  27.884  29.178  1.00  0.00    -0.237 OA
ATOM     46  O   UNL A   1      51.631  26.395  31.107  1.00  0.00    -0.744 OA
ENDBRANCH  42  43
ENDBRANCH  23  37
BRANCH  24  47
ATOM     47  C   UNL A   1      37.409  32.517  30.391  1.00  0.00    -0.014 A 
ATOM     48  C   UNL A   1      36.082  32.142  30.157  1.00  0.00     0.010 A 
ATOM     49  C   UNL A   1      37.595  33.665  31.213  1.00  0.00     0.010 A 
ATOM     50  C   UNL A   1      35.017  32.789  30.830  1.00  0.00     0.020 A 
ATOM     51  C   UNL A   1      36.564  34.274  31.925  1.00  0.00     0.020 A 
ATOM     52  C   UNL A   1      35.272  33.815  31.747  1.00  0.00     0.054 A 
BRANCH  52  53
ATOM     53  S   UNL A   1      33.961  34.478  32.812  1.00  0.00     0.124 S 
ATOM     54  O   UNL A   1      33.085  35.142  31.852  1.00  0.00    -0.237 OA
ATOM     55  O   UNL A   1      33.416  33.280  33.444  1.00  0.00    -0.237 OA
ATOM     56  O   UNL A   1      34.685  35.369  33.719  1.00  0.00    -0.744 OA
ENDBRANCH  52  53
ENDBRANCH  24  47
BRANCH  36  57
ATOM     57  C   UNL A   1      43.491  31.796  29.861  1.00  0.00    -0.014 A 
ATOM     58  C   UNL A   1      43.771  33.172  29.728  1.00  0.00     0.010 A 
ATOM     59  C   UNL A   1      43.620  31.007  28.705  1.00  0.00     0.010 A 
ATOM     60  C   UNL A   1      44.136  33.738  28.494  1.00  0.00     0.020 A 
ATOM     61  C   UNL A   1      43.985  31.560  27.461  1.00  0.00     0.020 A 
ATOM     62  C   UNL A   1      44.240  32.928  27.364  1.00  0.00     0.054 A 
BRANCH  62  63
ATOM     63  S   UNL A   1      44.681  33.687  25.772  1.00  0.00     0.124 S 
ATOM     64  O   UNL A   1      43.990  34.973  25.818  1.00  0.00    -0.237 OA
ATOM     65  O   UNL A   1      46.137  33.757  25.850  1.00  0.00    -0.237 OA
ATOM     66  O   UNL A   1      44.155  32.747  24.780  1.00  0.00    -0.744 OA
ENDBRANCH  62  63
ENDBRANCH  36  57
ENDBRANCH  10  11
ENDBRANCH   3   5
ENDBRANCH   2   3
ENDBRANCH   1   2
BRANCH   1  67
ATOM     67  C   UNL A   1      40.102  20.704  25.941  1.00  0.00     0.274 C 
BRANCH  67  68
ATOM     68  O   UNL A   1      41.225  21.615  25.944  1.00  0.00    -0.461 OA
BRANCH  68  69
ATOM     69  C   UNL A   1      42.082  21.672  27.017  1.00  0.00     0.324 C 
ATOM     70  O   UNL A   1      42.165  20.824  27.892  1.00  0.00    -0.250 OA
BRANCH  69  71
ATOM     71  C   UNL A   1      42.779  23.034  27.020  1.00  0.00     0.183 C 
ATOM     72  C   UNL A   1      42.627  23.696  28.406  1.00  0.00     0.032 C 
ATOM     73  N   UNL A   1      44.170  23.235  26.476  1.00  0.00    -0.184 NA
ATOM     74  C   UNL A   1      43.733  23.305  29.368  1.00  0.00     0.004 C 
ATOM     75  C   UNL A   1      45.241  22.864  27.426  1.00  0.00     0.103 C 
ATOM     76  C   UNL A   1      45.082  23.612  28.738  1.00  0.00     0.017 C 
BRANCH  73  77
ATOM     77  S   UNL A   1      44.520  22.676  24.881  1.00  0.00     0.245 S 
ATOM     78  O   UNL A   1      43.315  22.715  24.099  1.00  0.00    -0.207 OA
ATOM     79  O   UNL A   1      45.752  23.282  24.422  1.00  0.00    -0.207 OA
BRANCH  77  80
ATOM     80  C   UNL A   1      44.951  20.980  24.940  1.00  0.00     0.100 A 
ATOM     81  C   UNL A   1      46.273  20.463  24.993  1.00  0.00     0.041 A 
ATOM     82  C   UNL A   1      44.101  19.893  25.071  1.00  0.00     0.104 A 
ATOM     83  C   UNL A   1      46.184  19.095  25.145  1.00  0.00     0.083 A 
ATOM     84  N   UNL A   1      44.856  18.750  25.176  1.00  0.00    -0.366 N 
ATOM     85  H   UNL A   1      44.502  17.835  25.260  1.00  0.00     0.165 HD
ENDBRANCH  77  80
ENDBRANCH  73  77
ENDBRANCH  69  71
ENDBRANCH  68  69
ENDBRANCH  67  68
ENDBRANCH   1  67
TORSDOF 16
ENDMDL
MODEL 3
REMARK VINA RESULT:     -10.0      3.995     11.367
REMARK SMILES O=C(OCCOC(=O)[C@H]1CCCCN1S(=O)(=O)c1cc[nH]c1)c1ccc(-c2c3nc(c(-c4ccc(S(=O)(=O)[O-])cc4)c4ccc([nH]4)c(-c4ccc(S(=O)(=O)[O-])cc4)c4nc(c(-c5ccc(S(=O)(=O)[O-])cc5)c5ccc2[nH]5)C=C4)C=C3)cc1
REMARK SMILES IDX 4 1 3 2 2 3 1 4 23 5 24 6 82 7 25 8 81 9 26 10 27 11 28 12
REMARK SMILES IDX 75 13 29 14 80 15 74 16 76 17 30 18 79 19 73 20 72 21 31 23
REMARK SMILES IDX 61 24 42 25 60 26 43 27 46 28 59 29 77 30 44 31 45 32 58 34
REMARK SMILES IDX 78 35 47 36 32 37 33 38 41 39 34 40 40 41 35 42 36 43 37 44
REMARK SMILES IDX 38 45 39 46 62 47 63 48 71 49 64 50 70 51 65 52 66 53 67 54
REMARK SMILES IDX 68 55 69 56 48 57 49 58 57 59 50 60 56 61 51 62 52 63 53 64
REMARK SMILES IDX 54 65 55 66 5 67 6 68 7 69 8 70 9 71 10 72 14 73 11 74 13 75
REMARK SMILES IDX 12 76 15 77 16 78 17 79 18 80 19 81 22 82 20 83 21 84
REMARK H PARENT 76 22 46 33 21 85
REMARK Flexibility Score: inf
ROOT
ATOM      1  C   UNL A   1      39.000  21.349  25.537  1.00  0.00     0.275 C 
ENDROOT
BRANCH   1   2
ATOM      2  O   UNL A   1      38.227  22.087  26.495  1.00  0.00    -0.458 OA
BRANCH   2   3
ATOM      3  C   UNL A   1      38.105  23.377  26.101  1.00  0.00     0.338 C 
ATOM      4  O   UNL A   1      37.401  23.770  25.184  1.00  0.00    -0.246 OA
BRANCH   3   5
ATOM      5  C   UNL A   1      39.014  24.271  26.821  1.00  0.00     0.060 A 
ATOM      6  C   UNL A   1      38.820  24.605  28.150  1.00  0.00     0.016 A 
ATOM      7  C   UNL A   1      39.885  25.015  26.042  1.00  0.00     0.016 A 
ATOM      8  C   UNL A   1      39.407  25.779  28.624  1.00  0.00     0.010 A 
ATOM      9  C   UNL A   1      40.412  26.201  26.478  1.00  0.00     0.010 A 
ATOM     10  C   UNL A   1      40.126  26.627  27.756  1.00  0.00    -0.014 A 
BRANCH  10  11
ATOM     11  C   UNL A   1      40.670  27.923  28.207  1.00  0.00     0.031 A 
ATOM     12  C   UNL A   1      42.091  27.757  28.680  1.00  0.00     0.074 A 
ATOM     13  C   UNL A   1      39.784  28.944  28.352  1.00  0.00     0.049 A 
ATOM     14  N   UNL A   1      42.461  27.473  29.887  1.00  0.00    -0.248 NA
ATOM     15  C   UNL A   1      43.197  27.585  27.708  1.00  0.00     0.031 C 
ATOM     16  C   UNL A   1      38.463  29.014  27.690  1.00  0.00     0.029 A 
ATOM     17  N   UNL A   1      39.779  30.092  29.103  1.00  0.00    -0.354 N 
ATOM     18  C   UNL A   1      43.842  27.249  29.853  1.00  0.00     0.074 A 
ATOM     19  C   UNL A   1      44.183  27.088  28.467  1.00  0.00     0.031 C 
ATOM     20  C   UNL A   1      37.745  30.053  28.171  1.00  0.00     0.029 A 
ATOM     21  C   UNL A   1      38.517  30.725  29.200  1.00  0.00     0.049 A 
ATOM     22  H   UNL A   1      40.588  30.447  29.539  1.00  0.00     0.167 HD
ATOM     23  C   UNL A   1      44.646  27.462  30.935  1.00  0.00     0.031 A 
ATOM     24  C   UNL A   1      38.097  31.642  30.122  1.00  0.00     0.031 A 
ATOM     25  C   UNL A   1      43.901  28.190  31.922  1.00  0.00     0.049 A 
ATOM     26  C   UNL A   1      39.212  31.790  31.078  1.00  0.00     0.074 A 
ATOM     27  C   UNL A   1      42.839  27.877  32.731  1.00  0.00     0.029 A 
ATOM     28  N   UNL A   1      43.976  29.565  31.800  1.00  0.00    -0.354 N 
ATOM     29  N   UNL A   1      40.336  32.394  30.853  1.00  0.00    -0.248 NA
ATOM     30  C   UNL A   1      39.093  31.129  32.388  1.00  0.00     0.031 C 
ATOM     31  C   UNL A   1      42.028  29.035  32.671  1.00  0.00     0.029 A 
ATOM     32  C   UNL A   1      42.720  30.067  32.024  1.00  0.00     0.049 A 
ATOM     33  H   UNL A   1      44.784  30.088  31.590  1.00  0.00     0.167 HD
ATOM     34  C   UNL A   1      41.161  31.857  31.811  1.00  0.00     0.074 A 
ATOM     35  C   UNL A   1      40.307  31.370  32.873  1.00  0.00     0.031 C 
ATOM     36  C   UNL A   1      42.364  31.343  31.438  1.00  0.00     0.031 A 
BRANCH  23  37
ATOM     37  C   UNL A   1      46.140  27.450  31.091  1.00  0.00    -0.014 A 
ATOM     38  C   UNL A   1      46.861  28.396  30.319  1.00  0.00     0.010 A 
ATOM     39  C   UNL A   1      46.875  26.449  31.738  1.00  0.00     0.010 A 
ATOM     40  C   UNL A   1      48.231  28.271  30.094  1.00  0.00     0.020 A 
ATOM     41  C   UNL A   1      48.260  26.339  31.548  1.00  0.00     0.020 A 
ATOM     42  C   UNL A   1      48.918  27.220  30.690  1.00  0.00     0.054 A 
BRANCH  42  43
ATOM     43  S   UNL A   1      50.665  26.991  30.276  1.00  0.00     0.124 S 
ATOM     44  O   UNL A   1      50.676  27.261  28.841  1.00  0.00    -0.237 OA
ATOM     45  O   UNL A   1      51.319  27.997  31.109  1.00  0.00    -0.237 OA
ATOM     46  O   UNL A   1      50.929  25.607  30.658  1.00  0.00    -0.744 OA
ENDBRANCH  42  43
ENDBRANCH  23  37
BRANCH  24  47
ATOM     47  C   UNL A   1      36.808  32.308  30.536  1.00  0.00    -0.014 A 
ATOM     48  C   UNL A   1      36.132  32.141  31.749  1.00  0.00     0.010 A 
ATOM     49  C   UNL A   1      36.269  33.288  29.654  1.00  0.00     0.010 A 
ATOM     50  C   UNL A   1      35.076  33.009  32.116  1.00  0.00     0.020 A 
ATOM     51  C   UNL A   1      35.269  34.185  30.024  1.00  0.00     0.020 A 
ATOM     52  C   UNL A   1      34.688  34.056  31.271  1.00  0.00     0.054 A 
BRANCH  52  53
ATOM     53  S   UNL A   1      33.525  35.335  31.824  1.00  0.00     0.124 S 
ATOM     54  O   UNL A   1      32.599  34.576  32.658  1.00  0.00    -0.237 OA
ATOM     55  O   UNL A   1      34.388  36.277  32.531  1.00  0.00    -0.237 OA
ATOM     56  O   UNL A   1      32.966  35.844  30.572  1.00  0.00    -0.744 OA
ENDBRANCH  52  53
ENDBRANCH  24  47
BRANCH  36  57
ATOM     57  C   UNL A   1      42.932  31.942  30.153  1.00  0.00    -0.014 A 
ATOM     58  C   UNL A   1      43.152  31.120  29.028  1.00  0.00     0.010 A 
ATOM     59  C   UNL A   1      43.394  33.268  30.071  1.00  0.00     0.010 A 
ATOM     60  C   UNL A   1      43.824  31.591  27.887  1.00  0.00     0.020 A 
ATOM     61  C   UNL A   1      44.068  33.753  28.934  1.00  0.00     0.020 A 
ATOM     62  C   UNL A   1      44.281  32.908  27.846  1.00  0.00     0.054 A 
BRANCH  62  63
ATOM     63  S   UNL A   1      45.176  33.485  26.372  1.00  0.00     0.124 S 
ATOM     64  O   UNL A   1      44.549  34.774  26.091  1.00  0.00    -0.237 OA
ATOM     65  O   UNL A   1      46.555  33.549  26.846  1.00  0.00    -0.237 OA
ATOM     66  O   UNL A   1      44.909  32.447  25.373  1.00  0.00    -0.744 OA
ENDBRANCH  62  63
ENDBRANCH  36  57
ENDBRANCH  10  11
ENDBRANCH   3   5
ENDBRANCH   2   3
ENDBRANCH   1   2
BRANCH   1  67
ATOM     67  C   UNL A   1      40.383  20.946  26.084  1.00  0.00     0.274 C 
BRANCH  67  68
ATOM     68  O   UNL A   1      41.381  21.976  25.904  1.00  0.00    -0.461 OA
BRANCH  68  69
ATOM     69  C   UNL A   1      42.602  21.890  26.530  1.00  0.00     0.324 C 
ATOM     70  O   UNL A   1      43.172  20.847  26.811  1.00  0.00    -0.250 OA
BRANCH  69  71
ATOM     71  C   UNL A   1      43.037  23.293  26.959  1.00  0.00     0.183 C 
ATOM     72  C   UNL A   1      42.422  23.632  28.334  1.00  0.00     0.032 C 
ATOM     73  N   UNL A   1      44.467  23.760  26.877  1.00  0.00    -0.184 NA
ATOM     74  C   UNL A   1      43.291  23.181  29.494  1.00  0.00     0.004 C 
ATOM     75  C   UNL A   1      45.302  23.325  28.019  1.00  0.00     0.103 C 
ATOM     76  C   UNL A   1      44.686  23.764  29.336  1.00  0.00     0.017 C 
BRANCH  73  77
ATOM     77  S   UNL A   1      45.307  23.585  25.380  1.00  0.00     0.245 S 
ATOM     78  O   UNL A   1      46.348  22.607  25.542  1.00  0.00    -0.207 OA
ATOM     79  O   UNL A   1      44.346  23.509  24.299  1.00  0.00    -0.207 OA
BRANCH  77  80
ATOM     80  C   UNL A   1      46.153  25.071  25.008  1.00  0.00     0.100 A 
ATOM     81  C   UNL A   1      45.583  26.373  25.017  1.00  0.00     0.041 A 
ATOM     82  C   UNL A   1      47.509  25.239  24.777  1.00  0.00     0.104 A 
ATOM     83  C   UNL A   1      46.598  27.278  24.785  1.00  0.00     0.083 A 
ATOM     84  N   UNL A   1      47.769  26.580  24.623  1.00  0.00    -0.366 N 
ATOM     85  H   UNL A   1      48.651  26.975  24.430  1.00  0.00     0.165 HD
ENDBRANCH  77  80
ENDBRANCH  73  77
ENDBRANCH  69  71
ENDBRANCH  68  69
ENDBRANCH  67  68
ENDBRANCH   1  67
TORSDOF 16
ENDMDL
