MODEL 1
REMARK VINA RESULT:     -12.2      0.000      0.000
REMARK SMILES Cc1c(C(=O)OCCOC(=O)c2ccc(-c3c4nc(c(-c5ccc(S(=O)(=O)[O-])cc5)c5ccc([nH]5)c(-c5ccc(S(=O)(=O)[O-])cc5)c5nc(c(-c6ccc(S(=O)(=O)[O-])cc6)c6ccc3[nH]6)C=C5)C=C4)cc2)sc2c1=C(CSc1nncn1-c1ccccc1)CC(=O)N=2
REMARK SMILES IDX 7 1 6 2 4 3 5 4 3 5 1 6 2 7 74 8 72 9 73 10 75 11 92 12
REMARK SMILES IDX 89 13 90 14 91 15 76 16 77 17 78 18 79 19 82 20 80 21 81 22
REMARK SMILES IDX 83 23 84 24 88 25 85 26 87 27 86 28 8 29 9 30 10 31 11 32
REMARK SMILES IDX 12 33 13 34 71 35 14 36 70 37 15 38 16 39 17 40 64 41 18 42
REMARK SMILES IDX 69 43 63 44 65 45 19 46 68 47 62 48 61 49 20 51 50 52 31 53
REMARK SMILES IDX 49 54 32 55 35 56 48 57 66 58 33 59 34 60 47 62 67 63 36 64
REMARK SMILES IDX 21 65 22 66 30 67 23 68 29 69 24 70 25 71 26 72 27 73 28 74
REMARK SMILES IDX 51 75 52 76 60 77 53 78 59 79 54 80 55 81 56 82 57 83 58 84
REMARK SMILES IDX 37 85 38 86 46 87 39 88 45 89 40 90 41 91 42 92 43 93 44 94
REMARK H PARENT 65 50 35 61
REMARK Flexibility Score: inf
ROOT
ATOM      1  C   UNL A   1      32.201  29.923  25.415  1.00  0.00     0.275 C 
ENDROOT
BRANCH   1   2
ATOM      2  O   UNL A   1      33.226  29.558  24.470  1.00  0.00    -0.458 OA
BRANCH   2   3
ATOM      3  C   UNL A   1      32.923  28.570  23.587  1.00  0.00     0.348 C 
ATOM      4  O   UNL A   1      33.033  28.678  22.372  1.00  0.00    -0.245 OA
BRANCH   3   5
ATOM      5  C   UNL A   1      32.500  27.307  24.268  1.00  0.00     0.118 A 
ATOM      6  C   UNL A   1      29.969  27.132  23.826  1.00  0.00     0.047 C 
ATOM      7  C   UNL A   1      31.309  26.673  24.303  1.00  0.00    -0.016 A 
ATOM      8  C   UNL A   1      31.313  25.478  25.129  1.00  0.00     0.016 A 
ATOM      9  S   UNL A   1      33.693  26.569  25.340  1.00  0.00    -0.108 S 
ATOM     10  C   UNL A   1      32.583  25.333  25.904  1.00  0.00     0.128 A 
ATOM     11  C   UNL A   1      30.837  24.230  24.947  1.00  0.00    -0.040 C 
ATOM     12  N   UNL A   1      32.919  24.425  26.747  1.00  0.00    -0.202 NA
ATOM     13  C   UNL A   1      30.665  23.471  26.247  1.00  0.00     0.135 C 
ATOM     14  C   UNL A   1      31.996  23.422  27.000  1.00  0.00     0.251 C 
ATOM     15  O   UNL A   1      32.207  22.512  27.785  1.00  0.00    -0.272 OA
BRANCH  11  16
ATOM     16  C   UNL A   1      31.144  23.290  23.789  1.00  0.00     0.110 C 
BRANCH  16  17
ATOM     17  S   UNL A   1      32.873  23.016  23.375  1.00  0.00    -0.081 SA
BRANCH  17  18
ATOM     18  C   UNL A   1      33.119  21.457  24.086  1.00  0.00     0.195 A 
ATOM     19  N   UNL A   1      32.250  20.473  24.003  1.00  0.00    -0.123 NA
ATOM     20  N   UNL A   1      34.313  21.000  24.610  1.00  0.00    -0.277 N 
ATOM     21  N   UNL A   1      32.877  19.325  24.403  1.00  0.00    -0.138 NA
ATOM     22  C   UNL A   1      34.109  19.644  24.728  1.00  0.00     0.231 A 
BRANCH  20  23
ATOM     23  C   UNL A   1      35.515  21.691  24.920  1.00  0.00     0.049 A 
ATOM     24  C   UNL A   1      36.720  21.001  25.110  1.00  0.00     0.027 A 
ATOM     25  C   UNL A   1      35.488  23.086  25.065  1.00  0.00     0.027 A 
ATOM     26  C   UNL A   1      37.876  21.694  25.465  1.00  0.00     0.002 A 
ATOM     27  C   UNL A   1      36.647  23.771  25.430  1.00  0.00     0.002 A 
ATOM     28  C   UNL A   1      37.841  23.077  25.612  1.00  0.00     0.000 A 
ENDBRANCH  20  23
ENDBRANCH  17  18
ENDBRANCH  16  17
ENDBRANCH  11  16
ENDBRANCH   3   5
ENDBRANCH   2   3
ENDBRANCH   1   2
BRANCH   1  29
ATOM     29  C   UNL A   1      32.754  30.049  26.823  1.00  0.00     0.275 C 
BRANCH  29  30
ATOM     30  O   UNL A   1      34.169  30.179  26.796  1.00  0.00    -0.458 OA
BRANCH  30  31
ATOM     31  C   UNL A   1      34.644  31.196  27.546  1.00  0.00     0.338 C 
ATOM     32  O   UNL A   1      34.425  32.389  27.404  1.00  0.00    -0.246 OA
BRANCH  31  33
ATOM     33  C   UNL A   1      35.681  30.686  28.439  1.00  0.00     0.060 A 
ATOM     34  C   UNL A   1      36.427  31.643  29.135  1.00  0.00     0.016 A 
ATOM     35  C   UNL A   1      36.108  29.360  28.286  1.00  0.00     0.016 A 
ATOM     36  C   UNL A   1      37.707  31.319  29.518  1.00  0.00     0.010 A 
ATOM     37  C   UNL A   1      37.394  29.050  28.640  1.00  0.00     0.010 A 
ATOM     38  C   UNL A   1      38.195  30.055  29.184  1.00  0.00    -0.014 A 
BRANCH  38  39
ATOM     39  C   UNL A   1      39.594  29.782  29.418  1.00  0.00     0.031 A 
ATOM     40  C   UNL A   1      39.959  29.652  30.845  1.00  0.00     0.074 A 
ATOM     41  C   UNL A   1      40.407  29.476  28.392  1.00  0.00     0.049 A 
ATOM     42  N   UNL A   1      40.829  30.327  31.518  1.00  0.00    -0.248 NA
ATOM     43  C   UNL A   1      39.148  28.727  31.656  1.00  0.00     0.031 C 
ATOM     44  C   UNL A   1      40.019  29.231  26.998  1.00  0.00     0.029 A 
ATOM     45  N   UNL A   1      41.720  29.131  28.418  1.00  0.00    -0.354 N 
ATOM     46  C   UNL A   1      40.810  29.777  32.794  1.00  0.00     0.074 A 
ATOM     47  C   UNL A   1      39.631  28.955  32.873  1.00  0.00     0.031 C 
ATOM     48  C   UNL A   1      40.998  28.523  26.395  1.00  0.00     0.029 A 
ATOM     49  C   UNL A   1      42.102  28.359  27.330  1.00  0.00     0.049 A 
ATOM     50  H   UNL A   1      42.338  29.401  29.135  1.00  0.00     0.167 HD
ATOM     51  C   UNL A   1      41.897  29.801  33.612  1.00  0.00     0.031 A 
ATOM     52  C   UNL A   1      43.167  27.521  27.280  1.00  0.00     0.031 A 
ATOM     53  C   UNL A   1      42.864  30.783  33.203  1.00  0.00     0.049 A 
ATOM     54  C   UNL A   1      44.087  27.902  28.386  1.00  0.00     0.074 A 
ATOM     55  C   UNL A   1      42.822  32.147  32.992  1.00  0.00     0.029 A 
ATOM     56  N   UNL A   1      44.002  30.337  32.571  1.00  0.00    -0.354 N 
ATOM     57  N   UNL A   1      44.715  29.044  28.452  1.00  0.00    -0.248 NA
ATOM     58  C   UNL A   1      43.976  27.189  29.652  1.00  0.00     0.031 C 
ATOM     59  C   UNL A   1      43.663  32.375  31.865  1.00  0.00     0.029 A 
ATOM     60  C   UNL A   1      44.202  31.145  31.480  1.00  0.00     0.049 A 
ATOM     61  H   UNL A   1      44.567  29.581  32.849  1.00  0.00     0.167 HD
ATOM     62  C   UNL A   1      44.714  29.385  29.800  1.00  0.00     0.074 A 
ATOM     63  C   UNL A   1      44.342  28.156  30.497  1.00  0.00     0.031 C 
ATOM     64  C   UNL A   1      44.733  30.690  30.210  1.00  0.00     0.031 A 
BRANCH  51  65
ATOM     65  C   UNL A   1      42.235  28.652  34.529  1.00  0.00    -0.014 A 
ATOM     66  C   UNL A   1      42.723  28.924  35.820  1.00  0.00     0.010 A 
ATOM     67  C   UNL A   1      42.347  27.319  34.069  1.00  0.00     0.010 A 
ATOM     68  C   UNL A   1      43.355  27.928  36.577  1.00  0.00     0.020 A 
ATOM     69  C   UNL A   1      42.922  26.310  34.836  1.00  0.00     0.020 A 
ATOM     70  C   UNL A   1      43.465  26.632  36.069  1.00  0.00     0.054 A 
BRANCH  70  71
ATOM     71  S   UNL A   1      44.403  25.387  36.984  1.00  0.00     0.124 S 
ATOM     72  O   UNL A   1      43.832  24.147  36.465  1.00  0.00    -0.237 OA
ATOM     73  O   UNL A   1      45.776  25.673  36.582  1.00  0.00    -0.237 OA
ATOM     74  O   UNL A   1      44.092  25.685  38.381  1.00  0.00    -0.744 OA
ENDBRANCH  70  71
ENDBRANCH  51  65
BRANCH  52  75
ATOM     75  C   UNL A   1      43.201  26.201  26.595  1.00  0.00    -0.014 A 
ATOM     76  C   UNL A   1      43.869  26.029  25.370  1.00  0.00     0.010 A 
ATOM     77  C   UNL A   1      42.760  25.037  27.262  1.00  0.00     0.010 A 
ATOM     78  C   UNL A   1      44.109  24.741  24.853  1.00  0.00     0.020 A 
ATOM     79  C   UNL A   1      42.976  23.756  26.746  1.00  0.00     0.020 A 
ATOM     80  C   UNL A   1      43.667  23.612  25.550  1.00  0.00     0.054 A 
BRANCH  80  81
ATOM     81  S   UNL A   1      44.094  21.952  24.951  1.00  0.00     0.124 S 
ATOM     82  O   UNL A   1      42.905  21.181  25.302  1.00  0.00    -0.237 OA
ATOM     83  O   UNL A   1      44.308  22.174  23.525  1.00  0.00    -0.237 OA
ATOM     84  O   UNL A   1      45.297  21.611  25.709  1.00  0.00    -0.744 OA
ENDBRANCH  80  81
ENDBRANCH  52  75
BRANCH  64  85
ATOM     85  C   UNL A   1      45.044  31.770  29.197  1.00  0.00    -0.014 A 
ATOM     86  C   UNL A   1      46.353  32.218  28.925  1.00  0.00     0.010 A 
ATOM     87  C   UNL A   1      44.002  32.213  28.362  1.00  0.00     0.010 A 
ATOM     88  C   UNL A   1      46.606  33.098  27.863  1.00  0.00     0.020 A 
ATOM     89  C   UNL A   1      44.251  33.076  27.289  1.00  0.00     0.020 A 
ATOM     90  C   UNL A   1      45.552  33.519  27.048  1.00  0.00     0.054 A 
BRANCH  90  91
ATOM     91  S   UNL A   1      45.902  34.600  25.633  1.00  0.00     0.124 S 
ATOM     92  O   UNL A   1      44.992  34.088  24.611  1.00  0.00    -0.237 OA
ATOM     93  O   UNL A   1      45.581  35.929  26.151  1.00  0.00    -0.237 OA
ATOM     94  O   UNL A   1      47.321  34.378  25.365  1.00  0.00    -0.744 OA
ENDBRANCH  90  91
ENDBRANCH  64  85
ENDBRANCH  38  39
ENDBRANCH  31  33
ENDBRANCH  30  31
ENDBRANCH  29  30
ENDBRANCH   1  29
TORSDOF 18
ENDMDL
MODEL 2
REMARK VINA RESULT:     -12.2      1.451      3.198
REMARK SMILES Cc1c(C(=O)OCCOC(=O)c2ccc(-c3c4nc(c(-c5ccc(S(=O)(=O)[O-])cc5)c5ccc([nH]5)c(-c5ccc(S(=O)(=O)[O-])cc5)c5nc(c(-c6ccc(S(=O)(=O)[O-])cc6)c6ccc3[nH]6)C=C5)C=C4)cc2)sc2c1=C(CSc1nncn1-c1ccccc1)CC(=O)N=2
REMARK SMILES IDX 7 1 6 2 4 3 5 4 3 5 1 6 2 7 74 8 72 9 73 10 75 11 92 12
REMARK SMILES IDX 89 13 90 14 91 15 76 16 77 17 78 18 79 19 82 20 80 21 81 22
REMARK SMILES IDX 83 23 84 24 88 25 85 26 87 27 86 28 8 29 9 30 10 31 11 32
REMARK SMILES IDX 12 33 13 34 71 35 14 36 70 37 15 38 16 39 17 40 64 41 18 42
REMARK SMILES IDX 69 43 63 44 65 45 19 46 68 47 62 48 61 49 20 51 50 52 31 53
REMARK SMILES IDX 49 54 32 55 35 56 48 57 66 58 33 59 34 60 47 62 67 63 36 64
REMARK SMILES IDX 21 65 22 66 30 67 23 68 29 69 24 70 25 71 26 72 27 73 28 74
REMARK SMILES IDX 51 75 52 76 60 77 53 78 59 79 54 80 55 81 56 82 57 83 58 84
REMARK SMILES IDX 37 85 38 86 46 87 39 88 45 89 40 90 41 91 42 92 43 93 44 94
REMARK H PARENT 65 50 35 61
REMARK Flexibility Score: inf
ROOT
ATOM      1  C   UNL A   1      31.992  29.196  25.948  1.00  0.00     0.275 C 
ENDROOT
BRANCH   1   2
ATOM      2  O   UNL A   1      32.608  27.893  25.947  1.00  0.00    -0.458 OA
BRANCH   2   3
ATOM      3  C   UNL A   1      31.895  26.878  26.504  1.00  0.00     0.348 C 
ATOM      4  O   UNL A   1      30.860  27.032  27.140  1.00  0.00    -0.245 OA
BRANCH   3   5
ATOM      5  C   UNL A   1      32.482  25.536  26.200  1.00  0.00     0.118 A 
ATOM      6  C   UNL A   1      30.597  23.856  26.705  1.00  0.00     0.047 C 
ATOM      7  C   UNL A   1      31.932  24.303  26.205  1.00  0.00    -0.016 A 
ATOM      8  C   UNL A   1      32.876  23.246  25.886  1.00  0.00     0.016 A 
ATOM      9  S   UNL A   1      34.228  25.498  25.928  1.00  0.00    -0.108 S 
ATOM     10  C   UNL A   1      34.282  23.749  25.815  1.00  0.00     0.128 A 
ATOM     11  C   UNL A   1      32.817  22.172  25.073  1.00  0.00    -0.040 C 
ATOM     12  N   UNL A   1      35.365  23.097  25.587  1.00  0.00    -0.202 NA
ATOM     13  C   UNL A   1      33.851  21.118  25.416  1.00  0.00     0.135 C 
ATOM     14  C   UNL A   1      35.252  21.732  25.375  1.00  0.00     0.251 C 
ATOM     15  O   UNL A   1      36.214  21.015  25.156  1.00  0.00    -0.272 OA
BRANCH  11  16
ATOM     16  C   UNL A   1      32.482  22.162  23.587  1.00  0.00     0.110 C 
BRANCH  16  17
ATOM     17  S   UNL A   1      31.290  23.372  22.994  1.00  0.00    -0.081 SA
BRANCH  17  18
ATOM     18  C   UNL A   1      32.336  24.720  22.703  1.00  0.00     0.195 A 
ATOM     19  N   UNL A   1      33.599  24.601  22.354  1.00  0.00    -0.123 NA
ATOM     20  N   UNL A   1      31.926  26.034  22.582  1.00  0.00    -0.277 N 
ATOM     21  N   UNL A   1      34.032  25.825  21.923  1.00  0.00    -0.138 NA
ATOM     22  C   UNL A   1      33.023  26.658  22.030  1.00  0.00     0.231 A 
BRANCH  20  23
ATOM     23  C   UNL A   1      30.680  26.648  22.878  1.00  0.00     0.049 A 
ATOM     24  C   UNL A   1      30.384  27.942  22.428  1.00  0.00     0.027 A 
ATOM     25  C   UNL A   1      29.741  25.958  23.659  1.00  0.00     0.027 A 
ATOM     26  C   UNL A   1      29.176  28.545  22.774  1.00  0.00     0.002 A 
ATOM     27  C   UNL A   1      28.539  26.572  24.009  1.00  0.00     0.002 A 
ATOM     28  C   UNL A   1      28.252  27.857  23.552  1.00  0.00     0.000 A 
ENDBRANCH  20  23
ENDBRANCH  17  18
ENDBRANCH  16  17
ENDBRANCH  11  16
ENDBRANCH   3   5
ENDBRANCH   2   3
ENDBRANCH   1   2
BRANCH   1  29
ATOM     29  C   UNL A   1      32.610  30.107  26.993  1.00  0.00     0.275 C 
BRANCH  29  30
ATOM     30  O   UNL A   1      34.016  30.200  26.810  1.00  0.00    -0.458 OA
BRANCH  30  31
ATOM     31  C   UNL A   1      34.595  31.218  27.483  1.00  0.00     0.338 C 
ATOM     32  O   UNL A   1      34.445  32.415  27.291  1.00  0.00    -0.246 OA
BRANCH  31  33
ATOM     33  C   UNL A   1      35.643  30.684  28.347  1.00  0.00     0.060 A 
ATOM     34  C   UNL A   1      36.363  31.616  29.101  1.00  0.00     0.016 A 
ATOM     35  C   UNL A   1      36.104  29.380  28.118  1.00  0.00     0.016 A 
ATOM     36  C   UNL A   1      37.650  31.304  29.468  1.00  0.00     0.010 A 
ATOM     37  C   UNL A   1      37.398  29.083  28.457  1.00  0.00     0.010 A 
ATOM     38  C   UNL A   1      38.171  30.074  29.062  1.00  0.00    -0.014 A 
BRANCH  38  39
ATOM     39  C   UNL A   1      39.576  29.824  29.284  1.00  0.00     0.031 A 
ATOM     40  C   UNL A   1      39.956  29.701  30.707  1.00  0.00     0.074 A 
ATOM     41  C   UNL A   1      40.385  29.531  28.251  1.00  0.00     0.049 A 
ATOM     42  N   UNL A   1      40.820  30.391  31.373  1.00  0.00    -0.248 NA
ATOM     43  C   UNL A   1      39.167  28.764  31.527  1.00  0.00     0.031 C 
ATOM     44  C   UNL A   1      39.989  29.278  26.861  1.00  0.00     0.029 A 
ATOM     45  N   UNL A   1      41.704  29.207  28.266  1.00  0.00    -0.354 N 
ATOM     46  C   UNL A   1      40.821  29.842  32.649  1.00  0.00     0.074 A 
ATOM     47  C   UNL A   1      39.657  29.001  32.739  1.00  0.00     0.031 C 
ATOM     48  C   UNL A   1      40.974  28.585  26.250  1.00  0.00     0.029 A 
ATOM     49  C   UNL A   1      42.088  28.440  27.175  1.00  0.00     0.049 A 
ATOM     50  H   UNL A   1      42.324  29.487  28.978  1.00  0.00     0.167 HD
ATOM     51  C   UNL A   1      41.915  29.885  33.457  1.00  0.00     0.031 A 
ATOM     52  C   UNL A   1      43.167  27.620  27.116  1.00  0.00     0.031 A 
ATOM     53  C   UNL A   1      42.862  30.881  33.039  1.00  0.00     0.049 A 
ATOM     54  C   UNL A   1      44.090  28.016  28.215  1.00  0.00     0.074 A 
ATOM     55  C   UNL A   1      42.796  32.245  32.828  1.00  0.00     0.029 A 
ATOM     56  N   UNL A   1      44.002  30.453  32.398  1.00  0.00    -0.354 N 
ATOM     57  N   UNL A   1      44.700  29.169  28.274  1.00  0.00    -0.248 NA
ATOM     58  C   UNL A   1      44.001  27.302  29.482  1.00  0.00     0.031 C 
ATOM     59  C   UNL A   1      43.624  32.485  31.693  1.00  0.00     0.029 A 
ATOM     60  C   UNL A   1      44.180  31.264  31.305  1.00  0.00     0.049 A 
ATOM     61  H   UNL A   1      44.582  29.706  32.672  1.00  0.00     0.167 HD
ATOM     62  C   UNL A   1      44.705  29.510  29.621  1.00  0.00     0.074 A 
ATOM     63  C   UNL A   1      44.359  28.277  30.323  1.00  0.00     0.031 C 
ATOM     64  C   UNL A   1      44.707  30.816  30.030  1.00  0.00     0.031 A 
BRANCH  51  65
ATOM     65  C   UNL A   1      42.280  28.741  34.373  1.00  0.00    -0.014 A 
ATOM     66  C   UNL A   1      42.977  27.638  33.849  1.00  0.00     0.010 A 
ATOM     67  C   UNL A   1      41.722  28.592  35.663  1.00  0.00     0.010 A 
ATOM     68  C   UNL A   1      43.048  26.428  34.553  1.00  0.00     0.020 A 
ATOM     69  C   UNL A   1      41.834  27.413  36.395  1.00  0.00     0.020 A 
ATOM     70  C   UNL A   1      42.458  26.321  35.814  1.00  0.00     0.054 A 
BRANCH  70  71
ATOM     71  S   UNL A   1      42.427  24.723  36.656  1.00  0.00     0.124 S 
ATOM     72  O   UNL A   1      42.471  23.795  35.530  1.00  0.00    -0.237 OA
ATOM     73  O   UNL A   1      43.631  24.781  37.480  1.00  0.00    -0.237 OA
ATOM     74  O   UNL A   1      41.168  24.752  37.397  1.00  0.00    -0.744 OA
ENDBRANCH  70  71
ENDBRANCH  51  65
BRANCH  52  75
ATOM     75  C   UNL A   1      43.216  26.300  26.432  1.00  0.00    -0.014 A 
ATOM     76  C   UNL A   1      44.198  26.010  25.468  1.00  0.00     0.010 A 
ATOM     77  C   UNL A   1      42.422  25.225  26.890  1.00  0.00     0.010 A 
ATOM     78  C   UNL A   1      44.393  24.694  25.009  1.00  0.00     0.020 A 
ATOM     79  C   UNL A   1      42.596  23.919  26.425  1.00  0.00     0.020 A 
ATOM     80  C   UNL A   1      43.595  23.655  25.497  1.00  0.00     0.054 A 
BRANCH  80  81
ATOM     81  S   UNL A   1      43.936  21.941  25.005  1.00  0.00     0.124 S 
ATOM     82  O   UNL A   1      42.709  21.255  25.401  1.00  0.00    -0.237 OA
ATOM     83  O   UNL A   1      44.159  22.061  23.568  1.00  0.00    -0.237 OA
ATOM     84  O   UNL A   1      45.121  21.588  25.786  1.00  0.00    -0.744 OA
ENDBRANCH  80  81
ENDBRANCH  52  75
BRANCH  64  85
ATOM     85  C   UNL A   1      44.992  31.900  29.014  1.00  0.00    -0.014 A 
ATOM     86  C   UNL A   1      46.289  32.377  28.739  1.00  0.00     0.010 A 
ATOM     87  C   UNL A   1      43.938  32.316  28.179  1.00  0.00     0.010 A 
ATOM     88  C   UNL A   1      46.520  33.260  27.674  1.00  0.00     0.020 A 
ATOM     89  C   UNL A   1      44.165  33.181  27.103  1.00  0.00     0.020 A 
ATOM     90  C   UNL A   1      45.456  33.654  26.860  1.00  0.00     0.054 A 
BRANCH  90  91
ATOM     91  S   UNL A   1      45.779  34.739  25.441  1.00  0.00     0.124 S 
ATOM     92  O   UNL A   1      47.210  34.550  25.216  1.00  0.00    -0.237 OA
ATOM     93  O   UNL A   1      44.902  34.192  24.407  1.00  0.00    -0.237 OA
ATOM     94  O   UNL A   1      45.398  36.066  25.922  1.00  0.00    -0.744 OA
ENDBRANCH  90  91
ENDBRANCH  64  85
ENDBRANCH  38  39
ENDBRANCH  31  33
ENDBRANCH  30  31
ENDBRANCH  29  30
ENDBRANCH   1  29
TORSDOF 18
ENDMDL
MODEL 3
REMARK VINA RESULT:     -12.0      2.480      8.793
REMARK SMILES Cc1c(C(=O)OCCOC(=O)c2ccc(-c3c4nc(c(-c5ccc(S(=O)(=O)[O-])cc5)c5ccc([nH]5)c(-c5ccc(S(=O)(=O)[O-])cc5)c5nc(c(-c6ccc(S(=O)(=O)[O-])cc6)c6ccc3[nH]6)C=C5)C=C4)cc2)sc2c1=C(CSc1nncn1-c1ccccc1)CC(=O)N=2
REMARK SMILES IDX 7 1 6 2 4 3 5 4 3 5 1 6 2 7 74 8 72 9 73 10 75 11 92 12
REMARK SMILES IDX 89 13 90 14 91 15 76 16 77 17 78 18 79 19 82 20 80 21 81 22
REMARK SMILES IDX 83 23 84 24 88 25 85 26 87 27 86 28 8 29 9 30 10 31 11 32
REMARK SMILES IDX 12 33 13 34 71 35 14 36 70 37 15 38 16 39 17 40 64 41 18 42
REMARK SMILES IDX 69 43 63 44 65 45 19 46 68 47 62 48 61 49 20 51 50 52 31 53
REMARK SMILES IDX 49 54 32 55 35 56 48 57 66 58 33 59 34 60 47 62 67 63 36 64
REMARK SMILES IDX 21 65 22 66 30 67 23 68 29 69 24 70 25 71 26 72 27 73 28 74
REMARK SMILES IDX 51 75 52 76 60 77 53 78 59 79 54 80 55 81 56 82 57 83 58 84
REMARK SMILES IDX 37 85 38 86 46 87 39 88 45 89 40 90 41 91 42 92 43 93 44 94
REMARK H PARENT 65 50 35 61
REMARK Flexibility Score: inf
ROOT
ATOM      1  C   UNL A   1      37.342  21.261  24.518  1.00  0.00     0.275 C 
ENDROOT
BRANCH   1   2
ATOM      2  O   UNL A   1      35.918  21.262  24.301  1.00  0.00    -0.458 OA
BRANCH   2   3
ATOM      3  C   UNL A   1      35.374  22.401  23.795  1.00  0.00     0.348 C 
ATOM      4  O   UNL A   1      35.842  23.025  22.852  1.00  0.00    -0.245 OA
BRANCH   3   5
ATOM      5  C   UNL A   1      34.098  22.776  24.480  1.00  0.00     0.118 A 
ATOM      6  C   UNL A   1      34.483  25.176  25.331  1.00  0.00     0.047 C 
ATOM      7  C   UNL A   1      33.699  23.937  25.042  1.00  0.00    -0.016 A 
ATOM      8  C   UNL A   1      32.381  23.864  25.647  1.00  0.00     0.016 A 
ATOM      9  S   UNL A   1      32.951  21.461  24.754  1.00  0.00    -0.108 S 
ATOM     10  C   UNL A   1      31.851  22.467  25.678  1.00  0.00     0.128 A 
ATOM     11  C   UNL A   1      31.305  24.676  25.613  1.00  0.00    -0.040 C 
ATOM     12  N   UNL A   1      30.744  22.030  26.161  1.00  0.00    -0.202 NA
ATOM     13  C   UNL A   1      30.341  24.423  26.755  1.00  0.00     0.135 C 
ATOM     14  C   UNL A   1      29.896  22.959  26.745  1.00  0.00     0.251 C 
ATOM     15  O   UNL A   1      28.823  22.655  27.239  1.00  0.00    -0.272 OA
BRANCH  11  16
ATOM     16  C   UNL A   1      30.580  25.188  24.375  1.00  0.00     0.110 C 
BRANCH  16  17
ATOM     17  S   UNL A   1      31.581  25.881  23.051  1.00  0.00    -0.081 SA
BRANCH  17  18
ATOM     18  C   UNL A   1      30.960  27.496  23.006  1.00  0.00     0.195 A 
ATOM     19  N   UNL A   1      30.085  27.917  22.119  1.00  0.00    -0.123 NA
ATOM     20  N   UNL A   1      31.128  28.442  24.000  1.00  0.00    -0.277 N 
ATOM     21  N   UNL A   1      29.598  29.121  22.547  1.00  0.00    -0.138 NA
ATOM     22  C   UNL A   1      30.198  29.406  23.680  1.00  0.00     0.231 A 
BRANCH  20  23
ATOM     23  C   UNL A   1      31.985  28.455  25.133  1.00  0.00     0.049 A 
ATOM     24  C   UNL A   1      31.495  28.176  26.416  1.00  0.00     0.027 A 
ATOM     25  C   UNL A   1      33.339  28.781  24.967  1.00  0.00     0.027 A 
ATOM     26  C   UNL A   1      32.343  28.246  27.520  1.00  0.00     0.002 A 
ATOM     27  C   UNL A   1      34.179  28.859  26.078  1.00  0.00     0.002 A 
ATOM     28  C   UNL A   1      33.683  28.575  27.349  1.00  0.00     0.000 A 
ENDBRANCH  20  23
ENDBRANCH  17  18
ENDBRANCH  16  17
ENDBRANCH  11  16
ENDBRANCH   3   5
ENDBRANCH   2   3
ENDBRANCH   1   2
BRANCH   1  29
ATOM     29  C   UNL A   1      37.803  22.524  25.224  1.00  0.00     0.275 C 
BRANCH  29  30
ATOM     30  O   UNL A   1      38.376  22.212  26.486  1.00  0.00    -0.458 OA
BRANCH  30  31
ATOM     31  C   UNL A   1      39.695  21.926  26.438  1.00  0.00     0.338 C 
ATOM     32  O   UNL A   1      40.217  20.822  26.474  1.00  0.00    -0.246 OA
BRANCH  31  33
ATOM     33  C   UNL A   1      40.457  23.163  26.580  1.00  0.00     0.060 A 
ATOM     34  C   UNL A   1      41.534  23.131  27.473  1.00  0.00     0.016 A 
ATOM     35  C   UNL A   1      39.887  24.361  26.128  1.00  0.00     0.016 A 
ATOM     36  C   UNL A   1      41.920  24.307  28.072  1.00  0.00     0.010 A 
ATOM     37  C   UNL A   1      40.251  25.526  26.749  1.00  0.00     0.010 A 
ATOM     38  C   UNL A   1      41.211  25.468  27.761  1.00  0.00    -0.014 A 
BRANCH  38  39
ATOM     39  C   UNL A   1      41.492  26.661  28.525  1.00  0.00     0.031 A 
ATOM     40  C   UNL A   1      42.687  27.405  28.075  1.00  0.00     0.074 A 
ATOM     41  C   UNL A   1      40.599  27.121  29.418  1.00  0.00     0.049 A 
ATOM     42  N   UNL A   1      43.740  27.722  28.752  1.00  0.00    -0.248 NA
ATOM     43  C   UNL A   1      42.769  27.726  26.639  1.00  0.00     0.031 C 
ATOM     44  C   UNL A   1      39.234  26.627  29.641  1.00  0.00     0.029 A 
ATOM     45  N   UNL A   1      40.653  28.246  30.177  1.00  0.00    -0.354 N 
ATOM     46  C   UNL A   1      44.532  28.452  27.874  1.00  0.00     0.074 A 
ATOM     47  C   UNL A   1      43.990  28.244  26.557  1.00  0.00     0.031 C 
ATOM     48  C   UNL A   1      38.519  27.595  30.253  1.00  0.00     0.029 A 
ATOM     49  C   UNL A   1      39.400  28.716  30.543  1.00  0.00     0.049 A 
ATOM     50  H   UNL A   1      41.495  28.683  30.440  1.00  0.00     0.167 HD
ATOM     51  C   UNL A   1      45.408  29.401  28.304  1.00  0.00     0.031 A 
ATOM     52  C   UNL A   1      39.098  29.990  30.901  1.00  0.00     0.031 A 
ATOM     53  C   UNL A   1      45.719  29.262  29.700  1.00  0.00     0.049 A 
ATOM     54  C   UNL A   1      40.374  30.666  31.264  1.00  0.00     0.074 A 
ATOM     55  C   UNL A   1      46.234  28.241  30.476  1.00  0.00     0.029 A 
ATOM     56  N   UNL A   1      45.139  30.149  30.577  1.00  0.00    -0.354 N 
ATOM     57  N   UNL A   1      41.114  30.326  32.283  1.00  0.00    -0.248 NA
ATOM     58  C   UNL A   1      41.059  31.442  30.239  1.00  0.00     0.031 C 
ATOM     59  C   UNL A   1      45.532  28.327  31.713  1.00  0.00     0.029 A 
ATOM     60  C   UNL A   1      44.664  29.418  31.637  1.00  0.00     0.049 A 
ATOM     61  H   UNL A   1      45.077  31.125  30.466  1.00  0.00     0.167 HD
ATOM     62  C   UNL A   1      42.426  30.481  31.850  1.00  0.00     0.074 A 
ATOM     63  C   UNL A   1      42.326  31.270  30.625  1.00  0.00     0.031 C 
ATOM     64  C   UNL A   1      43.443  29.720  32.359  1.00  0.00     0.031 A 
BRANCH  51  65
ATOM     65  C   UNL A   1      45.647  30.676  27.534  1.00  0.00    -0.014 A 
ATOM     66  C   UNL A   1      46.967  31.068  27.248  1.00  0.00     0.010 A 
ATOM     67  C   UNL A   1      44.633  31.638  27.321  1.00  0.00     0.010 A 
ATOM     68  C   UNL A   1      47.259  32.377  26.841  1.00  0.00     0.020 A 
ATOM     69  C   UNL A   1      44.906  32.924  26.863  1.00  0.00     0.020 A 
ATOM     70  C   UNL A   1      46.225  33.300  26.670  1.00  0.00     0.054 A 
BRANCH  70  71
ATOM     71  S   UNL A   1      46.615  35.022  26.284  1.00  0.00     0.124 S 
ATOM     72  O   UNL A   1      47.512  35.375  27.381  1.00  0.00    -0.237 OA
ATOM     73  O   UNL A   1      47.233  34.914  24.966  1.00  0.00    -0.237 OA
ATOM     74  O   UNL A   1      45.311  35.680  26.304  1.00  0.00    -0.744 OA
ENDBRANCH  70  71
ENDBRANCH  51  65
BRANCH  52  75
ATOM     75  C   UNL A   1      37.850  30.717  30.548  1.00  0.00    -0.014 A 
ATOM     76  C   UNL A   1      37.263  31.638  31.433  1.00  0.00     0.010 A 
ATOM     77  C   UNL A   1      37.343  30.673  29.230  1.00  0.00     0.010 A 
ATOM     78  C   UNL A   1      36.234  32.498  31.003  1.00  0.00     0.020 A 
ATOM     79  C   UNL A   1      36.309  31.509  28.800  1.00  0.00     0.020 A 
ATOM     80  C   UNL A   1      35.770  32.433  29.686  1.00  0.00     0.054 A 
BRANCH  80  81
ATOM     81  S   UNL A   1      34.539  33.631  29.098  1.00  0.00     0.124 S 
ATOM     82  O   UNL A   1      33.782  33.920  30.314  1.00  0.00    -0.237 OA
ATOM     83  O   UNL A   1      35.370  34.720  28.595  1.00  0.00    -0.237 OA
ATOM     84  O   UNL A   1      33.802  32.893  28.073  1.00  0.00    -0.744 OA
ENDBRANCH  80  81
ENDBRANCH  52  75
BRANCH  64  85
ATOM     85  C   UNL A   1      43.191  28.900  33.605  1.00  0.00    -0.014 A 
ATOM     86  C   UNL A   1      42.753  29.461  34.821  1.00  0.00     0.010 A 
ATOM     87  C   UNL A   1      43.218  27.498  33.490  1.00  0.00     0.010 A 
ATOM     88  C   UNL A   1      42.374  28.643  35.896  1.00  0.00     0.020 A 
ATOM     89  C   UNL A   1      42.822  26.677  34.551  1.00  0.00     0.020 A 
ATOM     90  C   UNL A   1      42.407  27.255  35.753  1.00  0.00     0.054 A 
BRANCH  90  91
ATOM     91  S   UNL A   1      41.845  26.207  37.124  1.00  0.00     0.124 S 
ATOM     92  O   UNL A   1      41.764  24.888  36.502  1.00  0.00    -0.237 OA
ATOM     93  O   UNL A   1      42.907  26.370  38.115  1.00  0.00    -0.237 OA
ATOM     94  O   UNL A   1      40.561  26.791  37.506  1.00  0.00    -0.744 OA
ENDBRANCH  90  91
ENDBRANCH  64  85
ENDBRANCH  38  39
ENDBRANCH  31  33
ENDBRANCH  30  31
ENDBRANCH  29  30
ENDBRANCH   1  29
TORSDOF 18
ENDMDL
