MODEL 1
REMARK VINA RESULT:     -11.3      0.000      0.000
REMARK SMILES COc1ccc([C@@H](CC(=O)OCCOC(=O)c2ccc(-c3c4nc(c(-c5ccc(S(=O)(=O)[O-])cc5)c5ccc([nH]5)c(-c5ccc(S(=O)(=O)[O-])cc5)c5nc(c(-c6ccc(S(=O)(=O)[O-])cc6)c6ccc3[nH]6)C=C5)C=C4)cc2)NC(=O)c2ccc(Cl)c([N+](=O)[O-])c2)cc1
REMARK SMILES IDX 12 1 11 2 9 3 10 4 8 5 7 6 6 7 3 8 4 9 91 10 5 11 90 12 2 13
REMARK SMILES IDX 1 14 77 15 78 16 79 18 80 19 81 20 89 21 82 22 85 23 83 24
REMARK SMILES IDX 84 25 86 26 87 27 88 28 13 29 14 30 15 31 16 32 17 33 18 34
REMARK SMILES IDX 76 35 19 36 75 37 20 38 21 39 22 40 69 41 23 42 74 43 68 44
REMARK SMILES IDX 70 45 24 46 73 47 67 48 66 49 25 51 55 52 36 53 54 54 37 55
REMARK SMILES IDX 40 56 53 57 71 58 38 59 39 60 52 62 72 63 41 64 26 65 27 66
REMARK SMILES IDX 35 67 28 68 34 69 29 70 30 71 31 72 32 73 33 74 56 75 57 76
REMARK SMILES IDX 65 77 58 78 64 79 59 80 60 81 61 82 62 83 63 84 42 85 43 86
REMARK SMILES IDX 51 87 44 88 50 89 45 90 46 91 47 92 48 93 49 94
REMARK H PARENT 77 17 70 50 40 61
REMARK Flexibility Score: inf
ROOT
ATOM      1  C   UNL A   1      37.484  22.242  25.726  1.00  0.00     0.274 C 
ENDROOT
BRANCH   1   2
ATOM      2  O   UNL A   1      37.420  22.106  24.291  1.00  0.00    -0.462 OA
BRANCH   2   3
ATOM      3  C   UNL A   1      36.489  22.842  23.646  1.00  0.00     0.308 C 
ATOM      4  O   UNL A   1      36.412  22.935  22.425  1.00  0.00    -0.252 OA
BRANCH   3   5
ATOM      5  C   UNL A   1      35.596  23.656  24.555  1.00  0.00     0.152 C 
BRANCH   5   6
ATOM      6  C   UNL A   1      34.073  23.659  24.345  1.00  0.00     0.123 C 
BRANCH   6   7
ATOM      7  C   UNL A   1      33.448  22.277  24.452  1.00  0.00    -0.025 A 
ATOM      8  C   UNL A   1      32.543  19.627  24.663  1.00  0.00     0.118 A 
ATOM      9  C   UNL A   1      32.383  20.322  23.469  1.00  0.00     0.047 A 
ATOM     10  C   UNL A   1      33.141  20.241  25.760  1.00  0.00     0.047 A 
ATOM     11  C   UNL A   1      32.806  21.649  23.374  1.00  0.00     0.010 A 
ATOM     12  C   UNL A   1      33.589  21.558  25.653  1.00  0.00     0.010 A 
BRANCH   8  13
ATOM     13  O   UNL A   1      32.184  18.308  24.686  1.00  0.00    -0.497 OA
ATOM     14  C   UNL A   1      33.333  17.464  24.679  1.00  0.00     0.278 C 
ENDBRANCH   8  13
ENDBRANCH   6   7
BRANCH   6  15
ATOM     15  N   UNL A   1      33.632  24.410  23.174  1.00  0.00    -0.345 N 
ATOM     16  C   UNL A   1      32.800  25.495  23.070  1.00  0.00     0.252 C 
ATOM     17  H   UNL A   1      33.990  24.082  22.317  1.00  0.00     0.164 HD
ATOM     18  O   UNL A   1      32.348  25.844  21.984  1.00  0.00    -0.269 OA
BRANCH  16  19
ATOM     19  C   UNL A   1      32.420  26.273  24.266  1.00  0.00     0.046 A 
ATOM     20  C   UNL A   1      31.239  25.944  24.937  1.00  0.00     0.016 A 
ATOM     21  C   UNL A   1      33.188  27.356  24.693  1.00  0.00     0.101 A 
ATOM     22  C   UNL A   1      30.865  26.649  26.087  1.00  0.00     0.028 A 
ATOM     23  C   UNL A   1      32.813  28.045  25.857  1.00  0.00     0.288 A 
ATOM     24  C   UNL A   1      31.665  27.691  26.573  1.00  0.00     0.118 A 
ATOM     25  Cl  UNL A   1      31.192  28.408  28.070  1.00  0.00    -0.077 Cl
BRANCH  23  26
ATOM     26  N   UNL A   1      33.707  29.092  26.321  1.00  0.00     0.064 N 
ATOM     27  O   UNL A   1      34.690  28.769  26.997  1.00  0.00    -0.258 OA
ATOM     28  O   UNL A   1      33.392  30.255  26.026  1.00  0.00    -0.258 OA
ENDBRANCH  23  26
ENDBRANCH  16  19
ENDBRANCH   6  15
ENDBRANCH   5   6
ENDBRANCH   3   5
ENDBRANCH   2   3
ENDBRANCH   1   2
BRANCH   1  29
ATOM     29  C   UNL A   1      38.905  22.538  26.211  1.00  0.00     0.275 C 
BRANCH  29  30
ATOM     30  O   UNL A   1      39.106  23.944  26.433  1.00  0.00    -0.458 OA
BRANCH  30  31
ATOM     31  C   UNL A   1      40.380  24.295  26.721  1.00  0.00     0.338 C 
ATOM     32  O   UNL A   1      41.392  23.834  26.224  1.00  0.00    -0.246 OA
BRANCH  31  33
ATOM     33  C   UNL A   1      40.377  25.429  27.655  1.00  0.00     0.060 A 
ATOM     34  C   UNL A   1      41.393  26.385  27.566  1.00  0.00     0.016 A 
ATOM     35  C   UNL A   1      39.407  25.507  28.651  1.00  0.00     0.016 A 
ATOM     36  C   UNL A   1      41.439  27.439  28.474  1.00  0.00     0.010 A 
ATOM     37  C   UNL A   1      39.450  26.568  29.556  1.00  0.00     0.010 A 
ATOM     38  C   UNL A   1      40.466  27.538  29.475  1.00  0.00    -0.014 A 
BRANCH  38  39
ATOM     39  C   UNL A   1      40.503  28.634  30.469  1.00  0.00     0.031 A 
ATOM     40  C   UNL A   1      41.448  28.546  31.630  1.00  0.00     0.074 A 
ATOM     41  C   UNL A   1      39.650  29.667  30.358  1.00  0.00     0.049 A 
ATOM     42  N   UNL A   1      41.490  29.273  32.715  1.00  0.00    -0.248 NA
ATOM     43  C   UNL A   1      42.475  27.493  31.563  1.00  0.00     0.031 C 
ATOM     44  C   UNL A   1      38.724  29.887  29.245  1.00  0.00     0.029 A 
ATOM     45  N   UNL A   1      39.403  30.714  31.210  1.00  0.00    -0.354 N 
ATOM     46  C   UNL A   1      42.527  28.749  33.477  1.00  0.00     0.074 A 
ATOM     47  C   UNL A   1      43.084  27.640  32.731  1.00  0.00     0.031 C 
ATOM     48  C   UNL A   1      37.993  30.986  29.494  1.00  0.00     0.029 A 
ATOM     49  C   UNL A   1      38.359  31.511  30.806  1.00  0.00     0.049 A 
ATOM     50  H   UNL A   1      39.923  30.878  32.030  1.00  0.00     0.167 HD
ATOM     51  C   UNL A   1      42.965  29.154  34.694  1.00  0.00     0.031 A 
ATOM     52  C   UNL A   1      37.734  32.521  31.442  1.00  0.00     0.031 A 
ATOM     53  C   UNL A   1      42.393  30.250  35.430  1.00  0.00     0.049 A 
ATOM     54  C   UNL A   1      38.193  32.913  32.820  1.00  0.00     0.074 A 
ATOM     55  C   UNL A   1      42.752  30.734  36.675  1.00  0.00     0.029 A 
ATOM     56  N   UNL A   1      41.340  31.037  34.984  1.00  0.00    -0.354 N 
ATOM     57  N   UNL A   1      39.155  32.393  33.545  1.00  0.00    -0.248 NA
ATOM     58  C   UNL A   1      37.482  34.025  33.467  1.00  0.00     0.031 C 
ATOM     59  C   UNL A   1      41.891  31.789  36.999  1.00  0.00     0.029 A 
ATOM     60  C   UNL A   1      41.030  31.994  35.932  1.00  0.00     0.049 A 
ATOM     61  H   UNL A   1      40.881  30.928  34.119  1.00  0.00     0.167 HD
ATOM     62  C   UNL A   1      39.183  33.132  34.723  1.00  0.00     0.074 A 
ATOM     63  C   UNL A   1      38.146  34.136  34.611  1.00  0.00     0.031 C 
ATOM     64  C   UNL A   1      39.999  32.993  35.796  1.00  0.00     0.031 A 
BRANCH  51  65
ATOM     65  C   UNL A   1      44.088  28.371  35.319  1.00  0.00    -0.014 A 
ATOM     66  C   UNL A   1      43.833  27.248  36.125  1.00  0.00     0.010 A 
ATOM     67  C   UNL A   1      45.420  28.760  35.084  1.00  0.00     0.010 A 
ATOM     68  C   UNL A   1      44.890  26.553  36.721  1.00  0.00     0.020 A 
ATOM     69  C   UNL A   1      46.480  28.052  35.658  1.00  0.00     0.020 A 
ATOM     70  C   UNL A   1      46.206  26.964  36.491  1.00  0.00     0.054 A 
BRANCH  70  71
ATOM     71  S   UNL A   1      47.560  26.044  37.274  1.00  0.00     0.124 S 
ATOM     72  O   UNL A   1      48.699  26.417  36.438  1.00  0.00    -0.237 OA
ATOM     73  O   UNL A   1      47.575  26.585  38.631  1.00  0.00    -0.237 OA
ATOM     74  O   UNL A   1      47.138  24.650  37.169  1.00  0.00    -0.744 OA
ENDBRANCH  70  71
ENDBRANCH  51  65
BRANCH  52  75
ATOM     75  C   UNL A   1      36.580  33.200  30.794  1.00  0.00    -0.014 A 
ATOM     76  C   UNL A   1      35.331  33.254  31.435  1.00  0.00     0.010 A 
ATOM     77  C   UNL A   1      36.736  33.825  29.543  1.00  0.00     0.010 A 
ATOM     78  C   UNL A   1      34.256  33.914  30.832  1.00  0.00     0.020 A 
ATOM     79  C   UNL A   1      35.671  34.507  28.949  1.00  0.00     0.020 A 
ATOM     80  C   UNL A   1      34.433  34.539  29.594  1.00  0.00     0.054 A 
BRANCH  80  81
ATOM     81  S   UNL A   1      33.044  35.447  28.862  1.00  0.00     0.124 S 
ATOM     82  O   UNL A   1      32.406  34.419  28.045  1.00  0.00    -0.237 OA
ATOM     83  O   UNL A   1      32.291  35.880  30.036  1.00  0.00    -0.237 OA
ATOM     84  O   UNL A   1      33.694  36.525  28.119  1.00  0.00    -0.744 OA
ENDBRANCH  80  81
ENDBRANCH  52  75
BRANCH  64  85
ATOM     85  C   UNL A   1      39.841  33.981  36.920  1.00  0.00    -0.014 A 
ATOM     86  C   UNL A   1      40.367  35.281  36.829  1.00  0.00     0.010 A 
ATOM     87  C   UNL A   1      39.087  33.621  38.052  1.00  0.00     0.010 A 
ATOM     88  C   UNL A   1      40.155  36.200  37.859  1.00  0.00     0.020 A 
ATOM     89  C   UNL A   1      38.856  34.543  39.074  1.00  0.00     0.020 A 
ATOM     90  C   UNL A   1      39.398  35.825  38.976  1.00  0.00     0.054 A 
BRANCH  90  91
ATOM     91  S   UNL A   1      39.079  37.054  40.272  1.00  0.00     0.124 S 
ATOM     92  O   UNL A   1      40.412  37.256  40.834  1.00  0.00    -0.237 OA
ATOM     93  O   UNL A   1      38.538  38.184  39.519  1.00  0.00    -0.237 OA
ATOM     94  O   UNL A   1      38.124  36.388  41.153  1.00  0.00    -0.744 OA
ENDBRANCH  90  91
ENDBRANCH  64  85
ENDBRANCH  38  39
ENDBRANCH  31  33
ENDBRANCH  30  31
ENDBRANCH  29  30
ENDBRANCH   1  29
TORSDOF 20
ENDMDL
MODEL 2
REMARK VINA RESULT:     -11.2      4.992     10.739
REMARK SMILES COc1ccc([C@@H](CC(=O)OCCOC(=O)c2ccc(-c3c4nc(c(-c5ccc(S(=O)(=O)[O-])cc5)c5ccc([nH]5)c(-c5ccc(S(=O)(=O)[O-])cc5)c5nc(c(-c6ccc(S(=O)(=O)[O-])cc6)c6ccc3[nH]6)C=C5)C=C4)cc2)NC(=O)c2ccc(Cl)c([N+](=O)[O-])c2)cc1
REMARK SMILES IDX 12 1 11 2 9 3 10 4 8 5 7 6 6 7 3 8 4 9 91 10 5 11 90 12 2 13
REMARK SMILES IDX 1 14 77 15 78 16 79 18 80 19 81 20 89 21 82 22 85 23 83 24
REMARK SMILES IDX 84 25 86 26 87 27 88 28 13 29 14 30 15 31 16 32 17 33 18 34
REMARK SMILES IDX 76 35 19 36 75 37 20 38 21 39 22 40 69 41 23 42 74 43 68 44
REMARK SMILES IDX 70 45 24 46 73 47 67 48 66 49 25 51 55 52 36 53 54 54 37 55
REMARK SMILES IDX 40 56 53 57 71 58 38 59 39 60 52 62 72 63 41 64 26 65 27 66
REMARK SMILES IDX 35 67 28 68 34 69 29 70 30 71 31 72 32 73 33 74 56 75 57 76
REMARK SMILES IDX 65 77 58 78 64 79 59 80 60 81 61 82 62 83 63 84 42 85 43 86
REMARK SMILES IDX 51 87 44 88 50 89 45 90 46 91 47 92 48 93 49 94
REMARK H PARENT 77 17 70 50 40 61
REMARK Flexibility Score: inf
ROOT
ATOM      1  C   UNL A   1      31.798  28.427  26.919  1.00  0.00     0.274 C 
ENDROOT
BRANCH   1   2
ATOM      2  O   UNL A   1      31.866  27.618  25.726  1.00  0.00    -0.462 OA
BRANCH   2   3
ATOM      3  C   UNL A   1      30.921  26.664  25.577  1.00  0.00     0.308 C 
ATOM      4  O   UNL A   1      30.435  26.028  26.507  1.00  0.00    -0.252 OA
BRANCH   3   5
ATOM      5  C   UNL A   1      30.576  26.345  24.140  1.00  0.00     0.152 C 
BRANCH   5   6
ATOM      6  C   UNL A   1      31.037  27.277  23.008  1.00  0.00     0.123 C 
BRANCH   6   7
ATOM      7  C   UNL A   1      30.016  28.349  22.659  1.00  0.00    -0.025 A 
ATOM      8  C   UNL A   1      28.259  30.489  22.186  1.00  0.00     0.118 A 
ATOM      9  C   UNL A   1      27.809  29.355  22.854  1.00  0.00     0.047 A 
ATOM     10  C   UNL A   1      29.575  30.566  21.741  1.00  0.00     0.047 A 
ATOM     11  C   UNL A   1      28.674  28.279  23.062  1.00  0.00     0.010 A 
ATOM     12  C   UNL A   1      30.447  29.501  21.976  1.00  0.00     0.010 A 
BRANCH   8  13
ATOM     13  O   UNL A   1      27.400  31.545  22.073  1.00  0.00    -0.497 OA
ATOM     14  C   UNL A   1      28.067  32.698  21.562  1.00  0.00     0.278 C 
ENDBRANCH   8  13
ENDBRANCH   6   7
BRANCH   6  15
ATOM     15  N   UNL A   1      31.577  26.584  21.843  1.00  0.00    -0.345 N 
ATOM     16  C   UNL A   1      32.581  25.655  21.742  1.00  0.00     0.252 C 
ATOM     17  H   UNL A   1      31.150  26.824  20.988  1.00  0.00     0.164 HD
ATOM     18  O   UNL A   1      33.063  25.361  20.653  1.00  0.00    -0.269 OA
BRANCH  16  19
ATOM     19  C   UNL A   1      33.112  24.984  22.945  1.00  0.00     0.046 A 
ATOM     20  C   UNL A   1      34.030  25.667  23.747  1.00  0.00     0.016 A 
ATOM     21  C   UNL A   1      32.757  23.671  23.252  1.00  0.00     0.101 A 
ATOM     22  C   UNL A   1      34.534  25.065  24.906  1.00  0.00     0.028 A 
ATOM     23  C   UNL A   1      33.255  23.083  24.426  1.00  0.00     0.288 A 
ATOM     24  C   UNL A   1      34.129  23.774  25.270  1.00  0.00     0.118 A 
ATOM     25  Cl  UNL A   1      34.699  23.173  26.784  1.00  0.00    -0.077 Cl
BRANCH  23  26
ATOM     26  N   UNL A   1      32.766  21.755  24.758  1.00  0.00     0.064 N 
ATOM     27  O   UNL A   1      33.400  20.777  24.350  1.00  0.00    -0.258 OA
ATOM     28  O   UNL A   1      31.711  21.705  25.408  1.00  0.00    -0.258 OA
ENDBRANCH  23  26
ENDBRANCH  16  19
ENDBRANCH   6  15
ENDBRANCH   5   6
ENDBRANCH   3   5
ENDBRANCH   2   3
ENDBRANCH   1   2
BRANCH   1  29
ATOM     29  C   UNL A   1      32.814  29.571  26.895  1.00  0.00     0.275 C 
BRANCH  29  30
ATOM     30  O   UNL A   1      34.007  29.234  27.623  1.00  0.00    -0.458 OA
BRANCH  30  31
ATOM     31  C   UNL A   1      34.727  30.295  28.052  1.00  0.00     0.338 C 
ATOM     32  O   UNL A   1      34.305  31.413  28.291  1.00  0.00    -0.246 OA
BRANCH  31  33
ATOM     33  C   UNL A   1      36.110  29.875  28.316  1.00  0.00     0.060 A 
ATOM     34  C   UNL A   1      36.463  29.468  29.606  1.00  0.00     0.016 A 
ATOM     35  C   UNL A   1      37.064  29.947  27.303  1.00  0.00     0.016 A 
ATOM     36  C   UNL A   1      37.779  29.116  29.891  1.00  0.00     0.010 A 
ATOM     37  C   UNL A   1      38.382  29.588  27.589  1.00  0.00     0.010 A 
ATOM     38  C   UNL A   1      38.748  29.174  28.882  1.00  0.00    -0.014 A 
BRANCH  38  39
ATOM     39  C   UNL A   1      40.160  28.829  29.161  1.00  0.00     0.031 A 
ATOM     40  C   UNL A   1      41.093  29.889  29.663  1.00  0.00     0.074 A 
ATOM     41  C   UNL A   1      40.609  27.587  28.904  1.00  0.00     0.049 A 
ATOM     42  N   UNL A   1      42.396  29.861  29.763  1.00  0.00    -0.248 NA
ATOM     43  C   UNL A   1      40.477  31.151  30.105  1.00  0.00     0.031 C 
ATOM     44  C   UNL A   1      39.784  26.461  28.464  1.00  0.00     0.029 A 
ATOM     45  N   UNL A   1      41.880  27.074  28.949  1.00  0.00    -0.354 N 
ATOM     46  C   UNL A   1      42.762  31.110  30.248  1.00  0.00     0.074 A 
ATOM     47  C   UNL A   1      41.543  31.873  30.418  1.00  0.00     0.031 C 
ATOM     48  C   UNL A   1      40.574  25.395  28.256  1.00  0.00     0.029 A 
ATOM     49  C   UNL A   1      41.962  25.779  28.492  1.00  0.00     0.049 A 
ATOM     50  H   UNL A   1      42.658  27.581  29.276  1.00  0.00     0.167 HD
ATOM     51  C   UNL A   1      44.005  31.577  30.516  1.00  0.00     0.031 A 
ATOM     52  C   UNL A   1      43.037  25.007  28.245  1.00  0.00     0.031 A 
ATOM     53  C   UNL A   1      45.209  30.812  30.329  1.00  0.00     0.049 A 
ATOM     54  C   UNL A   1      44.412  25.566  28.488  1.00  0.00     0.074 A 
ATOM     55  C   UNL A   1      46.519  31.195  30.557  1.00  0.00     0.029 A 
ATOM     56  N   UNL A   1      45.249  29.503  29.871  1.00  0.00    -0.354 N 
ATOM     57  N   UNL A   1      44.750  26.759  28.919  1.00  0.00    -0.248 NA
ATOM     58  C   UNL A   1      45.550  24.680  28.208  1.00  0.00     0.031 C 
ATOM     59  C   UNL A   1      47.353  30.129  30.200  1.00  0.00     0.029 A 
ATOM     60  C   UNL A   1      46.559  29.066  29.798  1.00  0.00     0.049 A 
ATOM     61  H   UNL A   1      44.460  28.965  29.631  1.00  0.00     0.167 HD
ATOM     62  C   UNL A   1      46.139  26.757  28.989  1.00  0.00     0.074 A 
ATOM     63  C   UNL A   1      46.577  25.445  28.560  1.00  0.00     0.031 C 
ATOM     64  C   UNL A   1      46.973  27.751  29.378  1.00  0.00     0.031 A 
BRANCH  51  65
ATOM     65  C   UNL A   1      44.119  33.000  30.995  1.00  0.00    -0.014 A 
ATOM     66  C   UNL A   1      44.217  33.302  32.365  1.00  0.00     0.010 A 
ATOM     67  C   UNL A   1      44.142  34.048  30.058  1.00  0.00     0.010 A 
ATOM     68  C   UNL A   1      44.292  34.632  32.790  1.00  0.00     0.020 A 
ATOM     69  C   UNL A   1      44.242  35.377  30.478  1.00  0.00     0.020 A 
ATOM     70  C   UNL A   1      44.295  35.661  31.845  1.00  0.00     0.054 A 
BRANCH  70  71
ATOM     71  S   UNL A   1      44.395  37.379  32.422  1.00  0.00     0.124 S 
ATOM     72  O   UNL A   1      45.626  37.361  33.209  1.00  0.00    -0.237 OA
ATOM     73  O   UNL A   1      44.461  38.135  31.174  1.00  0.00    -0.237 OA
ATOM     74  O   UNL A   1      43.166  37.559  33.190  1.00  0.00    -0.744 OA
ENDBRANCH  70  71
ENDBRANCH  51  65
BRANCH  52  75
ATOM     75  C   UNL A   1      42.851  23.636  27.700  1.00  0.00    -0.014 A 
ATOM     76  C   UNL A   1      42.669  22.542  28.562  1.00  0.00     0.010 A 
ATOM     77  C   UNL A   1      42.822  23.423  26.308  1.00  0.00     0.010 A 
ATOM     78  C   UNL A   1      42.470  21.259  28.044  1.00  0.00     0.020 A 
ATOM     79  C   UNL A   1      42.598  22.147  25.787  1.00  0.00     0.020 A 
ATOM     80  C   UNL A   1      42.433  21.069  26.660  1.00  0.00     0.054 A 
BRANCH  80  81
ATOM     81  S   UNL A   1      42.107  19.407  26.009  1.00  0.00     0.124 S 
ATOM     82  O   UNL A   1      42.900  19.399  24.784  1.00  0.00    -0.237 OA
ATOM     83  O   UNL A   1      42.592  18.544  27.082  1.00  0.00    -0.237 OA
ATOM     84  O   UNL A   1      40.658  19.393  25.819  1.00  0.00    -0.744 OA
ENDBRANCH  80  81
ENDBRANCH  52  75
BRANCH  64  85
ATOM     85  C   UNL A   1      48.446  27.447  29.410  1.00  0.00    -0.014 A 
ATOM     86  C   UNL A   1      49.275  27.729  28.311  1.00  0.00     0.010 A 
ATOM     87  C   UNL A   1      49.017  26.938  30.591  1.00  0.00     0.010 A 
ATOM     88  C   UNL A   1      50.650  27.494  28.388  1.00  0.00     0.020 A 
ATOM     89  C   UNL A   1      50.394  26.720  30.678  1.00  0.00     0.020 A 
ATOM     90  C   UNL A   1      51.202  26.992  29.572  1.00  0.00     0.054 A 
BRANCH  90  91
ATOM     91  S   UNL A   1      52.998  26.756  29.672  1.00  0.00     0.124 S 
ATOM     92  O   UNL A   1      53.478  28.129  29.798  1.00  0.00    -0.237 OA
ATOM     93  O   UNL A   1      53.148  25.926  30.866  1.00  0.00    -0.237 OA
ATOM     94  O   UNL A   1      53.330  26.091  28.415  1.00  0.00    -0.744 OA
ENDBRANCH  90  91
ENDBRANCH  64  85
ENDBRANCH  38  39
ENDBRANCH  31  33
ENDBRANCH  30  31
ENDBRANCH  29  30
ENDBRANCH   1  29
TORSDOF 20
ENDMDL
MODEL 3
REMARK VINA RESULT:     -11.1      2.840      4.424
REMARK SMILES COc1ccc([C@@H](CC(=O)OCCOC(=O)c2ccc(-c3c4nc(c(-c5ccc(S(=O)(=O)[O-])cc5)c5ccc([nH]5)c(-c5ccc(S(=O)(=O)[O-])cc5)c5nc(c(-c6ccc(S(=O)(=O)[O-])cc6)c6ccc3[nH]6)C=C5)C=C4)cc2)NC(=O)c2ccc(Cl)c([N+](=O)[O-])c2)cc1
REMARK SMILES IDX 12 1 11 2 9 3 10 4 8 5 7 6 6 7 3 8 4 9 91 10 5 11 90 12 2 13
REMARK SMILES IDX 1 14 77 15 78 16 79 18 80 19 81 20 89 21 82 22 85 23 83 24
REMARK SMILES IDX 84 25 86 26 87 27 88 28 13 29 14 30 15 31 16 32 17 33 18 34
REMARK SMILES IDX 76 35 19 36 75 37 20 38 21 39 22 40 69 41 23 42 74 43 68 44
REMARK SMILES IDX 70 45 24 46 73 47 67 48 66 49 25 51 55 52 36 53 54 54 37 55
REMARK SMILES IDX 40 56 53 57 71 58 38 59 39 60 52 62 72 63 41 64 26 65 27 66
REMARK SMILES IDX 35 67 28 68 34 69 29 70 30 71 31 72 32 73 33 74 56 75 57 76
REMARK SMILES IDX 65 77 58 78 64 79 59 80 60 81 61 82 62 83 63 84 42 85 43 86
REMARK SMILES IDX 51 87 44 88 50 89 45 90 46 91 47 92 48 93 49 94
REMARK H PARENT 77 17 70 50 40 61
REMARK Flexibility Score: inf
ROOT
ATOM      1  C   UNL A   1      35.522  22.086  25.735  1.00  0.00     0.274 C 
ENDROOT
BRANCH   1   2
ATOM      2  O   UNL A   1      35.036  23.008  26.733  1.00  0.00    -0.462 OA
BRANCH   2   3
ATOM      3  C   UNL A   1      33.696  23.106  26.878  1.00  0.00     0.308 C 
ATOM      4  O   UNL A   1      33.014  22.305  27.510  1.00  0.00    -0.252 OA
BRANCH   3   5
ATOM      5  C   UNL A   1      33.064  24.234  26.094  1.00  0.00     0.152 C 
BRANCH   5   6
ATOM      6  C   UNL A   1      33.922  25.407  25.597  1.00  0.00     0.123 C 
BRANCH   6   7
ATOM      7  C   UNL A   1      33.396  26.766  26.035  1.00  0.00    -0.025 A 
ATOM      8  C   UNL A   1      32.238  29.248  26.652  1.00  0.00     0.118 A 
ATOM      9  C   UNL A   1      33.501  29.196  26.071  1.00  0.00     0.047 A 
ATOM     10  C   UNL A   1      31.547  28.075  26.939  1.00  0.00     0.047 A 
ATOM     11  C   UNL A   1      34.089  27.961  25.792  1.00  0.00     0.010 A 
ATOM     12  C   UNL A   1      32.125  26.841  26.632  1.00  0.00     0.010 A 
BRANCH   8  13
ATOM     13  O   UNL A   1      31.671  30.478  26.836  1.00  0.00    -0.497 OA
ATOM     14  C   UNL A   1      32.635  31.425  27.292  1.00  0.00     0.278 C 
ENDBRANCH   8  13
ENDBRANCH   6   7
BRANCH   6  15
ATOM     15  N   UNL A   1      34.262  25.343  24.179  1.00  0.00    -0.345 N 
ATOM     16  C   UNL A   1      33.469  25.450  23.064  1.00  0.00     0.252 C 
ATOM     17  H   UNL A   1      35.218  25.198  23.992  1.00  0.00     0.164 HD
ATOM     18  O   UNL A   1      33.888  25.128  21.957  1.00  0.00    -0.269 OA
BRANCH  16  19
ATOM     19  C   UNL A   1      32.085  25.951  23.168  1.00  0.00     0.046 A 
ATOM     20  C   UNL A   1      31.067  25.056  23.512  1.00  0.00     0.016 A 
ATOM     21  C   UNL A   1      31.776  27.279  22.873  1.00  0.00     0.101 A 
ATOM     22  C   UNL A   1      29.748  25.507  23.640  1.00  0.00     0.028 A 
ATOM     23  C   UNL A   1      30.453  27.725  23.021  1.00  0.00     0.288 A 
ATOM     24  C   UNL A   1      29.434  26.855  23.420  1.00  0.00     0.118 A 
ATOM     25  Cl  UNL A   1      27.808  27.340  23.736  1.00  0.00    -0.077 Cl
BRANCH  23  26
ATOM     26  N   UNL A   1      30.206  29.141  22.810  1.00  0.00     0.064 N 
ATOM     27  O   UNL A   1      30.196  29.888  23.793  1.00  0.00    -0.258 OA
ATOM     28  O   UNL A   1      29.989  29.492  21.640  1.00  0.00    -0.258 OA
ENDBRANCH  23  26
ENDBRANCH  16  19
ENDBRANCH   6  15
ENDBRANCH   5   6
ENDBRANCH   3   5
ENDBRANCH   2   3
ENDBRANCH   1   2
BRANCH   1  29
ATOM     29  C   UNL A   1      36.794  22.597  25.053  1.00  0.00     0.275 C 
BRANCH  29  30
ATOM     30  O   UNL A   1      37.409  23.654  25.808  1.00  0.00    -0.458 OA
BRANCH  30  31
ATOM     31  C   UNL A   1      38.666  23.389  26.230  1.00  0.00     0.338 C 
ATOM     32  O   UNL A   1      39.324  22.393  25.983  1.00  0.00    -0.246 OA
BRANCH  31  33
ATOM     33  C   UNL A   1      39.198  24.555  26.949  1.00  0.00     0.060 A 
ATOM     34  C   UNL A   1      38.790  24.785  28.267  1.00  0.00     0.016 A 
ATOM     35  C   UNL A   1      40.046  25.447  26.297  1.00  0.00     0.016 A 
ATOM     36  C   UNL A   1      39.241  25.912  28.949  1.00  0.00     0.010 A 
ATOM     37  C   UNL A   1      40.502  26.573  26.985  1.00  0.00     0.010 A 
ATOM     38  C   UNL A   1      40.101  26.813  28.312  1.00  0.00    -0.014 A 
BRANCH  38  39
ATOM     39  C   UNL A   1      40.577  28.031  29.003  1.00  0.00     0.031 A 
ATOM     40  C   UNL A   1      41.917  28.022  29.676  1.00  0.00     0.074 A 
ATOM     41  C   UNL A   1      39.782  29.114  29.076  1.00  0.00     0.049 A 
ATOM     42  N   UNL A   1      42.427  28.890  30.510  1.00  0.00    -0.248 NA
ATOM     43  C   UNL A   1      42.795  26.880  29.376  1.00  0.00     0.031 C 
ATOM     44  C   UNL A   1      38.483  29.258  28.416  1.00  0.00     0.029 A 
ATOM     45  N   UNL A   1      39.940  30.290  29.763  1.00  0.00    -0.354 N 
ATOM     46  C   UNL A   1      43.673  28.387  30.861  1.00  0.00     0.074 A 
ATOM     47  C   UNL A   1      43.839  27.134  30.153  1.00  0.00     0.031 C 
ATOM     48  C   UNL A   1      37.951  30.445  28.751  1.00  0.00     0.029 A 
ATOM     49  C   UNL A   1      38.843  31.116  29.691  1.00  0.00     0.049 A 
ATOM     50  H   UNL A   1      40.758  30.521  30.261  1.00  0.00     0.167 HD
ATOM     51  C   UNL A   1      44.588  28.919  31.706  1.00  0.00     0.031 A 
ATOM     52  C   UNL A   1      38.567  32.260  30.346  1.00  0.00     0.031 A 
ATOM     53  C   UNL A   1      44.403  30.157  32.414  1.00  0.00     0.049 A 
ATOM     54  C   UNL A   1      39.568  32.802  31.330  1.00  0.00     0.074 A 
ATOM     55  C   UNL A   1      45.261  30.779  33.304  1.00  0.00     0.029 A 
ATOM     56  N   UNL A   1      43.281  30.967  32.309  1.00  0.00    -0.354 N 
ATOM     57  N   UNL A   1      40.732  32.302  31.677  1.00  0.00    -0.248 NA
ATOM     58  C   UNL A   1      39.221  34.056  32.011  1.00  0.00     0.031 C 
ATOM     59  C   UNL A   1      44.641  31.946  33.766  1.00  0.00     0.029 A 
ATOM     60  C   UNL A   1      43.419  32.076  33.125  1.00  0.00     0.049 A 
ATOM     61  H   UNL A   1      42.501  30.779  31.738  1.00  0.00     0.167 HD
ATOM     62  C   UNL A   1      41.267  33.196  32.598  1.00  0.00     0.074 A 
ATOM     63  C   UNL A   1      40.303  34.267  32.749  1.00  0.00     0.031 C 
ATOM     64  C   UNL A   1      42.452  33.137  33.253  1.00  0.00     0.031 A 
BRANCH  51  65
ATOM     65  C   UNL A   1      45.849  28.132  31.943  1.00  0.00    -0.014 A 
ATOM     66  C   UNL A   1      46.980  28.306  31.127  1.00  0.00     0.010 A 
ATOM     67  C   UNL A   1      45.905  27.213  33.007  1.00  0.00     0.010 A 
ATOM     68  C   UNL A   1      48.132  27.542  31.345  1.00  0.00     0.020 A 
ATOM     69  C   UNL A   1      47.062  26.467  33.243  1.00  0.00     0.020 A 
ATOM     70  C   UNL A   1      48.163  26.622  32.396  1.00  0.00     0.054 A 
BRANCH  70  71
ATOM     71  S   UNL A   1      49.669  25.645  32.659  1.00  0.00     0.124 S 
ATOM     72  O   UNL A   1      50.537  26.606  33.335  1.00  0.00    -0.237 OA
ATOM     73  O   UNL A   1      49.194  24.538  33.488  1.00  0.00    -0.237 OA
ATOM     74  O   UNL A   1      50.082  25.272  31.309  1.00  0.00    -0.744 OA
ENDBRANCH  70  71
ENDBRANCH  51  65
BRANCH  52  75
ATOM     75  C   UNL A   1      37.266  32.944  30.119  1.00  0.00    -0.014 A 
ATOM     76  C   UNL A   1      36.179  32.717  30.979  1.00  0.00     0.010 A 
ATOM     77  C   UNL A   1      37.119  33.854  29.054  1.00  0.00     0.010 A 
ATOM     78  C   UNL A   1      34.966  33.381  30.775  1.00  0.00     0.020 A 
ATOM     79  C   UNL A   1      35.917  34.539  28.863  1.00  0.00     0.020 A 
ATOM     80  C   UNL A   1      34.842  34.290  29.720  1.00  0.00     0.054 A 
BRANCH  80  81
ATOM     81  S   UNL A   1      33.281  35.190  29.514  1.00  0.00     0.124 S 
ATOM     82  O   UNL A   1      32.766  35.224  30.879  1.00  0.00    -0.237 OA
ATOM     83  O   UNL A   1      33.721  36.473  28.973  1.00  0.00    -0.237 OA
ATOM     84  O   UNL A   1      32.527  34.356  28.580  1.00  0.00    -0.744 OA
ENDBRANCH  80  81
ENDBRANCH  52  75
BRANCH  64  85
ATOM     85  C   UNL A   1      42.802  34.286  34.158  1.00  0.00    -0.014 A 
ATOM     86  C   UNL A   1      42.433  34.288  35.514  1.00  0.00     0.010 A 
ATOM     87  C   UNL A   1      43.578  35.346  33.654  1.00  0.00     0.010 A 
ATOM     88  C   UNL A   1      42.823  35.338  36.348  1.00  0.00     0.020 A 
ATOM     89  C   UNL A   1      43.986  36.388  34.490  1.00  0.00     0.020 A 
ATOM     90  C   UNL A   1      43.599  36.382  35.831  1.00  0.00     0.054 A 
BRANCH  90  91
ATOM     91  S   UNL A   1      44.149  37.702  36.947  1.00  0.00     0.124 S 
ATOM     92  O   UNL A   1      44.202  38.855  36.051  1.00  0.00    -0.237 OA
ATOM     93  O   UNL A   1      43.090  37.737  37.953  1.00  0.00    -0.237 OA
ATOM     94  O   UNL A   1      45.443  37.229  37.431  1.00  0.00    -0.744 OA
ENDBRANCH  90  91
ENDBRANCH  64  85
ENDBRANCH  38  39
ENDBRANCH  31  33
ENDBRANCH  30  31
ENDBRANCH  29  30
ENDBRANCH   1  29
TORSDOF 20
ENDMDL
