MODEL 1
REMARK VINA RESULT:     -13.2      0.000      0.000
REMARK SMILES Cc1ccc(NC(=O)N2CCCC[C@@H]2C(=O)OCCOC(=O)c2ccc(-c3c4nc(c(-c5ccc(S(=O)(=O)[O-])cc5)c5ccc([nH]5)c(-c5ccc(S(=O)(=O)[O-])cc5)c5nc(c(-c6ccc(S(=O)(=O)[O-])cc6)c6ccc3[nH]6)C=C5)C=C4)cc2)cc1
REMARK SMILES IDX 19 1 18 2 17 3 15 4 16 5 14 6 9 7 10 8 11 9 13 10 12 11 7 12
REMARK SMILES IDX 6 13 8 15 5 16 1 17 2 18 3 19 84 20 4 21 83 22 20 23 21 24
REMARK SMILES IDX 22 25 23 26 24 27 82 28 25 29 81 30 26 31 27 32 28 33 75 34
REMARK SMILES IDX 29 35 80 36 74 37 76 38 30 39 79 40 73 41 72 42 31 44 61 45
REMARK SMILES IDX 42 46 60 47 43 48 46 49 59 50 77 51 44 52 45 53 58 55 78 56
REMARK SMILES IDX 47 57 32 58 33 59 41 60 34 61 40 62 35 63 36 64 37 65 38 66
REMARK SMILES IDX 39 67 62 68 63 69 71 70 64 71 70 72 65 73 66 74 67 75 68 76
REMARK SMILES IDX 69 77 48 78 49 79 57 80 50 81 56 82 51 83 52 84 53 85 54 86
REMARK SMILES IDX 55 87
REMARK H PARENT 6 14 76 43 46 54
REMARK Flexibility Score: inf
ROOT
ATOM      1  C   UNL A   1      39.072  22.275  26.289  1.00  0.00     0.275 C 
ENDROOT
BRANCH   1   2
ATOM      2  C   UNL A   1      37.786  22.786  25.593  1.00  0.00     0.274 C 
BRANCH   2   3
ATOM      3  O   UNL A   1      36.657  21.924  25.771  1.00  0.00    -0.461 OA
BRANCH   3   4
ATOM      4  C   UNL A   1      35.526  22.212  25.039  1.00  0.00     0.329 C 
ATOM      5  O   UNL A   1      35.481  23.058  24.169  1.00  0.00    -0.250 OA
BRANCH   4   6
ATOM      6  C   UNL A   1      34.311  21.475  25.675  1.00  0.00     0.196 C 
ATOM      7  N   UNL A   1      32.960  21.655  25.059  1.00  0.00    -0.311 N 
ATOM      8  C   UNL A   1      31.852  22.258  25.776  1.00  0.00     0.122 C 
ATOM      9  C   UNL A   1      32.242  23.018  27.020  1.00  0.00     0.022 C 
ATOM     10  C   UNL A   1      34.433  21.914  27.152  1.00  0.00     0.037 C 
ATOM     11  C   UNL A   1      33.126  22.134  27.876  1.00  0.00     0.005 C 
BRANCH   7  12
ATOM     12  C   UNL A   1      32.633  21.274  23.790  1.00  0.00     0.322 C 
ATOM     13  N   UNL A   1      32.543  19.969  23.421  1.00  0.00    -0.308 N 
ATOM     14  H   UNL A   1      32.110  19.875  22.541  1.00  0.00     0.171 HD
ATOM     15  O   UNL A   1      32.208  22.108  22.986  1.00  0.00    -0.248 OA
BRANCH  13  16
ATOM     16  C   UNL A   1      32.898  18.717  23.955  1.00  0.00     0.042 A 
ATOM     17  C   UNL A   1      32.859  14.690  25.499  1.00  0.00     0.044 C 
ATOM     18  C   UNL A   1      33.026  16.112  25.043  1.00  0.00    -0.051 A 
ATOM     19  C   UNL A   1      33.587  16.401  23.795  1.00  0.00     0.005 A 
ATOM     20  C   UNL A   1      32.541  17.167  25.816  1.00  0.00     0.005 A 
ATOM     21  C   UNL A   1      33.537  17.698  23.261  1.00  0.00     0.026 A 
ATOM     22  C   UNL A   1      32.471  18.456  25.270  1.00  0.00     0.026 A 
ENDBRANCH  13  16
ENDBRANCH   7  12
ENDBRANCH   4   6
ENDBRANCH   3   4
ENDBRANCH   2   3
ENDBRANCH   1   2
BRANCH   1  23
ATOM     23  O   UNL A   1      39.755  23.115  27.260  1.00  0.00    -0.458 OA
BRANCH  23  24
ATOM     24  C   UNL A   1      40.537  24.195  26.973  1.00  0.00     0.338 C 
ATOM     25  O   UNL A   1      41.498  24.080  26.223  1.00  0.00    -0.246 OA
BRANCH  24  26
ATOM     26  C   UNL A   1      40.011  25.498  27.452  1.00  0.00     0.060 A 
ATOM     27  C   UNL A   1      39.348  25.530  28.681  1.00  0.00     0.016 A 
ATOM     28  C   UNL A   1      40.446  26.676  26.861  1.00  0.00     0.016 A 
ATOM     29  C   UNL A   1      39.360  26.701  29.440  1.00  0.00     0.010 A 
ATOM     30  C   UNL A   1      40.528  27.812  27.640  1.00  0.00     0.010 A 
ATOM     31  C   UNL A   1      40.028  27.820  28.954  1.00  0.00    -0.014 A 
BRANCH  31  32
ATOM     32  C   UNL A   1      40.021  29.117  29.628  1.00  0.00     0.031 A 
ATOM     33  C   UNL A   1      38.969  30.154  29.472  1.00  0.00     0.074 A 
ATOM     34  C   UNL A   1      41.090  29.304  30.433  1.00  0.00     0.049 A 
ATOM     35  N   UNL A   1      39.137  31.400  29.766  1.00  0.00    -0.248 NA
ATOM     36  C   UNL A   1      37.632  29.895  28.956  1.00  0.00     0.031 C 
ATOM     37  C   UNL A   1      41.371  30.377  31.368  1.00  0.00     0.029 A 
ATOM     38  N   UNL A   1      42.300  28.599  30.357  1.00  0.00    -0.354 N 
ATOM     39  C   UNL A   1      37.898  32.017  29.757  1.00  0.00     0.074 A 
ATOM     40  C   UNL A   1      37.010  31.066  29.146  1.00  0.00     0.031 C 
ATOM     41  C   UNL A   1      42.709  30.469  31.498  1.00  0.00     0.029 A 
ATOM     42  C   UNL A   1      43.305  29.548  30.534  1.00  0.00     0.049 A 
ATOM     43  H   UNL A   1      42.415  27.632  30.208  1.00  0.00     0.167 HD
ATOM     44  C   UNL A   1      37.751  33.210  30.403  1.00  0.00     0.031 A 
ATOM     45  C   UNL A   1      44.130  29.883  29.496  1.00  0.00     0.031 A 
ATOM     46  C   UNL A   1      39.056  33.731  30.798  1.00  0.00     0.049 A 
ATOM     47  C   UNL A   1      43.953  31.338  29.089  1.00  0.00     0.074 A 
ATOM     48  C   UNL A   1      39.771  33.720  31.982  1.00  0.00     0.029 A 
ATOM     49  N   UNL A   1      39.960  34.037  29.795  1.00  0.00    -0.354 N 
ATOM     50  N   UNL A   1      42.949  32.088  29.457  1.00  0.00    -0.248 NA
ATOM     51  C   UNL A   1      44.870  32.048  28.200  1.00  0.00     0.031 C 
ATOM     52  C   UNL A   1      41.141  33.946  31.663  1.00  0.00     0.029 A 
ATOM     53  C   UNL A   1      41.243  34.125  30.296  1.00  0.00     0.049 A 
ATOM     54  H   UNL A   1      39.720  34.171  28.849  1.00  0.00     0.167 HD
ATOM     55  C   UNL A   1      43.132  33.364  29.002  1.00  0.00     0.074 A 
ATOM     56  C   UNL A   1      44.311  33.272  28.157  1.00  0.00     0.031 C 
ATOM     57  C   UNL A   1      42.336  34.405  29.382  1.00  0.00     0.031 A 
BRANCH  44  58
ATOM     58  C   UNL A   1      36.440  33.773  30.917  1.00  0.00    -0.014 A 
ATOM     59  C   UNL A   1      35.407  34.024  29.984  1.00  0.00     0.010 A 
ATOM     60  C   UNL A   1      36.171  34.150  32.247  1.00  0.00     0.010 A 
ATOM     61  C   UNL A   1      34.224  34.694  30.327  1.00  0.00     0.020 A 
ATOM     62  C   UNL A   1      34.988  34.830  32.605  1.00  0.00     0.020 A 
ATOM     63  C   UNL A   1      34.030  35.118  31.635  1.00  0.00     0.054 A 
BRANCH  63  64
ATOM     64  S   UNL A   1      32.527  36.059  32.027  1.00  0.00     0.124 S 
ATOM     65  O   UNL A   1      32.995  36.979  33.063  1.00  0.00    -0.237 OA
ATOM     66  O   UNL A   1      32.194  36.675  30.747  1.00  0.00    -0.237 OA
ATOM     67  O   UNL A   1      31.587  35.039  32.488  1.00  0.00    -0.744 OA
ENDBRANCH  63  64
ENDBRANCH  44  58
BRANCH  45  68
ATOM     68  C   UNL A   1      44.420  28.756  28.545  1.00  0.00    -0.014 A 
ATOM     69  C   UNL A   1      43.875  28.796  27.239  1.00  0.00     0.010 A 
ATOM     70  C   UNL A   1      45.503  27.897  28.775  1.00  0.00     0.010 A 
ATOM     71  C   UNL A   1      44.456  28.082  26.178  1.00  0.00     0.020 A 
ATOM     72  C   UNL A   1      46.087  27.190  27.710  1.00  0.00     0.020 A 
ATOM     73  C   UNL A   1      45.586  27.305  26.416  1.00  0.00     0.054 A 
BRANCH  73  74
ATOM     74  S   UNL A   1      46.483  26.586  25.004  1.00  0.00     0.124 S 
ATOM     75  O   UNL A   1      45.696  25.391  24.714  1.00  0.00    -0.237 OA
ATOM     76  O   UNL A   1      46.398  27.660  24.015  1.00  0.00    -0.237 OA
ATOM     77  O   UNL A   1      47.818  26.333  25.539  1.00  0.00    -0.744 OA
ENDBRANCH  73  74
ENDBRANCH  45  68
BRANCH  57  78
ATOM     78  C   UNL A   1      42.545  35.836  28.971  1.00  0.00    -0.014 A 
ATOM     79  C   UNL A   1      41.974  36.384  27.815  1.00  0.00     0.010 A 
ATOM     80  C   UNL A   1      43.475  36.633  29.680  1.00  0.00     0.010 A 
ATOM     81  C   UNL A   1      42.268  37.696  27.421  1.00  0.00     0.020 A 
ATOM     82  C   UNL A   1      43.798  37.929  29.281  1.00  0.00     0.020 A 
ATOM     83  C   UNL A   1      43.172  38.462  28.162  1.00  0.00     0.054 A 
BRANCH  83  84
ATOM     84  S   UNL A   1      43.560  40.142  27.619  1.00  0.00     0.124 S 
ATOM     85  O   UNL A   1      45.020  40.155  27.640  1.00  0.00    -0.237 OA
ATOM     86  O   UNL A   1      42.952  40.172  26.291  1.00  0.00    -0.237 OA
ATOM     87  O   UNL A   1      42.919  40.991  28.618  1.00  0.00    -0.744 OA
ENDBRANCH  83  84
ENDBRANCH  57  78
ENDBRANCH  31  32
ENDBRANCH  24  26
ENDBRANCH  23  24
ENDBRANCH   1  23
TORSDOF 16
ENDMDL
MODEL 2
REMARK VINA RESULT:     -13.2      1.414      3.154
REMARK SMILES Cc1ccc(NC(=O)N2CCCC[C@@H]2C(=O)OCCOC(=O)c2ccc(-c3c4nc(c(-c5ccc(S(=O)(=O)[O-])cc5)c5ccc([nH]5)c(-c5ccc(S(=O)(=O)[O-])cc5)c5nc(c(-c6ccc(S(=O)(=O)[O-])cc6)c6ccc3[nH]6)C=C5)C=C4)cc2)cc1
REMARK SMILES IDX 19 1 18 2 17 3 15 4 16 5 14 6 9 7 10 8 11 9 13 10 12 11 7 12
REMARK SMILES IDX 6 13 8 15 5 16 1 17 2 18 3 19 84 20 4 21 83 22 20 23 21 24
REMARK SMILES IDX 22 25 23 26 24 27 82 28 25 29 81 30 26 31 27 32 28 33 75 34
REMARK SMILES IDX 29 35 80 36 74 37 76 38 30 39 79 40 73 41 72 42 31 44 61 45
REMARK SMILES IDX 42 46 60 47 43 48 46 49 59 50 77 51 44 52 45 53 58 55 78 56
REMARK SMILES IDX 47 57 32 58 33 59 41 60 34 61 40 62 35 63 36 64 37 65 38 66
REMARK SMILES IDX 39 67 62 68 63 69 71 70 64 71 70 72 65 73 66 74 67 75 68 76
REMARK SMILES IDX 69 77 48 78 49 79 57 80 50 81 56 82 51 83 52 84 53 85 54 86
REMARK SMILES IDX 55 87
REMARK H PARENT 6 14 76 43 46 54
REMARK Flexibility Score: inf
ROOT
ATOM      1  C   UNL A   1      38.768  22.726  26.203  1.00  0.00     0.275 C 
ENDROOT
BRANCH   1   2
ATOM      2  C   UNL A   1      37.675  23.722  25.741  1.00  0.00     0.274 C 
BRANCH   2   3
ATOM      3  O   UNL A   1      36.756  23.164  24.796  1.00  0.00    -0.461 OA
BRANCH   3   4
ATOM      4  C   UNL A   1      35.494  22.854  25.257  1.00  0.00     0.329 C 
ATOM      5  O   UNL A   1      35.111  23.087  26.385  1.00  0.00    -0.250 OA
BRANCH   4   6
ATOM      6  C   UNL A   1      34.777  21.961  24.202  1.00  0.00     0.196 C 
ATOM      7  N   UNL A   1      33.551  22.491  23.528  1.00  0.00    -0.311 N 
ATOM      8  C   UNL A   1      32.255  21.855  23.661  1.00  0.00     0.122 C 
ATOM      9  C   UNL A   1      32.146  20.868  24.798  1.00  0.00     0.022 C 
ATOM     10  C   UNL A   1      34.585  20.650  24.998  1.00  0.00     0.037 C 
ATOM     11  C   UNL A   1      33.307  19.898  24.715  1.00  0.00     0.005 C 
BRANCH   7  12
ATOM     12  C   UNL A   1      33.526  23.599  22.731  1.00  0.00     0.322 C 
ATOM     13  N   UNL A   1      33.371  24.853  23.230  1.00  0.00    -0.308 N 
ATOM     14  H   UNL A   1      33.573  25.536  22.550  1.00  0.00     0.171 HD
ATOM     15  O   UNL A   1      33.849  23.510  21.544  1.00  0.00    -0.248 OA
BRANCH  13  16
ATOM     16  C   UNL A   1      33.003  25.440  24.454  1.00  0.00     0.042 A 
ATOM     17  C   UNL A   1      31.590  28.119  27.525  1.00  0.00     0.044 C 
ATOM     18  C   UNL A   1      32.169  27.102  26.582  1.00  0.00    -0.051 A 
ATOM     19  C   UNL A   1      31.449  25.953  26.239  1.00  0.00     0.005 A 
ATOM     20  C   UNL A   1      33.396  27.331  25.959  1.00  0.00     0.005 A 
ATOM     21  C   UNL A   1      31.872  25.119  25.193  1.00  0.00     0.026 A 
ATOM     22  C   UNL A   1      33.802  26.509  24.899  1.00  0.00     0.026 A 
ENDBRANCH  13  16
ENDBRANCH   7  12
ENDBRANCH   4   6
ENDBRANCH   3   4
ENDBRANCH   2   3
ENDBRANCH   1   2
BRANCH   1  23
ATOM     23  O   UNL A   1      39.781  23.150  27.158  1.00  0.00    -0.458 OA
BRANCH  23  24
ATOM     24  C   UNL A   1      40.622  24.215  27.011  1.00  0.00     0.338 C 
ATOM     25  O   UNL A   1      41.664  24.096  26.381  1.00  0.00    -0.246 OA
BRANCH  24  26
ATOM     26  C   UNL A   1      40.076  25.515  27.474  1.00  0.00     0.060 A 
ATOM     27  C   UNL A   1      39.450  25.562  28.722  1.00  0.00     0.016 A 
ATOM     28  C   UNL A   1      40.462  26.689  26.840  1.00  0.00     0.016 A 
ATOM     29  C   UNL A   1      39.454  26.752  29.451  1.00  0.00     0.010 A 
ATOM     30  C   UNL A   1      40.537  27.846  27.589  1.00  0.00     0.010 A 
ATOM     31  C   UNL A   1      40.077  27.875  28.916  1.00  0.00    -0.014 A 
BRANCH  31  32
ATOM     32  C   UNL A   1      40.056  29.188  29.557  1.00  0.00     0.031 A 
ATOM     33  C   UNL A   1      39.000  30.216  29.365  1.00  0.00     0.074 A 
ATOM     34  C   UNL A   1      41.115  29.401  30.369  1.00  0.00     0.049 A 
ATOM     35  N   UNL A   1      39.159  31.470  29.629  1.00  0.00    -0.248 NA
ATOM     36  C   UNL A   1      37.671  29.937  28.840  1.00  0.00     0.031 C 
ATOM     37  C   UNL A   1      41.380  30.498  31.280  1.00  0.00     0.029 A 
ATOM     38  N   UNL A   1      42.329  28.701  30.324  1.00  0.00    -0.354 N 
ATOM     39  C   UNL A   1      37.917  32.080  29.591  1.00  0.00     0.074 A 
ATOM     40  C   UNL A   1      37.040  31.109  28.994  1.00  0.00     0.031 C 
ATOM     41  C   UNL A   1      42.716  30.600  31.423  1.00  0.00     0.029 A 
ATOM     42  C   UNL A   1      43.327  29.659  30.489  1.00  0.00     0.049 A 
ATOM     43  H   UNL A   1      42.451  27.731  30.201  1.00  0.00     0.167 HD
ATOM     44  C   UNL A   1      37.757  33.287  30.205  1.00  0.00     0.031 A 
ATOM     45  C   UNL A   1      44.162  29.972  29.452  1.00  0.00     0.031 A 
ATOM     46  C   UNL A   1      39.055  33.825  30.602  1.00  0.00     0.049 A 
ATOM     47  C   UNL A   1      43.983  31.416  29.008  1.00  0.00     0.074 A 
ATOM     48  C   UNL A   1      39.757  33.847  31.794  1.00  0.00     0.029 A 
ATOM     49  N   UNL A   1      39.969  34.110  29.601  1.00  0.00    -0.354 N 
ATOM     50  N   UNL A   1      42.971  32.169  29.345  1.00  0.00    -0.248 NA
ATOM     51  C   UNL A   1      44.906  32.108  28.111  1.00  0.00     0.031 C 
ATOM     52  C   UNL A   1      41.129  34.072  31.484  1.00  0.00     0.029 A 
ATOM     53  C   UNL A   1      41.246  34.218  30.114  1.00  0.00     0.049 A 
ATOM     54  H   UNL A   1      39.739  34.220  28.650  1.00  0.00     0.167 HD
ATOM     55  C   UNL A   1      43.153  33.434  28.861  1.00  0.00     0.074 A 
ATOM     56  C   UNL A   1      44.341  33.328  28.031  1.00  0.00     0.031 C 
ATOM     57  C   UNL A   1      42.347  34.481  29.205  1.00  0.00     0.031 A 
BRANCH  44  58
ATOM     58  C   UNL A   1      36.438  33.857  30.691  1.00  0.00    -0.014 A 
ATOM     59  C   UNL A   1      35.408  34.062  29.743  1.00  0.00     0.010 A 
ATOM     60  C   UNL A   1      36.157  34.279  32.004  1.00  0.00     0.010 A 
ATOM     61  C   UNL A   1      34.216  34.733  30.054  1.00  0.00     0.020 A 
ATOM     62  C   UNL A   1      34.965  34.960  32.330  1.00  0.00     0.020 A 
ATOM     63  C   UNL A   1      34.010  35.203  31.345  1.00  0.00     0.054 A 
BRANCH  63  64
ATOM     64  S   UNL A   1      32.497  36.143  31.693  1.00  0.00     0.124 S 
ATOM     65  O   UNL A   1      32.029  36.492  30.352  1.00  0.00    -0.237 OA
ATOM     66  O   UNL A   1      31.676  35.171  32.409  1.00  0.00    -0.237 OA
ATOM     67  O   UNL A   1      32.963  37.272  32.496  1.00  0.00    -0.744 OA
ENDBRANCH  63  64
ENDBRANCH  44  58
BRANCH  45  68
ATOM     68  C   UNL A   1      44.469  28.823  28.533  1.00  0.00    -0.014 A 
ATOM     69  C   UNL A   1      43.896  28.803  27.238  1.00  0.00     0.010 A 
ATOM     70  C   UNL A   1      45.582  28.006  28.768  1.00  0.00     0.010 A 
ATOM     71  C   UNL A   1      44.478  28.072  26.189  1.00  0.00     0.020 A 
ATOM     72  C   UNL A   1      46.166  27.282  27.715  1.00  0.00     0.020 A 
ATOM     73  C   UNL A   1      45.637  27.338  26.429  1.00  0.00     0.054 A 
BRANCH  73  74
ATOM     74  S   UNL A   1      46.528  26.600  25.023  1.00  0.00     0.124 S 
ATOM     75  O   UNL A   1      45.785  25.363  24.802  1.00  0.00    -0.237 OA
ATOM     76  O   UNL A   1      46.372  27.628  23.995  1.00  0.00    -0.237 OA
ATOM     77  O   UNL A   1      47.885  26.426  25.532  1.00  0.00    -0.744 OA
ENDBRANCH  73  74
ENDBRANCH  45  68
BRANCH  57  78
ATOM     78  C   UNL A   1      42.553  35.902  28.762  1.00  0.00    -0.014 A 
ATOM     79  C   UNL A   1      43.168  36.867  29.570  1.00  0.00     0.010 A 
ATOM     80  C   UNL A   1      41.972  36.341  27.548  1.00  0.00     0.010 A 
ATOM     81  C   UNL A   1      43.258  38.201  29.153  1.00  0.00     0.020 A 
ATOM     82  C   UNL A   1      42.030  37.672  27.137  1.00  0.00     0.020 A 
ATOM     83  C   UNL A   1      42.695  38.592  27.935  1.00  0.00     0.054 A 
BRANCH  83  84
ATOM     84  S   UNL A   1      42.797  40.326  27.431  1.00  0.00     0.124 S 
ATOM     85  O   UNL A   1      43.328  40.975  28.626  1.00  0.00    -0.237 OA
ATOM     86  O   UNL A   1      43.714  40.252  26.297  1.00  0.00    -0.237 OA
ATOM     87  O   UNL A   1      41.419  40.676  27.097  1.00  0.00    -0.744 OA
ENDBRANCH  83  84
ENDBRANCH  57  78
ENDBRANCH  31  32
ENDBRANCH  24  26
ENDBRANCH  23  24
ENDBRANCH   1  23
TORSDOF 16
ENDMDL
MODEL 3
REMARK VINA RESULT:     -13.2      5.211     11.522
REMARK SMILES Cc1ccc(NC(=O)N2CCCC[C@@H]2C(=O)OCCOC(=O)c2ccc(-c3c4nc(c(-c5ccc(S(=O)(=O)[O-])cc5)c5ccc([nH]5)c(-c5ccc(S(=O)(=O)[O-])cc5)c5nc(c(-c6ccc(S(=O)(=O)[O-])cc6)c6ccc3[nH]6)C=C5)C=C4)cc2)cc1
REMARK SMILES IDX 19 1 18 2 17 3 15 4 16 5 14 6 9 7 10 8 11 9 13 10 12 11 7 12
REMARK SMILES IDX 6 13 8 15 5 16 1 17 2 18 3 19 84 20 4 21 83 22 20 23 21 24
REMARK SMILES IDX 22 25 23 26 24 27 82 28 25 29 81 30 26 31 27 32 28 33 75 34
REMARK SMILES IDX 29 35 80 36 74 37 76 38 30 39 79 40 73 41 72 42 31 44 61 45
REMARK SMILES IDX 42 46 60 47 43 48 46 49 59 50 77 51 44 52 45 53 58 55 78 56
REMARK SMILES IDX 47 57 32 58 33 59 41 60 34 61 40 62 35 63 36 64 37 65 38 66
REMARK SMILES IDX 39 67 62 68 63 69 71 70 64 71 70 72 65 73 66 74 67 75 68 76
REMARK SMILES IDX 69 77 48 78 49 79 57 80 50 81 56 82 51 83 52 84 53 85 54 86
REMARK SMILES IDX 55 87
REMARK H PARENT 6 14 76 43 46 54
REMARK Flexibility Score: inf
ROOT
ATOM      1  C   UNL A   1      34.182  30.401  27.627  1.00  0.00     0.275 C 
ENDROOT
BRANCH   1   2
ATOM      2  C   UNL A   1      34.058  28.880  27.359  1.00  0.00     0.274 C 
BRANCH   2   3
ATOM      3  O   UNL A   1      32.777  28.491  26.851  1.00  0.00    -0.461 OA
BRANCH   3   4
ATOM      4  C   UNL A   1      32.674  28.294  25.491  1.00  0.00     0.329 C 
ATOM      5  O   UNL A   1      33.595  28.448  24.715  1.00  0.00    -0.250 OA
BRANCH   4   6
ATOM      6  C   UNL A   1      31.175  28.102  25.121  1.00  0.00     0.196 C 
ATOM      7  N   UNL A   1      30.694  26.732  24.762  1.00  0.00    -0.311 N 
ATOM      8  C   UNL A   1      30.153  26.416  23.454  1.00  0.00     0.122 C 
ATOM      9  C   UNL A   1      30.447  27.436  22.382  1.00  0.00     0.022 C 
ATOM     10  C   UNL A   1      30.995  29.178  24.026  1.00  0.00     0.037 C 
ATOM     11  C   UNL A   1      30.064  28.809  22.897  1.00  0.00     0.005 C 
BRANCH   7  12
ATOM     12  C   UNL A   1      30.708  25.662  25.610  1.00  0.00     0.322 C 
ATOM     13  N   UNL A   1      31.759  24.804  25.683  1.00  0.00    -0.308 N 
ATOM     14  H   UNL A   1      31.689  24.219  26.472  1.00  0.00     0.171 HD
ATOM     15  O   UNL A   1      29.846  25.560  26.486  1.00  0.00    -0.248 OA
BRANCH  13  16
ATOM     16  C   UNL A   1      32.920  24.525  24.940  1.00  0.00     0.042 A 
ATOM     17  C   UNL A   1      36.648  22.905  23.496  1.00  0.00     0.044 C 
ATOM     18  C   UNL A   1      35.384  23.610  23.901  1.00  0.00    -0.051 A 
ATOM     19  C   UNL A   1      34.181  23.362  23.231  1.00  0.00     0.005 A 
ATOM     20  C   UNL A   1      35.366  24.455  25.011  1.00  0.00     0.005 A 
ATOM     21  C   UNL A   1      32.960  23.829  23.739  1.00  0.00     0.026 A 
ATOM     22  C   UNL A   1      34.143  24.900  25.528  1.00  0.00     0.026 A 
ENDBRANCH  13  16
ENDBRANCH   7  12
ENDBRANCH   4   6
ENDBRANCH   3   4
ENDBRANCH   2   3
ENDBRANCH   1   2
BRANCH   1  23
ATOM     23  O   UNL A   1      35.497  31.015  27.734  1.00  0.00    -0.458 OA
BRANCH  23  24
ATOM     24  C   UNL A   1      36.371  30.857  28.769  1.00  0.00     0.338 C 
ATOM     25  O   UNL A   1      36.212  31.480  29.811  1.00  0.00    -0.246 OA
BRANCH  24  26
ATOM     26  C   UNL A   1      37.351  29.755  28.602  1.00  0.00     0.060 A 
ATOM     27  C   UNL A   1      38.133  29.737  27.445  1.00  0.00     0.016 A 
ATOM     28  C   UNL A   1      37.698  28.971  29.694  1.00  0.00     0.016 A 
ATOM     29  C   UNL A   1      39.398  29.149  27.478  1.00  0.00     0.010 A 
ATOM     30  C   UNL A   1      38.978  28.457  29.754  1.00  0.00     0.010 A 
ATOM     31  C   UNL A   1      39.855  28.583  28.664  1.00  0.00    -0.014 A 
BRANCH  31  32
ATOM     32  C   UNL A   1      41.123  27.864  28.776  1.00  0.00     0.031 A 
ATOM     33  C   UNL A   1      41.329  26.437  28.418  1.00  0.00     0.074 A 
ATOM     34  C   UNL A   1      42.129  28.630  29.252  1.00  0.00     0.049 A 
ATOM     35  N   UNL A   1      42.317  25.723  28.846  1.00  0.00    -0.248 NA
ATOM     36  C   UNL A   1      40.438  25.671  27.559  1.00  0.00     0.031 C 
ATOM     37  C   UNL A   1      43.544  28.335  29.370  1.00  0.00     0.029 A 
ATOM     38  N   UNL A   1      41.973  29.823  29.973  1.00  0.00    -0.354 N 
ATOM     39  C   UNL A   1      42.348  24.548  28.114  1.00  0.00     0.074 A 
ATOM     40  C   UNL A   1      41.100  24.516  27.401  1.00  0.00     0.031 C 
ATOM     41  C   UNL A   1      44.039  29.089  30.371  1.00  0.00     0.029 A 
ATOM     42  C   UNL A   1      42.913  29.772  31.001  1.00  0.00     0.049 A 
ATOM     43  H   UNL A   1      41.331  30.548  29.790  1.00  0.00     0.167 HD
ATOM     44  C   UNL A   1      43.499  23.815  28.096  1.00  0.00     0.031 A 
ATOM     45  C   UNL A   1      42.508  29.639  32.300  1.00  0.00     0.031 A 
ATOM     46  C   UNL A   1      44.438  24.328  29.087  1.00  0.00     0.049 A 
ATOM     47  C   UNL A   1      42.983  28.324  32.901  1.00  0.00     0.074 A 
ATOM     48  C   UNL A   1      45.535  25.168  29.020  1.00  0.00     0.029 A 
ATOM     49  N   UNL A   1      44.063  24.275  30.420  1.00  0.00    -0.354 N 
ATOM     50  N   UNL A   1      43.443  27.320  32.204  1.00  0.00    -0.248 NA
ATOM     51  C   UNL A   1      42.932  28.021  34.329  1.00  0.00     0.031 C 
ATOM     52  C   UNL A   1      45.765  25.684  30.328  1.00  0.00     0.029 A 
ATOM     53  C   UNL A   1      44.831  25.130  31.184  1.00  0.00     0.049 A 
ATOM     54  H   UNL A   1      43.344  23.704  30.775  1.00  0.00     0.167 HD
ATOM     55  C   UNL A   1      43.869  26.329  33.043  1.00  0.00     0.074 A 
ATOM     56  C   UNL A   1      43.460  26.782  34.362  1.00  0.00     0.031 C 
ATOM     57  C   UNL A   1      44.560  25.236  32.606  1.00  0.00     0.031 A 
BRANCH  44  58
ATOM     58  C   UNL A   1      43.888  22.822  27.017  1.00  0.00    -0.014 A 
ATOM     59  C   UNL A   1      42.969  21.798  26.686  1.00  0.00     0.010 A 
ATOM     60  C   UNL A   1      45.129  22.771  26.353  1.00  0.00     0.010 A 
ATOM     61  C   UNL A   1      43.294  20.738  25.827  1.00  0.00     0.020 A 
ATOM     62  C   UNL A   1      45.472  21.708  25.492  1.00  0.00     0.020 A 
ATOM     63  C   UNL A   1      44.558  20.683  25.252  1.00  0.00     0.054 A 
BRANCH  63  64
ATOM     64  S   UNL A   1      44.977  19.253  24.216  1.00  0.00     0.124 S 
ATOM     65  O   UNL A   1      44.509  19.674  22.897  1.00  0.00    -0.237 OA
ATOM     66  O   UNL A   1      46.426  19.164  24.367  1.00  0.00    -0.237 OA
ATOM     67  O   UNL A   1      44.223  18.154  24.815  1.00  0.00    -0.744 OA
ENDBRANCH  63  64
ENDBRANCH  44  58
BRANCH  45  68
ATOM     68  C   UNL A   1      41.195  30.300  32.612  1.00  0.00    -0.014 A 
ATOM     69  C   UNL A   1      40.127  29.514  33.109  1.00  0.00     0.010 A 
ATOM     70  C   UNL A   1      41.127  31.687  32.799  1.00  0.00     0.010 A 
ATOM     71  C   UNL A   1      39.080  30.083  33.854  1.00  0.00     0.020 A 
ATOM     72  C   UNL A   1      40.084  32.252  33.552  1.00  0.00     0.020 A 
ATOM     73  C   UNL A   1      39.084  31.453  34.100  1.00  0.00     0.054 A 
BRANCH  73  74
ATOM     74  S   UNL A   1      37.875  32.149  35.271  1.00  0.00     0.124 S 
ATOM     75  O   UNL A   1      37.796  31.105  36.288  1.00  0.00    -0.237 OA
ATOM     76  O   UNL A   1      38.532  33.389  35.680  1.00  0.00    -0.237 OA
ATOM     77  O   UNL A   1      36.672  32.316  34.461  1.00  0.00    -0.744 OA
ENDBRANCH  73  74
ENDBRANCH  45  68
BRANCH  57  78
ATOM     78  C   UNL A   1      45.115  24.162  33.498  1.00  0.00    -0.014 A 
ATOM     79  C   UNL A   1      46.403  24.223  34.047  1.00  0.00     0.010 A 
ATOM     80  C   UNL A   1      44.387  22.962  33.675  1.00  0.00     0.010 A 
ATOM     81  C   UNL A   1      46.914  23.158  34.799  1.00  0.00     0.020 A 
ATOM     82  C   UNL A   1      44.898  21.883  34.396  1.00  0.00     0.020 A 
ATOM     83  C   UNL A   1      46.154  21.998  34.975  1.00  0.00     0.054 A 
BRANCH  83  84
ATOM     84  S   UNL A   1      46.846  20.623  35.923  1.00  0.00     0.124 S 
ATOM     85  O   UNL A   1      47.534  21.304  37.017  1.00  0.00    -0.237 OA
ATOM     86  O   UNL A   1      45.643  19.886  36.301  1.00  0.00    -0.237 OA
ATOM     87  O   UNL A   1      47.721  19.945  34.971  1.00  0.00    -0.744 OA
ENDBRANCH  83  84
ENDBRANCH  57  78
ENDBRANCH  31  32
ENDBRANCH  24  26
ENDBRANCH  23  24
ENDBRANCH   1  23
TORSDOF 16
ENDMDL
