MODEL 1
REMARK VINA RESULT:     -11.3      0.000      0.000
REMARK SMILES O=C(CC1(NC(=O)C2(c3ccccc3)CC2)CCC1)OCCOC(=O)c1ccc(-c2c3nc(c(-c4ccc(S(=O)(=O)[O-])cc4)c4ccc([nH]4)c(-c4ccc(S(=O)(=O)[O-])cc4)c4nc(c(-c5ccc(S(=O)(=O)[O-])cc5)c5ccc2[nH]5)C=C4)C=C3)cc1
REMARK SMILES IDX 21 1 20 2 2 3 1 4 3 5 4 6 17 7 19 8 18 9 5 10 6 11 7 13 8 14
REMARK SMILES IDX 15 15 16 16 9 17 10 18 14 19 11 20 13 21 12 22 22 23 23 24
REMARK SMILES IDX 24 25 25 26 26 27 27 28 85 29 28 30 84 31 29 32 30 33 31 34
REMARK SMILES IDX 78 35 32 36 83 37 77 38 79 39 33 40 82 41 76 42 75 43 34 45
REMARK SMILES IDX 64 46 45 47 63 48 46 49 49 50 62 51 80 52 47 53 48 54 61 56
REMARK SMILES IDX 81 57 50 58 35 59 36 60 44 61 37 62 43 63 38 64 39 65 40 66
REMARK SMILES IDX 41 67 42 68 65 69 66 70 74 71 67 72 73 73 68 74 69 75 70 76
REMARK SMILES IDX 71 77 72 78 51 79 52 80 60 81 53 82 59 83 54 84 55 85 56 86
REMARK SMILES IDX 57 87 58 88
REMARK H PARENT 5 12 79 44 49 55
REMARK Flexibility Score: inf
ROOT
ATOM      1  C   UNL A   1      37.939  22.775  25.460  1.00  0.00     0.274 C 
ENDROOT
BRANCH   1   2
ATOM      2  O   UNL A   1      36.761  23.589  25.364  1.00  0.00    -0.462 OA
BRANCH   2   3
ATOM      3  C   UNL A   1      35.655  23.039  24.755  1.00  0.00     0.308 C 
ATOM      4  O   UNL A   1      35.748  21.900  24.312  1.00  0.00    -0.252 OA
BRANCH   3   5
ATOM      5  C   UNL A   1      34.460  24.242  24.522  1.00  0.00     0.151 C 
BRANCH   5   6
ATOM      6  C   UNL A   1      32.344  24.426  25.019  1.00  0.00     0.051 C 
ATOM      7  C   UNL A   1      31.008  23.171  25.290  1.00  0.00     0.029 C 
ATOM      8  C   UNL A   1      31.477  24.926  26.584  1.00  0.00     0.029 C 
ATOM      9  C   UNL A   1      30.915  23.520  26.775  1.00  0.00     0.005 C 
BRANCH   6  10
ATOM     10  N   UNL A   1      31.157  25.430  24.024  1.00  0.00    -0.349 N 
ATOM     11  C   UNL A   1      31.445  26.509  23.193  1.00  0.00     0.231 C 
ATOM     12  H   UNL A   1      30.208  25.174  24.090  1.00  0.00     0.164 HD
ATOM     13  O   UNL A   1      30.689  26.944  22.337  1.00  0.00    -0.274 OA
BRANCH  11  14
ATOM     14  C   UNL A   1      32.733  27.126  23.544  1.00  0.00     0.074 C 
ATOM     15  C   UNL A   1      34.057  26.510  23.202  1.00  0.00     0.023 C 
ATOM     16  C   UNL A   1      33.619  27.775  22.517  1.00  0.00     0.023 C 
BRANCH  14  17
ATOM     17  C   UNL A   1      32.449  27.783  24.831  1.00  0.00    -0.032 A 
ATOM     18  C   UNL A   1      31.454  29.270  24.837  1.00  0.00     0.005 A 
ATOM     19  C   UNL A   1      33.787  27.600  26.078  1.00  0.00     0.005 A 
ATOM     20  C   UNL A   1      31.764  30.553  26.080  1.00  0.00     0.000 A 
ATOM     21  C   UNL A   1      34.113  28.890  27.251  1.00  0.00     0.000 A 
ATOM     22  C   UNL A   1      33.055  30.344  27.288  1.00  0.00     0.000 A 
ENDBRANCH  14  17
ENDBRANCH  11  14
ENDBRANCH   6  10
ENDBRANCH   5   6
ENDBRANCH   3   5
ENDBRANCH   2   3
ENDBRANCH   1   2
BRANCH   1  23
ATOM     23  C   UNL A   1      38.947  23.409  26.416  1.00  0.00     0.275 C 
BRANCH  23  24
ATOM     24  O   UNL A   1      38.906  24.848  26.338  1.00  0.00    -0.458 OA
BRANCH  24  25
ATOM     25  C   UNL A   1      40.119  25.457  26.341  1.00  0.00     0.338 C 
ATOM     26  O   UNL A   1      40.922  25.463  25.423  1.00  0.00    -0.246 OA
BRANCH  25  27
ATOM     27  C   UNL A   1      40.336  26.202  27.601  1.00  0.00     0.060 A 
ATOM     28  C   UNL A   1      39.431  25.979  28.647  1.00  0.00     0.016 A 
ATOM     29  C   UNL A   1      41.365  27.135  27.755  1.00  0.00     0.016 A 
ATOM     30  C   UNL A   1      39.543  26.697  29.840  1.00  0.00     0.010 A 
ATOM     31  C   UNL A   1      41.463  27.875  28.940  1.00  0.00     0.010 A 
ATOM     32  C   UNL A   1      40.537  27.677  29.979  1.00  0.00    -0.014 A 
BRANCH  32  33
ATOM     33  C   UNL A   1      40.481  28.618  31.125  1.00  0.00     0.031 A 
ATOM     34  C   UNL A   1      39.487  29.746  31.076  1.00  0.00     0.074 A 
ATOM     35  C   UNL A   1      41.269  28.468  32.203  1.00  0.00     0.049 A 
ATOM     36  N   UNL A   1      39.259  30.687  31.956  1.00  0.00    -0.248 NA
ATOM     37  C   UNL A   1      38.627  29.809  29.883  1.00  0.00     0.031 C 
ATOM     38  C   UNL A   1      42.225  27.383  32.416  1.00  0.00     0.029 A 
ATOM     39  N   UNL A   1      41.378  29.241  33.333  1.00  0.00    -0.354 N 
ATOM     40  C   UNL A   1      38.217  31.440  31.434  1.00  0.00     0.074 A 
ATOM     41  C   UNL A   1      37.860  30.850  30.161  1.00  0.00     0.031 C 
ATOM     42  C   UNL A   1      42.827  27.561  33.606  1.00  0.00     0.029 A 
ATOM     43  C   UNL A   1      42.315  28.784  34.226  1.00  0.00     0.049 A 
ATOM     44  H   UNL A   1      40.835  30.048  33.487  1.00  0.00     0.167 HD
ATOM     45  C   UNL A   1      37.612  32.535  31.953  1.00  0.00     0.031 A 
ATOM     46  C   UNL A   1      42.725  29.299  35.402  1.00  0.00     0.031 A 
ATOM     47  C   UNL A   1      37.999  33.177  33.174  1.00  0.00     0.049 A 
ATOM     48  C   UNL A   1      42.120  30.581  35.909  1.00  0.00     0.074 A 
ATOM     49  C   UNL A   1      37.502  34.340  33.735  1.00  0.00     0.029 A 
ATOM     50  N   UNL A   1      39.000  32.719  34.015  1.00  0.00    -0.354 N 
ATOM     51  N   UNL A   1      41.151  31.296  35.390  1.00  0.00    -0.248 NA
ATOM     52  C   UNL A   1      42.677  31.132  37.153  1.00  0.00     0.031 C 
ATOM     53  C   UNL A   1      38.227  34.601  34.905  1.00  0.00     0.029 A 
ATOM     54  C   UNL A   1      39.157  33.587  35.080  1.00  0.00     0.049 A 
ATOM     55  H   UNL A   1      39.524  31.896  33.875  1.00  0.00     0.167 HD
ATOM     56  C   UNL A   1      40.986  32.384  36.241  1.00  0.00     0.074 A 
ATOM     57  C   UNL A   1      41.944  32.227  37.317  1.00  0.00     0.031 C 
ATOM     58  C   UNL A   1      40.123  33.424  36.135  1.00  0.00     0.031 A 
BRANCH  45  59
ATOM     59  C   UNL A   1      36.504  33.120  31.129  1.00  0.00    -0.014 A 
ATOM     60  C   UNL A   1      36.792  33.832  29.952  1.00  0.00     0.010 A 
ATOM     61  C   UNL A   1      35.179  33.047  31.592  1.00  0.00     0.010 A 
ATOM     62  C   UNL A   1      35.778  34.522  29.283  1.00  0.00     0.020 A 
ATOM     63  C   UNL A   1      34.162  33.730  30.922  1.00  0.00     0.020 A 
ATOM     64  C   UNL A   1      34.475  34.488  29.790  1.00  0.00     0.054 A 
BRANCH  64  65
ATOM     65  S   UNL A   1      33.180  35.458  28.969  1.00  0.00     0.124 S 
ATOM     66  O   UNL A   1      33.970  36.416  28.201  1.00  0.00    -0.237 OA
ATOM     67  O   UNL A   1      32.466  34.457  28.180  1.00  0.00    -0.237 OA
ATOM     68  O   UNL A   1      32.421  36.024  30.083  1.00  0.00    -0.744 OA
ENDBRANCH  64  65
ENDBRANCH  45  59
BRANCH  46  69
ATOM     69  C   UNL A   1      43.804  28.621  36.166  1.00  0.00    -0.014 A 
ATOM     70  C   UNL A   1      45.132  29.069  36.078  1.00  0.00     0.010 A 
ATOM     71  C   UNL A   1      43.499  27.529  36.997  1.00  0.00     0.010 A 
ATOM     72  C   UNL A   1      46.141  28.433  36.807  1.00  0.00     0.020 A 
ATOM     73  C   UNL A   1      44.503  26.899  37.737  1.00  0.00     0.020 A 
ATOM     74  C   UNL A   1      45.820  27.351  37.630  1.00  0.00     0.054 A 
BRANCH  74  75
ATOM     75  S   UNL A   1      47.116  26.564  38.632  1.00  0.00     0.124 S 
ATOM     76  O   UNL A   1      46.743  26.972  39.982  1.00  0.00    -0.237 OA
ATOM     77  O   UNL A   1      46.950  25.144  38.332  1.00  0.00    -0.237 OA
ATOM     78  O   UNL A   1      48.343  27.162  38.111  1.00  0.00    -0.744 OA
ENDBRANCH  74  75
ENDBRANCH  46  69
BRANCH  58  79
ATOM     79  C   UNL A   1      40.181  34.490  37.190  1.00  0.00    -0.014 A 
ATOM     80  C   UNL A   1      41.084  35.560  37.068  1.00  0.00     0.010 A 
ATOM     81  C   UNL A   1      39.265  34.478  38.256  1.00  0.00     0.010 A 
ATOM     82  C   UNL A   1      41.070  36.605  37.996  1.00  0.00     0.020 A 
ATOM     83  C   UNL A   1      39.242  35.526  39.180  1.00  0.00     0.020 A 
ATOM     84  C   UNL A   1      40.147  36.582  39.046  1.00  0.00     0.054 A 
BRANCH  84  85
ATOM     85  S   UNL A   1      40.076  37.988  40.192  1.00  0.00     0.124 S 
ATOM     86  O   UNL A   1      40.186  37.328  41.490  1.00  0.00    -0.237 OA
ATOM     87  O   UNL A   1      41.230  38.793  39.798  1.00  0.00    -0.237 OA
ATOM     88  O   UNL A   1      38.778  38.595  39.906  1.00  0.00    -0.744 OA
ENDBRANCH  84  85
ENDBRANCH  58  79
ENDBRANCH  32  33
ENDBRANCH  25  27
ENDBRANCH  24  25
ENDBRANCH  23  24
ENDBRANCH   1  23
TORSDOF 18
ENDMDL
MODEL 2
REMARK VINA RESULT:     -11.3      6.391     10.749
REMARK SMILES O=C(CC1(NC(=O)C2(c3ccccc3)CC2)CCC1)OCCOC(=O)c1ccc(-c2c3nc(c(-c4ccc(S(=O)(=O)[O-])cc4)c4ccc([nH]4)c(-c4ccc(S(=O)(=O)[O-])cc4)c4nc(c(-c5ccc(S(=O)(=O)[O-])cc5)c5ccc2[nH]5)C=C4)C=C3)cc1
REMARK SMILES IDX 21 1 20 2 2 3 1 4 3 5 4 6 17 7 19 8 18 9 5 10 6 11 7 13 8 14
REMARK SMILES IDX 15 15 16 16 9 17 10 18 14 19 11 20 13 21 12 22 22 23 23 24
REMARK SMILES IDX 24 25 25 26 26 27 27 28 85 29 28 30 84 31 29 32 30 33 31 34
REMARK SMILES IDX 78 35 32 36 83 37 77 38 79 39 33 40 82 41 76 42 75 43 34 45
REMARK SMILES IDX 64 46 45 47 63 48 46 49 49 50 62 51 80 52 47 53 48 54 61 56
REMARK SMILES IDX 81 57 50 58 35 59 36 60 44 61 37 62 43 63 38 64 39 65 40 66
REMARK SMILES IDX 41 67 42 68 65 69 66 70 74 71 67 72 73 73 68 74 69 75 70 76
REMARK SMILES IDX 71 77 72 78 51 79 52 80 60 81 53 82 59 83 54 84 55 85 56 86
REMARK SMILES IDX 57 87 58 88
REMARK H PARENT 5 12 79 44 49 55
REMARK Flexibility Score: inf
ROOT
ATOM      1  C   UNL A   1      38.597  21.620  25.755  1.00  0.00     0.274 C 
ENDROOT
BRANCH   1   2
ATOM      2  O   UNL A   1      37.178  21.579  25.543  1.00  0.00    -0.462 OA
BRANCH   2   3
ATOM      3  C   UNL A   1      36.573  22.721  25.069  1.00  0.00     0.308 C 
ATOM      4  O   UNL A   1      37.001  23.803  25.453  1.00  0.00    -0.252 OA
BRANCH   3   5
ATOM      5  C   UNL A   1      35.135  22.314  24.232  1.00  0.00     0.151 C 
BRANCH   5   6
ATOM      6  C   UNL A   1      33.491  20.924  24.584  1.00  0.00     0.051 C 
ATOM      7  C   UNL A   1      32.269  20.118  23.449  1.00  0.00     0.029 C 
ATOM      8  C   UNL A   1      33.467  19.125  25.047  1.00  0.00     0.029 C 
ATOM      9  C   UNL A   1      32.880  18.738  23.693  1.00  0.00     0.005 C 
BRANCH   6  10
ATOM     10  N   UNL A   1      32.119  21.263  25.771  1.00  0.00    -0.349 N 
ATOM     11  C   UNL A   1      31.119  22.225  25.661  1.00  0.00     0.231 C 
ATOM     12  H   UNL A   1      32.091  20.697  26.576  1.00  0.00     0.164 HD
ATOM     13  O   UNL A   1      30.078  22.217  26.301  1.00  0.00    -0.274 OA
BRANCH  11  14
ATOM     14  C   UNL A   1      31.517  23.310  24.752  1.00  0.00     0.074 C 
ATOM     15  C   UNL A   1      32.214  23.071  23.446  1.00  0.00     0.023 C 
ATOM     16  C   UNL A   1      30.798  23.580  23.459  1.00  0.00     0.023 C 
BRANCH  14  17
ATOM     17  C   UNL A   1      31.867  24.406  25.673  1.00  0.00    -0.032 A 
ATOM     18  C   UNL A   1      30.608  25.600  26.107  1.00  0.00     0.005 A 
ATOM     19  C   UNL A   1      33.616  24.957  25.553  1.00  0.00     0.005 A 
ATOM     20  C   UNL A   1      31.077  27.319  26.442  1.00  0.00     0.000 A 
ATOM     21  C   UNL A   1      34.049  26.655  25.828  1.00  0.00     0.000 A 
ATOM     22  C   UNL A   1      32.780  27.824  26.335  1.00  0.00     0.000 A 
ENDBRANCH  14  17
ENDBRANCH  11  14
ENDBRANCH   6  10
ENDBRANCH   5   6
ENDBRANCH   3   5
ENDBRANCH   2   3
ENDBRANCH   1   2
BRANCH   1  23
ATOM     23  C   UNL A   1      39.219  20.260  25.448  1.00  0.00     0.275 C 
BRANCH  23  24
ATOM     24  O   UNL A   1      40.068  19.819  26.526  1.00  0.00    -0.458 OA
BRANCH  24  25
ATOM     25  C   UNL A   1      41.377  19.663  26.199  1.00  0.00     0.338 C 
ATOM     26  O   UNL A   1      41.886  18.656  25.736  1.00  0.00    -0.246 OA
BRANCH  25  27
ATOM     27  C   UNL A   1      42.128  20.921  26.407  1.00  0.00     0.060 A 
ATOM     28  C   UNL A   1      42.318  21.350  27.726  1.00  0.00     0.016 A 
ATOM     29  C   UNL A   1      42.599  21.698  25.344  1.00  0.00     0.016 A 
ATOM     30  C   UNL A   1      42.965  22.560  27.987  1.00  0.00     0.010 A 
ATOM     31  C   UNL A   1      43.223  22.926  25.603  1.00  0.00     0.010 A 
ATOM     32  C   UNL A   1      43.386  23.374  26.924  1.00  0.00    -0.014 A 
BRANCH  32  33
ATOM     33  C   UNL A   1      43.817  24.767  27.198  1.00  0.00     0.031 A 
ATOM     34  C   UNL A   1      45.258  25.130  26.965  1.00  0.00     0.074 A 
ATOM     35  C   UNL A   1      42.952  25.706  27.619  1.00  0.00     0.049 A 
ATOM     36  N   UNL A   1      45.861  26.277  27.136  1.00  0.00    -0.248 NA
ATOM     37  C   UNL A   1      46.128  24.056  26.457  1.00  0.00     0.031 C 
ATOM     38  C   UNL A   1      41.517  25.514  27.818  1.00  0.00     0.029 A 
ATOM     39  N   UNL A   1      43.166  27.022  27.947  1.00  0.00    -0.354 N 
ATOM     40  C   UNL A   1      47.174  26.072  26.736  1.00  0.00     0.074 A 
ATOM     41  C   UNL A   1      47.282  24.690  26.318  1.00  0.00     0.031 C 
ATOM     42  C   UNL A   1      40.978  26.673  28.238  1.00  0.00     0.029 A 
ATOM     43  C   UNL A   1      42.033  27.679  28.358  1.00  0.00     0.049 A 
ATOM     44  H   UNL A   1      44.049  27.453  27.892  1.00  0.00     0.167 HD
ATOM     45  C   UNL A   1      48.210  26.944  26.726  1.00  0.00     0.031 A 
ATOM     46  C   UNL A   1      41.867  28.944  28.795  1.00  0.00     0.031 A 
ATOM     47  C   UNL A   1      48.143  28.293  27.204  1.00  0.00     0.049 A 
ATOM     48  C   UNL A   1      43.053  29.867  28.885  1.00  0.00     0.074 A 
ATOM     49  C   UNL A   1      49.160  29.224  27.313  1.00  0.00     0.029 A 
ATOM     50  N   UNL A   1      46.990  28.899  27.676  1.00  0.00    -0.354 N 
ATOM     51  N   UNL A   1      44.296  29.648  28.526  1.00  0.00    -0.248 NA
ATOM     52  C   UNL A   1      42.815  31.201  29.455  1.00  0.00     0.031 C 
ATOM     53  C   UNL A   1      48.626  30.387  27.883  1.00  0.00     0.029 A 
ATOM     54  C   UNL A   1      47.271  30.184  28.103  1.00  0.00     0.049 A 
ATOM     55  H   UNL A   1      46.100  28.476  27.704  1.00  0.00     0.167 HD
ATOM     56  C   UNL A   1      44.988  30.815  28.831  1.00  0.00     0.074 A 
ATOM     57  C   UNL A   1      44.026  31.743  29.390  1.00  0.00     0.031 C 
ATOM     58  C   UNL A   1      46.306  31.089  28.669  1.00  0.00     0.031 A 
BRANCH  45  59
ATOM     59  C   UNL A   1      49.515  26.400  26.228  1.00  0.00    -0.014 A 
ATOM     60  C   UNL A   1      50.372  25.701  27.095  1.00  0.00     0.010 A 
ATOM     61  C   UNL A   1      49.933  26.684  24.916  1.00  0.00     0.010 A 
ATOM     62  C   UNL A   1      51.658  25.349  26.677  1.00  0.00     0.020 A 
ATOM     63  C   UNL A   1      51.215  26.328  24.493  1.00  0.00     0.020 A 
ATOM     64  C   UNL A   1      52.080  25.691  25.388  1.00  0.00     0.054 A 
BRANCH  64  65
ATOM     65  S   UNL A   1      53.780  25.312  24.882  1.00  0.00     0.124 S 
ATOM     66  O   UNL A   1      53.842  25.935  23.562  1.00  0.00    -0.237 OA
ATOM     67  O   UNL A   1      54.585  25.955  25.918  1.00  0.00    -0.237 OA
ATOM     68  O   UNL A   1      53.819  23.851  24.887  1.00  0.00    -0.744 OA
ENDBRANCH  64  65
ENDBRANCH  45  59
BRANCH  46  69
ATOM     69  C   UNL A   1      40.522  29.401  29.229  1.00  0.00    -0.014 A 
ATOM     70  C   UNL A   1      40.181  29.429  30.592  1.00  0.00     0.010 A 
ATOM     71  C   UNL A   1      39.580  29.824  28.275  1.00  0.00     0.010 A 
ATOM     72  C   UNL A   1      38.917  29.870  30.994  1.00  0.00     0.020 A 
ATOM     73  C   UNL A   1      38.321  30.278  28.674  1.00  0.00     0.020 A 
ATOM     74  C   UNL A   1      37.994  30.290  30.033  1.00  0.00     0.054 A 
BRANCH  74  75
ATOM     75  S   UNL A   1      36.375  30.928  30.555  1.00  0.00     0.124 S 
ATOM     76  O   UNL A   1      36.700  32.297  30.940  1.00  0.00    -0.237 OA
ATOM     77  O   UNL A   1      35.560  30.786  29.351  1.00  0.00    -0.237 OA
ATOM     78  O   UNL A   1      36.008  30.036  31.652  1.00  0.00    -0.744 OA
ENDBRANCH  74  75
ENDBRANCH  46  69
BRANCH  58  79
ATOM     79  C   UNL A   1      46.799  32.434  29.118  1.00  0.00    -0.014 A 
ATOM     80  C   UNL A   1      46.763  33.531  28.241  1.00  0.00     0.010 A 
ATOM     81  C   UNL A   1      47.208  32.628  30.449  1.00  0.00     0.010 A 
ATOM     82  C   UNL A   1      47.127  34.805  28.687  1.00  0.00     0.020 A 
ATOM     83  C   UNL A   1      47.564  33.901  30.901  1.00  0.00     0.020 A 
ATOM     84  C   UNL A   1      47.523  34.982  30.016  1.00  0.00     0.054 A 
BRANCH  84  85
ATOM     85  S   UNL A   1      47.906  36.655  30.610  1.00  0.00     0.124 S 
ATOM     86  O   UNL A   1      46.583  37.157  30.973  1.00  0.00    -0.237 OA
ATOM     87  O   UNL A   1      48.812  36.407  31.730  1.00  0.00    -0.237 OA
ATOM     88  O   UNL A   1      48.523  37.295  29.451  1.00  0.00    -0.744 OA
ENDBRANCH  84  85
ENDBRANCH  58  79
ENDBRANCH  32  33
ENDBRANCH  25  27
ENDBRANCH  24  25
ENDBRANCH  23  24
ENDBRANCH   1  23
TORSDOF 18
ENDMDL
MODEL 3
REMARK VINA RESULT:     -11.0      6.998      9.356
REMARK SMILES O=C(CC1(NC(=O)C2(c3ccccc3)CC2)CCC1)OCCOC(=O)c1ccc(-c2c3nc(c(-c4ccc(S(=O)(=O)[O-])cc4)c4ccc([nH]4)c(-c4ccc(S(=O)(=O)[O-])cc4)c4nc(c(-c5ccc(S(=O)(=O)[O-])cc5)c5ccc2[nH]5)C=C4)C=C3)cc1
REMARK SMILES IDX 21 1 20 2 2 3 1 4 3 5 4 6 17 7 19 8 18 9 5 10 6 11 7 13 8 14
REMARK SMILES IDX 15 15 16 16 9 17 10 18 14 19 11 20 13 21 12 22 22 23 23 24
REMARK SMILES IDX 24 25 25 26 26 27 27 28 85 29 28 30 84 31 29 32 30 33 31 34
REMARK SMILES IDX 78 35 32 36 83 37 77 38 79 39 33 40 82 41 76 42 75 43 34 45
REMARK SMILES IDX 64 46 45 47 63 48 46 49 49 50 62 51 80 52 47 53 48 54 61 56
REMARK SMILES IDX 81 57 50 58 35 59 36 60 44 61 37 62 43 63 38 64 39 65 40 66
REMARK SMILES IDX 41 67 42 68 65 69 66 70 74 71 67 72 73 73 68 74 69 75 70 76
REMARK SMILES IDX 71 77 72 78 51 79 52 80 60 81 53 82 59 83 54 84 55 85 56 86
REMARK SMILES IDX 57 87 58 88
REMARK H PARENT 5 12 79 44 49 55
REMARK Flexibility Score: inf
ROOT
ATOM      1  C   UNL A   1      39.109  21.730  26.067  1.00  0.00     0.274 C 
ENDROOT
BRANCH   1   2
ATOM      2  O   UNL A   1      37.823  22.053  25.517  1.00  0.00    -0.462 OA
BRANCH   2   3
ATOM      3  C   UNL A   1      37.415  23.367  25.583  1.00  0.00     0.308 C 
ATOM      4  O   UNL A   1      37.901  24.078  26.455  1.00  0.00    -0.252 OA
BRANCH   3   5
ATOM      5  C   UNL A   1      36.071  23.612  24.551  1.00  0.00     0.151 C 
BRANCH   5   6
ATOM      6  C   UNL A   1      34.225  24.766  24.677  1.00  0.00     0.051 C 
ATOM      7  C   UNL A   1      33.758  26.280  25.636  1.00  0.00     0.029 C 
ATOM      8  C   UNL A   1      33.391  25.904  23.469  1.00  0.00     0.029 C 
ATOM      9  C   UNL A   1      33.652  27.115  24.360  1.00  0.00     0.005 C 
BRANCH   6  10
ATOM     10  N   UNL A   1      32.596  24.020  25.120  1.00  0.00    -0.349 N 
ATOM     11  C   UNL A   1      32.163  22.719  24.878  1.00  0.00     0.231 C 
ATOM     12  H   UNL A   1      31.957  24.611  25.580  1.00  0.00     0.164 HD
ATOM     13  O   UNL A   1      31.219  22.188  25.442  1.00  0.00    -0.274 OA
BRANCH  11  14
ATOM     14  C   UNL A   1      32.923  22.097  23.783  1.00  0.00     0.074 C 
ATOM     15  C   UNL A   1      32.677  22.405  22.336  1.00  0.00     0.023 C 
ATOM     16  C   UNL A   1      33.956  22.851  22.991  1.00  0.00     0.023 C 
BRANCH  14  17
ATOM     17  C   UNL A   1      33.192  20.741  24.292  1.00  0.00    -0.032 A 
ATOM     18  C   UNL A   1      34.819  20.371  24.938  1.00  0.00     0.005 A 
ATOM     19  C   UNL A   1      32.252  19.416  23.432  1.00  0.00     0.005 A 
ATOM     20  C   UNL A   1      35.500  18.701  24.755  1.00  0.00     0.000 A 
ATOM     21  C   UNL A   1      32.957  17.804  23.213  1.00  0.00     0.000 A 
ATOM     22  C   UNL A   1      34.562  17.431  23.933  1.00  0.00     0.000 A 
ENDBRANCH  14  17
ENDBRANCH  11  14
ENDBRANCH   6  10
ENDBRANCH   5   6
ENDBRANCH   3   5
ENDBRANCH   2   3
ENDBRANCH   1   2
BRANCH   1  23
ATOM     23  C   UNL A   1      39.449  20.265  25.797  1.00  0.00     0.275 C 
BRANCH  23  24
ATOM     24  O   UNL A   1      40.871  20.041  25.850  1.00  0.00    -0.458 OA
BRANCH  24  25
ATOM     25  C   UNL A   1      41.429  20.180  27.080  1.00  0.00     0.338 C 
ATOM     26  O   UNL A   1      41.281  19.424  28.025  1.00  0.00    -0.246 OA
BRANCH  25  27
ATOM     27  C   UNL A   1      42.326  21.356  27.124  1.00  0.00     0.060 A 
ATOM     28  C   UNL A   1      42.681  21.852  28.385  1.00  0.00     0.016 A 
ATOM     29  C   UNL A   1      42.780  21.998  25.968  1.00  0.00     0.016 A 
ATOM     30  C   UNL A   1      43.474  22.996  28.494  1.00  0.00     0.010 A 
ATOM     31  C   UNL A   1      43.552  23.162  26.076  1.00  0.00     0.010 A 
ATOM     32  C   UNL A   1      43.882  23.680  27.340  1.00  0.00    -0.014 A 
BRANCH  32  33
ATOM     33  C   UNL A   1      44.483  25.032  27.465  1.00  0.00     0.031 A 
ATOM     34  C   UNL A   1      43.592  26.176  27.867  1.00  0.00     0.074 A 
ATOM     35  C   UNL A   1      45.793  25.246  27.256  1.00  0.00     0.049 A 
ATOM     36  N   UNL A   1      43.891  27.437  28.038  1.00  0.00    -0.248 NA
ATOM     37  C   UNL A   1      42.181  25.846  28.126  1.00  0.00     0.031 C 
ATOM     38  C   UNL A   1      46.783  24.222  26.932  1.00  0.00     0.029 A 
ATOM     39  N   UNL A   1      46.515  26.414  27.298  1.00  0.00    -0.354 N 
ATOM     40  C   UNL A   1      42.714  28.048  28.445  1.00  0.00     0.074 A 
ATOM     41  C   UNL A   1      41.694  27.021  28.492  1.00  0.00     0.031 C 
ATOM     42  C   UNL A   1      47.987  24.808  26.800  1.00  0.00     0.029 A 
ATOM     43  C   UNL A   1      47.846  26.249  27.008  1.00  0.00     0.049 A 
ATOM     44  H   UNL A   1      46.114  27.287  27.514  1.00  0.00     0.167 HD
ATOM     45  C   UNL A   1      42.485  29.349  28.742  1.00  0.00     0.031 A 
ATOM     46  C   UNL A   1      48.837  27.158  26.909  1.00  0.00     0.031 A 
ATOM     47  C   UNL A   1      43.460  30.393  28.631  1.00  0.00     0.049 A 
ATOM     48  C   UNL A   1      48.540  28.617  27.132  1.00  0.00     0.074 A 
ATOM     49  C   UNL A   1      43.299  31.753  28.828  1.00  0.00     0.029 A 
ATOM     50  N   UNL A   1      44.783  30.192  28.268  1.00  0.00    -0.354 N 
ATOM     51  N   UNL A   1      47.413  29.182  27.492  1.00  0.00    -0.248 NA
ATOM     52  C   UNL A   1      49.648  29.561  26.919  1.00  0.00     0.031 C 
ATOM     53  C   UNL A   1      44.521  32.379  28.553  1.00  0.00     0.029 A 
ATOM     54  C   UNL A   1      45.446  31.404  28.209  1.00  0.00     0.049 A 
ATOM     55  H   UNL A   1      45.190  29.315  28.080  1.00  0.00     0.167 HD
ATOM     56  C   UNL A   1      47.674  30.548  27.543  1.00  0.00     0.074 A 
ATOM     57  C   UNL A   1      49.069  30.724  27.193  1.00  0.00     0.031 C 
ATOM     58  C   UNL A   1      46.830  31.564  27.846  1.00  0.00     0.031 A 
BRANCH  45  59
ATOM     59  C   UNL A   1      41.084  29.687  29.154  1.00  0.00    -0.014 A 
ATOM     60  C   UNL A   1      40.776  29.922  30.505  1.00  0.00     0.010 A 
ATOM     61  C   UNL A   1      40.052  29.663  28.200  1.00  0.00     0.010 A 
ATOM     62  C   UNL A   1      39.446  30.063  30.908  1.00  0.00     0.020 A 
ATOM     63  C   UNL A   1      38.722  29.811  28.598  1.00  0.00     0.020 A 
ATOM     64  C   UNL A   1      38.427  29.977  29.954  1.00  0.00     0.054 A 
BRANCH  64  65
ATOM     65  S   UNL A   1      36.698  30.071  30.494  1.00  0.00     0.124 S 
ATOM     66  O   UNL A   1      35.996  29.512  29.342  1.00  0.00    -0.237 OA
ATOM     67  O   UNL A   1      36.682  29.246  31.700  1.00  0.00    -0.237 OA
ATOM     68  O   UNL A   1      36.489  31.500  30.721  1.00  0.00    -0.744 OA
ENDBRANCH  64  65
ENDBRANCH  45  59
BRANCH  46  69
ATOM     69  C   UNL A   1      50.205  26.716  26.533  1.00  0.00    -0.014 A 
ATOM     70  C   UNL A   1      50.585  26.635  25.184  1.00  0.00     0.010 A 
ATOM     71  C   UNL A   1      51.137  26.387  27.533  1.00  0.00     0.010 A 
ATOM     72  C   UNL A   1      51.877  26.229  24.837  1.00  0.00     0.020 A 
ATOM     73  C   UNL A   1      52.433  25.992  27.191  1.00  0.00     0.020 A 
ATOM     74  C   UNL A   1      52.793  25.908  25.843  1.00  0.00     0.054 A 
BRANCH  74  75
ATOM     75  S   UNL A   1      54.493  25.444  25.401  1.00  0.00     0.124 S 
ATOM     76  O   UNL A   1      54.698  26.193  24.166  1.00  0.00    -0.237 OA
ATOM     77  O   UNL A   1      55.270  25.898  26.552  1.00  0.00    -0.237 OA
ATOM     78  O   UNL A   1      54.410  23.993  25.251  1.00  0.00    -0.744 OA
ENDBRANCH  74  75
ENDBRANCH  46  69
BRANCH  58  79
ATOM     79  C   UNL A   1      47.374  32.962  27.794  1.00  0.00    -0.014 A 
ATOM     80  C   UNL A   1      47.343  33.690  26.591  1.00  0.00     0.010 A 
ATOM     81  C   UNL A   1      47.826  33.588  28.968  1.00  0.00     0.010 A 
ATOM     82  C   UNL A   1      47.756  35.025  26.563  1.00  0.00     0.020 A 
ATOM     83  C   UNL A   1      48.230  34.926  28.946  1.00  0.00     0.020 A 
ATOM     84  C   UNL A   1      48.195  35.635  27.742  1.00  0.00     0.054 A 
BRANCH  84  85
ATOM     85  S   UNL A   1      48.641  37.395  27.714  1.00  0.00     0.124 S 
ATOM     86  O   UNL A   1      50.101  37.339  27.724  1.00  0.00    -0.237 OA
ATOM     87  O   UNL A   1      48.041  37.867  26.468  1.00  0.00    -0.237 OA
ATOM     88  O   UNL A   1      48.026  37.922  28.930  1.00  0.00    -0.744 OA
ENDBRANCH  84  85
ENDBRANCH  58  79
ENDBRANCH  32  33
ENDBRANCH  25  27
ENDBRANCH  24  25
ENDBRANCH  23  24
ENDBRANCH   1  23
TORSDOF 18
ENDMDL
