MODEL 1
REMARK VINA RESULT:      -9.7      0.000      0.000
REMARK SMILES Cc1cc(C(=O)N2CCO[C@H](C)C2)sc1/C=C/C(=O)OCCOC(=O)c1ccc(-c2c3nc(c(-c4ccc(S(=O)(=O)[O-])cc4)c4ccc([nH]4)c(-c4ccc(S(=O)(=O)[O-])cc4)c4nc(c(-c5ccc(S(=O)(=O)[O-])cc5)c5ccc2[nH]5)C=C4)C=C3)cc1
REMARK SMILES IDX 21 1 20 2 18 3 19 4 17 5 16 6 15 7 1 8 2 9 3 10 4 11 14 12
REMARK SMILES IDX 5 13 6 14 7 15 8 16 13 17 9 18 11 19 10 20 12 21 22 22 23 23
REMARK SMILES IDX 24 24 25 25 26 26 27 27 85 28 28 29 84 30 29 31 30 32 31 33
REMARK SMILES IDX 78 34 32 35 83 36 77 37 79 38 33 39 82 40 76 41 75 42 34 44
REMARK SMILES IDX 64 45 45 46 63 47 46 48 49 49 62 50 80 51 47 52 48 53 61 55
REMARK SMILES IDX 81 56 50 57 35 58 36 59 44 60 37 61 43 62 38 63 39 64 40 65
REMARK SMILES IDX 41 66 42 67 65 68 66 69 74 70 67 71 73 72 68 73 69 74 70 75
REMARK SMILES IDX 71 76 72 77 51 78 52 79 60 80 53 81 59 82 54 83 55 84 56 85
REMARK SMILES IDX 57 86 58 87
REMARK H PARENT 79 43 49 54
REMARK Flexibility Score: inf
ROOT
ATOM      1  C   UNL A   1      32.541  33.133  27.460  1.00  0.00     0.275 C 
ENDROOT
BRANCH   1   2
ATOM      2  O   UNL A   1      33.690  33.854  27.940  1.00  0.00    -0.459 OA
BRANCH   2   3
ATOM      3  C   UNL A   1      33.456  34.702  28.970  1.00  0.00     0.330 C 
ATOM      4  O   UNL A   1      32.453  35.380  29.130  1.00  0.00    -0.247 OA
BRANCH   3   5
ATOM      5  C   UNL A   1      34.551  34.717  29.958  1.00  0.00     0.095 C 
ATOM      6  C   UNL A   1      35.733  34.097  29.822  1.00  0.00     0.027 C 
BRANCH   6   7
ATOM      7  C   UNL A   1      36.725  34.110  30.855  1.00  0.00     0.031 A 
ATOM      8  C   UNL A   1      38.866  34.517  29.479  1.00  0.00     0.046 C 
ATOM      9  C   UNL A   1      38.104  34.257  30.740  1.00  0.00    -0.032 A 
ATOM     10  C   UNL A   1      38.750  34.195  32.023  1.00  0.00     0.029 A 
ATOM     11  C   UNL A   1      37.876  34.033  33.079  1.00  0.00     0.093 A 
ATOM     12  S   UNL A   1      36.278  33.899  32.508  1.00  0.00    -0.130 S 
BRANCH  11  13
ATOM     13  C   UNL A   1      38.209  34.165  34.497  1.00  0.00     0.264 C 
ATOM     14  O   UNL A   1      38.744  35.194  34.919  1.00  0.00    -0.268 OA
BRANCH  13  15
ATOM     15  N   UNL A   1      37.818  33.179  35.393  1.00  0.00    -0.333 N 
ATOM     16  C   UNL A   1      37.787  31.789  34.949  1.00  0.00     0.148 C 
ATOM     17  C   UNL A   1      37.196  33.397  36.703  1.00  0.00     0.151 C 
ATOM     18  C   UNL A   1      38.404  30.903  36.035  1.00  0.00     0.182 C 
ATOM     19  C   UNL A   1      37.772  32.423  37.752  1.00  0.00     0.134 C 
ATOM     20  O   UNL A   1      37.702  31.063  37.277  1.00  0.00    -0.375 OA
ATOM     21  C   UNL A   1      36.987  32.487  39.054  1.00  0.00     0.040 C 
ENDBRANCH  13  15
ENDBRANCH  11  13
ENDBRANCH   6   7
ENDBRANCH   3   5
ENDBRANCH   2   3
ENDBRANCH   1   2
BRANCH   1  22
ATOM     22  C   UNL A   1      32.851  31.644  27.273  1.00  0.00     0.275 C 
BRANCH  22  23
ATOM     23  O   UNL A   1      34.183  31.309  27.701  1.00  0.00    -0.458 OA
BRANCH  23  24
ATOM     24  C   UNL A   1      34.434  29.983  27.816  1.00  0.00     0.338 C 
ATOM     25  O   UNL A   1      33.676  29.068  27.539  1.00  0.00    -0.246 OA
BRANCH  24  26
ATOM     26  C   UNL A   1      35.835  29.769  28.223  1.00  0.00     0.060 A 
ATOM     27  C   UNL A   1      36.826  29.873  27.241  1.00  0.00     0.016 A 
ATOM     28  C   UNL A   1      36.169  29.408  29.531  1.00  0.00     0.016 A 
ATOM     29  C   UNL A   1      38.157  29.613  27.563  1.00  0.00     0.010 A 
ATOM     30  C   UNL A   1      37.506  29.143  29.851  1.00  0.00     0.010 A 
ATOM     31  C   UNL A   1      38.506  29.232  28.867  1.00  0.00    -0.014 A 
BRANCH  31  32
ATOM     32  C   UNL A   1      39.915  28.892  29.182  1.00  0.00     0.031 A 
ATOM     33  C   UNL A   1      40.790  29.891  29.885  1.00  0.00     0.074 A 
ATOM     34  C   UNL A   1      40.400  27.679  28.858  1.00  0.00     0.049 A 
ATOM     35  N   UNL A   1      42.046  29.784  30.238  1.00  0.00    -0.248 NA
ATOM     36  C   UNL A   1      40.172  31.178  30.239  1.00  0.00     0.031 C 
ATOM     37  C   UNL A   1      39.640  26.615  28.200  1.00  0.00     0.029 A 
ATOM     38  N   UNL A   1      41.647  27.137  29.041  1.00  0.00    -0.354 N 
ATOM     39  C   UNL A   1      42.372  30.989  30.848  1.00  0.00     0.074 A 
ATOM     40  C   UNL A   1      41.189  31.821  30.795  1.00  0.00     0.031 C 
ATOM     41  C   UNL A   1      40.438  25.545  28.038  1.00  0.00     0.029 A 
ATOM     42  C   UNL A   1      41.770  25.860  28.549  1.00  0.00     0.049 A 
ATOM     43  H   UNL A   1      42.384  27.618  29.483  1.00  0.00     0.167 HD
ATOM     44  C   UNL A   1      43.549  31.366  31.405  1.00  0.00     0.031 A 
ATOM     45  C   UNL A   1      42.838  25.041  28.500  1.00  0.00     0.031 A 
ATOM     46  C   UNL A   1      44.728  30.542  31.442  1.00  0.00     0.049 A 
ATOM     47  C   UNL A   1      44.149  25.503  29.073  1.00  0.00     0.074 A 
ATOM     48  C   UNL A   1      45.965  30.834  31.990  1.00  0.00     0.029 A 
ATOM     49  N   UNL A   1      44.822  29.267  30.905  1.00  0.00    -0.354 N 
ATOM     50  N   UNL A   1      44.436  26.640  29.662  1.00  0.00    -0.248 NA
ATOM     51  C   UNL A   1      45.281  24.570  28.980  1.00  0.00     0.031 C 
ATOM     52  C   UNL A   1      46.820  29.755  31.743  1.00  0.00     0.029 A 
ATOM     53  C   UNL A   1      46.101  28.768  31.087  1.00  0.00     0.049 A 
ATOM     54  H   UNL A   1      44.087  28.787  30.459  1.00  0.00     0.167 HD
ATOM     55  C   UNL A   1      45.774  26.550  30.027  1.00  0.00     0.074 A 
ATOM     56  C   UNL A   1      46.237  25.244  29.606  1.00  0.00     0.031 C 
ATOM     57  C   UNL A   1      46.550  27.468  30.658  1.00  0.00     0.031 A 
BRANCH  44  58
ATOM     58  C   UNL A   1      43.625  32.751  31.991  1.00  0.00    -0.014 A 
ATOM     59  C   UNL A   1      43.441  32.968  33.369  1.00  0.00     0.010 A 
ATOM     60  C   UNL A   1      43.913  33.846  31.157  1.00  0.00     0.010 A 
ATOM     61  C   UNL A   1      43.502  34.262  33.894  1.00  0.00     0.020 A 
ATOM     62  C   UNL A   1      43.999  35.138  31.683  1.00  0.00     0.020 A 
ATOM     63  C   UNL A   1      43.774  35.340  33.046  1.00  0.00     0.054 A 
BRANCH  63  64
ATOM     64  S   UNL A   1      43.853  37.009  33.754  1.00  0.00     0.124 S 
ATOM     65  O   UNL A   1      44.234  37.808  32.592  1.00  0.00    -0.237 OA
ATOM     66  O   UNL A   1      42.492  37.217  34.240  1.00  0.00    -0.237 OA
ATOM     67  O   UNL A   1      44.872  36.897  34.794  1.00  0.00    -0.744 OA
ENDBRANCH  63  64
ENDBRANCH  44  58
BRANCH  45  68
ATOM     68  C   UNL A   1      42.712  23.701  27.863  1.00  0.00    -0.014 A 
ATOM     69  C   UNL A   1      42.918  23.540  26.483  1.00  0.00     0.010 A 
ATOM     70  C   UNL A   1      42.400  22.574  28.646  1.00  0.00     0.010 A 
ATOM     71  C   UNL A   1      42.802  22.277  25.893  1.00  0.00     0.020 A 
ATOM     72  C   UNL A   1      42.308  21.307  28.065  1.00  0.00     0.020 A 
ATOM     73  C   UNL A   1      42.500  21.168  26.690  1.00  0.00     0.054 A 
BRANCH  73  74
ATOM     74  S   UNL A   1      42.413  19.528  25.915  1.00  0.00     0.124 S 
ATOM     75  O   UNL A   1      42.651  18.643  27.050  1.00  0.00    -0.237 OA
ATOM     76  O   UNL A   1      41.059  19.507  25.368  1.00  0.00    -0.237 OA
ATOM     77  O   UNL A   1      43.478  19.568  24.916  1.00  0.00    -0.744 OA
ENDBRANCH  73  74
ENDBRANCH  45  68
BRANCH  57  78
ATOM     78  C   UNL A   1      47.975  27.083  30.952  1.00  0.00    -0.014 A 
ATOM     79  C   UNL A   1      48.300  26.287  32.064  1.00  0.00     0.010 A 
ATOM     80  C   UNL A   1      48.998  27.483  30.073  1.00  0.00     0.010 A 
ATOM     81  C   UNL A   1      49.627  25.921  32.308  1.00  0.00     0.020 A 
ATOM     82  C   UNL A   1      50.322  27.100  30.300  1.00  0.00     0.020 A 
ATOM     83  C   UNL A   1      50.630  26.331  31.425  1.00  0.00     0.054 A 
BRANCH  83  84
ATOM     84  S   UNL A   1      52.339  25.807  31.736  1.00  0.00     0.124 S 
ATOM     85  O   UNL A   1      52.957  25.992  30.426  1.00  0.00    -0.237 OA
ATOM     86  O   UNL A   1      52.777  26.735  32.775  1.00  0.00    -0.237 OA
ATOM     87  O   UNL A   1      52.201  24.417  32.169  1.00  0.00    -0.744 OA
ENDBRANCH  83  84
ENDBRANCH  57  78
ENDBRANCH  31  32
ENDBRANCH  24  26
ENDBRANCH  23  24
ENDBRANCH  22  23
ENDBRANCH   1  22
TORSDOF 17
ENDMDL
MODEL 2
REMARK VINA RESULT:      -9.5      4.564     10.784
REMARK SMILES Cc1cc(C(=O)N2CCO[C@H](C)C2)sc1/C=C/C(=O)OCCOC(=O)c1ccc(-c2c3nc(c(-c4ccc(S(=O)(=O)[O-])cc4)c4ccc([nH]4)c(-c4ccc(S(=O)(=O)[O-])cc4)c4nc(c(-c5ccc(S(=O)(=O)[O-])cc5)c5ccc2[nH]5)C=C4)C=C3)cc1
REMARK SMILES IDX 21 1 20 2 18 3 19 4 17 5 16 6 15 7 1 8 2 9 3 10 4 11 14 12
REMARK SMILES IDX 5 13 6 14 7 15 8 16 13 17 9 18 11 19 10 20 12 21 22 22 23 23
REMARK SMILES IDX 24 24 25 25 26 26 27 27 85 28 28 29 84 30 29 31 30 32 31 33
REMARK SMILES IDX 78 34 32 35 83 36 77 37 79 38 33 39 82 40 76 41 75 42 34 44
REMARK SMILES IDX 64 45 45 46 63 47 46 48 49 49 62 50 80 51 47 52 48 53 61 55
REMARK SMILES IDX 81 56 50 57 35 58 36 59 44 60 37 61 43 62 38 63 39 64 40 65
REMARK SMILES IDX 41 66 42 67 65 68 66 69 74 70 67 71 73 72 68 73 69 74 70 75
REMARK SMILES IDX 71 76 72 77 51 78 52 79 60 80 53 81 59 82 54 83 55 84 56 85
REMARK SMILES IDX 57 86 58 87
REMARK H PARENT 79 43 49 54
REMARK Flexibility Score: inf
ROOT
ATOM      1  C   UNL A   1      34.242  32.328  28.161  1.00  0.00     0.275 C 
ENDROOT
BRANCH   1   2
ATOM      2  O   UNL A   1      33.962  31.180  27.340  1.00  0.00    -0.459 OA
BRANCH   2   3
ATOM      3  C   UNL A   1      32.661  31.008  27.005  1.00  0.00     0.330 C 
ATOM      4  O   UNL A   1      31.830  31.893  26.864  1.00  0.00    -0.247 OA
BRANCH   3   5
ATOM      5  C   UNL A   1      32.313  29.594  26.771  1.00  0.00     0.095 C 
ATOM      6  C   UNL A   1      31.684  29.115  25.687  1.00  0.00     0.027 C 
BRANCH   6   7
ATOM      7  C   UNL A   1      31.327  27.734  25.559  1.00  0.00     0.031 A 
ATOM      8  C   UNL A   1      30.278  27.708  23.205  1.00  0.00     0.046 C 
ATOM      9  C   UNL A   1      30.683  27.091  24.507  1.00  0.00    -0.032 A 
ATOM     10  C   UNL A   1      30.494  25.692  24.778  1.00  0.00     0.029 A 
ATOM     11  C   UNL A   1      31.007  25.287  25.995  1.00  0.00     0.093 A 
ATOM     12  S   UNL A   1      31.668  26.616  26.829  1.00  0.00    -0.130 S 
BRANCH  11  13
ATOM     13  C   UNL A   1      31.168  23.904  26.441  1.00  0.00     0.264 C 
ATOM     14  O   UNL A   1      30.410  23.428  27.289  1.00  0.00    -0.268 OA
BRANCH  13  15
ATOM     15  N   UNL A   1      32.106  23.086  25.824  1.00  0.00    -0.333 N 
ATOM     16  C   UNL A   1      33.526  23.377  25.998  1.00  0.00     0.148 C 
ATOM     17  C   UNL A   1      31.830  22.070  24.803  1.00  0.00     0.151 C 
ATOM     18  C   UNL A   1      34.275  22.069  26.268  1.00  0.00     0.182 C 
ATOM     19  C   UNL A   1      32.673  20.802  25.050  1.00  0.00     0.134 C 
ATOM     20  O   UNL A   1      34.068  21.138  25.196  1.00  0.00    -0.375 OA
ATOM     21  C   UNL A   1      32.562  19.829  23.885  1.00  0.00     0.040 C 
ENDBRANCH  13  15
ENDBRANCH  11  13
ENDBRANCH   6   7
ENDBRANCH   3   5
ENDBRANCH   2   3
ENDBRANCH   1   2
BRANCH   1  22
ATOM     22  C   UNL A   1      35.082  31.950  29.386  1.00  0.00     0.275 C 
BRANCH  22  23
ATOM     23  O   UNL A   1      35.783  30.708  29.200  1.00  0.00    -0.458 OA
BRANCH  23  24
ATOM     24  C   UNL A   1      36.512  30.294  30.265  1.00  0.00     0.338 C 
ATOM     25  O   UNL A   1      36.093  30.020  31.377  1.00  0.00    -0.246 OA
BRANCH  24  26
ATOM     26  C   UNL A   1      37.918  30.093  29.865  1.00  0.00     0.060 A 
ATOM     27  C   UNL A   1      38.201  29.976  28.501  1.00  0.00     0.016 A 
ATOM     28  C   UNL A   1      38.935  29.957  30.814  1.00  0.00     0.016 A 
ATOM     29  C   UNL A   1      39.504  29.718  28.079  1.00  0.00     0.010 A 
ATOM     30  C   UNL A   1      40.242  29.694  30.388  1.00  0.00     0.010 A 
ATOM     31  C   UNL A   1      40.532  29.561  29.019  1.00  0.00    -0.014 A 
BRANCH  31  32
ATOM     32  C   UNL A   1      41.902  29.220  28.563  1.00  0.00     0.031 A 
ATOM     33  C   UNL A   1      42.225  27.816  28.138  1.00  0.00     0.074 A 
ATOM     34  C   UNL A   1      42.847  30.177  28.509  1.00  0.00     0.049 A 
ATOM     35  N   UNL A   1      43.362  27.322  27.718  1.00  0.00    -0.248 NA
ATOM     36  C   UNL A   1      41.126  26.839  28.190  1.00  0.00     0.031 C 
ATOM     37  C   UNL A   1      42.647  31.582  28.868  1.00  0.00     0.029 A 
ATOM     38  N   UNL A   1      44.163  30.112  28.129  1.00  0.00    -0.354 N 
ATOM     39  C   UNL A   1      43.120  25.978  27.463  1.00  0.00     0.074 A 
ATOM     40  C   UNL A   1      41.734  25.729  27.798  1.00  0.00     0.031 C 
ATOM     41  C   UNL A   1      43.800  32.247  28.686  1.00  0.00     0.029 A 
ATOM     42  C   UNL A   1      44.827  31.311  28.232  1.00  0.00     0.049 A 
ATOM     43  H   UNL A   1      44.592  29.284  27.812  1.00  0.00     0.167 HD
ATOM     44  C   UNL A   1      43.974  25.037  26.989  1.00  0.00     0.031 A 
ATOM     45  C   UNL A   1      46.117  31.620  28.003  1.00  0.00     0.031 A 
ATOM     46  C   UNL A   1      45.355  25.285  26.670  1.00  0.00     0.049 A 
ATOM     47  C   UNL A   1      47.060  30.547  27.531  1.00  0.00     0.074 A 
ATOM     48  C   UNL A   1      46.297  24.398  26.178  1.00  0.00     0.029 A 
ATOM     49  N   UNL A   1      45.997  26.505  26.819  1.00  0.00    -0.354 N 
ATOM     50  N   UNL A   1      46.810  29.283  27.279  1.00  0.00    -0.248 NA
ATOM     51  C   UNL A   1      48.458  30.941  27.310  1.00  0.00     0.031 C 
ATOM     52  C   UNL A   1      47.519  25.069  26.072  1.00  0.00     0.029 A 
ATOM     53  C   UNL A   1      47.327  26.389  26.450  1.00  0.00     0.049 A 
ATOM     54  H   UNL A   1      45.570  27.332  27.140  1.00  0.00     0.167 HD
ATOM     55  C   UNL A   1      48.014  28.738  26.849  1.00  0.00     0.074 A 
ATOM     56  C   UNL A   1      48.988  29.810  26.862  1.00  0.00     0.031 C 
ATOM     57  C   UNL A   1      48.288  27.463  26.474  1.00  0.00     0.031 A 
BRANCH  44  58
ATOM     58  C   UNL A   1      43.438  23.641  26.817  1.00  0.00    -0.014 A 
ATOM     59  C   UNL A   1      43.102  23.142  25.546  1.00  0.00     0.010 A 
ATOM     60  C   UNL A   1      43.298  22.805  27.940  1.00  0.00     0.010 A 
ATOM     61  C   UNL A   1      42.595  21.847  25.407  1.00  0.00     0.020 A 
ATOM     62  C   UNL A   1      42.814  21.502  27.802  1.00  0.00     0.020 A 
ATOM     63  C   UNL A   1      42.447  21.037  26.536  1.00  0.00     0.054 A 
BRANCH  63  64
ATOM     64  S   UNL A   1      41.791  19.358  26.329  1.00  0.00     0.124 S 
ATOM     65  O   UNL A   1      40.372  19.617  26.105  1.00  0.00    -0.237 OA
ATOM     66  O   UNL A   1      42.530  18.867  25.168  1.00  0.00    -0.237 OA
ATOM     67  O   UNL A   1      42.114  18.701  27.593  1.00  0.00    -0.744 OA
ENDBRANCH  63  64
ENDBRANCH  44  58
BRANCH  45  68
ATOM     68  C   UNL A   1      46.598  33.010  28.237  1.00  0.00    -0.014 A 
ATOM     69  C   UNL A   1      46.748  33.907  27.166  1.00  0.00     0.010 A 
ATOM     70  C   UNL A   1      46.892  33.444  29.542  1.00  0.00     0.010 A 
ATOM     71  C   UNL A   1      47.196  35.212  27.396  1.00  0.00     0.020 A 
ATOM     72  C   UNL A   1      47.316  34.754  29.778  1.00  0.00     0.020 A 
ATOM     73  C   UNL A   1      47.474  35.628  28.701  1.00  0.00     0.054 A 
BRANCH  73  74
ATOM     74  S   UNL A   1      47.997  37.343  28.984  1.00  0.00     0.124 S 
ATOM     75  O   UNL A   1      47.543  37.578  30.350  1.00  0.00    -0.237 OA
ATOM     76  O   UNL A   1      49.444  37.268  28.801  1.00  0.00    -0.237 OA
ATOM     77  O   UNL A   1      47.286  38.090  27.949  1.00  0.00    -0.744 OA
ENDBRANCH  73  74
ENDBRANCH  45  68
BRANCH  57  78
ATOM     78  C   UNL A   1      49.692  27.161  26.024  1.00  0.00    -0.014 A 
ATOM     79  C   UNL A   1      50.700  26.838  26.949  1.00  0.00     0.010 A 
ATOM     80  C   UNL A   1      49.993  27.148  24.650  1.00  0.00     0.010 A 
ATOM     81  C   UNL A   1      51.992  26.537  26.510  1.00  0.00     0.020 A 
ATOM     82  C   UNL A   1      51.277  26.824  24.205  1.00  0.00     0.020 A 
ATOM     83  C   UNL A   1      52.273  26.533  25.141  1.00  0.00     0.054 A 
BRANCH  83  84
ATOM     84  S   UNL A   1      53.946  26.095  24.591  1.00  0.00     0.124 S 
ATOM     85  O   UNL A   1      53.845  26.265  23.145  1.00  0.00    -0.237 OA
ATOM     86  O   UNL A   1      54.780  27.075  25.282  1.00  0.00    -0.237 OA
ATOM     87  O   UNL A   1      54.110  24.716  25.047  1.00  0.00    -0.744 OA
ENDBRANCH  83  84
ENDBRANCH  57  78
ENDBRANCH  31  32
ENDBRANCH  24  26
ENDBRANCH  23  24
ENDBRANCH  22  23
ENDBRANCH   1  22
TORSDOF 17
ENDMDL
MODEL 3
REMARK VINA RESULT:      -9.4      4.275      7.368
REMARK SMILES Cc1cc(C(=O)N2CCO[C@H](C)C2)sc1/C=C/C(=O)OCCOC(=O)c1ccc(-c2c3nc(c(-c4ccc(S(=O)(=O)[O-])cc4)c4ccc([nH]4)c(-c4ccc(S(=O)(=O)[O-])cc4)c4nc(c(-c5ccc(S(=O)(=O)[O-])cc5)c5ccc2[nH]5)C=C4)C=C3)cc1
REMARK SMILES IDX 21 1 20 2 18 3 19 4 17 5 16 6 15 7 1 8 2 9 3 10 4 11 14 12
REMARK SMILES IDX 5 13 6 14 7 15 8 16 13 17 9 18 11 19 10 20 12 21 22 22 23 23
REMARK SMILES IDX 24 24 25 25 26 26 27 27 85 28 28 29 84 30 29 31 30 32 31 33
REMARK SMILES IDX 78 34 32 35 83 36 77 37 79 38 33 39 82 40 76 41 75 42 34 44
REMARK SMILES IDX 64 45 45 46 63 47 46 48 49 49 62 50 80 51 47 52 48 53 61 55
REMARK SMILES IDX 81 56 50 57 35 58 36 59 44 60 37 61 43 62 38 63 39 64 40 65
REMARK SMILES IDX 41 66 42 67 65 68 66 69 74 70 67 71 73 72 68 73 69 74 70 75
REMARK SMILES IDX 71 76 72 77 51 78 52 79 60 80 53 81 59 82 54 83 55 84 56 85
REMARK SMILES IDX 57 86 58 87
REMARK H PARENT 79 43 49 54
REMARK Flexibility Score: inf
ROOT
ATOM      1  C   UNL A   1      34.507  33.189  29.768  1.00  0.00     0.275 C 
ENDROOT
BRANCH   1   2
ATOM      2  O   UNL A   1      33.710  32.245  29.029  1.00  0.00    -0.459 OA
BRANCH   2   3
ATOM      3  C   UNL A   1      34.305  31.712  27.935  1.00  0.00     0.330 C 
ATOM      4  O   UNL A   1      35.505  31.693  27.705  1.00  0.00    -0.247 OA
BRANCH   3   5
ATOM      5  C   UNL A   1      33.344  31.084  27.010  1.00  0.00     0.095 C 
ATOM      6  C   UNL A   1      33.559  29.964  26.303  1.00  0.00     0.027 C 
BRANCH   6   7
ATOM      7  C   UNL A   1      32.595  29.448  25.377  1.00  0.00     0.031 A 
ATOM      8  C   UNL A   1      33.673  27.194  24.745  1.00  0.00     0.046 C 
ATOM      9  C   UNL A   1      32.627  28.261  24.653  1.00  0.00    -0.032 A 
ATOM     10  C   UNL A   1      31.468  28.121  23.816  1.00  0.00     0.029 A 
ATOM     11  C   UNL A   1      30.572  29.167  23.927  1.00  0.00     0.093 A 
ATOM     12  S   UNL A   1      31.167  30.342  25.005  1.00  0.00    -0.130 S 
BRANCH  11  13
ATOM     13  C   UNL A   1      29.215  29.195  23.383  1.00  0.00     0.264 C 
ATOM     14  O   UNL A   1      28.504  28.187  23.425  1.00  0.00    -0.268 OA
BRANCH  13  15
ATOM     15  N   UNL A   1      28.681  30.392  22.922  1.00  0.00    -0.333 N 
ATOM     16  C   UNL A   1      28.408  31.462  23.876  1.00  0.00     0.148 C 
ATOM     17  C   UNL A   1      28.129  30.634  21.585  1.00  0.00     0.151 C 
ATOM     18  C   UNL A   1      28.887  32.791  23.286  1.00  0.00     0.182 C 
ATOM     19  C   UNL A   1      28.552  32.021  21.061  1.00  0.00     0.134 C 
ATOM     20  O   UNL A   1      28.245  33.046  22.028  1.00  0.00    -0.375 OA
ATOM     21  C   UNL A   1      27.814  32.376  19.778  1.00  0.00     0.040 C 
ENDBRANCH  13  15
ENDBRANCH  11  13
ENDBRANCH   6   7
ENDBRANCH   3   5
ENDBRANCH   2   3
ENDBRANCH   1   2
BRANCH   1  22
ATOM     22  C   UNL A   1      35.100  32.556  31.030  1.00  0.00     0.275 C 
BRANCH  22  23
ATOM     23  O   UNL A   1      36.447  32.093  30.823  1.00  0.00    -0.458 OA
BRANCH  23  24
ATOM     24  C   UNL A   1      36.698  30.838  31.266  1.00  0.00     0.338 C 
ATOM     25  O   UNL A   1      35.973  30.149  31.965  1.00  0.00    -0.246 OA
BRANCH  24  26
ATOM     26  C   UNL A   1      37.955  30.339  30.678  1.00  0.00     0.060 A 
ATOM     27  C   UNL A   1      38.947  29.875  31.549  1.00  0.00     0.016 A 
ATOM     28  C   UNL A   1      38.186  30.383  29.301  1.00  0.00     0.016 A 
ATOM     29  C   UNL A   1      40.178  29.458  31.045  1.00  0.00     0.010 A 
ATOM     30  C   UNL A   1      39.424  29.967  28.797  1.00  0.00     0.010 A 
ATOM     31  C   UNL A   1      40.431  29.513  29.667  1.00  0.00    -0.014 A 
BRANCH  31  32
ATOM     32  C   UNL A   1      41.767  29.130  29.147  1.00  0.00     0.031 A 
ATOM     33  C   UNL A   1      42.874  30.143  29.100  1.00  0.00     0.074 A 
ATOM     34  C   UNL A   1      41.989  27.865  28.740  1.00  0.00     0.049 A 
ATOM     35  N   UNL A   1      44.103  30.003  28.673  1.00  0.00    -0.248 NA
ATOM     36  C   UNL A   1      42.560  31.491  29.599  1.00  0.00     0.031 C 
ATOM     37  C   UNL A   1      41.002  26.785  28.765  1.00  0.00     0.029 A 
ATOM     38  N   UNL A   1      43.118  27.277  28.230  1.00  0.00    -0.354 N 
ATOM     39  C   UNL A   1      44.708  31.242  28.845  1.00  0.00     0.074 A 
ATOM     40  C   UNL A   1      43.703  32.129  29.391  1.00  0.00     0.031 C 
ATOM     41  C   UNL A   1      41.572  25.663  28.294  1.00  0.00     0.029 A 
ATOM     42  C   UNL A   1      42.950  25.953  27.904  1.00  0.00     0.049 A 
ATOM     43  H   UNL A   1      43.969  27.758  28.109  1.00  0.00     0.167 HD
ATOM     44  C   UNL A   1      45.985  31.607  28.574  1.00  0.00     0.031 A 
ATOM     45  C   UNL A   1      43.802  25.075  27.339  1.00  0.00     0.031 A 
ATOM     46  C   UNL A   1      46.979  30.727  28.016  1.00  0.00     0.049 A 
ATOM     47  C   UNL A   1      45.198  25.520  26.996  1.00  0.00     0.074 A 
ATOM     48  C   UNL A   1      48.301  31.004  27.714  1.00  0.00     0.029 A 
ATOM     49  N   UNL A   1      46.759  29.403  27.670  1.00  0.00    -0.354 N 
ATOM     50  N   UNL A   1      45.758  26.692  27.180  1.00  0.00    -0.248 NA
ATOM     51  C   UNL A   1      46.078  24.522  26.371  1.00  0.00     0.031 C 
ATOM     52  C   UNL A   1      48.868  29.861  27.142  1.00  0.00     0.029 A 
ATOM     53  C   UNL A   1      47.914  28.855  27.136  1.00  0.00     0.049 A 
ATOM     54  H   UNL A   1      45.908  28.922  27.786  1.00  0.00     0.167 HD
ATOM     55  C   UNL A   1      47.061  26.565  26.714  1.00  0.00     0.074 A 
ATOM     56  C   UNL A   1      47.211  25.201  26.252  1.00  0.00     0.031 C 
ATOM     57  C   UNL A   1      48.047  27.496  26.674  1.00  0.00     0.031 A 
BRANCH  44  58
ATOM     58  C   UNL A   1      46.369  33.036  28.850  1.00  0.00    -0.014 A 
ATOM     59  C   UNL A   1      46.190  34.038  27.879  1.00  0.00     0.010 A 
ATOM     60  C   UNL A   1      46.887  33.388  30.110  1.00  0.00     0.010 A 
ATOM     61  C   UNL A   1      46.564  35.358  28.149  1.00  0.00     0.020 A 
ATOM     62  C   UNL A   1      47.239  34.711  30.391  1.00  0.00     0.020 A 
ATOM     63  C   UNL A   1      47.092  35.685  29.401  1.00  0.00     0.054 A 
BRANCH  63  64
ATOM     64  S   UNL A   1      47.564  37.406  29.728  1.00  0.00     0.124 S 
ATOM     65  O   UNL A   1      46.360  38.128  29.325  1.00  0.00    -0.237 OA
ATOM     66  O   UNL A   1      47.840  37.397  31.162  1.00  0.00    -0.237 OA
ATOM     67  O   UNL A   1      48.731  37.614  28.874  1.00  0.00    -0.744 OA
ENDBRANCH  63  64
ENDBRANCH  44  58
BRANCH  45  68
ATOM     68  C   UNL A   1      43.348  23.688  27.046  1.00  0.00    -0.014 A 
ATOM     69  C   UNL A   1      43.081  23.284  25.727  1.00  0.00     0.010 A 
ATOM     70  C   UNL A   1      43.195  22.760  28.092  1.00  0.00     0.010 A 
ATOM     71  C   UNL A   1      42.658  21.978  25.460  1.00  0.00     0.020 A 
ATOM     72  C   UNL A   1      42.798  21.447  27.827  1.00  0.00     0.020 A 
ATOM     73  C   UNL A   1      42.522  21.067  26.512  1.00  0.00     0.054 A 
BRANCH  73  74
ATOM     74  S   UNL A   1      42.030  19.360  26.138  1.00  0.00     0.124 S 
ATOM     75  O   UNL A   1      42.815  19.073  24.943  1.00  0.00    -0.237 OA
ATOM     76  O   UNL A   1      42.429  18.642  27.346  1.00  0.00    -0.237 OA
ATOM     77  O   UNL A   1      40.587  19.461  25.932  1.00  0.00    -0.744 OA
ENDBRANCH  73  74
ENDBRANCH  45  68
BRANCH  57  78
ATOM     78  C   UNL A   1      49.385  27.066  26.134  1.00  0.00    -0.014 A 
ATOM     79  C   UNL A   1      50.296  26.351  26.930  1.00  0.00     0.010 A 
ATOM     80  C   UNL A   1      49.711  27.336  24.793  1.00  0.00     0.010 A 
ATOM     81  C   UNL A   1      51.523  25.939  26.403  1.00  0.00     0.020 A 
ATOM     82  C   UNL A   1      50.927  26.906  24.255  1.00  0.00     0.020 A 
ATOM     83  C   UNL A   1      51.832  26.221  25.069  1.00  0.00     0.054 A 
BRANCH  83  84
ATOM     84  S   UNL A   1      53.412  25.637  24.393  1.00  0.00     0.124 S 
ATOM     85  O   UNL A   1      53.470  24.268  24.898  1.00  0.00    -0.237 OA
ATOM     86  O   UNL A   1      53.214  25.768  22.952  1.00  0.00    -0.237 OA
ATOM     87  O   UNL A   1      54.394  26.555  24.967  1.00  0.00    -0.744 OA
ENDBRANCH  83  84
ENDBRANCH  57  78
ENDBRANCH  31  32
ENDBRANCH  24  26
ENDBRANCH  23  24
ENDBRANCH  22  23
ENDBRANCH   1  22
TORSDOF 17
ENDMDL
