MODEL 1
REMARK VINA RESULT:     -12.9      0.000      0.000
REMARK SMILES O=C(OCCOC(=O)c1ccc(-c2c3nc(c(-c4ccc(S(=O)(=O)[O-])cc4)c4ccc([nH]4)c(-c4ccc(S(=O)(=O)[O-])cc4)c4nc(c(-c5ccc(S(=O)(=O)[O-])cc5)c5ccc2[nH]5)C=C4)C=C3)cc1)C1=Cc2cc(C(F)(F)F)ccc2O[C@@H]1C(F)(F)F
REMARK SMILES IDX 5 1 4 2 3 3 2 4 1 5 69 6 70 7 82 8 71 9 81 10 72 11 80 12
REMARK SMILES IDX 73 13 79 14 78 15 83 16 84 17 85 18 86 19 74 20 75 21 76 22
REMARK SMILES IDX 77 23 6 24 7 25 8 26 9 27 10 28 68 29 11 30 67 31 12 32
REMARK SMILES IDX 13 33 14 34 61 35 15 36 66 37 60 38 62 39 16 40 65 41 59 42
REMARK SMILES IDX 58 43 17 45 47 46 28 47 46 48 29 49 32 50 45 51 63 52 30 53
REMARK SMILES IDX 31 54 44 56 64 57 33 58 18 59 19 60 27 61 20 62 26 63 21 64
REMARK SMILES IDX 22 65 23 66 24 67 25 68 48 69 49 70 57 71 50 72 56 73 51 74
REMARK SMILES IDX 52 75 53 76 54 77 55 78 34 79 35 80 43 81 36 82 42 83 37 84
REMARK SMILES IDX 38 85 39 86 40 87 41 88
REMARK H PARENT 62 44 32 55
REMARK Flexibility Score: inf
ROOT
ATOM      1  C   UNL A   1      34.763  30.631  27.597  1.00  0.00     0.275 C 
ENDROOT
BRANCH   1   2
ATOM      2  C   UNL A   1      32.705  30.151  27.024  1.00  0.00     0.275 C 
BRANCH   2   3
ATOM      3  O   UNL A   1      32.257  29.197  25.949  1.00  0.00    -0.459 OA
BRANCH   3   4
ATOM      4  C   UNL A   1      31.717  28.096  26.476  1.00  0.00     0.338 C 
ATOM      5  O   UNL A   1      31.489  27.864  27.637  1.00  0.00    -0.246 OA
BRANCH   4   6
ATOM      6  C   UNL A   1      31.970  27.185  25.363  1.00  0.00     0.087 C 
ATOM      7  C   UNL A   1      33.291  26.655  25.257  1.00  0.00     0.027 C 
ATOM      8  C   UNL A   1      30.413  26.168  25.777  1.00  0.00     0.316 C 
ATOM      9  C   UNL A   1      33.750  25.039  25.736  1.00  0.00     0.018 A 
ATOM     10  O   UNL A   1      30.900  24.416  26.528  1.00  0.00    -0.475 OA
ATOM     11  C   UNL A   1      35.046  24.712  25.524  1.00  0.00     0.025 A 
ATOM     12  C   UNL A   1      32.685  23.934  26.525  1.00  0.00     0.128 A 
ATOM     13  C   UNL A   1      35.450  23.492  26.076  1.00  0.00     0.056 A 
ATOM     14  C   UNL A   1      33.133  22.759  27.052  1.00  0.00     0.048 A 
ATOM     15  C   UNL A   1      34.544  22.587  26.825  1.00  0.00     0.017 A 
BRANCH   8  16
ATOM     16  C   UNL A   1      29.876  26.725  24.239  1.00  0.00     0.430 C 
ATOM     17  F   UNL A   1      28.702  26.179  23.924  1.00  0.00    -0.167 F 
ATOM     18  F   UNL A   1      29.540  28.058  24.265  1.00  0.00    -0.167 F 
ATOM     19  F   UNL A   1      30.727  26.687  23.194  1.00  0.00    -0.167 F 
ENDBRANCH   8  16
BRANCH  13  20
ATOM     20  C   UNL A   1      36.917  23.183  25.814  1.00  0.00     0.416 C 
ATOM     21  F   UNL A   1      37.741  23.943  26.591  1.00  0.00    -0.166 F 
ATOM     22  F   UNL A   1      37.227  21.889  26.126  1.00  0.00    -0.166 F 
ATOM     23  F   UNL A   1      37.314  23.366  24.532  1.00  0.00    -0.166 F 
ENDBRANCH  13  20
ENDBRANCH   4   6
ENDBRANCH   3   4
ENDBRANCH   2   3
ENDBRANCH   1   2
BRANCH   1  24
ATOM     24  O   UNL A   1      35.783  29.456  28.466  1.00  0.00    -0.458 OA
BRANCH  24  25
ATOM     25  C   UNL A   1      36.686  29.372  29.525  1.00  0.00     0.338 C 
ATOM     26  O   UNL A   1      36.476  29.432  30.725  1.00  0.00    -0.246 OA
BRANCH  25  27
ATOM     27  C   UNL A   1      37.912  28.690  28.998  1.00  0.00     0.060 A 
ATOM     28  C   UNL A   1      38.433  29.082  27.742  1.00  0.00     0.016 A 
ATOM     29  C   UNL A   1      38.722  28.010  29.901  1.00  0.00     0.016 A 
ATOM     30  C   UNL A   1      39.823  29.005  27.508  1.00  0.00     0.010 A 
ATOM     31  C   UNL A   1      40.098  27.958  29.674  1.00  0.00     0.010 A 
ATOM     32  C   UNL A   1      40.673  28.522  28.516  1.00  0.00    -0.014 A 
BRANCH  32  33
ATOM     33  C   UNL A   1      42.107  28.228  28.257  1.00  0.00     0.031 A 
ATOM     34  C   UNL A   1      42.999  29.401  28.527  1.00  0.00     0.074 A 
ATOM     35  C   UNL A   1      42.597  27.096  27.704  1.00  0.00     0.049 A 
ATOM     36  N   UNL A   1      44.247  29.594  28.212  1.00  0.00    -0.248 NA
ATOM     37  C   UNL A   1      42.347  30.553  29.180  1.00  0.00     0.031 C 
ATOM     38  C   UNL A   1      41.844  25.881  27.387  1.00  0.00     0.029 A 
ATOM     39  N   UNL A   1      43.879  26.795  27.289  1.00  0.00    -0.354 N 
ATOM     40  C   UNL A   1      44.506  30.899  28.601  1.00  0.00     0.074 A 
ATOM     41  C   UNL A   1      43.275  31.478  29.069  1.00  0.00     0.031 C 
ATOM     42  C   UNL A   1      42.677  24.972  26.836  1.00  0.00     0.029 A 
ATOM     43  C   UNL A   1      44.020  25.545  26.722  1.00  0.00     0.049 A 
ATOM     44  H   UNL A   1      44.632  27.422  27.390  1.00  0.00     0.167 HD
ATOM     45  C   UNL A   1      45.681  31.560  28.607  1.00  0.00     0.031 A 
ATOM     46  C   UNL A   1      45.105  24.948  26.175  1.00  0.00     0.031 A 
ATOM     47  C   UNL A   1      46.897  30.986  28.127  1.00  0.00     0.049 A 
ATOM     48  C   UNL A   1      46.412  25.721  26.138  1.00  0.00     0.074 A 
ATOM     49  C   UNL A   1      48.155  31.549  28.093  1.00  0.00     0.029 A 
ATOM     50  N   UNL A   1      46.996  29.713  27.585  1.00  0.00    -0.354 N 
ATOM     51  N   UNL A   1      46.664  26.939  26.562  1.00  0.00    -0.248 NA
ATOM     52  C   UNL A   1      47.583  25.041  25.558  1.00  0.00     0.031 C 
ATOM     53  C   UNL A   1      49.006  30.639  27.464  1.00  0.00     0.029 A 
ATOM     54  C   UNL A   1      48.296  29.476  27.192  1.00  0.00     0.049 A 
ATOM     55  H   UNL A   1      46.251  29.076  27.494  1.00  0.00     0.167 HD
ATOM     56  C   UNL A   1      48.024  27.151  26.346  1.00  0.00     0.074 A 
ATOM     57  C   UNL A   1      48.542  25.937  25.751  1.00  0.00     0.031 C 
ATOM     58  C   UNL A   1      48.781  28.243  26.623  1.00  0.00     0.031 A 
BRANCH  45  59
ATOM     59  C   UNL A   1      45.645  32.969  29.122  1.00  0.00    -0.014 A 
ATOM     60  C   UNL A   1      45.431  34.057  28.251  1.00  0.00     0.010 A 
ATOM     61  C   UNL A   1      45.921  33.214  30.476  1.00  0.00     0.010 A 
ATOM     62  C   UNL A   1      45.563  35.365  28.712  1.00  0.00     0.020 A 
ATOM     63  C   UNL A   1      46.004  34.523  30.951  1.00  0.00     0.020 A 
ATOM     64  C   UNL A   1      45.847  35.589  30.062  1.00  0.00     0.054 A 
BRANCH  64  65
ATOM     65  S   UNL A   1      45.991  37.299  30.639  1.00  0.00     0.124 S 
ATOM     66  O   UNL A   1      44.601  37.634  30.939  1.00  0.00    -0.237 OA
ATOM     67  O   UNL A   1      46.868  37.167  31.799  1.00  0.00    -0.237 OA
ATOM     68  O   UNL A   1      46.569  38.003  29.498  1.00  0.00    -0.744 OA
ENDBRANCH  64  65
ENDBRANCH  45  59
BRANCH  46  69
ATOM     69  C   UNL A   1      45.043  23.554  25.624  1.00  0.00    -0.014 A 
ATOM     70  C   UNL A   1      45.229  22.434  26.461  1.00  0.00     0.010 A 
ATOM     71  C   UNL A   1      44.831  23.326  24.251  1.00  0.00     0.010 A 
ATOM     72  C   UNL A   1      45.209  21.131  25.942  1.00  0.00     0.020 A 
ATOM     73  C   UNL A   1      44.782  22.024  23.731  1.00  0.00     0.020 A 
ATOM     74  C   UNL A   1      44.975  20.932  24.580  1.00  0.00     0.054 A 
BRANCH  74  75
ATOM     75  S   UNL A   1      44.878  19.232  23.943  1.00  0.00     0.124 S 
ATOM     76  O   UNL A   1      46.267  18.790  24.026  1.00  0.00    -0.237 OA
ATOM     77  O   UNL A   1      43.957  18.597  24.883  1.00  0.00    -0.237 OA
ATOM     78  O   UNL A   1      44.357  19.401  22.588  1.00  0.00    -0.744 OA
ENDBRANCH  74  75
ENDBRANCH  46  69
BRANCH  58  79
ATOM     79  C   UNL A   1      50.264  28.170  26.370  1.00  0.00    -0.014 A 
ATOM     80  C   UNL A   1      51.164  27.732  27.355  1.00  0.00     0.010 A 
ATOM     81  C   UNL A   1      50.736  28.418  25.066  1.00  0.00     0.010 A 
ATOM     82  C   UNL A   1      52.515  27.555  27.041  1.00  0.00     0.020 A 
ATOM     83  C   UNL A   1      52.076  28.206  24.740  1.00  0.00     0.020 A 
ATOM     84  C   UNL A   1      52.959  27.785  25.734  1.00  0.00     0.054 A 
BRANCH  84  85
ATOM     85  S   UNL A   1      54.699  27.470  25.336  1.00  0.00     0.124 S 
ATOM     86  O   UNL A   1      54.614  26.976  23.965  1.00  0.00    -0.237 OA
ATOM     87  O   UNL A   1      55.306  28.790  25.494  1.00  0.00    -0.237 OA
ATOM     88  O   UNL A   1      55.110  26.480  26.330  1.00  0.00    -0.744 OA
ENDBRANCH  84  85
ENDBRANCH  58  79
ENDBRANCH  32  33
ENDBRANCH  25  27
ENDBRANCH  24  25
ENDBRANCH   1  24
TORSDOF 16
ENDMDL
MODEL 2
REMARK VINA RESULT:     -12.9      1.644      2.100
REMARK SMILES O=C(OCCOC(=O)c1ccc(-c2c3nc(c(-c4ccc(S(=O)(=O)[O-])cc4)c4ccc([nH]4)c(-c4ccc(S(=O)(=O)[O-])cc4)c4nc(c(-c5ccc(S(=O)(=O)[O-])cc5)c5ccc2[nH]5)C=C4)C=C3)cc1)C1=Cc2cc(C(F)(F)F)ccc2O[C@@H]1C(F)(F)F
REMARK SMILES IDX 5 1 4 2 3 3 2 4 1 5 69 6 70 7 82 8 71 9 81 10 72 11 80 12
REMARK SMILES IDX 73 13 79 14 78 15 83 16 84 17 85 18 86 19 74 20 75 21 76 22
REMARK SMILES IDX 77 23 6 24 7 25 8 26 9 27 10 28 68 29 11 30 67 31 12 32
REMARK SMILES IDX 13 33 14 34 61 35 15 36 66 37 60 38 62 39 16 40 65 41 59 42
REMARK SMILES IDX 58 43 17 45 47 46 28 47 46 48 29 49 32 50 45 51 63 52 30 53
REMARK SMILES IDX 31 54 44 56 64 57 33 58 18 59 19 60 27 61 20 62 26 63 21 64
REMARK SMILES IDX 22 65 23 66 24 67 25 68 48 69 49 70 57 71 50 72 56 73 51 74
REMARK SMILES IDX 52 75 53 76 54 77 55 78 34 79 35 80 43 81 36 82 42 83 37 84
REMARK SMILES IDX 38 85 39 86 40 87 41 88
REMARK H PARENT 62 44 32 55
REMARK Flexibility Score: inf
ROOT
ATOM      1  C   UNL A   1      34.659  29.340  27.394  1.00  0.00     0.275 C 
ENDROOT
BRANCH   1   2
ATOM      2  C   UNL A   1      32.551  28.772  27.555  1.00  0.00     0.275 C 
BRANCH   2   3
ATOM      3  O   UNL A   1      31.539  28.697  26.443  1.00  0.00    -0.459 OA
BRANCH   3   4
ATOM      4  C   UNL A   1      31.260  27.430  26.129  1.00  0.00     0.338 C 
ATOM      5  O   UNL A   1      30.953  26.532  26.873  1.00  0.00    -0.246 OA
BRANCH   4   6
ATOM      6  C   UNL A   1      31.900  27.393  24.817  1.00  0.00     0.087 C 
ATOM      7  C   UNL A   1      33.148  26.706  24.734  1.00  0.00     0.027 C 
ATOM      8  C   UNL A   1      30.281  26.826  23.989  1.00  0.00     0.316 C 
ATOM      9  C   UNL A   1      33.351  25.101  24.074  1.00  0.00     0.018 A 
ATOM     10  O   UNL A   1      30.401  24.944  23.428  1.00  0.00    -0.475 OA
ATOM     11  C   UNL A   1      34.621  24.635  24.049  1.00  0.00     0.025 A 
ATOM     12  C   UNL A   1      32.040  24.098  23.569  1.00  0.00     0.128 A 
ATOM     13  C   UNL A   1      34.754  23.288  23.696  1.00  0.00     0.056 A 
ATOM     14  C   UNL A   1      32.224  22.788  23.242  1.00  0.00     0.048 A 
ATOM     15  C   UNL A   1      33.610  22.412  23.344  1.00  0.00     0.017 A 
BRANCH   8  16
ATOM     16  C   UNL A   1      30.388  28.344  23.183  1.00  0.00     0.430 C 
ATOM     17  F   UNL A   1      31.421  28.360  22.343  1.00  0.00    -0.167 F 
ATOM     18  F   UNL A   1      29.343  28.536  22.309  1.00  0.00    -0.167 F 
ATOM     19  F   UNL A   1      30.335  29.478  23.911  1.00  0.00    -0.167 F 
ENDBRANCH   8  16
BRANCH  13  20
ATOM     20  C   UNL A   1      36.202  22.819  23.697  1.00  0.00     0.416 C 
ATOM     21  F   UNL A   1      36.343  21.611  24.315  1.00  0.00    -0.166 F 
ATOM     22  F   UNL A   1      36.674  22.627  22.428  1.00  0.00    -0.166 F 
ATOM     23  F   UNL A   1      37.072  23.666  24.296  1.00  0.00    -0.166 F 
ENDBRANCH  13  20
ENDBRANCH   4   6
ENDBRANCH   3   4
ENDBRANCH   2   3
ENDBRANCH   1   2
BRANCH   1  24
ATOM     24  O   UNL A   1      35.418  30.435  28.578  1.00  0.00    -0.458 OA
BRANCH  24  25
ATOM     25  C   UNL A   1      36.377  30.447  29.591  1.00  0.00     0.338 C 
ATOM     26  O   UNL A   1      36.261  30.780  30.758  1.00  0.00    -0.246 OA
BRANCH  25  27
ATOM     27  C   UNL A   1      37.467  29.509  29.170  1.00  0.00     0.060 A 
ATOM     28  C   UNL A   1      37.989  29.604  27.858  1.00  0.00     0.016 A 
ATOM     29  C   UNL A   1      38.202  28.871  30.162  1.00  0.00     0.016 A 
ATOM     30  C   UNL A   1      39.343  29.279  27.621  1.00  0.00     0.010 A 
ATOM     31  C   UNL A   1      39.545  28.574  29.929  1.00  0.00     0.010 A 
ATOM     32  C   UNL A   1      40.151  28.845  28.684  1.00  0.00    -0.014 A 
BRANCH  32  33
ATOM     33  C   UNL A   1      41.515  28.297  28.457  1.00  0.00     0.031 A 
ATOM     34  C   UNL A   1      42.576  29.354  28.476  1.00  0.00     0.074 A 
ATOM     35  C   UNL A   1      41.811  27.021  28.125  1.00  0.00     0.049 A 
ATOM     36  N   UNL A   1      43.821  29.296  28.105  1.00  0.00    -0.248 NA
ATOM     37  C   UNL A   1      42.127  30.693  28.906  1.00  0.00     0.031 C 
ATOM     38  C   UNL A   1      40.879  25.894  28.065  1.00  0.00     0.029 A 
ATOM     39  N   UNL A   1      43.016  26.460  27.751  1.00  0.00    -0.354 N 
ATOM     40  C   UNL A   1      44.282  30.599  28.227  1.00  0.00     0.074 A 
ATOM     41  C   UNL A   1      43.170  31.432  28.599  1.00  0.00     0.031 C 
ATOM     42  C   UNL A   1      41.547  24.784  27.684  1.00  0.00     0.029 A 
ATOM     43  C   UNL A   1      42.950  25.118  27.435  1.00  0.00     0.049 A 
ATOM     44  H   UNL A   1      43.855  26.976  27.712  1.00  0.00     0.167 HD
ATOM     45  C   UNL A   1      45.538  31.066  28.082  1.00  0.00     0.031 A 
ATOM     46  C   UNL A   1      43.912  24.275  26.991  1.00  0.00     0.031 A 
ATOM     47  C   UNL A   1      46.635  30.238  27.698  1.00  0.00     0.049 A 
ATOM     48  C   UNL A   1      45.312  24.823  26.779  1.00  0.00     0.074 A 
ATOM     49  C   UNL A   1      47.957  30.591  27.529  1.00  0.00     0.029 A 
ATOM     50  N   UNL A   1      46.526  28.885  27.411  1.00  0.00    -0.354 N 
ATOM     51  N   UNL A   1      45.755  26.049  26.953  1.00  0.00    -0.248 NA
ATOM     52  C   UNL A   1      46.345  23.880  26.319  1.00  0.00     0.031 C 
ATOM     53  C   UNL A   1      48.639  29.462  27.071  1.00  0.00     0.029 A 
ATOM     54  C   UNL A   1      47.759  28.388  27.045  1.00  0.00     0.049 A 
ATOM     55  H   UNL A   1      45.695  28.360  27.461  1.00  0.00     0.167 HD
ATOM     56  C   UNL A   1      47.119  26.012  26.672  1.00  0.00     0.074 A 
ATOM     57  C   UNL A   1      47.430  24.643  26.314  1.00  0.00     0.031 C 
ATOM     58  C   UNL A   1      48.036  27.011  26.717  1.00  0.00     0.031 A 
BRANCH  45  59
ATOM     59  C   UNL A   1      45.728  32.537  28.313  1.00  0.00    -0.014 A 
ATOM     60  C   UNL A   1      45.608  33.462  27.256  1.00  0.00     0.010 A 
ATOM     61  C   UNL A   1      46.120  32.989  29.583  1.00  0.00     0.010 A 
ATOM     62  C   UNL A   1      45.946  34.800  27.449  1.00  0.00     0.020 A 
ATOM     63  C   UNL A   1      46.411  34.337  29.791  1.00  0.00     0.020 A 
ATOM     64  C   UNL A   1      46.344  35.229  28.717  1.00  0.00     0.054 A 
BRANCH  64  65
ATOM     65  S   UNL A   1      46.756  36.976  28.946  1.00  0.00     0.124 S 
ATOM     66  O   UNL A   1      46.576  37.144  30.386  1.00  0.00    -0.237 OA
ATOM     67  O   UNL A   1      48.137  37.039  28.476  1.00  0.00    -0.237 OA
ATOM     68  O   UNL A   1      45.782  37.674  28.111  1.00  0.00    -0.744 OA
ENDBRANCH  64  65
ENDBRANCH  45  59
BRANCH  46  69
ATOM     69  C   UNL A   1      43.626  22.826  26.723  1.00  0.00    -0.014 A 
ATOM     70  C   UNL A   1      42.824  22.070  27.603  1.00  0.00     0.010 A 
ATOM     71  C   UNL A   1      44.177  22.174  25.605  1.00  0.00     0.010 A 
ATOM     72  C   UNL A   1      42.586  20.706  27.375  1.00  0.00     0.020 A 
ATOM     73  C   UNL A   1      43.920  20.817  25.357  1.00  0.00     0.020 A 
ATOM     74  C   UNL A   1      43.127  20.089  26.247  1.00  0.00     0.054 A 
BRANCH  74  75
ATOM     75  S   UNL A   1      42.744  18.340  25.931  1.00  0.00     0.124 S 
ATOM     76  O   UNL A   1      41.296  18.367  25.749  1.00  0.00    -0.237 OA
ATOM     77  O   UNL A   1      43.526  18.060  24.729  1.00  0.00    -0.237 OA
ATOM     78  O   UNL A   1      43.208  17.661  27.140  1.00  0.00    -0.744 OA
ENDBRANCH  74  75
ENDBRANCH  46  69
BRANCH  58  79
ATOM     79  C   UNL A   1      49.480  26.672  26.453  1.00  0.00    -0.014 A 
ATOM     80  C   UNL A   1      50.280  26.036  27.415  1.00  0.00     0.010 A 
ATOM     81  C   UNL A   1      49.991  26.876  25.156  1.00  0.00     0.010 A 
ATOM     82  C   UNL A   1      51.575  25.622  27.088  1.00  0.00     0.020 A 
ATOM     83  C   UNL A   1      51.268  26.431  24.815  1.00  0.00     0.020 A 
ATOM     84  C   UNL A   1      52.056  25.814  25.787  1.00  0.00     0.054 A 
BRANCH  84  85
ATOM     85  S   UNL A   1      53.707  25.195  25.368  1.00  0.00     0.124 S 
ATOM     86  O   UNL A   1      54.528  25.783  26.424  1.00  0.00    -0.237 OA
ATOM     87  O   UNL A   1      53.533  23.747  25.439  1.00  0.00    -0.237 OA
ATOM     88  O   UNL A   1      53.947  25.724  24.026  1.00  0.00    -0.744 OA
ENDBRANCH  84  85
ENDBRANCH  58  79
ENDBRANCH  32  33
ENDBRANCH  25  27
ENDBRANCH  24  25
ENDBRANCH   1  24
TORSDOF 16
ENDMDL
MODEL 3
REMARK VINA RESULT:     -12.7      1.561      8.186
REMARK SMILES O=C(OCCOC(=O)c1ccc(-c2c3nc(c(-c4ccc(S(=O)(=O)[O-])cc4)c4ccc([nH]4)c(-c4ccc(S(=O)(=O)[O-])cc4)c4nc(c(-c5ccc(S(=O)(=O)[O-])cc5)c5ccc2[nH]5)C=C4)C=C3)cc1)C1=Cc2cc(C(F)(F)F)ccc2O[C@@H]1C(F)(F)F
REMARK SMILES IDX 5 1 4 2 3 3 2 4 1 5 69 6 70 7 82 8 71 9 81 10 72 11 80 12
REMARK SMILES IDX 73 13 79 14 78 15 83 16 84 17 85 18 86 19 74 20 75 21 76 22
REMARK SMILES IDX 77 23 6 24 7 25 8 26 9 27 10 28 68 29 11 30 67 31 12 32
REMARK SMILES IDX 13 33 14 34 61 35 15 36 66 37 60 38 62 39 16 40 65 41 59 42
REMARK SMILES IDX 58 43 17 45 47 46 28 47 46 48 29 49 32 50 45 51 63 52 30 53
REMARK SMILES IDX 31 54 44 56 64 57 33 58 18 59 19 60 27 61 20 62 26 63 21 64
REMARK SMILES IDX 22 65 23 66 24 67 25 68 48 69 49 70 57 71 50 72 56 73 51 74
REMARK SMILES IDX 52 75 53 76 54 77 55 78 34 79 35 80 43 81 36 82 42 83 37 84
REMARK SMILES IDX 38 85 39 86 40 87 41 88
REMARK H PARENT 62 44 32 55
REMARK Flexibility Score: inf
ROOT
ATOM      1  C   UNL A   1      35.022  29.694  27.057  1.00  0.00     0.275 C 
ENDROOT
BRANCH   1   2
ATOM      2  C   UNL A   1      32.857  29.939  27.278  1.00  0.00     0.275 C 
BRANCH   2   3
ATOM      3  O   UNL A   1      31.779  29.334  26.421  1.00  0.00    -0.459 OA
BRANCH   3   4
ATOM      4  C   UNL A   1      31.600  28.043  26.710  1.00  0.00     0.338 C 
ATOM      5  O   UNL A   1      31.522  27.531  27.799  1.00  0.00    -0.246 OA
BRANCH   4   6
ATOM      6  C   UNL A   1      32.021  27.481  25.429  1.00  0.00     0.087 C 
ATOM      7  C   UNL A   1      33.328  26.911  25.380  1.00  0.00     0.027 C 
ATOM      8  C   UNL A   1      30.394  26.504  25.268  1.00  0.00     0.316 C 
ATOM      9  C   UNL A   1      33.661  25.196  25.419  1.00  0.00     0.018 A 
ATOM     10  O   UNL A   1      30.703  24.579  25.526  1.00  0.00    -0.475 OA
ATOM     11  C   UNL A   1      34.966  24.851  25.325  1.00  0.00     0.025 A 
ATOM     12  C   UNL A   1      32.451  23.989  25.660  1.00  0.00     0.128 A 
ATOM     13  C   UNL A   1      35.241  23.497  25.543  1.00  0.00     0.056 A 
ATOM     14  C   UNL A   1      32.774  22.682  25.874  1.00  0.00     0.048 A 
ATOM     15  C   UNL A   1      34.200  22.481  25.832  1.00  0.00     0.017 A 
BRANCH   8  16
ATOM     16  C   UNL A   1      30.143  27.523  23.903  1.00  0.00     0.430 C 
ATOM     17  F   UNL A   1      30.992  27.217  22.924  1.00  0.00    -0.167 F 
ATOM     18  F   UNL A   1      28.939  27.269  23.288  1.00  0.00    -0.167 F 
ATOM     19  F   UNL A   1      30.070  28.857  24.086  1.00  0.00    -0.167 F 
ENDBRANCH   8  16
BRANCH  13  20
ATOM     20  C   UNL A   1      36.724  23.172  25.436  1.00  0.00     0.416 C 
ATOM     21  F   UNL A   1      37.502  24.198  25.887  1.00  0.00    -0.166 F 
ATOM     22  F   UNL A   1      37.066  22.098  26.210  1.00  0.00    -0.166 F 
ATOM     23  F   UNL A   1      37.152  22.882  24.183  1.00  0.00    -0.166 F 
ENDBRANCH  13  20
ENDBRANCH   4   6
ENDBRANCH   3   4
ENDBRANCH   2   3
ENDBRANCH   1   2
BRANCH   1  24
ATOM     24  O   UNL A   1      36.029  29.084  28.395  1.00  0.00    -0.458 OA
BRANCH  24  25
ATOM     25  C   UNL A   1      36.694  29.518  29.542  1.00  0.00     0.338 C 
ATOM     26  O   UNL A   1      36.425  29.313  30.713  1.00  0.00    -0.246 OA
BRANCH  25  27
ATOM     27  C   UNL A   1      38.091  29.867  29.129  1.00  0.00     0.060 A 
ATOM     28  C   UNL A   1      39.105  29.933  30.113  1.00  0.00     0.016 A 
ATOM     29  C   UNL A   1      38.436  29.713  27.790  1.00  0.00     0.016 A 
ATOM     30  C   UNL A   1      40.434  29.596  29.771  1.00  0.00     0.010 A 
ATOM     31  C   UNL A   1      39.744  29.357  27.462  1.00  0.00     0.010 A 
ATOM     32  C   UNL A   1      40.738  29.219  28.452  1.00  0.00    -0.014 A 
BRANCH  32  33
ATOM     33  C   UNL A   1      42.142  29.054  27.990  1.00  0.00     0.031 A 
ATOM     34  C   UNL A   1      42.470  27.640  27.622  1.00  0.00     0.074 A 
ATOM     35  C   UNL A   1      43.101  30.007  28.012  1.00  0.00     0.049 A 
ATOM     36  N   UNL A   1      43.623  27.080  27.396  1.00  0.00    -0.248 NA
ATOM     37  C   UNL A   1      41.322  26.713  27.587  1.00  0.00     0.031 C 
ATOM     38  C   UNL A   1      42.922  31.420  28.352  1.00  0.00     0.029 A 
ATOM     39  N   UNL A   1      44.453  29.909  27.750  1.00  0.00    -0.354 N 
ATOM     40  C   UNL A   1      43.330  25.735  27.228  1.00  0.00     0.074 A 
ATOM     41  C   UNL A   1      41.926  25.550  27.483  1.00  0.00     0.031 C 
ATOM     42  C   UNL A   1      44.113  32.051  28.271  1.00  0.00     0.029 A 
ATOM     43  C   UNL A   1      45.154  31.087  27.911  1.00  0.00     0.049 A 
ATOM     44  H   UNL A   1      44.881  29.067  27.471  1.00  0.00     0.167 HD
ATOM     45  C   UNL A   1      44.150  24.733  26.855  1.00  0.00     0.031 A 
ATOM     46  C   UNL A   1      46.478  31.342  27.786  1.00  0.00     0.031 A 
ATOM     47  C   UNL A   1      45.545  24.919  26.620  1.00  0.00     0.049 A 
ATOM     48  C   UNL A   1      47.403  30.195  27.417  1.00  0.00     0.074 A 
ATOM     49  C   UNL A   1      46.480  23.986  26.224  1.00  0.00     0.029 A 
ATOM     50  N   UNL A   1      46.206  26.130  26.772  1.00  0.00    -0.354 N 
ATOM     51  N   UNL A   1      47.108  28.932  27.203  1.00  0.00    -0.248 NA
ATOM     52  C   UNL A   1      48.835  30.503  27.265  1.00  0.00     0.031 C 
ATOM     53  C   UNL A   1      47.725  24.618  26.204  1.00  0.00     0.029 A 
ATOM     54  C   UNL A   1      47.547  25.965  26.497  1.00  0.00     0.049 A 
ATOM     55  H   UNL A   1      45.781  26.978  27.036  1.00  0.00     0.167 HD
ATOM     56  C   UNL A   1      48.303  28.310  26.846  1.00  0.00     0.074 A 
ATOM     57  C   UNL A   1      49.326  29.334  26.875  1.00  0.00     0.031 C 
ATOM     58  C   UNL A   1      48.535  27.015  26.513  1.00  0.00     0.031 A 
BRANCH  45  59
ATOM     59  C   UNL A   1      43.523  23.376  26.729  1.00  0.00    -0.014 A 
ATOM     60  C   UNL A   1      43.119  22.652  27.870  1.00  0.00     0.010 A 
ATOM     61  C   UNL A   1      43.421  22.780  25.463  1.00  0.00     0.010 A 
ATOM     62  C   UNL A   1      42.690  21.331  27.751  1.00  0.00     0.020 A 
ATOM     63  C   UNL A   1      42.946  21.474  25.336  1.00  0.00     0.020 A 
ATOM     64  C   UNL A   1      42.605  20.752  26.482  1.00  0.00     0.054 A 
BRANCH  64  65
ATOM     65  S   UNL A   1      42.024  19.042  26.354  1.00  0.00     0.124 S 
ATOM     66  O   UNL A   1      42.133  18.581  27.736  1.00  0.00    -0.237 OA
ATOM     67  O   UNL A   1      40.662  19.208  25.853  1.00  0.00    -0.237 OA
ATOM     68  O   UNL A   1      42.960  18.427  25.417  1.00  0.00    -0.744 OA
ENDBRANCH  64  65
ENDBRANCH  45  59
BRANCH  46  69
ATOM     69  C   UNL A   1      47.037  32.720  27.989  1.00  0.00    -0.014 A 
ATOM     70  C   UNL A   1      47.162  33.619  26.910  1.00  0.00     0.010 A 
ATOM     71  C   UNL A   1      47.483  33.140  29.256  1.00  0.00     0.010 A 
ATOM     72  C   UNL A   1      47.719  34.894  27.090  1.00  0.00     0.020 A 
ATOM     73  C   UNL A   1      48.016  34.424  29.448  1.00  0.00     0.020 A 
ATOM     74  C   UNL A   1      48.133  35.294  28.361  1.00  0.00     0.054 A 
BRANCH  74  75
ATOM     75  S   UNL A   1      48.783  36.977  28.586  1.00  0.00     0.124 S 
ATOM     76  O   UNL A   1      49.236  36.953  29.973  1.00  0.00    -0.237 OA
ATOM     77  O   UNL A   1      49.838  37.042  27.578  1.00  0.00    -0.237 OA
ATOM     78  O   UNL A   1      47.626  37.831  28.322  1.00  0.00    -0.744 OA
ENDBRANCH  74  75
ENDBRANCH  46  69
BRANCH  58  79
ATOM     79  C   UNL A   1      49.921  26.626  26.072  1.00  0.00    -0.014 A 
ATOM     80  C   UNL A   1      50.361  26.817  24.752  1.00  0.00     0.010 A 
ATOM     81  C   UNL A   1      50.838  26.188  27.047  1.00  0.00     0.010 A 
ATOM     82  C   UNL A   1      51.693  26.563  24.413  1.00  0.00     0.020 A 
ATOM     83  C   UNL A   1      52.177  25.971  26.722  1.00  0.00     0.020 A 
ATOM     84  C   UNL A   1      52.594  26.151  25.403  1.00  0.00     0.054 A 
BRANCH  84  85
ATOM     85  S   UNL A   1      54.332  25.908  24.952  1.00  0.00     0.124 S 
ATOM     86  O   UNL A   1      54.478  24.459  25.072  1.00  0.00    -0.237 OA
ATOM     87  O   UNL A   1      54.386  26.435  23.591  1.00  0.00    -0.237 OA
ATOM     88  O   UNL A   1      55.063  26.691  25.947  1.00  0.00    -0.744 OA
ENDBRANCH  84  85
ENDBRANCH  58  79
ENDBRANCH  32  33
ENDBRANCH  25  27
ENDBRANCH  24  25
ENDBRANCH   1  24
TORSDOF 16
ENDMDL
