MODEL 1
REMARK VINA RESULT:      -9.2      0.000      0.000
REMARK SMILES O=C(CC1=c2ccccc2=NC1)OCCOC(=O)c1ccc(-c2c3nc(c(-c4ccc(S(=O)(=O)[O-])cc4)c4ccc([nH]4)c(-c4ccc(S(=O)(=O)[O-])cc4)c4nc(c(-c5ccc(S(=O)(=O)[O-])cc5)c5ccc2[nH]5)C=C4)C=C3)cc1
REMARK SMILES IDX 15 1 14 2 13 3 2 4 1 5 3 6 4 7 5 8 12 9 6 10 10 11 11 12
REMARK SMILES IDX 7 13 9 14 8 15 16 16 17 17 18 18 19 19 20 20 78 21 21 22
REMARK SMILES IDX 77 23 22 24 23 25 24 26 71 27 25 28 76 29 70 30 72 31 26 32
REMARK SMILES IDX 75 33 69 34 68 35 27 37 57 38 38 39 56 40 39 41 42 42 55 43
REMARK SMILES IDX 73 44 40 45 41 46 54 48 74 49 43 50 28 51 29 52 37 53 30 54
REMARK SMILES IDX 36 55 31 56 32 57 33 58 34 59 35 60 58 61 59 62 67 63 60 64
REMARK SMILES IDX 66 65 61 66 62 67 63 68 64 69 65 70 44 71 45 72 53 73 46 74
REMARK SMILES IDX 52 75 47 76 48 77 49 78 50 79 51 80
REMARK H PARENT 72 36 42 47
REMARK Flexibility Score: inf
ROOT
ATOM      1  C   UNL A   1      39.618  20.999  25.769  1.00  0.00     0.275 C 
ENDROOT
BRANCH   1   2
ATOM      2  C   UNL A   1      40.816  20.316  26.433  1.00  0.00     0.274 C 
BRANCH   2   3
ATOM      3  O   UNL A   1      41.691  21.268  27.076  1.00  0.00    -0.462 OA
BRANCH   3   4
ATOM      4  C   UNL A   1      42.536  22.091  26.407  1.00  0.00     0.310 C 
ATOM      5  O   UNL A   1      42.965  21.772  25.302  1.00  0.00    -0.252 OA
BRANCH   4   6
ATOM      6  C   UNL A   1      42.970  23.376  27.091  1.00  0.00     0.156 C 
BRANCH   6   7
ATOM      7  C   UNL A   1      44.336  23.858  26.762  1.00  0.00    -0.028 C 
ATOM      8  C   UNL A   1      44.624  25.043  26.232  1.00  0.00     0.001 A 
ATOM      9  C   UNL A   1      45.574  23.034  26.910  1.00  0.00     0.175 C 
ATOM     10  C   UNL A   1      43.853  26.164  25.807  1.00  0.00     0.010 A 
ATOM     11  C   UNL A   1      46.085  24.992  26.075  1.00  0.00     0.065 A 
ATOM     12  N   UNL A   1      46.681  23.888  26.411  1.00  0.00    -0.280 NA
ATOM     13  C   UNL A   1      44.495  27.232  25.307  1.00  0.00     0.001 A 
ATOM     14  C   UNL A   1      46.722  26.218  25.544  1.00  0.00     0.028 A 
ATOM     15  C   UNL A   1      45.944  27.262  25.204  1.00  0.00     0.002 A 
ENDBRANCH   6   7
ENDBRANCH   4   6
ENDBRANCH   3   4
ENDBRANCH   2   3
ENDBRANCH   1   2
BRANCH   1  16
ATOM     16  O   UNL A   1      39.037  21.981  26.647  1.00  0.00    -0.458 OA
BRANCH  16  17
ATOM     17  C   UNL A   1      38.539  23.096  26.049  1.00  0.00     0.338 C 
ATOM     18  O   UNL A   1      37.638  23.132  25.234  1.00  0.00    -0.246 OA
BRANCH  17  19
ATOM     19  C   UNL A   1      39.120  24.303  26.696  1.00  0.00     0.060 A 
ATOM     20  C   UNL A   1      39.945  25.199  26.007  1.00  0.00     0.016 A 
ATOM     21  C   UNL A   1      38.866  24.502  28.059  1.00  0.00     0.016 A 
ATOM     22  C   UNL A   1      40.504  26.290  26.682  1.00  0.00     0.010 A 
ATOM     23  C   UNL A   1      39.424  25.595  28.731  1.00  0.00     0.010 A 
ATOM     24  C   UNL A   1      40.243  26.503  28.047  1.00  0.00    -0.014 A 
BRANCH  24  25
ATOM     25  C   UNL A   1      40.704  27.751  28.709  1.00  0.00     0.031 A 
ATOM     26  C   UNL A   1      42.096  27.911  29.243  1.00  0.00     0.074 A 
ATOM     27  C   UNL A   1      39.833  28.770  28.827  1.00  0.00     0.049 A 
ATOM     28  N   UNL A   1      42.699  29.009  29.623  1.00  0.00    -0.248 NA
ATOM     29  C   UNL A   1      42.927  26.705  29.347  1.00  0.00     0.031 C 
ATOM     30  C   UNL A   1      38.440  28.738  28.379  1.00  0.00     0.029 A 
ATOM     31  N   UNL A   1      39.988  30.027  29.356  1.00  0.00    -0.354 N 
ATOM     32  C   UNL A   1      44.003  28.643  29.927  1.00  0.00     0.074 A 
ATOM     33  C   UNL A   1      44.089  27.209  29.749  1.00  0.00     0.031 C 
ATOM     34  C   UNL A   1      37.870  29.922  28.647  1.00  0.00     0.029 A 
ATOM     35  C   UNL A   1      38.848  30.790  29.300  1.00  0.00     0.049 A 
ATOM     36  H   UNL A   1      40.835  30.349  29.740  1.00  0.00     0.167 HD
ATOM     37  C   UNL A   1      45.033  29.436  30.304  1.00  0.00     0.031 A 
ATOM     38  C   UNL A   1      38.608  32.047  29.720  1.00  0.00     0.031 A 
ATOM     39  C   UNL A   1      44.908  30.836  30.615  1.00  0.00     0.049 A 
ATOM     40  C   UNL A   1      39.726  32.864  30.301  1.00  0.00     0.074 A 
ATOM     41  C   UNL A   1      45.903  31.720  30.997  1.00  0.00     0.029 A 
ATOM     42  N   UNL A   1      43.716  31.544  30.644  1.00  0.00    -0.354 N 
ATOM     43  N   UNL A   1      40.991  32.544  30.432  1.00  0.00    -0.248 NA
ATOM     44  C   UNL A   1      39.394  34.215  30.773  1.00  0.00     0.031 C 
ATOM     45  C   UNL A   1      45.300  32.931  31.349  1.00  0.00     0.029 A 
ATOM     46  C   UNL A   1      43.941  32.832  31.104  1.00  0.00     0.049 A 
ATOM     47  H   UNL A   1      42.839  31.185  30.377  1.00  0.00     0.167 HD
ATOM     48  C   UNL A   1      41.612  33.662  30.978  1.00  0.00     0.074 A 
ATOM     49  C   UNL A   1      40.584  34.669  31.148  1.00  0.00     0.031 C 
ATOM     50  C   UNL A   1      42.918  33.833  31.296  1.00  0.00     0.031 A 
BRANCH  37  51
ATOM     51  C   UNL A   1      46.406  28.825  30.396  1.00  0.00    -0.014 A 
ATOM     52  C   UNL A   1      47.202  28.681  29.247  1.00  0.00     0.010 A 
ATOM     53  C   UNL A   1      46.836  28.249  31.606  1.00  0.00     0.010 A 
ATOM     54  C   UNL A   1      48.387  27.942  29.294  1.00  0.00     0.020 A 
ATOM     55  C   UNL A   1      48.030  27.524  31.662  1.00  0.00     0.020 A 
ATOM     56  C   UNL A   1      48.787  27.356  30.499  1.00  0.00     0.054 A 
BRANCH  56  57
ATOM     57  S   UNL A   1      50.301  26.357  30.530  1.00  0.00     0.124 S 
ATOM     58  O   UNL A   1      50.394  25.979  31.936  1.00  0.00    -0.237 OA
ATOM     59  O   UNL A   1      49.984  25.275  29.602  1.00  0.00    -0.237 OA
ATOM     60  O   UNL A   1      51.330  27.285  30.062  1.00  0.00    -0.744 OA
ENDBRANCH  56  57
ENDBRANCH  37  51
BRANCH  38  61
ATOM     61  C   UNL A   1      37.238  32.602  29.554  1.00  0.00    -0.014 A 
ATOM     62  C   UNL A   1      36.875  33.235  28.349  1.00  0.00     0.010 A 
ATOM     63  C   UNL A   1      36.333  32.601  30.628  1.00  0.00     0.010 A 
ATOM     64  C   UNL A   1      35.659  33.913  28.243  1.00  0.00     0.020 A 
ATOM     65  C   UNL A   1      35.102  33.254  30.517  1.00  0.00     0.020 A 
ATOM     66  C   UNL A   1      34.789  33.934  29.336  1.00  0.00     0.054 A 
BRANCH  66  67
ATOM     67  S   UNL A   1      33.250  34.884  29.203  1.00  0.00     0.124 S 
ATOM     68  O   UNL A   1      32.492  34.088  28.243  1.00  0.00    -0.237 OA
ATOM     69  O   UNL A   1      32.745  34.868  30.574  1.00  0.00    -0.237 OA
ATOM     70  O   UNL A   1      33.695  36.189  28.721  1.00  0.00    -0.744 OA
ENDBRANCH  66  67
ENDBRANCH  38  61
BRANCH  50  71
ATOM     71  C   UNL A   1      43.348  35.157  31.877  1.00  0.00    -0.014 A 
ATOM     72  C   UNL A   1      43.145  35.416  33.246  1.00  0.00     0.010 A 
ATOM     73  C   UNL A   1      43.825  36.189  31.050  1.00  0.00     0.010 A 
ATOM     74  C   UNL A   1      43.369  36.692  33.770  1.00  0.00     0.020 A 
ATOM     75  C   UNL A   1      44.081  37.460  31.578  1.00  0.00     0.020 A 
ATOM     76  C   UNL A   1      43.824  37.710  32.927  1.00  0.00     0.054 A 
BRANCH  76  77
ATOM     77  S   UNL A   1      44.071  39.371  33.615  1.00  0.00     0.124 S 
ATOM     78  O   UNL A   1      42.751  39.972  33.447  1.00  0.00    -0.237 OA
ATOM     79  O   UNL A   1      44.465  39.093  34.995  1.00  0.00    -0.237 OA
ATOM     80  O   UNL A   1      45.126  39.934  32.777  1.00  0.00    -0.744 OA
ENDBRANCH  76  77
ENDBRANCH  50  71
ENDBRANCH  24  25
ENDBRANCH  17  19
ENDBRANCH  16  17
ENDBRANCH   1  16
TORSDOF 15
ENDMDL
MODEL 2
REMARK VINA RESULT:      -9.2      3.008     11.286
REMARK SMILES O=C(CC1=c2ccccc2=NC1)OCCOC(=O)c1ccc(-c2c3nc(c(-c4ccc(S(=O)(=O)[O-])cc4)c4ccc([nH]4)c(-c4ccc(S(=O)(=O)[O-])cc4)c4nc(c(-c5ccc(S(=O)(=O)[O-])cc5)c5ccc2[nH]5)C=C4)C=C3)cc1
REMARK SMILES IDX 15 1 14 2 13 3 2 4 1 5 3 6 4 7 5 8 12 9 6 10 10 11 11 12
REMARK SMILES IDX 7 13 9 14 8 15 16 16 17 17 18 18 19 19 20 20 78 21 21 22
REMARK SMILES IDX 77 23 22 24 23 25 24 26 71 27 25 28 76 29 70 30 72 31 26 32
REMARK SMILES IDX 75 33 69 34 68 35 27 37 57 38 38 39 56 40 39 41 42 42 55 43
REMARK SMILES IDX 73 44 40 45 41 46 54 48 74 49 43 50 28 51 29 52 37 53 30 54
REMARK SMILES IDX 36 55 31 56 32 57 33 58 34 59 35 60 58 61 59 62 67 63 60 64
REMARK SMILES IDX 66 65 61 66 62 67 63 68 64 69 65 70 44 71 45 72 53 73 46 74
REMARK SMILES IDX 52 75 47 76 48 77 49 78 50 79 51 80
REMARK H PARENT 72 36 42 47
REMARK Flexibility Score: inf
ROOT
ATOM      1  C   UNL A   1      34.432  32.422  29.309  1.00  0.00     0.275 C 
ENDROOT
BRANCH   1   2
ATOM      2  C   UNL A   1      34.234  33.937  29.403  1.00  0.00     0.274 C 
BRANCH   2   3
ATOM      3  O   UNL A   1      34.809  34.481  30.611  1.00  0.00    -0.462 OA
BRANCH   3   4
ATOM      4  C   UNL A   1      34.149  34.560  31.793  1.00  0.00     0.310 C 
ATOM      5  O   UNL A   1      33.577  35.598  32.115  1.00  0.00    -0.252 OA
BRANCH   4   6
ATOM      6  C   UNL A   1      34.191  33.355  32.715  1.00  0.00     0.156 C 
BRANCH   6   7
ATOM      7  C   UNL A   1      35.390  33.243  33.586  1.00  0.00    -0.028 C 
ATOM      8  C   UNL A   1      36.338  32.319  33.471  1.00  0.00     0.001 A 
ATOM      9  C   UNL A   1      35.649  34.118  34.770  1.00  0.00     0.175 C 
ATOM     10  C   UNL A   1      36.553  31.206  32.605  1.00  0.00     0.010 A 
ATOM     11  C   UNL A   1      37.248  32.633  34.582  1.00  0.00     0.065 A 
ATOM     12  N   UNL A   1      36.912  33.614  35.366  1.00  0.00    -0.280 NA
ATOM     13  C   UNL A   1      37.659  30.465  32.776  1.00  0.00     0.001 A 
ATOM     14  C   UNL A   1      38.458  31.789  34.687  1.00  0.00     0.028 A 
ATOM     15  C   UNL A   1      38.628  30.783  33.810  1.00  0.00     0.002 A 
ENDBRANCH   6   7
ENDBRANCH   4   6
ENDBRANCH   3   4
ENDBRANCH   2   3
ENDBRANCH   1   2
BRANCH   1  16
ATOM     16  O   UNL A   1      34.316  31.975  27.945  1.00  0.00    -0.458 OA
BRANCH  16  17
ATOM     17  C   UNL A   1      34.381  30.631  27.750  1.00  0.00     0.338 C 
ATOM     18  O   UNL A   1      33.526  29.936  27.238  1.00  0.00    -0.246 OA
BRANCH  17  19
ATOM     19  C   UNL A   1      35.753  30.154  28.071  1.00  0.00     0.060 A 
ATOM     20  C   UNL A   1      36.813  30.250  27.162  1.00  0.00     0.016 A 
ATOM     21  C   UNL A   1      35.960  29.540  29.314  1.00  0.00     0.016 A 
ATOM     22  C   UNL A   1      38.070  29.738  27.502  1.00  0.00     0.010 A 
ATOM     23  C   UNL A   1      37.218  29.032  29.652  1.00  0.00     0.010 A 
ATOM     24  C   UNL A   1      38.287  29.131  28.751  1.00  0.00    -0.014 A 
BRANCH  24  25
ATOM     25  C   UNL A   1      39.661  28.744  29.164  1.00  0.00     0.031 A 
ATOM     26  C   UNL A   1      40.549  29.656  29.957  1.00  0.00     0.074 A 
ATOM     27  C   UNL A   1      40.115  27.527  28.812  1.00  0.00     0.049 A 
ATOM     28  N   UNL A   1      41.662  29.365  30.582  1.00  0.00    -0.248 NA
ATOM     29  C   UNL A   1      40.138  31.059  30.089  1.00  0.00     0.031 C 
ATOM     30  C   UNL A   1      39.368  26.553  28.016  1.00  0.00     0.029 A 
ATOM     31  N   UNL A   1      41.308  26.903  29.075  1.00  0.00    -0.354 N 
ATOM     32  C   UNL A   1      42.037  30.521  31.252  1.00  0.00     0.074 A 
ATOM     33  C   UNL A   1      41.069  31.539  30.907  1.00  0.00     0.031 C 
ATOM     34  C   UNL A   1      40.117  25.451  27.860  1.00  0.00     0.029 A 
ATOM     35  C   UNL A   1      41.402  25.647  28.529  1.00  0.00     0.049 A 
ATOM     36  H   UNL A   1      42.028  27.317  29.604  1.00  0.00     0.167 HD
ATOM     37  C   UNL A   1      43.085  30.706  32.088  1.00  0.00     0.031 A 
ATOM     38  C   UNL A   1      42.403  24.745  28.560  1.00  0.00     0.031 A 
ATOM     39  C   UNL A   1      44.123  29.734  32.317  1.00  0.00     0.049 A 
ATOM     40  C   UNL A   1      43.643  25.037  29.355  1.00  0.00     0.074 A 
ATOM     41  C   UNL A   1      45.219  29.834  33.157  1.00  0.00     0.029 A 
ATOM     42  N   UNL A   1      44.232  28.515  31.664  1.00  0.00    -0.354 N 
ATOM     43  N   UNL A   1      43.905  26.077  30.109  1.00  0.00    -0.248 NA
ATOM     44  C   UNL A   1      44.713  24.031  29.322  1.00  0.00     0.031 C 
ATOM     45  C   UNL A   1      46.039  28.723  32.939  1.00  0.00     0.029 A 
ATOM     46  C   UNL A   1      45.413  27.887  32.030  1.00  0.00     0.049 A 
ATOM     47  H   UNL A   1      43.570  28.150  31.034  1.00  0.00     0.167 HD
ATOM     48  C   UNL A   1      45.160  25.839  30.661  1.00  0.00     0.074 A 
ATOM     49  C   UNL A   1      45.601  24.555  30.157  1.00  0.00     0.031 C 
ATOM     50  C   UNL A   1      45.868  26.617  31.516  1.00  0.00     0.031 A 
BRANCH  37  51
ATOM     51  C   UNL A   1      43.176  32.006  32.841  1.00  0.00    -0.014 A 
ATOM     52  C   UNL A   1      44.003  33.044  32.378  1.00  0.00     0.010 A 
ATOM     53  C   UNL A   1      42.558  32.131  34.099  1.00  0.00     0.010 A 
ATOM     54  C   UNL A   1      44.240  34.169  33.173  1.00  0.00     0.020 A 
ATOM     55  C   UNL A   1      42.779  33.262  34.890  1.00  0.00     0.020 A 
ATOM     56  C   UNL A   1      43.636  34.264  34.430  1.00  0.00     0.054 A 
BRANCH  56  57
ATOM     57  S   UNL A   1      43.997  35.707  35.469  1.00  0.00     0.124 S 
ATOM     58  O   UNL A   1      45.309  36.120  34.982  1.00  0.00    -0.237 OA
ATOM     59  O   UNL A   1      42.891  36.608  35.155  1.00  0.00    -0.237 OA
ATOM     60  O   UNL A   1      43.978  35.163  36.826  1.00  0.00    -0.744 OA
ENDBRANCH  56  57
ENDBRANCH  37  51
BRANCH  38  61
ATOM     61  C   UNL A   1      42.225  23.461  27.831  1.00  0.00    -0.014 A 
ATOM     62  C   UNL A   1      41.511  22.404  28.428  1.00  0.00     0.010 A 
ATOM     63  C   UNL A   1      42.857  23.250  26.594  1.00  0.00     0.010 A 
ATOM     64  C   UNL A   1      41.487  21.141  27.833  1.00  0.00     0.020 A 
ATOM     65  C   UNL A   1      42.812  21.995  25.982  1.00  0.00     0.020 A 
ATOM     66  C   UNL A   1      42.155  20.941  26.623  1.00  0.00     0.054 A 
BRANCH  66  67
ATOM     67  S   UNL A   1      42.176  19.274  25.908  1.00  0.00     0.124 S 
ATOM     68  O   UNL A   1      43.047  19.458  24.751  1.00  0.00    -0.237 OA
ATOM     69  O   UNL A   1      42.730  18.467  26.992  1.00  0.00    -0.237 OA
ATOM     70  O   UNL A   1      40.771  19.017  25.600  1.00  0.00    -0.744 OA
ENDBRANCH  66  67
ENDBRANCH  38  61
BRANCH  50  71
ATOM     71  C   UNL A   1      47.219  26.129  31.978  1.00  0.00    -0.014 A 
ATOM     72  C   UNL A   1      48.345  26.308  31.153  1.00  0.00     0.010 A 
ATOM     73  C   UNL A   1      47.350  25.379  33.160  1.00  0.00     0.010 A 
ATOM     74  C   UNL A   1      49.566  25.711  31.476  1.00  0.00     0.020 A 
ATOM     75  C   UNL A   1      48.580  24.805  33.503  1.00  0.00     0.020 A 
ATOM     76  C   UNL A   1      49.672  24.951  32.644  1.00  0.00     0.054 A 
BRANCH  76  77
ATOM     77  S   UNL A   1      51.254  24.149  33.027  1.00  0.00     0.124 S 
ATOM     78  O   UNL A   1      51.026  22.784  32.566  1.00  0.00    -0.237 OA
ATOM     79  O   UNL A   1      52.209  24.929  32.241  1.00  0.00    -0.237 OA
ATOM     80  O   UNL A   1      51.376  24.309  34.474  1.00  0.00    -0.744 OA
ENDBRANCH  76  77
ENDBRANCH  50  71
ENDBRANCH  24  25
ENDBRANCH  17  19
ENDBRANCH  16  17
ENDBRANCH   1  16
TORSDOF 15
ENDMDL
MODEL 3
REMARK VINA RESULT:      -9.0      2.559     10.386
REMARK SMILES O=C(CC1=c2ccccc2=NC1)OCCOC(=O)c1ccc(-c2c3nc(c(-c4ccc(S(=O)(=O)[O-])cc4)c4ccc([nH]4)c(-c4ccc(S(=O)(=O)[O-])cc4)c4nc(c(-c5ccc(S(=O)(=O)[O-])cc5)c5ccc2[nH]5)C=C4)C=C3)cc1
REMARK SMILES IDX 15 1 14 2 13 3 2 4 1 5 3 6 4 7 5 8 12 9 6 10 10 11 11 12
REMARK SMILES IDX 7 13 9 14 8 15 16 16 17 17 18 18 19 19 20 20 78 21 21 22
REMARK SMILES IDX 77 23 22 24 23 25 24 26 71 27 25 28 76 29 70 30 72 31 26 32
REMARK SMILES IDX 75 33 69 34 68 35 27 37 57 38 38 39 56 40 39 41 42 42 55 43
REMARK SMILES IDX 73 44 40 45 41 46 54 48 74 49 43 50 28 51 29 52 37 53 30 54
REMARK SMILES IDX 36 55 31 56 32 57 33 58 34 59 35 60 58 61 59 62 67 63 60 64
REMARK SMILES IDX 66 65 61 66 62 67 63 68 64 69 65 70 44 71 45 72 53 73 46 74
REMARK SMILES IDX 52 75 47 76 48 77 49 78 50 79 51 80
REMARK H PARENT 72 36 42 47
REMARK Flexibility Score: inf
ROOT
ATOM      1  C   UNL A   1      33.346  32.540  27.739  1.00  0.00     0.275 C 
ENDROOT
BRANCH   1   2
ATOM      2  C   UNL A   1      33.481  34.036  28.039  1.00  0.00     0.274 C 
BRANCH   2   3
ATOM      3  O   UNL A   1      32.890  34.386  29.310  1.00  0.00    -0.462 OA
BRANCH   3   4
ATOM      4  C   UNL A   1      32.970  35.620  29.866  1.00  0.00     0.310 C 
ATOM      5  O   UNL A   1      32.193  36.506  29.521  1.00  0.00    -0.252 OA
BRANCH   4   6
ATOM      6  C   UNL A   1      34.076  35.878  30.874  1.00  0.00     0.156 C 
BRANCH   6   7
ATOM      7  C   UNL A   1      34.377  34.763  31.809  1.00  0.00    -0.028 C 
ATOM      8  C   UNL A   1      35.375  33.895  31.671  1.00  0.00     0.001 A 
ATOM      9  C   UNL A   1      33.540  34.418  32.998  1.00  0.00     0.175 C 
ATOM     10  C   UNL A   1      36.403  33.695  30.703  1.00  0.00     0.010 A 
ATOM     11  C   UNL A   1      35.198  32.997  32.821  1.00  0.00     0.065 A 
ATOM     12  N   UNL A   1      34.176  33.215  33.593  1.00  0.00    -0.280 NA
ATOM     13  C   UNL A   1      37.273  32.690  30.889  1.00  0.00     0.001 A 
ATOM     14  C   UNL A   1      36.213  31.931  32.973  1.00  0.00     0.028 A 
ATOM     15  C   UNL A   1      37.187  31.823  32.051  1.00  0.00     0.002 A 
ENDBRANCH   6   7
ENDBRANCH   4   6
ENDBRANCH   3   4
ENDBRANCH   2   3
ENDBRANCH   1   2
BRANCH   1  16
ATOM     16  O   UNL A   1      34.399  31.794  28.377  1.00  0.00    -0.458 OA
BRANCH  16  17
ATOM     17  C   UNL A   1      34.555  30.509  27.962  1.00  0.00     0.338 C 
ATOM     18  O   UNL A   1      33.755  29.860  27.316  1.00  0.00    -0.246 OA
BRANCH  17  19
ATOM     19  C   UNL A   1      35.948  30.068  28.238  1.00  0.00     0.060 A 
ATOM     20  C   UNL A   1      36.963  30.140  27.277  1.00  0.00     0.016 A 
ATOM     21  C   UNL A   1      36.223  29.513  29.496  1.00  0.00     0.016 A 
ATOM     22  C   UNL A   1      38.244  29.663  27.579  1.00  0.00     0.010 A 
ATOM     23  C   UNL A   1      37.504  29.040  29.796  1.00  0.00     0.010 A 
ATOM     24  C   UNL A   1      38.528  29.116  28.842  1.00  0.00    -0.014 A 
BRANCH  24  25
ATOM     25  C   UNL A   1      39.927  28.769  29.207  1.00  0.00     0.031 A 
ATOM     26  C   UNL A   1      40.519  27.419  28.929  1.00  0.00     0.074 A 
ATOM     27  C   UNL A   1      40.682  29.708  29.805  1.00  0.00     0.049 A 
ATOM     28  N   UNL A   1      41.776  27.060  28.973  1.00  0.00    -0.248 NA
ATOM     29  C   UNL A   1      39.602  26.344  28.532  1.00  0.00     0.031 C 
ATOM     30  C   UNL A   1      40.223  31.051  30.162  1.00  0.00     0.029 A 
ATOM     31  N   UNL A   1      41.990  29.678  30.220  1.00  0.00    -0.354 N 
ATOM     32  C   UNL A   1      41.814  25.746  28.527  1.00  0.00     0.074 A 
ATOM     33  C   UNL A   1      40.445  25.349  28.277  1.00  0.00     0.031 C 
ATOM     34  C   UNL A   1      41.235  31.719  30.735  1.00  0.00     0.029 A 
ATOM     35  C   UNL A   1      42.408  30.849  30.803  1.00  0.00     0.049 A 
ATOM     36  H   UNL A   1      42.573  28.893  30.109  1.00  0.00     0.167 HD
ATOM     37  C   UNL A   1      42.893  24.954  28.331  1.00  0.00     0.031 A 
ATOM     38  C   UNL A   1      43.597  31.194  31.334  1.00  0.00     0.031 A 
ATOM     39  C   UNL A   1      44.237  25.304  28.714  1.00  0.00     0.049 A 
ATOM     40  C   UNL A   1      44.749  30.232  31.265  1.00  0.00     0.074 A 
ATOM     41  C   UNL A   1      45.395  24.565  28.544  1.00  0.00     0.029 A 
ATOM     42  N   UNL A   1      44.598  26.457  29.396  1.00  0.00    -0.354 N 
ATOM     43  N   UNL A   1      44.798  29.053  30.695  1.00  0.00    -0.248 NA
ATOM     44  C   UNL A   1      46.010  30.652  31.892  1.00  0.00     0.031 C 
ATOM     45  C   UNL A   1      46.435  25.223  29.207  1.00  0.00     0.029 A 
ATOM     46  C   UNL A   1      45.946  26.415  29.715  1.00  0.00     0.049 A 
ATOM     47  H   UNL A   1      43.987  27.195  29.620  1.00  0.00     0.167 HD
ATOM     48  C   UNL A   1      46.101  28.599  30.872  1.00  0.00     0.074 A 
ATOM     49  C   UNL A   1      46.809  29.633  31.597  1.00  0.00     0.031 C 
ATOM     50  C   UNL A   1      46.653  27.433  30.456  1.00  0.00     0.031 A 
BRANCH  37  51
ATOM     51  C   UNL A   1      42.689  23.622  27.660  1.00  0.00    -0.014 A 
ATOM     52  C   UNL A   1      42.343  22.488  28.415  1.00  0.00     0.010 A 
ATOM     53  C   UNL A   1      43.000  23.470  26.296  1.00  0.00     0.010 A 
ATOM     54  C   UNL A   1      42.346  21.219  27.829  1.00  0.00     0.020 A 
ATOM     55  C   UNL A   1      42.987  22.205  25.702  1.00  0.00     0.020 A 
ATOM     56  C   UNL A   1      42.681  21.084  26.478  1.00  0.00     0.054 A 
BRANCH  56  57
ATOM     57  S   UNL A   1      42.730  19.425  25.748  1.00  0.00     0.124 S 
ATOM     58  O   UNL A   1      43.646  19.606  24.626  1.00  0.00    -0.237 OA
ATOM     59  O   UNL A   1      43.230  18.608  26.850  1.00  0.00    -0.237 OA
ATOM     60  O   UNL A   1      41.336  19.173  25.382  1.00  0.00    -0.744 OA
ENDBRANCH  56  57
ENDBRANCH  37  51
BRANCH  38  61
ATOM     61  C   UNL A   1      43.740  32.545  31.938  1.00  0.00    -0.014 A 
ATOM     62  C   UNL A   1      43.471  32.737  33.308  1.00  0.00     0.010 A 
ATOM     63  C   UNL A   1      44.036  33.658  31.134  1.00  0.00     0.010 A 
ATOM     64  C   UNL A   1      43.430  34.024  33.847  1.00  0.00     0.020 A 
ATOM     65  C   UNL A   1      44.024  34.946  31.678  1.00  0.00     0.020 A 
ATOM     66  C   UNL A   1      43.688  35.121  33.023  1.00  0.00     0.054 A 
BRANCH  66  67
ATOM     67  S   UNL A   1      43.554  36.787  33.727  1.00  0.00     0.124 S 
ATOM     68  O   UNL A   1      43.687  37.624  32.538  1.00  0.00    -0.237 OA
ATOM     69  O   UNL A   1      42.228  36.770  34.340  1.00  0.00    -0.237 OA
ATOM     70  O   UNL A   1      44.671  36.852  34.666  1.00  0.00    -0.744 OA
ENDBRANCH  66  67
ENDBRANCH  38  61
BRANCH  50  71
ATOM     71  C   UNL A   1      48.105  27.174  30.771  1.00  0.00    -0.014 A 
ATOM     72  C   UNL A   1      49.107  27.774  29.984  1.00  0.00     0.010 A 
ATOM     73  C   UNL A   1      48.477  26.238  31.752  1.00  0.00     0.010 A 
ATOM     74  C   UNL A   1      50.447  27.413  30.141  1.00  0.00     0.020 A 
ATOM     75  C   UNL A   1      49.822  25.897  31.933  1.00  0.00     0.020 A 
ATOM     76  C   UNL A   1      50.794  26.465  31.108  1.00  0.00     0.054 A 
BRANCH  76  77
ATOM     77  S   UNL A   1      52.535  25.977  31.271  1.00  0.00     0.124 S 
ATOM     78  O   UNL A   1      52.985  25.979  29.882  1.00  0.00    -0.237 OA
ATOM     79  O   UNL A   1      53.089  27.035  32.114  1.00  0.00    -0.237 OA
ATOM     80  O   UNL A   1      52.463  24.662  31.904  1.00  0.00    -0.744 OA
ENDBRANCH  76  77
ENDBRANCH  50  71
ENDBRANCH  24  25
ENDBRANCH  17  19
ENDBRANCH  16  17
ENDBRANCH   1  16
TORSDOF 15
ENDMDL
