MODEL 1
REMARK VINA RESULT:     -11.4      0.000      0.000
REMARK SMILES CCn1ccc([C@@H](C)NC(=O)c2cnn([C@H](C)C(=O)OCCOC(=O)c3ccc(-c4c5nc(c(-c6ccc(S(=O)(=O)[O-])cc6)c6ccc([nH]6)c(-c6ccc(S(=O)(=O)[O-])cc6)c6nc(c(-c7ccc(S(=O)(=O)[O-])cc7)c7ccc4[nH]7)C=C6)C=C5)cc3)c2)n1
REMARK SMILES IDX 21 1 20 2 18 3 19 4 16 5 17 6 15 7 12 8 13 9 86 10 14 11
REMARK SMILES IDX 10 12 9 13 11 15 7 16 8 17 6 18 3 19 4 20 87 21 5 22 2 23
REMARK SMILES IDX 1 24 22 25 23 26 24 27 25 28 26 29 27 30 85 31 28 32 84 33
REMARK SMILES IDX 29 34 30 35 31 36 78 37 32 38 83 39 77 40 79 41 33 42 82 43
REMARK SMILES IDX 76 44 75 45 34 47 64 48 45 49 63 50 46 51 49 52 62 53 80 54
REMARK SMILES IDX 47 55 48 56 61 58 81 59 50 60 35 61 36 62 44 63 37 64 43 65
REMARK SMILES IDX 38 66 39 67 40 68 41 69 42 70 65 71 66 72 74 73 67 74 73 75
REMARK SMILES IDX 68 76 69 77 70 78 71 79 72 80 51 81 52 82 60 83 53 84 59 85
REMARK SMILES IDX 54 86 55 87 56 88 57 89 58 90
REMARK H PARENT 9 14 79 46 49 57
REMARK Flexibility Score: inf
ROOT
ATOM      1  C   UNL A   1      37.012  22.387  25.517  1.00  0.00     0.274 C 
ENDROOT
BRANCH   1   2
ATOM      2  O   UNL A   1      36.076  21.824  24.581  1.00  0.00    -0.460 OA
BRANCH   2   3
ATOM      3  C   UNL A   1      35.796  22.569  23.474  1.00  0.00     0.330 C 
ATOM      4  O   UNL A   1      36.648  23.028  22.715  1.00  0.00    -0.250 OA
BRANCH   3   5
ATOM      5  C   UNL A   1      34.312  22.807  23.272  1.00  0.00     0.213 C 
ATOM      6  C   UNL A   1      33.354  21.949  24.089  1.00  0.00     0.046 C 
BRANCH   5   7
ATOM      7  N   UNL A   1      34.036  24.223  23.452  1.00  0.00    -0.258 N 
ATOM      8  C   UNL A   1      33.625  26.338  23.054  1.00  0.00     0.077 A 
ATOM      9  C   UNL A   1      33.990  26.104  24.397  1.00  0.00     0.149 A 
ATOM     10  C   UNL A   1      33.590  25.082  22.489  1.00  0.00     0.123 A 
ATOM     11  N   UNL A   1      34.220  24.816  24.649  1.00  0.00    -0.180 NA
BRANCH   8  12
ATOM     12  C   UNL A   1      33.331  27.578  22.382  1.00  0.00     0.254 C 
ATOM     13  N   UNL A   1      32.081  28.112  22.528  1.00  0.00    -0.344 N 
ATOM     14  H   UNL A   1      31.860  28.855  21.920  1.00  0.00     0.164 HD
ATOM     15  O   UNL A   1      34.164  28.171  21.701  1.00  0.00    -0.269 OA
BRANCH  13  16
ATOM     16  C   UNL A   1      31.031  27.724  23.467  1.00  0.00     0.130 C 
ATOM     17  C   UNL A   1      29.673  28.187  22.952  1.00  0.00     0.038 C 
BRANCH  16  18
ATOM     18  C   UNL A   1      31.355  28.298  24.822  1.00  0.00     0.084 A 
ATOM     19  N   UNL A   1      31.925  29.763  26.251  1.00  0.00    -0.273 N 
ATOM     20  C   UNL A   1      31.686  28.636  26.986  1.00  0.00     0.109 A 
ATOM     21  N   UNL A   1      31.762  29.570  24.931  1.00  0.00    -0.176 NA
ATOM     22  C   UNL A   1      31.311  27.665  26.089  1.00  0.00     0.047 A 
BRANCH  19  23
ATOM     23  C   UNL A   1      32.371  31.040  26.779  1.00  0.00     0.141 C 
ATOM     24  C   UNL A   1      31.353  32.169  26.720  1.00  0.00     0.029 C 
ENDBRANCH  19  23
ENDBRANCH  16  18
ENDBRANCH  13  16
ENDBRANCH   8  12
ENDBRANCH   5   7
ENDBRANCH   3   5
ENDBRANCH   2   3
ENDBRANCH   1   2
BRANCH   1  25
ATOM     25  C   UNL A   1      38.178  21.441  25.770  1.00  0.00     0.275 C 
BRANCH  25  26
ATOM     26  O   UNL A   1      39.429  22.098  25.574  1.00  0.00    -0.458 OA
BRANCH  26  27
ATOM     27  C   UNL A   1      40.151  22.264  26.704  1.00  0.00     0.338 C 
ATOM     28  O   UNL A   1      40.253  21.479  27.629  1.00  0.00    -0.246 OA
BRANCH  27  29
ATOM     29  C   UNL A   1      40.672  23.628  26.782  1.00  0.00     0.060 A 
ATOM     30  C   UNL A   1      41.938  23.781  27.360  1.00  0.00     0.016 A 
ATOM     31  C   UNL A   1      39.791  24.701  26.615  1.00  0.00     0.016 A 
ATOM     32  C   UNL A   1      42.238  24.978  27.970  1.00  0.00     0.010 A 
ATOM     33  C   UNL A   1      40.083  25.887  27.239  1.00  0.00     0.010 A 
ATOM     34  C   UNL A   1      41.262  25.976  27.979  1.00  0.00    -0.014 A 
BRANCH  34  35
ATOM     35  C   UNL A   1      41.501  27.147  28.790  1.00  0.00     0.031 A 
ATOM     36  C   UNL A   1      42.695  27.922  28.403  1.00  0.00     0.074 A 
ATOM     37  C   UNL A   1      40.604  27.567  29.701  1.00  0.00     0.049 A 
ATOM     38  N   UNL A   1      43.759  28.150  29.097  1.00  0.00    -0.248 NA
ATOM     39  C   UNL A   1      42.762  28.393  27.010  1.00  0.00     0.031 C 
ATOM     40  C   UNL A   1      39.244  27.066  29.923  1.00  0.00     0.029 A 
ATOM     41  N   UNL A   1      40.676  28.648  30.518  1.00  0.00    -0.354 N 
ATOM     42  C   UNL A   1      44.551  28.964  28.298  1.00  0.00     0.074 A 
ATOM     43  C   UNL A   1      43.981  28.926  26.975  1.00  0.00     0.031 C 
ATOM     44  C   UNL A   1      38.545  27.998  30.610  1.00  0.00     0.029 A 
ATOM     45  C   UNL A   1      39.441  29.085  30.973  1.00  0.00     0.049 A 
ATOM     46  H   UNL A   1      41.524  29.082  30.764  1.00  0.00     0.167 HD
ATOM     47  C   UNL A   1      45.472  29.818  28.822  1.00  0.00     0.031 A 
ATOM     48  C   UNL A   1      39.172  30.307  31.496  1.00  0.00     0.031 A 
ATOM     49  C   UNL A   1      45.781  29.519  30.193  1.00  0.00     0.049 A 
ATOM     50  C   UNL A   1      40.468  30.906  31.914  1.00  0.00     0.074 A 
ATOM     51  C   UNL A   1      46.267  28.408  30.854  1.00  0.00     0.029 A 
ATOM     52  N   UNL A   1      45.221  30.320  31.161  1.00  0.00    -0.354 N 
ATOM     53  N   UNL A   1      41.201  30.438  32.887  1.00  0.00    -0.248 NA
ATOM     54  C   UNL A   1      41.169  31.765  30.970  1.00  0.00     0.031 C 
ATOM     55  C   UNL A   1      45.557  28.373  32.089  1.00  0.00     0.029 A 
ATOM     56  C   UNL A   1      44.718  29.488  32.130  1.00  0.00     0.049 A 
ATOM     57  H   UNL A   1      45.188  31.304  31.160  1.00  0.00     0.167 HD
ATOM     58  C   UNL A   1      42.512  30.589  32.455  1.00  0.00     0.074 A 
ATOM     59  C   UNL A   1      42.433  31.503  31.319  1.00  0.00     0.031 C 
ATOM     60  C   UNL A   1      43.502  29.745  32.876  1.00  0.00     0.031 A 
BRANCH  47  61
ATOM     61  C   UNL A   1      45.780  31.151  28.194  1.00  0.00    -0.014 A 
ATOM     62  C   UNL A   1      44.791  32.151  28.183  1.00  0.00     0.010 A 
ATOM     63  C   UNL A   1      46.913  31.355  27.376  1.00  0.00     0.010 A 
ATOM     64  C   UNL A   1      44.909  33.272  27.352  1.00  0.00     0.020 A 
ATOM     65  C   UNL A   1      47.065  32.491  26.585  1.00  0.00     0.020 A 
ATOM     66  C   UNL A   1      46.041  33.424  26.548  1.00  0.00     0.054 A 
BRANCH  66  67
ATOM     67  S   UNL A   1      46.131  34.807  25.387  1.00  0.00     0.124 S 
ATOM     68  O   UNL A   1      47.535  34.770  24.991  1.00  0.00    -0.237 OA
ATOM     69  O   UNL A   1      45.169  34.414  24.361  1.00  0.00    -0.237 OA
ATOM     70  O   UNL A   1      45.736  35.958  26.196  1.00  0.00    -0.744 OA
ENDBRANCH  66  67
ENDBRANCH  47  61
BRANCH  48  71
ATOM     71  C   UNL A   1      37.935  31.107  31.312  1.00  0.00    -0.014 A 
ATOM     72  C   UNL A   1      36.709  30.670  31.845  1.00  0.00     0.010 A 
ATOM     73  C   UNL A   1      38.005  32.436  30.840  1.00  0.00     0.010 A 
ATOM     74  C   UNL A   1      35.617  31.548  31.961  1.00  0.00     0.020 A 
ATOM     75  C   UNL A   1      36.919  33.311  30.938  1.00  0.00     0.020 A 
ATOM     76  C   UNL A   1      35.737  32.870  31.525  1.00  0.00     0.054 A 
BRANCH  76  77
ATOM     77  S   UNL A   1      34.391  34.047  31.848  1.00  0.00     0.124 S 
ATOM     78  O   UNL A   1      33.617  33.358  32.876  1.00  0.00    -0.237 OA
ATOM     79  O   UNL A   1      35.112  35.237  32.290  1.00  0.00    -0.237 OA
ATOM     80  O   UNL A   1      33.728  34.174  30.552  1.00  0.00    -0.744 OA
ENDBRANCH  76  77
ENDBRANCH  48  71
BRANCH  60  81
ATOM     81  C   UNL A   1      43.217  28.811  34.030  1.00  0.00    -0.014 A 
ATOM     82  C   UNL A   1      43.284  29.205  35.381  1.00  0.00     0.010 A 
ATOM     83  C   UNL A   1      42.703  27.537  33.731  1.00  0.00     0.010 A 
ATOM     84  C   UNL A   1      42.871  28.339  36.404  1.00  0.00     0.020 A 
ATOM     85  C   UNL A   1      42.271  26.676  34.744  1.00  0.00     0.020 A 
ATOM     86  C   UNL A   1      42.364  27.078  36.077  1.00  0.00     0.054 A 
BRANCH  86  87
ATOM     87  S   UNL A   1      41.773  25.986  37.401  1.00  0.00     0.124 S 
ATOM     88  O   UNL A   1      40.486  26.580  37.751  1.00  0.00    -0.237 OA
ATOM     89  O   UNL A   1      41.708  24.683  36.743  1.00  0.00    -0.237 OA
ATOM     90  O   UNL A   1      42.805  26.098  38.432  1.00  0.00    -0.744 OA
ENDBRANCH  86  87
ENDBRANCH  60  81
ENDBRANCH  34  35
ENDBRANCH  27  29
ENDBRANCH  26  27
ENDBRANCH  25  26
ENDBRANCH   1  25
TORSDOF 19
ENDMDL
MODEL 2
REMARK VINA RESULT:     -11.2      1.562      2.312
REMARK SMILES CCn1ccc([C@@H](C)NC(=O)c2cnn([C@H](C)C(=O)OCCOC(=O)c3ccc(-c4c5nc(c(-c6ccc(S(=O)(=O)[O-])cc6)c6ccc([nH]6)c(-c6ccc(S(=O)(=O)[O-])cc6)c6nc(c(-c7ccc(S(=O)(=O)[O-])cc7)c7ccc4[nH]7)C=C6)C=C5)cc3)c2)n1
REMARK SMILES IDX 21 1 20 2 18 3 19 4 16 5 17 6 15 7 12 8 13 9 86 10 14 11
REMARK SMILES IDX 10 12 9 13 11 15 7 16 8 17 6 18 3 19 4 20 87 21 5 22 2 23
REMARK SMILES IDX 1 24 22 25 23 26 24 27 25 28 26 29 27 30 85 31 28 32 84 33
REMARK SMILES IDX 29 34 30 35 31 36 78 37 32 38 83 39 77 40 79 41 33 42 82 43
REMARK SMILES IDX 76 44 75 45 34 47 64 48 45 49 63 50 46 51 49 52 62 53 80 54
REMARK SMILES IDX 47 55 48 56 61 58 81 59 50 60 35 61 36 62 44 63 37 64 43 65
REMARK SMILES IDX 38 66 39 67 40 68 41 69 42 70 65 71 66 72 74 73 67 74 73 75
REMARK SMILES IDX 68 76 69 77 70 78 71 79 72 80 51 81 52 82 60 83 53 84 59 85
REMARK SMILES IDX 54 86 55 87 56 88 57 89 58 90
REMARK H PARENT 9 14 79 46 49 57
REMARK Flexibility Score: inf
ROOT
ATOM      1  C   UNL A   1      36.457  21.050  25.379  1.00  0.00     0.274 C 
ENDROOT
BRANCH   1   2
ATOM      2  O   UNL A   1      35.670  22.188  25.775  1.00  0.00    -0.460 OA
BRANCH   2   3
ATOM      3  C   UNL A   1      34.428  21.928  26.272  1.00  0.00     0.330 C 
ATOM      4  O   UNL A   1      34.190  21.695  27.456  1.00  0.00    -0.250 OA
BRANCH   3   5
ATOM      5  C   UNL A   1      33.347  21.927  25.208  1.00  0.00     0.213 C 
ATOM      6  C   UNL A   1      32.556  20.637  25.024  1.00  0.00     0.046 C 
BRANCH   5   7
ATOM      7  N   UNL A   1      32.463  23.059  25.436  1.00  0.00    -0.258 N 
ATOM      8  C   UNL A   1      31.714  25.059  25.924  1.00  0.00     0.077 A 
ATOM      9  C   UNL A   1      30.684  24.097  25.874  1.00  0.00     0.149 A 
ATOM     10  C   UNL A   1      32.846  24.364  25.557  1.00  0.00     0.123 A 
ATOM     11  N   UNL A   1      31.132  22.882  25.557  1.00  0.00    -0.180 NA
BRANCH   8  12
ATOM     12  C   UNL A   1      31.652  26.459  26.258  1.00  0.00     0.254 C 
ATOM     13  N   UNL A   1      31.832  27.372  25.255  1.00  0.00    -0.344 N 
ATOM     14  H   UNL A   1      31.960  28.305  25.544  1.00  0.00     0.164 HD
ATOM     15  O   UNL A   1      31.431  26.854  27.399  1.00  0.00    -0.269 OA
BRANCH  13  16
ATOM     16  C   UNL A   1      31.860  27.143  23.812  1.00  0.00     0.130 C 
ATOM     17  C   UNL A   1      33.284  27.279  23.290  1.00  0.00     0.038 C 
BRANCH  16  18
ATOM     18  C   UNL A   1      30.912  28.109  23.149  1.00  0.00     0.084 A 
ATOM     19  N   UNL A   1      29.049  28.959  22.581  1.00  0.00    -0.273 N 
ATOM     20  C   UNL A   1      29.989  29.783  22.028  1.00  0.00     0.109 A 
ATOM     21  N   UNL A   1      29.589  27.917  23.238  1.00  0.00    -0.176 NA
ATOM     22  C   UNL A   1      31.211  29.261  22.381  1.00  0.00     0.047 A 
BRANCH  19  23
ATOM     23  C   UNL A   1      27.611  29.106  22.451  1.00  0.00     0.141 C 
ATOM     24  C   UNL A   1      26.781  28.467  23.554  1.00  0.00     0.029 C 
ENDBRANCH  19  23
ENDBRANCH  16  18
ENDBRANCH  13  16
ENDBRANCH   8  12
ENDBRANCH   5   7
ENDBRANCH   3   5
ENDBRANCH   2   3
ENDBRANCH   1   2
BRANCH   1  25
ATOM     25  C   UNL A   1      37.935  21.404  25.291  1.00  0.00     0.275 C 
BRANCH  25  26
ATOM     26  O   UNL A   1      38.260  22.487  26.161  1.00  0.00    -0.458 OA
BRANCH  26  27
ATOM     27  C   UNL A   1      39.505  22.425  26.683  1.00  0.00     0.338 C 
ATOM     28  O   UNL A   1      40.047  21.450  27.168  1.00  0.00    -0.246 OA
BRANCH  27  29
ATOM     29  C   UNL A   1      40.089  23.763  26.771  1.00  0.00     0.060 A 
ATOM     30  C   UNL A   1      41.335  23.861  27.401  1.00  0.00     0.016 A 
ATOM     31  C   UNL A   1      39.269  24.875  26.556  1.00  0.00     0.016 A 
ATOM     32  C   UNL A   1      41.668  25.047  28.012  1.00  0.00     0.010 A 
ATOM     33  C   UNL A   1      39.593  26.052  27.182  1.00  0.00     0.010 A 
ATOM     34  C   UNL A   1      40.742  26.092  27.971  1.00  0.00    -0.014 A 
BRANCH  34  35
ATOM     35  C   UNL A   1      41.003  27.259  28.781  1.00  0.00     0.031 A 
ATOM     36  C   UNL A   1      42.107  28.106  28.289  1.00  0.00     0.074 A 
ATOM     37  C   UNL A   1      40.189  27.611  29.792  1.00  0.00     0.049 A 
ATOM     38  N   UNL A   1      43.225  28.380  28.872  1.00  0.00    -0.248 NA
ATOM     39  C   UNL A   1      41.999  28.607  26.909  1.00  0.00     0.031 C 
ATOM     40  C   UNL A   1      38.888  27.031  30.144  1.00  0.00     0.029 A 
ATOM     41  N   UNL A   1      40.289  28.679  30.623  1.00  0.00    -0.354 N 
ATOM     42  C   UNL A   1      43.883  29.252  28.014  1.00  0.00     0.074 A 
ATOM     43  C   UNL A   1      43.177  29.207  26.759  1.00  0.00     0.031 C 
ATOM     44  C   UNL A   1      38.219  27.910  30.924  1.00  0.00     0.029 A 
ATOM     45  C   UNL A   1      39.089  29.038  31.217  1.00  0.00     0.049 A 
ATOM     46  H   UNL A   1      41.135  29.155  30.789  1.00  0.00     0.167 HD
ATOM     47  C   UNL A   1      44.807  30.145  28.459  1.00  0.00     0.031 A 
ATOM     48  C   UNL A   1      38.813  30.233  31.796  1.00  0.00     0.031 A 
ATOM     49  C   UNL A   1      45.277  29.837  29.782  1.00  0.00     0.049 A 
ATOM     50  C   UNL A   1      40.112  30.895  32.090  1.00  0.00     0.074 A 
ATOM     51  C   UNL A   1      45.889  28.743  30.360  1.00  0.00     0.029 A 
ATOM     52  N   UNL A   1      44.782  30.588  30.824  1.00  0.00    -0.354 N 
ATOM     53  N   UNL A   1      40.970  30.450  32.967  1.00  0.00    -0.248 NA
ATOM     54  C   UNL A   1      40.662  31.809  31.098  1.00  0.00     0.031 C 
ATOM     55  C   UNL A   1      45.319  28.645  31.662  1.00  0.00     0.029 A 
ATOM     56  C   UNL A   1      44.430  29.711  31.819  1.00  0.00     0.049 A 
ATOM     57  H   UNL A   1      44.697  31.568  30.850  1.00  0.00     0.167 HD
ATOM     58  C   UNL A   1      42.217  30.682  32.403  1.00  0.00     0.074 A 
ATOM     59  C   UNL A   1      41.968  31.611  31.305  1.00  0.00     0.031 C 
ATOM     60  C   UNL A   1      43.289  29.886  32.695  1.00  0.00     0.031 A 
BRANCH  47  61
ATOM     61  C   UNL A   1      44.975  31.505  27.836  1.00  0.00    -0.014 A 
ATOM     62  C   UNL A   1      46.176  31.815  27.172  1.00  0.00     0.010 A 
ATOM     63  C   UNL A   1      44.099  32.577  28.119  1.00  0.00     0.010 A 
ATOM     64  C   UNL A   1      46.504  33.139  26.858  1.00  0.00     0.020 A 
ATOM     65  C   UNL A   1      44.393  33.891  27.765  1.00  0.00     0.020 A 
ATOM     66  C   UNL A   1      45.615  34.169  27.171  1.00  0.00     0.054 A 
BRANCH  66  67
ATOM     67  S   UNL A   1      46.098  35.886  26.876  1.00  0.00     0.124 S 
ATOM     68  O   UNL A   1      46.618  36.276  28.183  1.00  0.00    -0.237 OA
ATOM     69  O   UNL A   1      47.088  35.751  25.812  1.00  0.00    -0.237 OA
ATOM     70  O   UNL A   1      44.847  36.529  26.479  1.00  0.00    -0.744 OA
ENDBRANCH  66  67
ENDBRANCH  47  61
BRANCH  48  71
ATOM     71  C   UNL A   1      37.522  30.966  31.763  1.00  0.00    -0.014 A 
ATOM     72  C   UNL A   1      36.842  31.278  32.954  1.00  0.00     0.010 A 
ATOM     73  C   UNL A   1      37.086  31.597  30.578  1.00  0.00     0.010 A 
ATOM     74  C   UNL A   1      35.810  32.233  32.967  1.00  0.00     0.020 A 
ATOM     75  C   UNL A   1      36.050  32.536  30.581  1.00  0.00     0.020 A 
ATOM     76  C   UNL A   1      35.434  32.870  31.782  1.00  0.00     0.054 A 
BRANCH  76  77
ATOM     77  S   UNL A   1      34.234  34.233  31.837  1.00  0.00     0.124 S 
ATOM     78  O   UNL A   1      33.303  33.785  32.868  1.00  0.00    -0.237 OA
ATOM     79  O   UNL A   1      35.070  35.376  32.192  1.00  0.00    -0.237 OA
ATOM     80  O   UNL A   1      33.691  34.265  30.480  1.00  0.00    -0.744 OA
ENDBRANCH  76  77
ENDBRANCH  48  71
BRANCH  60  81
ATOM     81  C   UNL A   1      43.180  28.915  33.850  1.00  0.00    -0.014 A 
ATOM     82  C   UNL A   1      43.494  29.256  35.181  1.00  0.00     0.010 A 
ATOM     83  C   UNL A   1      42.580  27.668  33.603  1.00  0.00     0.010 A 
ATOM     84  C   UNL A   1      43.237  28.361  36.230  1.00  0.00     0.020 A 
ATOM     85  C   UNL A   1      42.304  26.780  34.646  1.00  0.00     0.020 A 
ATOM     86  C   UNL A   1      42.641  27.128  35.955  1.00  0.00     0.054 A 
BRANCH  86  87
ATOM     87  S   UNL A   1      42.254  26.001  37.325  1.00  0.00     0.124 S 
ATOM     88  O   UNL A   1      42.416  24.687  36.709  1.00  0.00    -0.237 OA
ATOM     89  O   UNL A   1      43.256  26.353  38.329  1.00  0.00    -0.237 OA
ATOM     90  O   UNL A   1      40.880  26.349  37.686  1.00  0.00    -0.744 OA
ENDBRANCH  86  87
ENDBRANCH  60  81
ENDBRANCH  34  35
ENDBRANCH  27  29
ENDBRANCH  26  27
ENDBRANCH  25  26
ENDBRANCH   1  25
TORSDOF 19
ENDMDL
MODEL 3
REMARK VINA RESULT:     -11.2      4.041      7.185
REMARK SMILES CCn1ccc([C@@H](C)NC(=O)c2cnn([C@H](C)C(=O)OCCOC(=O)c3ccc(-c4c5nc(c(-c6ccc(S(=O)(=O)[O-])cc6)c6ccc([nH]6)c(-c6ccc(S(=O)(=O)[O-])cc6)c6nc(c(-c7ccc(S(=O)(=O)[O-])cc7)c7ccc4[nH]7)C=C6)C=C5)cc3)c2)n1
REMARK SMILES IDX 21 1 20 2 18 3 19 4 16 5 17 6 15 7 12 8 13 9 86 10 14 11
REMARK SMILES IDX 10 12 9 13 11 15 7 16 8 17 6 18 3 19 4 20 87 21 5 22 2 23
REMARK SMILES IDX 1 24 22 25 23 26 24 27 25 28 26 29 27 30 85 31 28 32 84 33
REMARK SMILES IDX 29 34 30 35 31 36 78 37 32 38 83 39 77 40 79 41 33 42 82 43
REMARK SMILES IDX 76 44 75 45 34 47 64 48 45 49 63 50 46 51 49 52 62 53 80 54
REMARK SMILES IDX 47 55 48 56 61 58 81 59 50 60 35 61 36 62 44 63 37 64 43 65
REMARK SMILES IDX 38 66 39 67 40 68 41 69 42 70 65 71 66 72 74 73 67 74 73 75
REMARK SMILES IDX 68 76 69 77 70 78 71 79 72 80 51 81 52 82 60 83 53 84 59 85
REMARK SMILES IDX 54 86 55 87 56 88 57 89 58 90
REMARK H PARENT 9 14 79 46 49 57
REMARK Flexibility Score: inf
ROOT
ATOM      1  C   UNL A   1      41.103  19.693  26.146  1.00  0.00     0.274 C 
ENDROOT
BRANCH   1   2
ATOM      2  O   UNL A   1      42.244  19.801  25.276  1.00  0.00    -0.460 OA
BRANCH   2   3
ATOM      3  C   UNL A   1      43.241  18.888  25.459  1.00  0.00     0.330 C 
ATOM      4  O   UNL A   1      43.071  17.670  25.467  1.00  0.00    -0.250 OA
BRANCH   3   5
ATOM      5  C   UNL A   1      44.600  19.524  25.681  1.00  0.00     0.213 C 
ATOM      6  C   UNL A   1      45.820  18.728  25.233  1.00  0.00     0.046 C 
BRANCH   5   7
ATOM      7  N   UNL A   1      44.595  20.856  25.099  1.00  0.00    -0.258 N 
ATOM      8  C   UNL A   1      44.343  23.015  24.824  1.00  0.00     0.077 A 
ATOM      9  C   UNL A   1      44.559  22.339  23.605  1.00  0.00     0.149 A 
ATOM     10  C   UNL A   1      44.451  22.029  25.781  1.00  0.00     0.123 A 
ATOM     11  N   UNL A   1      44.734  21.028  23.769  1.00  0.00    -0.180 NA
BRANCH   8  12
ATOM     12  C   UNL A   1      44.082  24.410  25.071  1.00  0.00     0.254 C 
ATOM     13  N   UNL A   1      45.061  25.155  25.668  1.00  0.00    -0.344 N 
ATOM     14  H   UNL A   1      44.789  26.048  25.981  1.00  0.00     0.164 HD
ATOM     15  O   UNL A   1      43.025  24.948  24.753  1.00  0.00    -0.269 OA
BRANCH  13  16
ATOM     16  C   UNL A   1      46.459  24.799  25.903  1.00  0.00     0.130 C 
ATOM     17  C   UNL A   1      46.691  24.549  27.388  1.00  0.00     0.038 C 
BRANCH  16  18
ATOM     18  C   UNL A   1      47.338  25.897  25.363  1.00  0.00     0.084 A 
ATOM     19  N   UNL A   1      48.464  26.987  23.928  1.00  0.00    -0.273 N 
ATOM     20  C   UNL A   1      48.578  27.711  25.082  1.00  0.00     0.109 A 
ATOM     21  N   UNL A   1      47.743  25.864  24.085  1.00  0.00    -0.176 NA
ATOM     22  C   UNL A   1      47.854  27.033  26.033  1.00  0.00     0.047 A 
BRANCH  19  23
ATOM     23  C   UNL A   1      49.087  27.313  22.659  1.00  0.00     0.141 C 
ATOM     24  C   UNL A   1      50.609  27.291  22.647  1.00  0.00     0.029 C 
ENDBRANCH  19  23
ENDBRANCH  16  18
ENDBRANCH  13  16
ENDBRANCH   8  12
ENDBRANCH   5   7
ENDBRANCH   3   5
ENDBRANCH   2   3
ENDBRANCH   1   2
BRANCH   1  25
ATOM     25  C   UNL A   1      41.282  20.539  27.399  1.00  0.00     0.275 C 
BRANCH  25  26
ATOM     26  O   UNL A   1      40.086  21.251  27.716  1.00  0.00    -0.458 OA
BRANCH  26  27
ATOM     27  C   UNL A   1      39.664  22.086  26.741  1.00  0.00     0.338 C 
ATOM     28  O   UNL A   1      38.872  21.832  25.852  1.00  0.00    -0.246 OA
BRANCH  27  29
ATOM     29  C   UNL A   1      40.433  23.329  26.763  1.00  0.00     0.060 A 
ATOM     30  C   UNL A   1      41.559  23.353  27.594  1.00  0.00     0.016 A 
ATOM     31  C   UNL A   1      39.849  24.496  26.260  1.00  0.00     0.016 A 
ATOM     32  C   UNL A   1      41.974  24.564  28.099  1.00  0.00     0.010 A 
ATOM     33  C   UNL A   1      40.252  25.701  26.777  1.00  0.00     0.010 A 
ATOM     34  C   UNL A   1      41.248  25.706  27.754  1.00  0.00    -0.014 A 
BRANCH  34  35
ATOM     35  C   UNL A   1      41.558  26.937  28.441  1.00  0.00     0.031 A 
ATOM     36  C   UNL A   1      42.808  27.585  27.996  1.00  0.00     0.074 A 
ATOM     37  C   UNL A   1      40.683  27.511  29.287  1.00  0.00     0.049 A 
ATOM     38  N   UNL A   1      43.877  27.813  28.682  1.00  0.00    -0.248 NA
ATOM     39  C   UNL A   1      42.922  27.900  26.563  1.00  0.00     0.031 C 
ATOM     40  C   UNL A   1      39.289  27.129  29.535  1.00  0.00     0.029 A 
ATOM     41  N   UNL A   1      40.820  28.665  29.987  1.00  0.00    -0.354 N 
ATOM     42  C   UNL A   1      44.732  28.482  27.816  1.00  0.00     0.074 A 
ATOM     43  C   UNL A   1      44.175  28.343  26.494  1.00  0.00     0.031 C 
ATOM     44  C   UNL A   1      38.649  28.174  30.109  1.00  0.00     0.029 A 
ATOM     45  C   UNL A   1      39.614  29.231  30.371  1.00  0.00     0.049 A 
ATOM     46  H   UNL A   1      41.694  29.065  30.201  1.00  0.00     0.167 HD
ATOM     47  C   UNL A   1      45.704  29.323  28.263  1.00  0.00     0.031 A 
ATOM     48  C   UNL A   1      39.425  30.516  30.758  1.00  0.00     0.031 A 
ATOM     49  C   UNL A   1      45.977  29.150  29.664  1.00  0.00     0.049 A 
ATOM     50  C   UNL A   1      40.754  31.068  31.134  1.00  0.00     0.074 A 
ATOM     51  C   UNL A   1      46.377  28.085  30.446  1.00  0.00     0.029 A 
ATOM     52  N   UNL A   1      45.463  30.086  30.533  1.00  0.00    -0.354 N 
ATOM     53  N   UNL A   1      41.443  30.657  32.164  1.00  0.00    -0.248 NA
ATOM     54  C   UNL A   1      41.523  31.772  30.118  1.00  0.00     0.031 C 
ATOM     55  C   UNL A   1      45.654  28.230  31.666  1.00  0.00     0.029 A 
ATOM     56  C   UNL A   1      44.893  29.397  31.574  1.00  0.00     0.049 A 
ATOM     57  H   UNL A   1      45.498  31.064  30.427  1.00  0.00     0.167 HD
ATOM     58  C   UNL A   1      42.766  30.673  31.742  1.00  0.00     0.074 A 
ATOM     59  C   UNL A   1      42.762  31.464  30.515  1.00  0.00     0.031 C 
ATOM     60  C   UNL A   1      43.690  29.813  32.266  1.00  0.00     0.031 A 
BRANCH  47  61
ATOM     61  C   UNL A   1      46.109  30.558  27.505  1.00  0.00    -0.014 A 
ATOM     62  C   UNL A   1      47.476  30.830  27.314  1.00  0.00     0.010 A 
ATOM     63  C   UNL A   1      45.197  31.596  27.214  1.00  0.00     0.010 A 
ATOM     64  C   UNL A   1      47.907  32.098  26.904  1.00  0.00     0.020 A 
ATOM     65  C   UNL A   1      45.613  32.844  26.755  1.00  0.00     0.020 A 
ATOM     66  C   UNL A   1      46.970  33.099  26.641  1.00  0.00     0.054 A 
BRANCH  66  67
ATOM     67  S   UNL A   1      47.538  34.767  26.232  1.00  0.00     0.124 S 
ATOM     68  O   UNL A   1      48.173  35.178  27.480  1.00  0.00    -0.237 OA
ATOM     69  O   UNL A   1      48.439  34.521  25.110  1.00  0.00    -0.237 OA
ATOM     70  O   UNL A   1      46.305  35.473  25.891  1.00  0.00    -0.744 OA
ENDBRANCH  66  67
ENDBRANCH  47  61
BRANCH  48  71
ATOM     71  C   UNL A   1      38.247  31.374  30.468  1.00  0.00    -0.014 A 
ATOM     72  C   UNL A   1      38.315  32.383  29.491  1.00  0.00     0.010 A 
ATOM     73  C   UNL A   1      36.971  31.030  30.964  1.00  0.00     0.010 A 
ATOM     74  C   UNL A   1      37.146  32.976  28.983  1.00  0.00     0.020 A 
ATOM     75  C   UNL A   1      35.805  31.626  30.474  1.00  0.00     0.020 A 
ATOM     76  C   UNL A   1      35.896  32.579  29.465  1.00  0.00     0.054 A 
BRANCH  76  77
ATOM     77  S   UNL A   1      34.387  33.210  28.675  1.00  0.00     0.124 S 
ATOM     78  O   UNL A   1      34.924  34.065  27.620  1.00  0.00    -0.237 OA
ATOM     79  O   UNL A   1      33.730  31.987  28.225  1.00  0.00    -0.237 OA
ATOM     80  O   UNL A   1      33.703  33.915  29.758  1.00  0.00    -0.744 OA
ENDBRANCH  76  77
ENDBRANCH  48  71
BRANCH  60  81
ATOM     81  C   UNL A   1      43.330  29.028  33.508  1.00  0.00    -0.014 A 
ATOM     82  C   UNL A   1      42.437  27.937  33.503  1.00  0.00     0.010 A 
ATOM     83  C   UNL A   1      44.047  29.299  34.686  1.00  0.00     0.010 A 
ATOM     84  C   UNL A   1      42.251  27.157  34.653  1.00  0.00     0.020 A 
ATOM     85  C   UNL A   1      43.881  28.513  35.830  1.00  0.00     0.020 A 
ATOM     86  C   UNL A   1      42.977  27.450  35.811  1.00  0.00     0.054 A 
BRANCH  86  87
ATOM     87  S   UNL A   1      42.777  26.398  37.276  1.00  0.00     0.124 S 
ATOM     88  O   UNL A   1      43.191  25.086  36.784  1.00  0.00    -0.237 OA
ATOM     89  O   UNL A   1      43.676  27.018  38.248  1.00  0.00    -0.237 OA
ATOM     90  O   UNL A   1      41.356  26.516  37.600  1.00  0.00    -0.744 OA
ENDBRANCH  86  87
ENDBRANCH  60  81
ENDBRANCH  34  35
ENDBRANCH  27  29
ENDBRANCH  26  27
ENDBRANCH  25  26
ENDBRANCH   1  25
TORSDOF 19
ENDMDL
