MODEL 1
REMARK VINA RESULT:     -11.1      0.000      0.000
REMARK SMILES CO[C@H]1C[C@@H](C(=O)OCCOC(=O)c2ccc(-c3c4nc(c(-c5ccc(S(=O)(=O)[O-])cc5)c5ccc([nH]5)c(-c5ccc(S(=O)(=O)[O-])cc5)c5nc(c(-c6ccc(S(=O)(=O)[O-])cc6)c6ccc3[nH]6)C=C5)C=C4)cc2)N(C(=O)Nc2cc(C)cc(F)c2)C1
REMARK SMILES IDX 10 1 9 2 8 3 6 4 7 5 5 6 3 7 4 8 86 9 74 10 2 11 1 12 75 13
REMARK SMILES IDX 76 14 77 15 78 17 79 18 85 19 80 20 83 21 81 22 82 23 84 24
REMARK SMILES IDX 11 25 12 26 13 27 14 28 15 29 73 30 16 31 72 32 17 33 18 34
REMARK SMILES IDX 19 35 66 36 20 37 71 38 65 39 67 40 21 41 70 42 64 43 63 44
REMARK SMILES IDX 22 46 52 47 33 48 51 49 34 50 37 51 50 52 68 53 35 54 36 55
REMARK SMILES IDX 49 57 69 58 38 59 23 60 24 61 32 62 25 63 31 64 26 65 27 66
REMARK SMILES IDX 28 67 29 68 30 69 53 70 54 71 62 72 55 73 61 74 56 75 57 76
REMARK SMILES IDX 58 77 59 78 60 79 39 80 40 81 48 82 41 83 47 84 42 85 43 86
REMARK SMILES IDX 44 87 45 88 46 89
REMARK H PARENT 77 16 67 45 37 56
REMARK Flexibility Score: inf
ROOT
ATOM      1  C   UNL A   1      32.732  30.845  26.969  1.00  0.00     0.275 C 
ENDROOT
BRANCH   1   2
ATOM      2  C   UNL A   1      32.148  29.449  27.244  1.00  0.00     0.274 C 
BRANCH   2   3
ATOM      3  O   UNL A   1      32.368  28.398  26.279  1.00  0.00    -0.461 OA
BRANCH   3   4
ATOM      4  C   UNL A   1      31.821  27.168  26.462  1.00  0.00     0.329 C 
ATOM      5  O   UNL A   1      30.660  26.940  26.747  1.00  0.00    -0.250 OA
BRANCH   4   6
ATOM      6  C   UNL A   1      32.853  26.084  26.151  1.00  0.00     0.199 C 
ATOM      7  C   UNL A   1      32.769  25.858  23.709  1.00  0.00     0.140 C 
ATOM      8  C   UNL A   1      33.495  26.590  24.849  1.00  0.00     0.071 C 
ATOM      9  C   UNL A   1      31.989  24.726  24.392  1.00  0.00     0.154 C 
ATOM     10  N   UNL A   1      32.281  24.776  25.822  1.00  0.00    -0.308 N 
BRANCH   7  11
ATOM     11  O   UNL A   1      31.831  26.590  22.923  1.00  0.00    -0.380 OA
ATOM     12  C   UNL A   1      30.456  26.384  23.162  1.00  0.00     0.195 C 
ENDBRANCH   7  11
BRANCH  10  13
ATOM     13  C   UNL A   1      32.097  23.629  26.537  1.00  0.00     0.322 C 
ATOM     14  O   UNL A   1      31.168  23.552  27.351  1.00  0.00    -0.248 OA
ATOM     15  N   UNL A   1      32.782  22.478  26.364  1.00  0.00    -0.308 N 
ATOM     16  H   UNL A   1      32.205  21.693  26.505  1.00  0.00     0.171 HD
BRANCH  15  17
ATOM     17  C   UNL A   1      34.092  22.097  26.038  1.00  0.00     0.046 A 
ATOM     18  C   UNL A   1      35.115  23.057  26.140  1.00  0.00     0.029 A 
ATOM     19  C   UNL A   1      34.413  20.880  25.472  1.00  0.00     0.065 A 
ATOM     20  C   UNL A   1      36.450  22.742  25.814  1.00  0.00    -0.046 A 
ATOM     21  C   UNL A   1      35.734  20.557  25.175  1.00  0.00     0.125 A 
ATOM     22  C   UNL A   1      37.530  23.780  25.770  1.00  0.00     0.044 C 
ATOM     23  C   UNL A   1      36.759  21.455  25.386  1.00  0.00     0.042 A 
ATOM     24  F   UNL A   1      36.035  19.375  24.624  1.00  0.00    -0.207 F 
ENDBRANCH  15  17
ENDBRANCH  10  13
ENDBRANCH   4   6
ENDBRANCH   3   4
ENDBRANCH   2   3
ENDBRANCH   1   2
BRANCH   1  25
ATOM     25  O   UNL A   1      34.169  30.876  27.057  1.00  0.00    -0.458 OA
BRANCH  25  26
ATOM     26  C   UNL A   1      34.650  31.133  28.301  1.00  0.00     0.338 C 
ATOM     27  O   UNL A   1      34.177  31.912  29.114  1.00  0.00    -0.246 OA
BRANCH  26  28
ATOM     28  C   UNL A   1      35.921  30.412  28.532  1.00  0.00     0.060 A 
ATOM     29  C   UNL A   1      36.348  30.042  29.814  1.00  0.00     0.016 A 
ATOM     30  C   UNL A   1      36.768  30.220  27.441  1.00  0.00     0.016 A 
ATOM     31  C   UNL A   1      37.614  29.467  30.006  1.00  0.00     0.010 A 
ATOM     32  C   UNL A   1      38.035  29.659  27.631  1.00  0.00     0.010 A 
ATOM     33  C   UNL A   1      38.478  29.298  28.916  1.00  0.00    -0.014 A 
BRANCH  33  34
ATOM     34  C   UNL A   1      39.909  28.927  29.092  1.00  0.00     0.031 A 
ATOM     35  C   UNL A   1      40.881  30.006  29.494  1.00  0.00     0.074 A 
ATOM     36  C   UNL A   1      40.360  27.686  28.836  1.00  0.00     0.049 A 
ATOM     37  N   UNL A   1      42.189  29.994  29.484  1.00  0.00    -0.248 NA
ATOM     38  C   UNL A   1      40.291  31.269  29.965  1.00  0.00     0.031 C 
ATOM     39  C   UNL A   1      39.524  26.527  28.527  1.00  0.00     0.029 A 
ATOM     40  N   UNL A   1      41.645  27.199  28.774  1.00  0.00    -0.354 N 
ATOM     41  C   UNL A   1      42.579  31.255  29.922  1.00  0.00     0.074 A 
ATOM     42  C   UNL A   1      41.370  32.005  30.183  1.00  0.00     0.031 C 
ATOM     43  C   UNL A   1      40.319  25.468  28.289  1.00  0.00     0.029 A 
ATOM     44  C   UNL A   1      41.719  25.887  28.365  1.00  0.00     0.049 A 
ATOM     45  H   UNL A   1      42.437  27.739  29.002  1.00  0.00     0.167 HD
ATOM     46  C   UNL A   1      43.831  31.749  30.077  1.00  0.00     0.031 A 
ATOM     47  C   UNL A   1      42.788  25.128  28.043  1.00  0.00     0.031 A 
ATOM     48  C   UNL A   1      45.031  31.006  29.790  1.00  0.00     0.049 A 
ATOM     49  C   UNL A   1      44.172  25.730  28.115  1.00  0.00     0.074 A 
ATOM     50  C   UNL A   1      46.347  31.421  29.888  1.00  0.00     0.029 A 
ATOM     51  N   UNL A   1      45.059  29.693  29.341  1.00  0.00    -0.354 N 
ATOM     52  N   UNL A   1      44.531  26.935  28.494  1.00  0.00    -0.248 NA
ATOM     53  C   UNL A   1      45.296  24.871  27.710  1.00  0.00     0.031 C 
ATOM     54  C   UNL A   1      47.168  30.382  29.439  1.00  0.00     0.029 A 
ATOM     55  C   UNL A   1      46.369  29.292  29.135  1.00  0.00     0.049 A 
ATOM     56  H   UNL A   1      44.266  29.129  29.192  1.00  0.00     0.167 HD
ATOM     57  C   UNL A   1      45.920  26.965  28.406  1.00  0.00     0.074 A 
ATOM     58  C   UNL A   1      46.339  25.657  27.946  1.00  0.00     0.031 C 
ATOM     59  C   UNL A   1      46.773  27.982  28.687  1.00  0.00     0.031 A 
BRANCH  46  60
ATOM     60  C   UNL A   1      43.963  33.184  30.518  1.00  0.00    -0.014 A 
ATOM     61  C   UNL A   1      43.853  34.249  29.606  1.00  0.00     0.010 A 
ATOM     62  C   UNL A   1      44.183  33.471  31.878  1.00  0.00     0.010 A 
ATOM     63  C   UNL A   1      44.005  35.570  30.039  1.00  0.00     0.020 A 
ATOM     64  C   UNL A   1      44.304  34.792  32.320  1.00  0.00     0.020 A 
ATOM     65  C   UNL A   1      44.232  35.834  31.394  1.00  0.00     0.054 A 
BRANCH  65  66
ATOM     66  S   UNL A   1      44.411  37.557  31.930  1.00  0.00     0.124 S 
ATOM     67  O   UNL A   1      44.250  38.283  30.673  1.00  0.00    -0.237 OA
ATOM     68  O   UNL A   1      43.318  37.710  32.887  1.00  0.00    -0.237 OA
ATOM     69  O   UNL A   1      45.751  37.604  32.509  1.00  0.00    -0.744 OA
ENDBRANCH  65  66
ENDBRANCH  46  60
BRANCH  47  70
ATOM     70  C   UNL A   1      42.600  23.723  27.573  1.00  0.00    -0.014 A 
ATOM     71  C   UNL A   1      42.675  22.644  28.472  1.00  0.00     0.010 A 
ATOM     72  C   UNL A   1      42.358  23.454  26.212  1.00  0.00     0.010 A 
ATOM     73  C   UNL A   1      42.525  21.328  28.020  1.00  0.00     0.020 A 
ATOM     74  C   UNL A   1      42.175  22.144  25.761  1.00  0.00     0.020 A 
ATOM     75  C   UNL A   1      42.269  21.087  26.667  1.00  0.00     0.054 A 
BRANCH  75  76
ATOM     76  S   UNL A   1      42.016  19.376  26.114  1.00  0.00     0.124 S 
ATOM     77  O   UNL A   1      42.956  19.272  25.002  1.00  0.00    -0.237 OA
ATOM     78  O   UNL A   1      42.359  18.606  27.308  1.00  0.00    -0.237 OA
ATOM     79  O   UNL A   1      40.602  19.340  25.745  1.00  0.00    -0.744 OA
ENDBRANCH  75  76
ENDBRANCH  47  70
BRANCH  59  80
ATOM     80  C   UNL A   1      48.253  27.715  28.567  1.00  0.00    -0.014 A 
ATOM     81  C   UNL A   1      48.986  27.128  29.612  1.00  0.00     0.010 A 
ATOM     82  C   UNL A   1      48.904  27.990  27.348  1.00  0.00     0.010 A 
ATOM     83  C   UNL A   1      50.347  26.844  29.451  1.00  0.00     0.020 A 
ATOM     84  C   UNL A   1      50.254  27.681  27.171  1.00  0.00     0.020 A 
ATOM     85  C   UNL A   1      50.972  27.121  28.229  1.00  0.00     0.054 A 
BRANCH  85  86
ATOM     86  S   UNL A   1      52.723  26.693  28.026  1.00  0.00     0.124 S 
ATOM     87  O   UNL A   1      53.252  27.882  27.362  1.00  0.00    -0.237 OA
ATOM     88  O   UNL A   1      53.166  26.494  29.405  1.00  0.00    -0.237 OA
ATOM     89  O   UNL A   1      52.694  25.484  27.206  1.00  0.00    -0.744 OA
ENDBRANCH  85  86
ENDBRANCH  59  80
ENDBRANCH  33  34
ENDBRANCH  26  28
ENDBRANCH  25  26
ENDBRANCH   1  25
TORSDOF 17
ENDMDL
MODEL 2
REMARK VINA RESULT:     -11.1      2.104      3.860
REMARK SMILES CO[C@H]1C[C@@H](C(=O)OCCOC(=O)c2ccc(-c3c4nc(c(-c5ccc(S(=O)(=O)[O-])cc5)c5ccc([nH]5)c(-c5ccc(S(=O)(=O)[O-])cc5)c5nc(c(-c6ccc(S(=O)(=O)[O-])cc6)c6ccc3[nH]6)C=C5)C=C4)cc2)N(C(=O)Nc2cc(C)cc(F)c2)C1
REMARK SMILES IDX 10 1 9 2 8 3 6 4 7 5 5 6 3 7 4 8 86 9 74 10 2 11 1 12 75 13
REMARK SMILES IDX 76 14 77 15 78 17 79 18 85 19 80 20 83 21 81 22 82 23 84 24
REMARK SMILES IDX 11 25 12 26 13 27 14 28 15 29 73 30 16 31 72 32 17 33 18 34
REMARK SMILES IDX 19 35 66 36 20 37 71 38 65 39 67 40 21 41 70 42 64 43 63 44
REMARK SMILES IDX 22 46 52 47 33 48 51 49 34 50 37 51 50 52 68 53 35 54 36 55
REMARK SMILES IDX 49 57 69 58 38 59 23 60 24 61 32 62 25 63 31 64 26 65 27 66
REMARK SMILES IDX 28 67 29 68 30 69 53 70 54 71 62 72 55 73 61 74 56 75 57 76
REMARK SMILES IDX 58 77 59 78 60 79 39 80 40 81 48 82 41 83 47 84 42 85 43 86
REMARK SMILES IDX 44 87 45 88 46 89
REMARK H PARENT 77 16 67 45 37 56
REMARK Flexibility Score: inf
ROOT
ATOM      1  C   UNL A   1      32.911  30.567  27.257  1.00  0.00     0.275 C 
ENDROOT
BRANCH   1   2
ATOM      2  C   UNL A   1      32.652  29.780  25.960  1.00  0.00     0.274 C 
BRANCH   2   3
ATOM      3  O   UNL A   1      32.755  28.341  25.985  1.00  0.00    -0.461 OA
BRANCH   3   4
ATOM      4  C   UNL A   1      31.731  27.584  26.457  1.00  0.00     0.329 C 
ATOM      5  O   UNL A   1      31.458  27.405  27.630  1.00  0.00    -0.250 OA
BRANCH   4   6
ATOM      6  C   UNL A   1      30.884  27.064  25.295  1.00  0.00     0.199 C 
ATOM      7  C   UNL A   1      31.322  24.651  25.265  1.00  0.00     0.140 C 
ATOM      8  C   UNL A   1      30.368  25.717  25.826  1.00  0.00     0.071 C 
ATOM      9  C   UNL A   1      32.130  25.368  24.175  1.00  0.00     0.154 C 
ATOM     10  N   UNL A   1      31.645  26.742  24.084  1.00  0.00    -0.308 N 
BRANCH   7  11
ATOM     11  O   UNL A   1      32.264  24.051  26.151  1.00  0.00    -0.380 OA
ATOM     12  C   UNL A   1      33.608  24.475  26.082  1.00  0.00     0.195 C 
ENDBRANCH   7  11
BRANCH  10  13
ATOM     13  C   UNL A   1      31.864  27.406  22.913  1.00  0.00     0.322 C 
ATOM     14  O   UNL A   1      32.984  27.372  22.386  1.00  0.00    -0.248 OA
ATOM     15  N   UNL A   1      30.921  28.030  22.176  1.00  0.00    -0.308 N 
ATOM     16  H   UNL A   1      31.100  27.938  21.212  1.00  0.00     0.171 HD
BRANCH  15  17
ATOM     17  C   UNL A   1      29.755  28.775  22.410  1.00  0.00     0.046 A 
ATOM     18  C   UNL A   1      29.818  30.175  22.296  1.00  0.00     0.029 A 
ATOM     19  C   UNL A   1      28.587  28.226  22.901  1.00  0.00     0.065 A 
ATOM     20  C   UNL A   1      28.687  30.981  22.532  1.00  0.00    -0.046 A 
ATOM     21  C   UNL A   1      27.460  29.017  23.108  1.00  0.00     0.125 A 
ATOM     22  C   UNL A   1      28.761  32.478  22.563  1.00  0.00     0.044 C 
ATOM     23  C   UNL A   1      27.483  30.377  22.882  1.00  0.00     0.042 A 
ATOM     24  F   UNL A   1      26.333  28.477  23.587  1.00  0.00    -0.207 F 
ENDBRANCH  15  17
ENDBRANCH  10  13
ENDBRANCH   4   6
ENDBRANCH   3   4
ENDBRANCH   2   3
ENDBRANCH   1   2
BRANCH   1  25
ATOM     25  O   UNL A   1      34.248  31.099  27.328  1.00  0.00    -0.458 OA
BRANCH  25  26
ATOM     26  C   UNL A   1      34.723  31.253  28.591  1.00  0.00     0.338 C 
ATOM     27  O   UNL A   1      34.234  31.946  29.471  1.00  0.00    -0.246 OA
BRANCH  26  28
ATOM     28  C   UNL A   1      36.010  30.541  28.759  1.00  0.00     0.060 A 
ATOM     29  C   UNL A   1      36.528  30.224  30.021  1.00  0.00     0.016 A 
ATOM     30  C   UNL A   1      36.776  30.305  27.618  1.00  0.00     0.016 A 
ATOM     31  C   UNL A   1      37.807  29.657  30.144  1.00  0.00     0.010 A 
ATOM     32  C   UNL A   1      38.055  29.753  27.739  1.00  0.00     0.010 A 
ATOM     33  C   UNL A   1      38.590  29.443  29.002  1.00  0.00    -0.014 A 
BRANCH  33  34
ATOM     34  C   UNL A   1      40.031  29.080  29.089  1.00  0.00     0.031 A 
ATOM     35  C   UNL A   1      41.023  30.168  29.411  1.00  0.00     0.074 A 
ATOM     36  C   UNL A   1      40.469  27.836  28.822  1.00  0.00     0.049 A 
ATOM     37  N   UNL A   1      42.328  30.159  29.316  1.00  0.00    -0.248 NA
ATOM     38  C   UNL A   1      40.460  31.435  29.902  1.00  0.00     0.031 C 
ATOM     39  C   UNL A   1      39.620  26.671  28.586  1.00  0.00     0.029 A 
ATOM     40  N   UNL A   1      41.749  27.352  28.684  1.00  0.00    -0.354 N 
ATOM     41  C   UNL A   1      42.741  31.428  29.708  1.00  0.00     0.074 A 
ATOM     42  C   UNL A   1      41.548  32.178  30.037  1.00  0.00     0.031 C 
ATOM     43  C   UNL A   1      40.402  25.610  28.312  1.00  0.00     0.029 A 
ATOM     44  C   UNL A   1      41.802  26.035  28.290  1.00  0.00     0.049 A 
ATOM     45  H   UNL A   1      42.553  27.898  28.851  1.00  0.00     0.167 HD
ATOM     46  C   UNL A   1      43.998  31.928  29.774  1.00  0.00     0.031 A 
ATOM     47  C   UNL A   1      42.851  25.274  27.910  1.00  0.00     0.031 A 
ATOM     48  C   UNL A   1      45.179  31.185  29.420  1.00  0.00     0.049 A 
ATOM     49  C   UNL A   1      44.234  25.882  27.882  1.00  0.00     0.074 A 
ATOM     50  C   UNL A   1      46.497  31.605  29.425  1.00  0.00     0.029 A 
ATOM     51  N   UNL A   1      45.184  29.865  28.989  1.00  0.00    -0.354 N 
ATOM     52  N   UNL A   1      44.612  27.093  28.219  1.00  0.00    -0.248 NA
ATOM     53  C   UNL A   1      45.332  25.020  27.417  1.00  0.00     0.031 C 
ATOM     54  C   UNL A   1      47.292  30.562  28.938  1.00  0.00     0.029 A 
ATOM     55  C   UNL A   1      46.478  29.465  28.704  1.00  0.00     0.049 A 
ATOM     56  H   UNL A   1      44.385  29.297  28.901  1.00  0.00     0.167 HD
ATOM     57  C   UNL A   1      45.993  27.127  28.040  1.00  0.00     0.074 A 
ATOM     58  C   UNL A   1      46.385  25.813  27.572  1.00  0.00     0.031 C 
ATOM     59  C   UNL A   1      46.858  28.150  28.249  1.00  0.00     0.031 A 
BRANCH  46  60
ATOM     60  C   UNL A   1      44.153  33.370  30.184  1.00  0.00    -0.014 A 
ATOM     61  C   UNL A   1      44.104  34.414  29.244  1.00  0.00     0.010 A 
ATOM     62  C   UNL A   1      44.332  33.686  31.544  1.00  0.00     0.010 A 
ATOM     63  C   UNL A   1      44.275  35.741  29.649  1.00  0.00     0.020 A 
ATOM     64  C   UNL A   1      44.473  35.013  31.958  1.00  0.00     0.020 A 
ATOM     65  C   UNL A   1      44.461  36.033  31.004  1.00  0.00     0.054 A 
BRANCH  65  66
ATOM     66  S   UNL A   1      44.668  37.764  31.505  1.00  0.00     0.124 S 
ATOM     67  O   UNL A   1      44.234  38.479  30.308  1.00  0.00    -0.237 OA
ATOM     68  O   UNL A   1      43.776  37.872  32.657  1.00  0.00    -0.237 OA
ATOM     69  O   UNL A   1      46.092  37.871  31.811  1.00  0.00    -0.744 OA
ENDBRANCH  65  66
ENDBRANCH  46  60
BRANCH  47  70
ATOM     70  C   UNL A   1      42.638  23.862  27.473  1.00  0.00    -0.014 A 
ATOM     71  C   UNL A   1      42.581  22.817  28.412  1.00  0.00     0.010 A 
ATOM     72  C   UNL A   1      42.505  23.552  26.106  1.00  0.00     0.010 A 
ATOM     73  C   UNL A   1      42.409  21.492  27.994  1.00  0.00     0.020 A 
ATOM     74  C   UNL A   1      42.300  22.234  25.686  1.00  0.00     0.020 A 
ATOM     75  C   UNL A   1      42.262  21.210  26.633  1.00  0.00     0.054 A 
BRANCH  75  76
ATOM     76  S   UNL A   1      41.978  19.493  26.120  1.00  0.00     0.124 S 
ATOM     77  O   UNL A   1      42.906  19.349  25.003  1.00  0.00    -0.237 OA
ATOM     78  O   UNL A   1      42.318  18.743  27.326  1.00  0.00    -0.237 OA
ATOM     79  O   UNL A   1      40.560  19.471  25.763  1.00  0.00    -0.744 OA
ENDBRANCH  75  76
ENDBRANCH  47  70
BRANCH  59  80
ATOM     80  C   UNL A   1      48.328  27.886  28.036  1.00  0.00    -0.014 A 
ATOM     81  C   UNL A   1      49.156  27.428  29.075  1.00  0.00     0.010 A 
ATOM     82  C   UNL A   1      48.871  28.027  26.744  1.00  0.00     0.010 A 
ATOM     83  C   UNL A   1      50.504  27.142  28.833  1.00  0.00     0.020 A 
ATOM     84  C   UNL A   1      50.208  27.714  26.490  1.00  0.00     0.020 A 
ATOM     85  C   UNL A   1      51.021  27.284  27.540  1.00  0.00     0.054 A 
BRANCH  85  86
ATOM     86  S   UNL A   1      52.757  26.854  27.240  1.00  0.00     0.124 S 
ATOM     87  O   UNL A   1      52.680  26.144  25.966  1.00  0.00    -0.237 OA
ATOM     88  O   UNL A   1      53.408  28.162  27.192  1.00  0.00    -0.237 OA
ATOM     89  O   UNL A   1      53.116  26.028  28.392  1.00  0.00    -0.744 OA
ENDBRANCH  85  86
ENDBRANCH  59  80
ENDBRANCH  33  34
ENDBRANCH  26  28
ENDBRANCH  25  26
ENDBRANCH   1  25
TORSDOF 17
ENDMDL
MODEL 3
REMARK VINA RESULT:     -10.8      1.143      1.755
REMARK SMILES CO[C@H]1C[C@@H](C(=O)OCCOC(=O)c2ccc(-c3c4nc(c(-c5ccc(S(=O)(=O)[O-])cc5)c5ccc([nH]5)c(-c5ccc(S(=O)(=O)[O-])cc5)c5nc(c(-c6ccc(S(=O)(=O)[O-])cc6)c6ccc3[nH]6)C=C5)C=C4)cc2)N(C(=O)Nc2cc(C)cc(F)c2)C1
REMARK SMILES IDX 10 1 9 2 8 3 6 4 7 5 5 6 3 7 4 8 86 9 74 10 2 11 1 12 75 13
REMARK SMILES IDX 76 14 77 15 78 17 79 18 85 19 80 20 83 21 81 22 82 23 84 24
REMARK SMILES IDX 11 25 12 26 13 27 14 28 15 29 73 30 16 31 72 32 17 33 18 34
REMARK SMILES IDX 19 35 66 36 20 37 71 38 65 39 67 40 21 41 70 42 64 43 63 44
REMARK SMILES IDX 22 46 52 47 33 48 51 49 34 50 37 51 50 52 68 53 35 54 36 55
REMARK SMILES IDX 49 57 69 58 38 59 23 60 24 61 32 62 25 63 31 64 26 65 27 66
REMARK SMILES IDX 28 67 29 68 30 69 53 70 54 71 62 72 55 73 61 74 56 75 57 76
REMARK SMILES IDX 58 77 59 78 60 79 39 80 40 81 48 82 41 83 47 84 42 85 43 86
REMARK SMILES IDX 44 87 45 88 46 89
REMARK H PARENT 77 16 67 45 37 56
REMARK Flexibility Score: inf
ROOT
ATOM      1  C   UNL A   1      32.796  30.493  26.780  1.00  0.00     0.275 C 
ENDROOT
BRANCH   1   2
ATOM      2  C   UNL A   1      32.037  29.209  26.404  1.00  0.00     0.274 C 
BRANCH   2   3
ATOM      3  O   UNL A   1      32.347  27.985  27.103  1.00  0.00    -0.461 OA
BRANCH   3   4
ATOM      4  C   UNL A   1      31.846  26.798  26.671  1.00  0.00     0.329 C 
ATOM      5  O   UNL A   1      30.667  26.506  26.599  1.00  0.00    -0.250 OA
BRANCH   4   6
ATOM      6  C   UNL A   1      32.980  25.900  26.176  1.00  0.00     0.199 C 
ATOM      7  C   UNL A   1      32.474  25.548  23.802  1.00  0.00     0.140 C 
ATOM      8  C   UNL A   1      33.258  26.449  24.768  1.00  0.00     0.071 C 
ATOM      9  C   UNL A   1      32.058  24.329  24.638  1.00  0.00     0.154 C 
ATOM     10  N   UNL A   1      32.604  24.497  25.982  1.00  0.00    -0.308 N 
BRANCH   7  11
ATOM     11  O   UNL A   1      31.287  26.065  23.206  1.00  0.00    -0.380 OA
ATOM     12  C   UNL A   1      30.065  25.415  23.482  1.00  0.00     0.195 C 
ENDBRANCH   7  11
BRANCH  10  13
ATOM     13  C   UNL A   1      32.773  23.370  26.732  1.00  0.00     0.322 C 
ATOM     14  O   UNL A   1      31.974  23.111  27.642  1.00  0.00    -0.248 OA
ATOM     15  N   UNL A   1      33.693  22.408  26.508  1.00  0.00    -0.308 N 
ATOM     16  H   UNL A   1      33.337  21.515  26.723  1.00  0.00     0.171 HD
BRANCH  15  17
ATOM     17  C   UNL A   1      35.017  22.334  26.051  1.00  0.00     0.046 A 
ATOM     18  C   UNL A   1      35.499  21.097  25.587  1.00  0.00     0.029 A 
ATOM     19  C   UNL A   1      35.925  23.366  26.177  1.00  0.00     0.065 A 
ATOM     20  C   UNL A   1      36.824  20.952  25.128  1.00  0.00    -0.046 A 
ATOM     21  C   UNL A   1      37.226  23.234  25.699  1.00  0.00     0.125 A 
ATOM     22  C   UNL A   1      37.407  19.619  24.769  1.00  0.00     0.044 C 
ATOM     23  C   UNL A   1      37.668  22.058  25.133  1.00  0.00     0.042 A 
ATOM     24  F   UNL A   1      38.100  24.239  25.828  1.00  0.00    -0.207 F 
ENDBRANCH  15  17
ENDBRANCH  10  13
ENDBRANCH   4   6
ENDBRANCH   3   4
ENDBRANCH   2   3
ENDBRANCH   1   2
BRANCH   1  25
ATOM     25  O   UNL A   1      33.698  30.304  27.887  1.00  0.00    -0.458 OA
BRANCH  25  26
ATOM     26  C   UNL A   1      34.803  31.092  27.850  1.00  0.00     0.338 C 
ATOM     27  O   UNL A   1      34.849  32.261  27.496  1.00  0.00    -0.246 OA
BRANCH  26  28
ATOM     28  C   UNL A   1      36.014  30.316  28.201  1.00  0.00     0.060 A 
ATOM     29  C   UNL A   1      36.198  29.755  29.471  1.00  0.00     0.016 A 
ATOM     30  C   UNL A   1      37.048  30.266  27.267  1.00  0.00     0.016 A 
ATOM     31  C   UNL A   1      37.410  29.130  29.805  1.00  0.00     0.010 A 
ATOM     32  C   UNL A   1      38.260  29.655  27.601  1.00  0.00     0.010 A 
ATOM     33  C   UNL A   1      38.461  29.101  28.878  1.00  0.00    -0.014 A 
BRANCH  33  34
ATOM     34  C   UNL A   1      39.836  28.676  29.256  1.00  0.00     0.031 A 
ATOM     35  C   UNL A   1      40.746  29.693  29.896  1.00  0.00     0.074 A 
ATOM     36  C   UNL A   1      40.302  27.445  28.981  1.00  0.00     0.049 A 
ATOM     37  N   UNL A   1      42.038  29.643  30.099  1.00  0.00    -0.248 NA
ATOM     38  C   UNL A   1      40.107  30.934  30.361  1.00  0.00     0.031 C 
ATOM     39  C   UNL A   1      39.511  26.338  28.449  1.00  0.00     0.029 A 
ATOM     40  N   UNL A   1      41.572  26.926  29.092  1.00  0.00    -0.354 N 
ATOM     41  C   UNL A   1      42.371  30.857  30.692  1.00  0.00     0.074 A 
ATOM     42  C   UNL A   1      41.148  31.620  30.810  1.00  0.00     0.031 C 
ATOM     43  C   UNL A   1      40.316  25.276  28.263  1.00  0.00     0.029 A 
ATOM     44  C   UNL A   1      41.691  25.647  28.599  1.00  0.00     0.049 A 
ATOM     45  H   UNL A   1      42.324  27.424  29.488  1.00  0.00     0.167 HD
ATOM     46  C   UNL A   1      43.588  31.300  31.089  1.00  0.00     0.031 A 
ATOM     47  C   UNL A   1      42.786  24.883  28.398  1.00  0.00     0.031 A 
ATOM     48  C   UNL A   1      44.806  30.546  30.944  1.00  0.00     0.049 A 
ATOM     49  C   UNL A   1      44.149  25.438  28.742  1.00  0.00     0.074 A 
ATOM     50  C   UNL A   1      46.094  30.914  31.288  1.00  0.00     0.029 A 
ATOM     51  N   UNL A   1      44.887  29.270  30.404  1.00  0.00    -0.354 N 
ATOM     52  N   UNL A   1      44.459  26.599  29.268  1.00  0.00    -0.248 NA
ATOM     53  C   UNL A   1      45.309  24.579  28.461  1.00  0.00     0.031 C 
ATOM     54  C   UNL A   1      46.961  29.888  30.900  1.00  0.00     0.029 A 
ATOM     55  C   UNL A   1      46.205  28.847  30.385  1.00  0.00     0.049 A 
ATOM     56  H   UNL A   1      44.119  28.743  30.084  1.00  0.00     0.167 HD
ATOM     57  C   UNL A   1      45.845  26.596  29.412  1.00  0.00     0.074 A 
ATOM     58  C   UNL A   1      46.312  25.314  28.925  1.00  0.00     0.031 C 
ATOM     59  C   UNL A   1      46.656  27.563  29.907  1.00  0.00     0.031 A 
BRANCH  46  60
ATOM     60  C   UNL A   1      43.669  32.694  31.656  1.00  0.00    -0.014 A 
ATOM     61  C   UNL A   1      43.634  32.931  33.041  1.00  0.00     0.010 A 
ATOM     62  C   UNL A   1      43.805  33.788  30.781  1.00  0.00     0.010 A 
ATOM     63  C   UNL A   1      43.687  34.238  33.538  1.00  0.00     0.020 A 
ATOM     64  C   UNL A   1      43.889  35.093  31.274  1.00  0.00     0.020 A 
ATOM     65  C   UNL A   1      43.812  35.312  32.650  1.00  0.00     0.054 A 
BRANCH  65  66
ATOM     66  S   UNL A   1      43.891  36.994  33.322  1.00  0.00     0.124 S 
ATOM     67  O   UNL A   1      45.096  36.935  34.145  1.00  0.00    -0.237 OA
ATOM     68  O   UNL A   1      43.995  37.815  32.117  1.00  0.00    -0.237 OA
ATOM     69  O   UNL A   1      42.639  37.135  34.060  1.00  0.00    -0.744 OA
ENDBRANCH  65  66
ENDBRANCH  46  60
BRANCH  47  70
ATOM     70  C   UNL A   1      42.655  23.523  27.794  1.00  0.00    -0.014 A 
ATOM     71  C   UNL A   1      42.306  22.413  28.584  1.00  0.00     0.010 A 
ATOM     72  C   UNL A   1      42.894  23.329  26.420  1.00  0.00     0.010 A 
ATOM     73  C   UNL A   1      42.212  21.137  28.017  1.00  0.00     0.020 A 
ATOM     74  C   UNL A   1      42.769  22.062  25.843  1.00  0.00     0.020 A 
ATOM     75  C   UNL A   1      42.437  20.971  26.648  1.00  0.00     0.054 A 
BRANCH  75  76
ATOM     76  S   UNL A   1      42.248  19.317  25.923  1.00  0.00     0.124 S 
ATOM     77  O   UNL A   1      42.784  18.458  26.975  1.00  0.00    -0.237 OA
ATOM     78  O   UNL A   1      40.806  19.231  25.708  1.00  0.00    -0.237 OA
ATOM     79  O   UNL A   1      43.049  19.384  24.702  1.00  0.00    -0.744 OA
ENDBRANCH  75  76
ENDBRANCH  47  70
BRANCH  59  80
ATOM     80  C   UNL A   1      48.131  27.263  30.010  1.00  0.00    -0.014 A 
ATOM     81  C   UNL A   1      49.025  27.575  28.972  1.00  0.00     0.010 A 
ATOM     82  C   UNL A   1      48.640  26.726  31.209  1.00  0.00     0.010 A 
ATOM     83  C   UNL A   1      50.395  27.333  29.119  1.00  0.00     0.020 A 
ATOM     84  C   UNL A   1      50.010  26.510  31.373  1.00  0.00     0.020 A 
ATOM     85  C   UNL A   1      50.879  26.803  30.321  1.00  0.00     0.054 A 
BRANCH  85  86
ATOM     86  S   UNL A   1      52.666  26.549  30.508  1.00  0.00     0.124 S 
ATOM     87  O   UNL A   1      53.104  27.840  31.034  1.00  0.00    -0.237 OA
ATOM     88  O   UNL A   1      52.733  25.432  31.449  1.00  0.00    -0.237 OA
ATOM     89  O   UNL A   1      53.117  26.242  29.153  1.00  0.00    -0.744 OA
ENDBRANCH  85  86
ENDBRANCH  59  80
ENDBRANCH  33  34
ENDBRANCH  26  28
ENDBRANCH  25  26
ENDBRANCH   1  25
TORSDOF 17
ENDMDL
