MODEL 1
REMARK VINA RESULT:     -10.0      0.000      0.000
REMARK SMILES C[C@H](CN(C)C(=O)CCc1nc2ccccc2o1)C(=O)OCCOC(=O)c1ccc(-c2c3nc(c(-c4ccc(S(=O)(=O)[O-])cc4)c4ccc([nH]4)c(-c4ccc(S(=O)(=O)[O-])cc4)c4nc(c(-c5ccc(S(=O)(=O)[O-])cc5)c5ccc2[nH]5)C=C4)C=C3)cc1
REMARK SMILES IDX 21 1 19 2 20 3 2 4 1 5 3 6 4 7 5 8 6 9 7 10 8 11 9 12 10 13
REMARK SMILES IDX 11 14 18 15 12 16 17 17 13 18 16 19 14 20 15 21 22 22 23 23
REMARK SMILES IDX 24 24 25 25 26 26 27 27 28 28 86 29 29 30 85 31 30 32 31 33
REMARK SMILES IDX 32 34 79 35 33 36 84 37 78 38 80 39 34 40 83 41 77 42 76 43
REMARK SMILES IDX 35 45 65 46 46 47 64 48 47 49 50 50 63 51 81 52 48 53 49 54
REMARK SMILES IDX 62 56 82 57 51 58 36 59 37 60 45 61 38 62 44 63 39 64 40 65
REMARK SMILES IDX 41 66 42 67 43 68 66 69 67 70 75 71 68 72 74 73 69 74 70 75
REMARK SMILES IDX 71 76 72 77 73 78 52 79 53 80 61 81 54 82 60 83 55 84 56 85
REMARK SMILES IDX 57 86 58 87 59 88
REMARK H PARENT 80 44 50 55
REMARK Flexibility Score: inf
ROOT
ATOM      1  O   UNL A   1      37.178  21.447  25.152  1.00  0.00    -0.462 OA
ENDROOT
BRANCH   1   2
ATOM      2  C   UNL A   1      36.592  22.670  25.257  1.00  0.00     0.310 C 
ATOM      3  O   UNL A   1      36.637  23.368  26.265  1.00  0.00    -0.252 OA
BRANCH   2   4
ATOM      4  C   UNL A   1      35.746  23.045  24.055  1.00  0.00     0.115 C 
ATOM      5  C   UNL A   1      36.653  22.960  22.821  1.00  0.00     0.022 C 
BRANCH   4   6
ATOM      6  C   UNL A   1      35.018  24.399  24.191  1.00  0.00     0.134 C 
BRANCH   6   7
ATOM      7  N   UNL A   1      33.571  24.389  23.879  1.00  0.00    -0.345 N 
ATOM      8  C   UNL A   1      33.240  24.166  22.475  1.00  0.00     0.146 C 
BRANCH   7   9
ATOM      9  C   UNL A   1      32.618  24.270  24.881  1.00  0.00     0.222 C 
ATOM     10  O   UNL A   1      31.568  24.914  24.868  1.00  0.00    -0.275 OA
BRANCH   9  11
ATOM     11  C   UNL A   1      32.829  23.251  25.993  1.00  0.00     0.110 C 
BRANCH  11  12
ATOM     12  C   UNL A   1      31.899  22.046  25.827  1.00  0.00     0.107 C 
BRANCH  12  13
ATOM     13  C   UNL A   1      32.591  20.925  25.142  1.00  0.00     0.195 A 
ATOM     14  N   UNL A   1      33.725  20.351  25.480  1.00  0.00    -0.214 NA
ATOM     15  O   UNL A   1      31.917  20.311  24.118  1.00  0.00    -0.441 OA
ATOM     16  C   UNL A   1      33.788  19.247  24.672  1.00  0.00     0.109 A 
ATOM     17  C   UNL A   1      32.695  19.227  23.823  1.00  0.00     0.154 A 
ATOM     18  C   UNL A   1      34.709  18.195  24.629  1.00  0.00     0.032 A 
ATOM     19  C   UNL A   1      32.449  18.234  22.886  1.00  0.00     0.049 A 
ATOM     20  C   UNL A   1      34.486  17.161  23.712  1.00  0.00     0.003 A 
ATOM     21  C   UNL A   1      33.380  17.186  22.852  1.00  0.00     0.004 A 
ENDBRANCH  12  13
ENDBRANCH  11  12
ENDBRANCH   9  11
ENDBRANCH   7   9
ENDBRANCH   6   7
ENDBRANCH   4   6
ENDBRANCH   2   4
ENDBRANCH   1   2
BRANCH   1  22
ATOM     22  C   UNL A   1      38.559  21.390  25.566  1.00  0.00     0.274 C 
BRANCH  22  23
ATOM     23  C   UNL A   1      39.143  19.975  25.534  1.00  0.00     0.275 C 
BRANCH  23  24
ATOM     24  O   UNL A   1      40.153  19.781  26.538  1.00  0.00    -0.458 OA
BRANCH  24  25
ATOM     25  C   UNL A   1      41.426  19.917  26.101  1.00  0.00     0.338 C 
ATOM     26  O   UNL A   1      42.050  19.144  25.395  1.00  0.00    -0.246 OA
BRANCH  25  27
ATOM     27  C   UNL A   1      41.948  21.226  26.521  1.00  0.00     0.060 A 
ATOM     28  C   UNL A   1      42.200  22.175  25.532  1.00  0.00     0.016 A 
ATOM     29  C   UNL A   1      42.275  21.486  27.852  1.00  0.00     0.016 A 
ATOM     30  C   UNL A   1      42.794  23.389  25.861  1.00  0.00     0.010 A 
ATOM     31  C   UNL A   1      42.857  22.716  28.186  1.00  0.00     0.010 A 
ATOM     32  C   UNL A   1      43.125  23.673  27.191  1.00  0.00    -0.014 A 
BRANCH  32  33
ATOM     33  C   UNL A   1      43.722  24.986  27.538  1.00  0.00     0.031 A 
ATOM     34  C   UNL A   1      42.865  26.098  28.068  1.00  0.00     0.074 A 
ATOM     35  C   UNL A   1      45.045  25.170  27.363  1.00  0.00     0.049 A 
ATOM     36  N   UNL A   1      43.188  27.346  28.296  1.00  0.00    -0.248 NA
ATOM     37  C   UNL A   1      41.465  25.770  28.383  1.00  0.00     0.031 C 
ATOM     38  C   UNL A   1      45.987  24.148  26.901  1.00  0.00     0.029 A 
ATOM     39  N   UNL A   1      45.825  26.286  27.541  1.00  0.00    -0.354 N 
ATOM     40  C   UNL A   1      42.028  27.962  28.750  1.00  0.00     0.074 A 
ATOM     41  C   UNL A   1      40.992  26.950  28.769  1.00  0.00     0.031 C 
ATOM     42  C   UNL A   1      47.213  24.687  26.818  1.00  0.00     0.029 A 
ATOM     43  C   UNL A   1      47.135  26.102  27.166  1.00  0.00     0.049 A 
ATOM     44  H   UNL A   1      45.479  27.134  27.901  1.00  0.00     0.167 HD
ATOM     45  C   UNL A   1      41.850  29.254  29.112  1.00  0.00     0.031 A 
ATOM     46  C   UNL A   1      48.148  26.982  27.065  1.00  0.00     0.031 A 
ATOM     47  C   UNL A   1      42.891  30.249  29.110  1.00  0.00     0.049 A 
ATOM     48  C   UNL A   1      47.902  28.426  27.406  1.00  0.00     0.074 A 
ATOM     49  C   UNL A   1      42.814  31.574  29.502  1.00  0.00     0.029 A 
ATOM     50  N   UNL A   1      44.194  30.032  28.691  1.00  0.00    -0.354 N 
ATOM     51  N   UNL A   1      46.803  28.991  27.846  1.00  0.00    -0.248 NA
ATOM     52  C   UNL A   1      49.027  29.352  27.224  1.00  0.00     0.031 C 
ATOM     53  C   UNL A   1      44.057  32.172  29.271  1.00  0.00     0.029 A 
ATOM     54  C   UNL A   1      44.921  31.207  28.779  1.00  0.00     0.049 A 
ATOM     55  H   UNL A   1      44.551  29.169  28.378  1.00  0.00     0.167 HD
ATOM     56  C   UNL A   1      47.106  30.338  27.997  1.00  0.00     0.074 A 
ATOM     57  C   UNL A   1      48.497  30.500  27.626  1.00  0.00     0.031 C 
ATOM     58  C   UNL A   1      46.303  31.352  28.399  1.00  0.00     0.031 A 
BRANCH  45  59
ATOM     59  C   UNL A   1      40.467  29.693  29.510  1.00  0.00    -0.014 A 
ATOM     60  C   UNL A   1      40.128  29.908  30.857  1.00  0.00     0.010 A 
ATOM     61  C   UNL A   1      39.522  29.986  28.508  1.00  0.00     0.010 A 
ATOM     62  C   UNL A   1      38.862  30.394  31.196  1.00  0.00     0.020 A 
ATOM     63  C   UNL A   1      38.261  30.488  28.843  1.00  0.00     0.020 A 
ATOM     64  C   UNL A   1      37.936  30.682  30.186  1.00  0.00     0.054 A 
BRANCH  64  65
ATOM     65  S   UNL A   1      36.319  31.359  30.653  1.00  0.00     0.124 S 
ATOM     66  O   UNL A   1      35.912  30.453  31.725  1.00  0.00    -0.237 OA
ATOM     67  O   UNL A   1      36.649  32.718  31.073  1.00  0.00    -0.237 OA
ATOM     68  O   UNL A   1      35.533  31.262  29.425  1.00  0.00    -0.744 OA
ENDBRANCH  64  65
ENDBRANCH  45  59
BRANCH  46  69
ATOM     69  C   UNL A   1      49.468  26.541  26.540  1.00  0.00    -0.014 A 
ATOM     70  C   UNL A   1      50.389  25.877  27.368  1.00  0.00     0.010 A 
ATOM     71  C   UNL A   1      49.813  26.799  25.201  1.00  0.00     0.010 A 
ATOM     72  C   UNL A   1      51.642  25.501  26.873  1.00  0.00     0.020 A 
ATOM     73  C   UNL A   1      51.052  26.401  24.694  1.00  0.00     0.020 A 
ATOM     74  C   UNL A   1      51.967  25.769  25.539  1.00  0.00     0.054 A 
BRANCH  74  75
ATOM     75  S   UNL A   1      53.585  25.251  24.903  1.00  0.00     0.124 S 
ATOM     76  O   UNL A   1      53.568  23.817  25.172  1.00  0.00    -0.237 OA
ATOM     77  O   UNL A   1      53.511  25.630  23.494  1.00  0.00    -0.237 OA
ATOM     78  O   UNL A   1      54.529  26.029  25.701  1.00  0.00    -0.744 OA
ENDBRANCH  74  75
ENDBRANCH  46  69
BRANCH  58  79
ATOM     79  C   UNL A   1      46.910  32.726  28.463  1.00  0.00    -0.014 A 
ATOM     80  C   UNL A   1      46.813  33.607  27.373  1.00  0.00     0.010 A 
ATOM     81  C   UNL A   1      47.536  33.160  29.645  1.00  0.00     0.010 A 
ATOM     82  C   UNL A   1      47.353  34.893  27.453  1.00  0.00     0.020 A 
ATOM     83  C   UNL A   1      48.058  34.453  29.739  1.00  0.00     0.020 A 
ATOM     84  C   UNL A   1      47.973  35.307  28.637  1.00  0.00     0.054 A 
BRANCH  84  85
ATOM     85  S   UNL A   1      48.620  36.999  28.738  1.00  0.00     0.124 S 
ATOM     86  O   UNL A   1      47.398  37.796  28.674  1.00  0.00    -0.237 OA
ATOM     87  O   UNL A   1      49.308  37.006  30.027  1.00  0.00    -0.237 OA
ATOM     88  O   UNL A   1      49.494  37.104  27.572  1.00  0.00    -0.744 OA
ENDBRANCH  84  85
ENDBRANCH  58  79
ENDBRANCH  32  33
ENDBRANCH  25  27
ENDBRANCH  24  25
ENDBRANCH  23  24
ENDBRANCH  22  23
ENDBRANCH   1  22
TORSDOF 20
ENDMDL
MODEL 2
REMARK VINA RESULT:      -9.9      5.966     10.704
REMARK SMILES C[C@H](CN(C)C(=O)CCc1nc2ccccc2o1)C(=O)OCCOC(=O)c1ccc(-c2c3nc(c(-c4ccc(S(=O)(=O)[O-])cc4)c4ccc([nH]4)c(-c4ccc(S(=O)(=O)[O-])cc4)c4nc(c(-c5ccc(S(=O)(=O)[O-])cc5)c5ccc2[nH]5)C=C4)C=C3)cc1
REMARK SMILES IDX 21 1 19 2 20 3 2 4 1 5 3 6 4 7 5 8 6 9 7 10 8 11 9 12 10 13
REMARK SMILES IDX 11 14 18 15 12 16 17 17 13 18 16 19 14 20 15 21 22 22 23 23
REMARK SMILES IDX 24 24 25 25 26 26 27 27 28 28 86 29 29 30 85 31 30 32 31 33
REMARK SMILES IDX 32 34 79 35 33 36 84 37 78 38 80 39 34 40 83 41 77 42 76 43
REMARK SMILES IDX 35 45 65 46 46 47 64 48 47 49 50 50 63 51 81 52 48 53 49 54
REMARK SMILES IDX 62 56 82 57 51 58 36 59 37 60 45 61 38 62 44 63 39 64 40 65
REMARK SMILES IDX 41 66 42 67 43 68 66 69 67 70 75 71 68 72 74 73 69 74 70 75
REMARK SMILES IDX 71 76 72 77 73 78 52 79 53 80 61 81 54 82 60 83 55 84 56 85
REMARK SMILES IDX 57 86 58 87 59 88
REMARK H PARENT 80 44 50 55
REMARK Flexibility Score: inf
ROOT
ATOM      1  O   UNL A   1      38.885  22.176  26.076  1.00  0.00    -0.462 OA
ENDROOT
BRANCH   1   2
ATOM      2  C   UNL A   1      37.965  23.175  26.003  1.00  0.00     0.310 C 
ATOM      3  O   UNL A   1      38.083  24.260  26.563  1.00  0.00    -0.252 OA
BRANCH   2   4
ATOM      4  C   UNL A   1      36.694  22.779  25.276  1.00  0.00     0.115 C 
ATOM      5  C   UNL A   1      37.080  21.720  24.237  1.00  0.00     0.022 C 
BRANCH   4   6
ATOM      6  C   UNL A   1      35.908  23.967  24.682  1.00  0.00     0.134 C 
BRANCH   6   7
ATOM      7  N   UNL A   1      34.600  24.256  25.310  1.00  0.00    -0.345 N 
ATOM      8  C   UNL A   1      34.250  25.671  25.392  1.00  0.00     0.146 C 
BRANCH   7   9
ATOM      9  C   UNL A   1      33.654  23.259  25.499  1.00  0.00     0.222 C 
ATOM     10  O   UNL A   1      33.213  22.973  26.613  1.00  0.00    -0.275 OA
BRANCH   9  11
ATOM     11  C   UNL A   1      33.074  22.544  24.286  1.00  0.00     0.110 C 
BRANCH  11  12
ATOM     12  C   UNL A   1      31.884  21.662  24.677  1.00  0.00     0.107 C 
BRANCH  12  13
ATOM     13  C   UNL A   1      32.189  20.225  24.460  1.00  0.00     0.195 A 
ATOM     14  N   UNL A   1      32.582  19.644  23.347  1.00  0.00    -0.214 NA
ATOM     15  O   UNL A   1      32.202  19.418  25.567  1.00  0.00    -0.441 OA
ATOM     16  C   UNL A   1      32.939  18.383  23.744  1.00  0.00     0.109 A 
ATOM     17  C   UNL A   1      32.691  18.232  25.097  1.00  0.00     0.154 A 
ATOM     18  C   UNL A   1      33.522  17.328  23.032  1.00  0.00     0.032 A 
ATOM     19  C   UNL A   1      32.954  17.076  25.818  1.00  0.00     0.049 A 
ATOM     20  C   UNL A   1      33.823  16.151  23.727  1.00  0.00     0.003 A 
ATOM     21  C   UNL A   1      33.537  16.027  25.092  1.00  0.00     0.004 A 
ENDBRANCH  12  13
ENDBRANCH  11  12
ENDBRANCH   9  11
ENDBRANCH   7   9
ENDBRANCH   6   7
ENDBRANCH   4   6
ENDBRANCH   2   4
ENDBRANCH   1   2
BRANCH   1  22
ATOM     22  C   UNL A   1      39.972  22.410  26.997  1.00  0.00     0.274 C 
BRANCH  22  23
ATOM     23  C   UNL A   1      41.287  22.775  26.300  1.00  0.00     0.275 C 
BRANCH  23  24
ATOM     24  O   UNL A   1      41.898  23.943  26.872  1.00  0.00    -0.458 OA
BRANCH  24  25
ATOM     25  C   UNL A   1      41.490  25.119  26.341  1.00  0.00     0.338 C 
ATOM     26  O   UNL A   1      41.230  25.350  25.172  1.00  0.00    -0.246 OA
BRANCH  25  27
ATOM     27  C   UNL A   1      41.294  26.099  27.419  1.00  0.00     0.060 A 
ATOM     28  C   UNL A   1      42.150  27.197  27.466  1.00  0.00     0.016 A 
ATOM     29  C   UNL A   1      40.346  25.896  28.423  1.00  0.00     0.016 A 
ATOM     30  C   UNL A   1      42.078  28.097  28.525  1.00  0.00     0.010 A 
ATOM     31  C   UNL A   1      40.262  26.813  29.479  1.00  0.00     0.010 A 
ATOM     32  C   UNL A   1      41.131  27.916  29.539  1.00  0.00    -0.014 A 
BRANCH  32  33
ATOM     33  C   UNL A   1      41.035  28.903  30.642  1.00  0.00     0.031 A 
ATOM     34  C   UNL A   1      41.940  28.804  31.835  1.00  0.00     0.074 A 
ATOM     35  C   UNL A   1      40.117  29.885  30.563  1.00  0.00     0.049 A 
ATOM     36  N   UNL A   1      41.907  29.492  32.949  1.00  0.00    -0.248 NA
ATOM     37  C   UNL A   1      43.020  27.806  31.774  1.00  0.00     0.031 C 
ATOM     38  C   UNL A   1      39.215  30.111  29.430  1.00  0.00     0.029 A 
ATOM     39  N   UNL A   1      39.780  30.871  31.458  1.00  0.00    -0.354 N 
ATOM     40  C   UNL A   1      42.938  28.991  33.734  1.00  0.00     0.074 A 
ATOM     41  C   UNL A   1      43.581  27.943  32.970  1.00  0.00     0.031 C 
ATOM     42  C   UNL A   1      38.420  31.157  29.705  1.00  0.00     0.029 A 
ATOM     43  C   UNL A   1      38.716  31.639  31.050  1.00  0.00     0.049 A 
ATOM     44  H   UNL A   1      40.254  31.011  32.309  1.00  0.00     0.167 HD
ATOM     45  C   UNL A   1      43.306  29.373  34.981  1.00  0.00     0.031 A 
ATOM     46  C   UNL A   1      38.021  32.590  31.702  1.00  0.00     0.031 A 
ATOM     47  C   UNL A   1      42.674  30.431  35.725  1.00  0.00     0.049 A 
ATOM     48  C   UNL A   1      38.409  32.943  33.111  1.00  0.00     0.074 A 
ATOM     49  C   UNL A   1      43.006  30.917  36.978  1.00  0.00     0.029 A 
ATOM     50  N   UNL A   1      41.578  31.161  35.291  1.00  0.00    -0.354 N 
ATOM     51  N   UNL A   1      39.395  32.470  33.837  1.00  0.00    -0.248 NA
ATOM     52  C   UNL A   1      37.583  33.948  33.795  1.00  0.00     0.031 C 
ATOM     53  C   UNL A   1      42.080  31.906  37.324  1.00  0.00     0.029 A 
ATOM     54  C   UNL A   1      41.199  32.068  36.267  1.00  0.00     0.049 A 
ATOM     55  H   UNL A   1      41.137  31.051  34.418  1.00  0.00     0.167 HD
ATOM     56  C   UNL A   1      39.309  33.122  35.060  1.00  0.00     0.074 A 
ATOM     57  C   UNL A   1      38.192  34.042  34.970  1.00  0.00     0.031 C 
ATOM     58  C   UNL A   1      40.080  32.969  36.163  1.00  0.00     0.031 A 
BRANCH  45  59
ATOM     59  C   UNL A   1      44.426  28.623  35.649  1.00  0.00    -0.014 A 
ATOM     60  C   UNL A   1      45.762  29.039  35.520  1.00  0.00     0.010 A 
ATOM     61  C   UNL A   1      44.121  27.540  36.495  1.00  0.00     0.010 A 
ATOM     62  C   UNL A   1      46.777  28.375  36.216  1.00  0.00     0.020 A 
ATOM     63  C   UNL A   1      45.131  26.885  37.205  1.00  0.00     0.020 A 
ATOM     64  C   UNL A   1      46.455  27.301  37.055  1.00  0.00     0.054 A 
BRANCH  64  65
ATOM     65  S   UNL A   1      47.785  26.490  37.984  1.00  0.00     0.124 S 
ATOM     66  O   UNL A   1      48.634  25.980  36.910  1.00  0.00    -0.237 OA
ATOM     67  O   UNL A   1      48.351  27.590  38.761  1.00  0.00    -0.237 OA
ATOM     68  O   UNL A   1      47.092  25.471  38.768  1.00  0.00    -0.744 OA
ENDBRANCH  64  65
ENDBRANCH  45  59
BRANCH  46  69
ATOM     69  C   UNL A   1      36.836  33.219  31.061  1.00  0.00    -0.014 A 
ATOM     70  C   UNL A   1      36.907  33.727  29.753  1.00  0.00     0.010 A 
ATOM     71  C   UNL A   1      35.625  33.320  31.771  1.00  0.00     0.010 A 
ATOM     72  C   UNL A   1      35.795  34.350  29.176  1.00  0.00     0.020 A 
ATOM     73  C   UNL A   1      34.504  33.916  31.189  1.00  0.00     0.020 A 
ATOM     74  C   UNL A   1      34.602  34.444  29.900  1.00  0.00     0.054 A 
BRANCH  74  75
ATOM     75  S   UNL A   1      33.160  35.228  29.127  1.00  0.00     0.124 S 
ATOM     76  O   UNL A   1      32.753  34.220  28.154  1.00  0.00    -0.237 OA
ATOM     77  O   UNL A   1      32.254  35.417  30.258  1.00  0.00    -0.237 OA
ATOM     78  O   UNL A   1      33.705  36.461  28.564  1.00  0.00    -0.744 OA
ENDBRANCH  74  75
ENDBRANCH  46  69
BRANCH  58  79
ATOM     79  C   UNL A   1      39.747  33.817  37.359  1.00  0.00    -0.014 A 
ATOM     80  C   UNL A   1      38.877  33.344  38.356  1.00  0.00     0.010 A 
ATOM     81  C   UNL A   1      40.351  35.078  37.514  1.00  0.00     0.010 A 
ATOM     82  C   UNL A   1      38.598  34.126  39.479  1.00  0.00     0.020 A 
ATOM     83  C   UNL A   1      40.092  35.854  38.647  1.00  0.00     0.020 A 
ATOM     84  C   UNL A   1      39.207  35.378  39.617  1.00  0.00     0.054 A 
BRANCH  84  85
ATOM     85  S   UNL A   1      38.871  36.353  41.109  1.00  0.00     0.124 S 
ATOM     86  O   UNL A   1      38.531  37.658  40.548  1.00  0.00    -0.237 OA
ATOM     87  O   UNL A   1      37.765  35.627  41.728  1.00  0.00    -0.237 OA
ATOM     88  O   UNL A   1      40.132  36.301  41.846  1.00  0.00    -0.744 OA
ENDBRANCH  84  85
ENDBRANCH  58  79
ENDBRANCH  32  33
ENDBRANCH  25  27
ENDBRANCH  24  25
ENDBRANCH  23  24
ENDBRANCH  22  23
ENDBRANCH   1  22
TORSDOF 20
ENDMDL
MODEL 3
REMARK VINA RESULT:      -9.8      4.726      9.968
REMARK SMILES C[C@H](CN(C)C(=O)CCc1nc2ccccc2o1)C(=O)OCCOC(=O)c1ccc(-c2c3nc(c(-c4ccc(S(=O)(=O)[O-])cc4)c4ccc([nH]4)c(-c4ccc(S(=O)(=O)[O-])cc4)c4nc(c(-c5ccc(S(=O)(=O)[O-])cc5)c5ccc2[nH]5)C=C4)C=C3)cc1
REMARK SMILES IDX 21 1 19 2 20 3 2 4 1 5 3 6 4 7 5 8 6 9 7 10 8 11 9 12 10 13
REMARK SMILES IDX 11 14 18 15 12 16 17 17 13 18 16 19 14 20 15 21 22 22 23 23
REMARK SMILES IDX 24 24 25 25 26 26 27 27 28 28 86 29 29 30 85 31 30 32 31 33
REMARK SMILES IDX 32 34 79 35 33 36 84 37 78 38 80 39 34 40 83 41 77 42 76 43
REMARK SMILES IDX 35 45 65 46 46 47 64 48 47 49 50 50 63 51 81 52 48 53 49 54
REMARK SMILES IDX 62 56 82 57 51 58 36 59 37 60 45 61 38 62 44 63 39 64 40 65
REMARK SMILES IDX 41 66 42 67 43 68 66 69 67 70 75 71 68 72 74 73 69 74 70 75
REMARK SMILES IDX 71 76 72 77 73 78 52 79 53 80 61 81 54 82 60 83 55 84 56 85
REMARK SMILES IDX 57 86 58 87 59 88
REMARK H PARENT 80 44 50 55
REMARK Flexibility Score: inf
ROOT
ATOM      1  O   UNL A   1      34.584  21.313  26.525  1.00  0.00    -0.462 OA
ENDROOT
BRANCH   1   2
ATOM      2  C   UNL A   1      33.367  21.244  25.921  1.00  0.00     0.310 C 
ATOM      3  O   UNL A   1      32.859  20.203  25.517  1.00  0.00    -0.252 OA
BRANCH   2   4
ATOM      4  C   UNL A   1      32.743  22.601  25.655  1.00  0.00     0.115 C 
ATOM      5  C   UNL A   1      31.983  23.004  26.924  1.00  0.00     0.022 C 
BRANCH   4   6
ATOM      6  C   UNL A   1      31.882  22.661  24.376  1.00  0.00     0.134 C 
BRANCH   6   7
ATOM      7  N   UNL A   1      32.611  22.505  23.097  1.00  0.00    -0.345 N 
ATOM      8  C   UNL A   1      32.146  21.413  22.248  1.00  0.00     0.146 C 
BRANCH   7   9
ATOM      9  C   UNL A   1      33.435  23.508  22.609  1.00  0.00     0.222 C 
ATOM     10  O   UNL A   1      34.654  23.364  22.502  1.00  0.00    -0.275 OA
BRANCH   9  11
ATOM     11  C   UNL A   1      32.813  24.805  22.108  1.00  0.00     0.110 C 
BRANCH  11  12
ATOM     12  C   UNL A   1      33.643  26.020  22.532  1.00  0.00     0.107 C 
BRANCH  12  13
ATOM     13  C   UNL A   1      33.009  26.730  23.672  1.00  0.00     0.195 A 
ATOM     14  N   UNL A   1      32.469  26.203  24.750  1.00  0.00    -0.214 NA
ATOM     15  O   UNL A   1      33.112  28.096  23.689  1.00  0.00    -0.441 OA
ATOM     16  C   UNL A   1      32.251  27.279  25.567  1.00  0.00     0.109 A 
ATOM     17  C   UNL A   1      32.623  28.442  24.917  1.00  0.00     0.154 A 
ATOM     18  C   UNL A   1      31.785  27.350  26.885  1.00  0.00     0.032 A 
ATOM     19  C   UNL A   1      32.543  29.712  25.472  1.00  0.00     0.049 A 
ATOM     20  C   UNL A   1      31.709  28.610  27.491  1.00  0.00     0.003 A 
ATOM     21  C   UNL A   1      32.074  29.768  26.793  1.00  0.00     0.004 A 
ENDBRANCH  12  13
ENDBRANCH  11  12
ENDBRANCH   9  11
ENDBRANCH   7   9
ENDBRANCH   6   7
ENDBRANCH   4   6
ENDBRANCH   2   4
ENDBRANCH   1   2
BRANCH   1  22
ATOM     22  C   UNL A   1      35.358  22.491  26.214  1.00  0.00     0.274 C 
BRANCH  22  23
ATOM     23  C   UNL A   1      36.487  22.227  25.213  1.00  0.00     0.275 C 
BRANCH  23  24
ATOM     24  O   UNL A   1      37.453  23.291  25.192  1.00  0.00    -0.458 OA
BRANCH  24  25
ATOM     25  C   UNL A   1      38.600  23.034  25.863  1.00  0.00     0.338 C 
ATOM     26  O   UNL A   1      39.291  22.033  25.786  1.00  0.00    -0.246 OA
BRANCH  25  27
ATOM     27  C   UNL A   1      38.976  24.214  26.655  1.00  0.00     0.060 A 
ATOM     28  C   UNL A   1      39.928  25.080  26.122  1.00  0.00     0.016 A 
ATOM     29  C   UNL A   1      38.475  24.417  27.942  1.00  0.00     0.016 A 
ATOM     30  C   UNL A   1      40.399  26.153  26.874  1.00  0.00     0.010 A 
ATOM     31  C   UNL A   1      38.937  25.506  28.692  1.00  0.00     0.010 A 
ATOM     32  C   UNL A   1      39.906  26.378  28.164  1.00  0.00    -0.014 A 
BRANCH  32  33
ATOM     33  C   UNL A   1      40.384  27.546  28.943  1.00  0.00     0.031 A 
ATOM     34  C   UNL A   1      41.691  27.489  29.680  1.00  0.00     0.074 A 
ATOM     35  C   UNL A   1      39.626  28.658  28.987  1.00  0.00     0.049 A 
ATOM     36  N   UNL A   1      42.200  28.358  30.515  1.00  0.00    -0.248 NA
ATOM     37  C   UNL A   1      42.535  26.305  29.452  1.00  0.00     0.031 C 
ATOM     38  C   UNL A   1      38.361  28.849  28.272  1.00  0.00     0.029 A 
ATOM     39  N   UNL A   1      39.801  29.835  29.673  1.00  0.00    -0.354 N 
ATOM     40  C   UNL A   1      43.407  27.815  30.939  1.00  0.00     0.074 A 
ATOM     41  C   UNL A   1      43.557  26.541  30.266  1.00  0.00     0.031 C 
ATOM     42  C   UNL A   1      37.869  30.062  28.568  1.00  0.00     0.029 A 
ATOM     43  C   UNL A   1      38.750  30.710  29.533  1.00  0.00     0.049 A 
ATOM     44  H   UNL A   1      40.600  30.031  30.213  1.00  0.00     0.167 HD
ATOM     45  C   UNL A   1      44.301  28.335  31.813  1.00  0.00     0.031 A 
ATOM     46  C   UNL A   1      38.496  31.880  30.150  1.00  0.00     0.031 A 
ATOM     47  C   UNL A   1      44.154  29.612  32.462  1.00  0.00     0.049 A 
ATOM     48  C   UNL A   1      39.474  32.398  31.168  1.00  0.00     0.074 A 
ATOM     49  C   UNL A   1      45.029  30.241  33.330  1.00  0.00     0.029 A 
ATOM     50  N   UNL A   1      43.060  30.452  32.321  1.00  0.00    -0.354 N 
ATOM     51  N   UNL A   1      40.617  31.879  31.549  1.00  0.00    -0.248 NA
ATOM     52  C   UNL A   1      39.121  33.650  31.850  1.00  0.00     0.031 C 
ATOM     53  C   UNL A   1      44.442  31.437  33.755  1.00  0.00     0.029 A 
ATOM     54  C   UNL A   1      43.221  31.575  33.114  1.00  0.00     0.049 A 
ATOM     55  H   UNL A   1      42.284  30.275  31.741  1.00  0.00     0.167 HD
ATOM     56  C   UNL A   1      41.121  32.744  32.512  1.00  0.00     0.074 A 
ATOM     57  C   UNL A   1      40.172  33.832  32.638  1.00  0.00     0.031 C 
ATOM     58  C   UNL A   1      42.263  32.644  33.233  1.00  0.00     0.031 A 
BRANCH  45  59
ATOM     59  C   UNL A   1      45.513  27.513  32.159  1.00  0.00    -0.014 A 
ATOM     60  C   UNL A   1      46.669  27.545  31.360  1.00  0.00     0.010 A 
ATOM     61  C   UNL A   1      45.524  26.771  33.355  1.00  0.00     0.010 A 
ATOM     62  C   UNL A   1      47.811  26.836  31.745  1.00  0.00     0.020 A 
ATOM     63  C   UNL A   1      46.669  26.076  33.752  1.00  0.00     0.020 A 
ATOM     64  C   UNL A   1      47.804  26.106  32.940  1.00  0.00     0.054 A 
BRANCH  64  65
ATOM     65  S   UNL A   1      49.316  25.237  33.440  1.00  0.00     0.124 S 
ATOM     66  O   UNL A   1      50.140  25.353  32.239  1.00  0.00    -0.237 OA
ATOM     67  O   UNL A   1      49.769  26.016  34.589  1.00  0.00    -0.237 OA
ATOM     68  O   UNL A   1      48.855  23.886  33.750  1.00  0.00    -0.744 OA
ENDBRANCH  64  65
ENDBRANCH  45  59
BRANCH  46  69
ATOM     69  C   UNL A   1      37.224  32.602  29.883  1.00  0.00    -0.014 A 
ATOM     70  C   UNL A   1      36.081  32.364  30.665  1.00  0.00     0.010 A 
ATOM     71  C   UNL A   1      37.151  33.529  28.827  1.00  0.00     0.010 A 
ATOM     72  C   UNL A   1      34.880  33.023  30.379  1.00  0.00     0.020 A 
ATOM     73  C   UNL A   1      35.962  34.209  28.555  1.00  0.00     0.020 A 
ATOM     74  C   UNL A   1      34.828  33.938  29.323  1.00  0.00     0.054 A 
BRANCH  74  75
ATOM     75  S   UNL A   1      33.271  34.805  28.983  1.00  0.00     0.124 S 
ATOM     76  O   UNL A   1      33.743  36.040  28.364  1.00  0.00    -0.237 OA
ATOM     77  O   UNL A   1      32.576  33.878  28.094  1.00  0.00    -0.237 OA
ATOM     78  O   UNL A   1      32.670  34.956  30.306  1.00  0.00    -0.744 OA
ENDBRANCH  74  75
ENDBRANCH  46  69
BRANCH  58  79
ATOM     79  C   UNL A   1      42.552  33.741  34.220  1.00  0.00    -0.014 A 
ATOM     80  C   UNL A   1      42.130  33.637  35.556  1.00  0.00     0.010 A 
ATOM     81  C   UNL A   1      43.300  34.863  33.820  1.00  0.00     0.010 A 
ATOM     82  C   UNL A   1      42.430  34.647  36.473  1.00  0.00     0.020 A 
ATOM     83  C   UNL A   1      43.622  35.865  34.739  1.00  0.00     0.020 A 
ATOM     84  C   UNL A   1      43.175  35.756  36.058  1.00  0.00     0.054 A 
BRANCH  84  85
ATOM     85  S   UNL A   1      43.599  37.030  37.277  1.00  0.00     0.124 S 
ATOM     86  O   UNL A   1      43.970  38.156  36.425  1.00  0.00    -0.237 OA
ATOM     87  O   UNL A   1      42.353  37.190  38.024  1.00  0.00    -0.237 OA
ATOM     88  O   UNL A   1      44.697  36.432  38.033  1.00  0.00    -0.744 OA
ENDBRANCH  84  85
ENDBRANCH  58  79
ENDBRANCH  32  33
ENDBRANCH  25  27
ENDBRANCH  24  25
ENDBRANCH  23  24
ENDBRANCH  22  23
ENDBRANCH   1  22
TORSDOF 20
ENDMDL
