MODEL 1
REMARK VINA RESULT:     -11.0      0.000      0.000
REMARK SMILES CC(=O)Nc1cccc(NC(=O)N[C@H](C(=O)OCCOC(=O)c2ccc(-c3c4nc(c(-c5ccc(S(=O)(=O)[O-])cc5)c5ccc([nH]5)c(-c5ccc(S(=O)(=O)[O-])cc5)c5nc(c(-c6ccc(S(=O)(=O)[O-])cc6)c6ccc3[nH]6)C=C5)C=C4)cc2)C(C)C)c1
REMARK SMILES IDX 18 1 17 2 15 3 16 4 14 5 13 6 10 7 11 8 12 10 9 12 5 13 6 14
REMARK SMILES IDX 86 15 7 16 8 17 4 18 1 19 2 20 3 21 83 23 84 24 85 25 19 26
REMARK SMILES IDX 20 27 21 28 22 29 23 30 24 31 82 32 25 33 81 34 26 35 27 36
REMARK SMILES IDX 28 37 75 38 29 39 80 40 74 41 76 42 30 43 79 44 73 45 72 46
REMARK SMILES IDX 31 48 61 49 42 50 60 51 43 52 46 53 59 54 77 55 44 56 45 57
REMARK SMILES IDX 58 59 78 60 47 61 32 62 33 63 41 64 34 65 40 66 35 67 36 68
REMARK SMILES IDX 37 69 38 70 39 71 62 72 63 73 71 74 64 75 70 76 65 77 66 78
REMARK SMILES IDX 67 79 68 80 69 81 48 82 49 83 57 84 50 85 56 86 51 87 52 88
REMARK SMILES IDX 53 89 54 90 55 91
REMARK H PARENT 10 9 13 11 4 22 76 47 46 58
REMARK Flexibility Score: inf
ROOT
ATOM      1  C   UNL A   1      32.216  27.944  27.445  1.00  0.00     0.274 C 
ENDROOT
BRANCH   1   2
ATOM      2  O   UNL A   1      31.928  27.219  26.230  1.00  0.00    -0.461 OA
BRANCH   2   3
ATOM      3  C   UNL A   1      32.865  26.329  25.783  1.00  0.00     0.329 C 
ATOM      4  O   UNL A   1      34.078  26.480  25.846  1.00  0.00    -0.250 OA
BRANCH   3   5
ATOM      5  C   UNL A   1      32.167  25.114  25.152  1.00  0.00     0.196 C 
BRANCH   5   6
ATOM      6  N   UNL A   1      31.070  24.720  26.025  1.00  0.00    -0.324 N 
ATOM      7  N   UNL A   1      31.383  22.444  26.677  1.00  0.00    -0.308 N 
ATOM      8  C   UNL A   1      30.733  23.617  26.688  1.00  0.00     0.319 C 
ATOM      9  H   UNL A   1      31.032  21.847  27.377  1.00  0.00     0.171 HD
ATOM     10  O   UNL A   1      29.763  23.702  27.450  1.00  0.00    -0.248 OA
ATOM     11  H   UNL A   1      30.419  25.447  26.157  1.00  0.00     0.166 HD
BRANCH   7  12
ATOM     12  C   UNL A   1      32.412  21.817  25.964  1.00  0.00     0.044 A 
ATOM     13  C   UNL A   1      33.010  20.122  24.342  1.00  0.00     0.043 A 
ATOM     14  C   UNL A   1      34.357  20.244  24.658  1.00  0.00     0.026 A 
ATOM     15  C   UNL A   1      32.038  20.840  25.048  1.00  0.00     0.052 A 
ATOM     16  C   UNL A   1      34.737  21.300  25.470  1.00  0.00     0.004 A 
ATOM     17  C   UNL A   1      33.761  22.136  26.023  1.00  0.00     0.026 A 
BRANCH  13  18
ATOM     18  N   UNL A   1      32.669  19.419  23.186  1.00  0.00    -0.326 N 
ATOM     19  C   UNL A   1      33.322  17.257  24.239  1.00  0.00     0.114 C 
ATOM     20  C   UNL A   1      32.777  18.051  23.068  1.00  0.00     0.221 C 
ATOM     21  O   UNL A   1      32.374  17.492  22.047  1.00  0.00    -0.275 OA
ATOM     22  H   UNL A   1      32.333  19.929  22.413  1.00  0.00     0.169 HD
ENDBRANCH  13  18
ENDBRANCH   7  12
ENDBRANCH   5   6
BRANCH   5  23
ATOM     23  C   UNL A   1      31.657  25.350  23.705  1.00  0.00     0.017 C 
ATOM     24  C   UNL A   1      32.332  24.403  22.705  1.00  0.00     0.010 C 
ATOM     25  C   UNL A   1      30.131  25.225  23.538  1.00  0.00     0.010 C 
ENDBRANCH   5  23
ENDBRANCH   3   5
ENDBRANCH   2   3
ENDBRANCH   1   2
BRANCH   1  26
ATOM     26  C   UNL A   1      32.500  29.407  27.113  1.00  0.00     0.275 C 
BRANCH  26  27
ATOM     27  O   UNL A   1      33.925  29.582  27.090  1.00  0.00    -0.458 OA
BRANCH  27  28
ATOM     28  C   UNL A   1      34.434  30.536  27.903  1.00  0.00     0.338 C 
ATOM     29  O   UNL A   1      33.850  31.496  28.376  1.00  0.00    -0.246 OA
BRANCH  28  30
ATOM     30  C   UNL A   1      35.829  30.178  28.228  1.00  0.00     0.060 A 
ATOM     31  C   UNL A   1      36.792  30.213  27.220  1.00  0.00     0.016 A 
ATOM     32  C   UNL A   1      36.170  29.692  29.488  1.00  0.00     0.016 A 
ATOM     33  C   UNL A   1      38.061  29.693  27.437  1.00  0.00     0.010 A 
ATOM     34  C   UNL A   1      37.494  29.310  29.744  1.00  0.00     0.010 A 
ATOM     35  C   UNL A   1      38.458  29.303  28.719  1.00  0.00    -0.014 A 
BRANCH  35  36
ATOM     36  C   UNL A   1      39.880  28.951  28.989  1.00  0.00     0.031 A 
ATOM     37  C   UNL A   1      40.836  29.978  29.533  1.00  0.00     0.074 A 
ATOM     38  C   UNL A   1      40.331  27.706  28.719  1.00  0.00     0.049 A 
ATOM     39  N   UNL A   1      42.143  29.955  29.557  1.00  0.00    -0.248 NA
ATOM     40  C   UNL A   1      40.246  31.198  30.111  1.00  0.00     0.031 C 
ATOM     41  C   UNL A   1      39.514  26.581  28.249  1.00  0.00     0.029 A 
ATOM     42  N   UNL A   1      41.595  27.172  28.797  1.00  0.00    -0.354 N 
ATOM     43  C   UNL A   1      42.537  31.181  30.082  1.00  0.00     0.074 A 
ATOM     44  C   UNL A   1      41.327  31.919  30.381  1.00  0.00     0.031 C 
ATOM     45  C   UNL A   1      40.280  25.489  28.132  1.00  0.00     0.029 A 
ATOM     46  C   UNL A   1      41.664  25.863  28.378  1.00  0.00     0.049 A 
ATOM     47  H   UNL A   1      42.375  27.678  29.121  1.00  0.00     0.167 HD
ATOM     48  C   UNL A   1      43.794  31.649  30.275  1.00  0.00     0.031 A 
ATOM     49  C   UNL A   1      42.719  25.064  28.133  1.00  0.00     0.031 A 
ATOM     50  C   UNL A   1      44.986  30.888  30.007  1.00  0.00     0.049 A 
ATOM     51  C   UNL A   1      44.100  25.625  28.285  1.00  0.00     0.074 A 
ATOM     52  C   UNL A   1      46.307  31.269  30.169  1.00  0.00     0.029 A 
ATOM     53  N   UNL A   1      45.003  29.584  29.532  1.00  0.00    -0.354 N 
ATOM     54  N   UNL A   1      44.459  26.818  28.693  1.00  0.00    -0.248 NA
ATOM     55  C   UNL A   1      45.214  24.747  27.910  1.00  0.00     0.031 C 
ATOM     56  C   UNL A   1      47.123  30.211  29.751  1.00  0.00     0.029 A 
ATOM     57  C   UNL A   1      46.309  29.154  29.375  1.00  0.00     0.049 A 
ATOM     58  H   UNL A   1      44.203  29.045  29.335  1.00  0.00     0.167 HD
ATOM     59  C   UNL A   1      45.845  26.838  28.618  1.00  0.00     0.074 A 
ATOM     60  C   UNL A   1      46.258  25.527  28.154  1.00  0.00     0.031 C 
ATOM     61  C   UNL A   1      46.698  27.851  28.898  1.00  0.00     0.031 A 
BRANCH  48  62
ATOM     62  C   UNL A   1      43.946  33.073  30.742  1.00  0.00    -0.014 A 
ATOM     63  C   UNL A   1      44.051  34.143  29.838  1.00  0.00     0.010 A 
ATOM     64  C   UNL A   1      43.939  33.344  32.125  1.00  0.00     0.010 A 
ATOM     65  C   UNL A   1      44.184  35.454  30.308  1.00  0.00     0.020 A 
ATOM     66  C   UNL A   1      44.048  34.654  32.597  1.00  0.00     0.020 A 
ATOM     67  C   UNL A   1      44.187  35.701  31.685  1.00  0.00     0.054 A 
BRANCH  67  68
ATOM     68  S   UNL A   1      44.345  37.412  32.269  1.00  0.00     0.124 S 
ATOM     69  O   UNL A   1      43.491  37.404  33.454  1.00  0.00    -0.237 OA
ATOM     70  O   UNL A   1      45.777  37.534  32.527  1.00  0.00    -0.237 OA
ATOM     71  O   UNL A   1      43.848  38.208  31.149  1.00  0.00    -0.744 OA
ENDBRANCH  67  68
ENDBRANCH  48  62
BRANCH  49  72
ATOM     72  C   UNL A   1      42.494  23.686  27.616  1.00  0.00    -0.014 A 
ATOM     73  C   UNL A   1      42.496  23.431  26.235  1.00  0.00     0.010 A 
ATOM     74  C   UNL A   1      42.327  22.611  28.511  1.00  0.00     0.010 A 
ATOM     75  C   UNL A   1      42.340  22.126  25.759  1.00  0.00     0.020 A 
ATOM     76  C   UNL A   1      42.203  21.302  28.040  1.00  0.00     0.020 A 
ATOM     77  C   UNL A   1      42.201  21.069  26.664  1.00  0.00     0.054 A 
BRANCH  77  78
ATOM     78  S   UNL A   1      42.082  19.373  26.030  1.00  0.00     0.124 S 
ATOM     79  O   UNL A   1      42.961  19.423  24.867  1.00  0.00    -0.237 OA
ATOM     80  O   UNL A   1      42.565  18.577  27.157  1.00  0.00    -0.237 OA
ATOM     81  O   UNL A   1      40.659  19.219  25.737  1.00  0.00    -0.744 OA
ENDBRANCH  77  78
ENDBRANCH  49  72
BRANCH  61  82
ATOM     82  C   UNL A   1      48.163  27.574  28.721  1.00  0.00    -0.014 A 
ATOM     83  C   UNL A   1      48.956  27.169  29.810  1.00  0.00     0.010 A 
ATOM     84  C   UNL A   1      48.745  27.687  27.447  1.00  0.00     0.010 A 
ATOM     85  C   UNL A   1      50.316  26.908  29.630  1.00  0.00     0.020 A 
ATOM     86  C   UNL A   1      50.100  27.405  27.260  1.00  0.00     0.020 A 
ATOM     87  C   UNL A   1      50.879  27.030  28.356  1.00  0.00     0.054 A 
BRANCH  87  88
ATOM     88  S   UNL A   1      52.638  26.646  28.139  1.00  0.00     0.124 S 
ATOM     89  O   UNL A   1      53.024  26.216  29.480  1.00  0.00    -0.237 OA
ATOM     90  O   UNL A   1      52.615  25.594  27.124  1.00  0.00    -0.237 OA
ATOM     91  O   UNL A   1      53.217  27.913  27.699  1.00  0.00    -0.744 OA
ENDBRANCH  87  88
ENDBRANCH  61  82
ENDBRANCH  35  36
ENDBRANCH  28  30
ENDBRANCH  27  28
ENDBRANCH  26  27
ENDBRANCH   1  26
TORSDOF 18
ENDMDL
MODEL 2
REMARK VINA RESULT:     -10.8      2.386      3.155
REMARK SMILES CC(=O)Nc1cccc(NC(=O)N[C@H](C(=O)OCCOC(=O)c2ccc(-c3c4nc(c(-c5ccc(S(=O)(=O)[O-])cc5)c5ccc([nH]5)c(-c5ccc(S(=O)(=O)[O-])cc5)c5nc(c(-c6ccc(S(=O)(=O)[O-])cc6)c6ccc3[nH]6)C=C5)C=C4)cc2)C(C)C)c1
REMARK SMILES IDX 18 1 17 2 15 3 16 4 14 5 13 6 10 7 11 8 12 10 9 12 5 13 6 14
REMARK SMILES IDX 86 15 7 16 8 17 4 18 1 19 2 20 3 21 83 23 84 24 85 25 19 26
REMARK SMILES IDX 20 27 21 28 22 29 23 30 24 31 82 32 25 33 81 34 26 35 27 36
REMARK SMILES IDX 28 37 75 38 29 39 80 40 74 41 76 42 30 43 79 44 73 45 72 46
REMARK SMILES IDX 31 48 61 49 42 50 60 51 43 52 46 53 59 54 77 55 44 56 45 57
REMARK SMILES IDX 58 59 78 60 47 61 32 62 33 63 41 64 34 65 40 66 35 67 36 68
REMARK SMILES IDX 37 69 38 70 39 71 62 72 63 73 71 74 64 75 70 76 65 77 66 78
REMARK SMILES IDX 67 79 68 80 69 81 48 82 49 83 57 84 50 85 56 86 51 87 52 88
REMARK SMILES IDX 53 89 54 90 55 91
REMARK H PARENT 10 9 13 11 4 22 76 47 46 58
REMARK Flexibility Score: inf
ROOT
ATOM      1  C   UNL A   1      33.294  29.065  27.287  1.00  0.00     0.274 C 
ENDROOT
BRANCH   1   2
ATOM      2  O   UNL A   1      33.652  28.339  26.092  1.00  0.00    -0.461 OA
BRANCH   2   3
ATOM      3  C   UNL A   1      32.638  27.859  25.311  1.00  0.00     0.329 C 
ATOM      4  O   UNL A   1      31.654  28.492  24.953  1.00  0.00    -0.250 OA
BRANCH   3   5
ATOM      5  C   UNL A   1      32.899  26.383  24.970  1.00  0.00     0.196 C 
BRANCH   5   6
ATOM      6  N   UNL A   1      32.099  25.564  25.871  1.00  0.00    -0.324 N 
ATOM      7  N   UNL A   1      33.208  23.476  26.204  1.00  0.00    -0.308 N 
ATOM      8  C   UNL A   1      32.218  24.355  26.414  1.00  0.00     0.319 C 
ATOM      9  H   UNL A   1      33.154  22.733  26.849  1.00  0.00     0.171 HD
ATOM     10  O   UNL A   1      31.368  24.039  27.254  1.00  0.00    -0.248 OA
ATOM     11  H   UNL A   1      31.266  26.014  26.144  1.00  0.00     0.166 HD
BRANCH   7  12
ATOM     12  C   UNL A   1      34.295  23.301  25.339  1.00  0.00     0.044 A 
ATOM     13  C   UNL A   1      36.700  23.380  25.070  1.00  0.00     0.043 A 
ATOM     14  C   UNL A   1      36.585  23.281  23.690  1.00  0.00     0.026 A 
ATOM     15  C   UNL A   1      35.564  23.475  25.882  1.00  0.00     0.052 A 
ATOM     16  C   UNL A   1      35.338  22.980  23.166  1.00  0.00     0.004 A 
ATOM     17  C   UNL A   1      34.232  22.888  24.017  1.00  0.00     0.026 A 
BRANCH  13  18
ATOM     18  N   UNL A   1      37.961  23.189  25.638  1.00  0.00    -0.326 N 
ATOM     19  C   UNL A   1      37.842  20.736  25.219  1.00  0.00     0.114 C 
ATOM     20  C   UNL A   1      38.575  21.960  25.731  1.00  0.00     0.221 C 
ATOM     21  O   UNL A   1      39.725  21.883  26.165  1.00  0.00    -0.275 OA
ATOM     22  H   UNL A   1      38.436  23.976  25.992  1.00  0.00     0.169 HD
ENDBRANCH  13  18
ENDBRANCH   7  12
ENDBRANCH   5   6
BRANCH   5  23
ATOM     23  C   UNL A   1      32.613  26.009  23.491  1.00  0.00     0.017 C 
ATOM     24  C   UNL A   1      31.111  25.842  23.229  1.00  0.00     0.010 C 
ATOM     25  C   UNL A   1      33.177  27.004  22.460  1.00  0.00     0.010 C 
ENDBRANCH   5  23
ENDBRANCH   3   5
ENDBRANCH   2   3
ENDBRANCH   1   2
BRANCH   1  26
ATOM     26  C   UNL A   1      34.271  30.221  27.495  1.00  0.00     0.275 C 
BRANCH  26  27
ATOM     27  O   UNL A   1      35.447  29.693  28.125  1.00  0.00    -0.458 OA
BRANCH  27  28
ATOM     28  C   UNL A   1      36.174  30.552  28.876  1.00  0.00     0.338 C 
ATOM     29  O   UNL A   1      35.759  31.474  29.557  1.00  0.00    -0.246 OA
BRANCH  28  30
ATOM     30  C   UNL A   1      37.589  30.134  28.827  1.00  0.00     0.060 A 
ATOM     31  C   UNL A   1      38.149  29.771  27.603  1.00  0.00     0.016 A 
ATOM     32  C   UNL A   1      38.332  29.981  29.995  1.00  0.00     0.016 A 
ATOM     33  C   UNL A   1      39.406  29.184  27.547  1.00  0.00     0.010 A 
ATOM     34  C   UNL A   1      39.657  29.529  29.916  1.00  0.00     0.010 A 
ATOM     35  C   UNL A   1      40.211  29.122  28.688  1.00  0.00    -0.014 A 
BRANCH  35  36
ATOM     36  C   UNL A   1      41.633  28.691  28.580  1.00  0.00     0.031 A 
ATOM     37  C   UNL A   1      42.751  29.687  28.732  1.00  0.00     0.074 A 
ATOM     38  C   UNL A   1      41.929  27.399  28.315  1.00  0.00     0.049 A 
ATOM     39  N   UNL A   1      44.008  29.572  28.389  1.00  0.00    -0.248 NA
ATOM     40  C   UNL A   1      42.409  30.988  29.332  1.00  0.00     0.031 C 
ATOM     41  C   UNL A   1      40.961  26.303  28.204  1.00  0.00     0.029 A 
ATOM     42  N   UNL A   1      43.137  26.784  28.085  1.00  0.00    -0.354 N 
ATOM     43  C   UNL A   1      44.592  30.804  28.663  1.00  0.00     0.074 A 
ATOM     44  C   UNL A   1      43.554  31.649  29.217  1.00  0.00     0.031 C 
ATOM     45  C   UNL A   1      41.610  25.153  27.982  1.00  0.00     0.029 A 
ATOM     46  C   UNL A   1      43.022  25.445  27.792  1.00  0.00     0.049 A 
ATOM     47  H   UNL A   1      44.000  27.256  28.127  1.00  0.00     0.167 HD
ATOM     48  C   UNL A   1      45.872  31.195  28.449  1.00  0.00     0.031 A 
ATOM     49  C   UNL A   1      43.925  24.555  27.338  1.00  0.00     0.031 A 
ATOM     50  C   UNL A   1      46.900  30.331  27.931  1.00  0.00     0.049 A 
ATOM     51  C   UNL A   1      45.316  25.026  27.041  1.00  0.00     0.074 A 
ATOM     52  C   UNL A   1      48.229  30.628  27.678  1.00  0.00     0.029 A 
ATOM     53  N   UNL A   1      46.720  28.996  27.598  1.00  0.00    -0.354 N 
ATOM     54  N   UNL A   1      45.832  26.218  27.215  1.00  0.00    -0.248 NA
ATOM     55  C   UNL A   1      46.234  24.043  26.455  1.00  0.00     0.031 C 
ATOM     56  C   UNL A   1      48.841  29.484  27.152  1.00  0.00     0.029 A 
ATOM     57  C   UNL A   1      47.906  28.462  27.122  1.00  0.00     0.049 A 
ATOM     58  H   UNL A   1      45.874  28.502  27.687  1.00  0.00     0.167 HD
ATOM     59  C   UNL A   1      47.137  26.132  26.752  1.00  0.00     0.074 A 
ATOM     60  C   UNL A   1      47.339  24.763  26.319  1.00  0.00     0.031 C 
ATOM     61  C   UNL A   1      48.081  27.101  26.682  1.00  0.00     0.031 A 
BRANCH  48  62
ATOM     62  C   UNL A   1      46.217  32.636  28.716  1.00  0.00    -0.014 A 
ATOM     63  C   UNL A   1      46.770  33.051  29.939  1.00  0.00     0.010 A 
ATOM     64  C   UNL A   1      46.023  33.587  27.695  1.00  0.00     0.010 A 
ATOM     65  C   UNL A   1      47.087  34.398  30.149  1.00  0.00     0.020 A 
ATOM     66  C   UNL A   1      46.360  34.928  27.893  1.00  0.00     0.020 A 
ATOM     67  C   UNL A   1      46.875  35.329  29.127  1.00  0.00     0.054 A 
BRANCH  67  68
ATOM     68  S   UNL A   1      47.308  37.067  29.420  1.00  0.00     0.124 S 
ATOM     69  O   UNL A   1      46.288  37.471  30.385  1.00  0.00    -0.237 OA
ATOM     70  O   UNL A   1      48.668  36.976  29.946  1.00  0.00    -0.237 OA
ATOM     71  O   UNL A   1      47.194  37.681  28.100  1.00  0.00    -0.744 OA
ENDBRANCH  67  68
ENDBRANCH  48  62
BRANCH  49  72
ATOM     72  C   UNL A   1      43.498  23.160  27.040  1.00  0.00    -0.014 A 
ATOM     73  C   UNL A   1      43.644  22.627  25.749  1.00  0.00     0.010 A 
ATOM     74  C   UNL A   1      42.987  22.340  28.066  1.00  0.00     0.010 A 
ATOM     75  C   UNL A   1      43.293  21.299  25.489  1.00  0.00     0.020 A 
ATOM     76  C   UNL A   1      42.665  21.004  27.817  1.00  0.00     0.020 A 
ATOM     77  C   UNL A   1      42.811  20.494  26.527  1.00  0.00     0.054 A 
BRANCH  77  78
ATOM     78  S   UNL A   1      42.439  18.750  26.190  1.00  0.00     0.124 S 
ATOM     79  O   UNL A   1      43.427  18.422  25.169  1.00  0.00    -0.237 OA
ATOM     80  O   UNL A   1      42.641  18.124  27.495  1.00  0.00    -0.237 OA
ATOM     81  O   UNL A   1      41.050  18.782  25.735  1.00  0.00    -0.744 OA
ENDBRANCH  77  78
ENDBRANCH  49  72
BRANCH  61  82
ATOM     82  C   UNL A   1      49.420  26.706  26.129  1.00  0.00    -0.014 A 
ATOM     83  C   UNL A   1      49.682  26.788  24.749  1.00  0.00     0.010 A 
ATOM     84  C   UNL A   1      50.436  26.281  27.002  1.00  0.00     0.010 A 
ATOM     85  C   UNL A   1      50.933  26.424  24.249  1.00  0.00     0.020 A 
ATOM     86  C   UNL A   1      51.695  25.937  26.506  1.00  0.00     0.020 A 
ATOM     87  C   UNL A   1      51.931  25.999  25.131  1.00  0.00     0.054 A 
BRANCH  87  88
ATOM     88  S   UNL A   1      53.562  25.570  24.463  1.00  0.00     0.124 S 
ATOM     89  O   UNL A   1      53.588  24.120  24.632  1.00  0.00    -0.237 OA
ATOM     90  O   UNL A   1      53.478  26.041  23.082  1.00  0.00    -0.237 OA
ATOM     91  O   UNL A   1      54.490  26.314  25.312  1.00  0.00    -0.744 OA
ENDBRANCH  87  88
ENDBRANCH  61  82
ENDBRANCH  35  36
ENDBRANCH  28  30
ENDBRANCH  27  28
ENDBRANCH  26  27
ENDBRANCH   1  26
TORSDOF 18
ENDMDL
MODEL 3
REMARK VINA RESULT:     -10.8      3.172      7.960
REMARK SMILES CC(=O)Nc1cccc(NC(=O)N[C@H](C(=O)OCCOC(=O)c2ccc(-c3c4nc(c(-c5ccc(S(=O)(=O)[O-])cc5)c5ccc([nH]5)c(-c5ccc(S(=O)(=O)[O-])cc5)c5nc(c(-c6ccc(S(=O)(=O)[O-])cc6)c6ccc3[nH]6)C=C5)C=C4)cc2)C(C)C)c1
REMARK SMILES IDX 18 1 17 2 15 3 16 4 14 5 13 6 10 7 11 8 12 10 9 12 5 13 6 14
REMARK SMILES IDX 86 15 7 16 8 17 4 18 1 19 2 20 3 21 83 23 84 24 85 25 19 26
REMARK SMILES IDX 20 27 21 28 22 29 23 30 24 31 82 32 25 33 81 34 26 35 27 36
REMARK SMILES IDX 28 37 75 38 29 39 80 40 74 41 76 42 30 43 79 44 73 45 72 46
REMARK SMILES IDX 31 48 61 49 42 50 60 51 43 52 46 53 59 54 77 55 44 56 45 57
REMARK SMILES IDX 58 59 78 60 47 61 32 62 33 63 41 64 34 65 40 66 35 67 36 68
REMARK SMILES IDX 37 69 38 70 39 71 62 72 63 73 71 74 64 75 70 76 65 77 66 78
REMARK SMILES IDX 67 79 68 80 69 81 48 82 49 83 57 84 50 85 56 86 51 87 52 88
REMARK SMILES IDX 53 89 54 90 55 91
REMARK H PARENT 10 9 13 11 4 22 76 47 46 58
REMARK Flexibility Score: inf
ROOT
ATOM      1  C   UNL A   1      39.303  21.188  25.746  1.00  0.00     0.274 C 
ENDROOT
BRANCH   1   2
ATOM      2  O   UNL A   1      37.884  21.071  25.516  1.00  0.00    -0.461 OA
BRANCH   2   3
ATOM      3  C   UNL A   1      37.111  22.179  25.725  1.00  0.00     0.329 C 
ATOM      4  O   UNL A   1      37.514  23.263  26.124  1.00  0.00    -0.250 OA
BRANCH   3   5
ATOM      5  C   UNL A   1      35.641  21.854  25.413  1.00  0.00     0.196 C 
BRANCH   5   6
ATOM      6  N   UNL A   1      34.837  22.262  26.557  1.00  0.00    -0.324 N 
ATOM      7  N   UNL A   1      32.928  20.836  26.705  1.00  0.00    -0.308 N 
ATOM      8  C   UNL A   1      33.711  21.839  27.126  1.00  0.00     0.319 C 
ATOM      9  H   UNL A   1      32.254  20.613  27.388  1.00  0.00     0.171 HD
ATOM     10  O   UNL A   1      33.392  22.378  28.192  1.00  0.00    -0.248 OA
ATOM     11  H   UNL A   1      35.220  23.041  27.023  1.00  0.00     0.166 HD
BRANCH   7  12
ATOM     12  C   UNL A   1      32.784  20.012  25.582  1.00  0.00     0.044 A 
ATOM     13  C   UNL A   1      32.832  17.754  24.709  1.00  0.00     0.043 A 
ATOM     14  C   UNL A   1      32.819  18.221  23.402  1.00  0.00     0.026 A 
ATOM     15  C   UNL A   1      32.900  18.641  25.789  1.00  0.00     0.052 A 
ATOM     16  C   UNL A   1      32.575  19.570  23.200  1.00  0.00     0.004 A 
ATOM     17  C   UNL A   1      32.453  20.425  24.301  1.00  0.00     0.026 A 
BRANCH  13  18
ATOM     18  N   UNL A   1      32.583  16.397  24.924  1.00  0.00    -0.326 N 
ATOM     19  C   UNL A   1      35.017  15.933  25.183  1.00  0.00     0.114 C 
ATOM     20  C   UNL A   1      33.573  15.472  25.170  1.00  0.00     0.221 C 
ATOM     21  O   UNL A   1      33.269  14.309  25.436  1.00  0.00    -0.275 OA
ATOM     22  H   UNL A   1      31.649  16.086  24.897  1.00  0.00     0.169 HD
ENDBRANCH  13  18
ENDBRANCH   7  12
ENDBRANCH   5   6
BRANCH   5  23
ATOM     23  C   UNL A   1      35.106  22.503  24.109  1.00  0.00     0.017 C 
ATOM     24  C   UNL A   1      34.365  23.816  24.393  1.00  0.00     0.010 C 
ATOM     25  C   UNL A   1      36.183  22.775  23.042  1.00  0.00     0.010 C 
ENDBRANCH   5  23
ENDBRANCH   3   5
ENDBRANCH   2   3
ENDBRANCH   1   2
BRANCH   1  26
ATOM     26  C   UNL A   1      39.881  19.816  26.087  1.00  0.00     0.275 C 
BRANCH  26  27
ATOM     27  O   UNL A   1      41.109  19.664  25.360  1.00  0.00    -0.458 OA
BRANCH  27  28
ATOM     28  C   UNL A   1      42.232  19.481  26.092  1.00  0.00     0.338 C 
ATOM     29  O   UNL A   1      42.761  18.424  26.387  1.00  0.00    -0.246 OA
BRANCH  28  30
ATOM     30  C   UNL A   1      42.802  20.806  26.412  1.00  0.00     0.060 A 
ATOM     31  C   UNL A   1      42.808  21.242  27.736  1.00  0.00     0.016 A 
ATOM     32  C   UNL A   1      43.218  21.670  25.401  1.00  0.00     0.016 A 
ATOM     33  C   UNL A   1      43.147  22.552  28.046  1.00  0.00     0.010 A 
ATOM     34  C   UNL A   1      43.703  22.941  25.737  1.00  0.00     0.010 A 
ATOM     35  C   UNL A   1      43.671  23.400  27.067  1.00  0.00    -0.014 A 
BRANCH  35  36
ATOM     36  C   UNL A   1      44.232  24.728  27.447  1.00  0.00     0.031 A 
ATOM     37  C   UNL A   1      43.328  25.841  27.902  1.00  0.00     0.074 A 
ATOM     38  C   UNL A   1      45.562  24.950  27.357  1.00  0.00     0.049 A 
ATOM     39  N   UNL A   1      43.580  27.122  27.990  1.00  0.00    -0.248 NA
ATOM     40  C   UNL A   1      41.957  25.470  28.292  1.00  0.00     0.031 C 
ATOM     41  C   UNL A   1      46.576  23.953  26.994  1.00  0.00     0.029 A 
ATOM     42  N   UNL A   1      46.297  26.093  27.561  1.00  0.00    -0.354 N 
ATOM     43  C   UNL A   1      42.385  27.719  28.375  1.00  0.00     0.074 A 
ATOM     44  C   UNL A   1      41.410  26.658  28.520  1.00  0.00     0.031 C 
ATOM     45  C   UNL A   1      47.792  24.510  27.052  1.00  0.00     0.029 A 
ATOM     46  C   UNL A   1      47.641  25.932  27.315  1.00  0.00     0.049 A 
ATOM     47  H   UNL A   1      45.900  26.945  27.857  1.00  0.00     0.167 HD
ATOM     48  C   UNL A   1      42.126  29.036  28.567  1.00  0.00     0.031 A 
ATOM     49  C   UNL A   1      48.640  26.829  27.223  1.00  0.00     0.031 A 
ATOM     50  C   UNL A   1      43.116  30.075  28.454  1.00  0.00     0.049 A 
ATOM     51  C   UNL A   1      48.319  28.285  27.369  1.00  0.00     0.074 A 
ATOM     52  C   UNL A   1      42.959  31.440  28.630  1.00  0.00     0.029 A 
ATOM     53  N   UNL A   1      44.453  29.865  28.149  1.00  0.00    -0.354 N 
ATOM     54  N   UNL A   1      47.166  28.846  27.640  1.00  0.00    -0.248 NA
ATOM     55  C   UNL A   1      49.423  29.229  27.161  1.00  0.00     0.031 C 
ATOM     56  C   UNL A   1      44.190  32.058  28.388  1.00  0.00     0.029 A 
ATOM     57  C   UNL A   1      45.126  31.075  28.109  1.00  0.00     0.049 A 
ATOM     58  H   UNL A   1      44.863  28.985  27.983  1.00  0.00     0.167 HD
ATOM     59  C   UNL A   1      47.403  30.214  27.629  1.00  0.00     0.074 A 
ATOM     60  C   UNL A   1      48.815  30.392  27.354  1.00  0.00     0.031 C 
ATOM     61  C   UNL A   1      46.529  31.231  27.819  1.00  0.00     0.031 A 
BRANCH  48  62
ATOM     62  C   UNL A   1      40.704  29.434  28.858  1.00  0.00    -0.014 A 
ATOM     63  C   UNL A   1      40.297  29.849  30.138  1.00  0.00     0.010 A 
ATOM     64  C   UNL A   1      39.764  29.434  27.809  1.00  0.00     0.010 A 
ATOM     65  C   UNL A   1      38.968  30.220  30.371  1.00  0.00     0.020 A 
ATOM     66  C   UNL A   1      38.442  29.827  28.033  1.00  0.00     0.020 A 
ATOM     67  C   UNL A   1      38.047  30.201  29.318  1.00  0.00     0.054 A 
BRANCH  67  68
ATOM     68  S   UNL A   1      36.334  30.702  29.643  1.00  0.00     0.124 S 
ATOM     69  O   UNL A   1      36.332  32.086  29.174  1.00  0.00    -0.237 OA
ATOM     70  O   UNL A   1      35.564  29.763  28.831  1.00  0.00    -0.237 OA
ATOM     71  O   UNL A   1      36.191  30.534  31.087  1.00  0.00    -0.744 OA
ENDBRANCH  67  68
ENDBRANCH  48  62
BRANCH  49  72
ATOM     72  C   UNL A   1      50.013  26.369  26.874  1.00  0.00    -0.014 A 
ATOM     73  C   UNL A   1      50.352  26.075  25.543  1.00  0.00     0.010 A 
ATOM     74  C   UNL A   1      51.003  26.273  27.870  1.00  0.00     0.010 A 
ATOM     75  C   UNL A   1      51.657  25.697  25.214  1.00  0.00     0.020 A 
ATOM     76  C   UNL A   1      52.316  25.926  27.541  1.00  0.00     0.020 A 
ATOM     77  C   UNL A   1      52.633  25.631  26.215  1.00  0.00     0.054 A 
BRANCH  77  78
ATOM     78  S   UNL A   1      54.340  25.220  25.757  1.00  0.00     0.124 S 
ATOM     79  O   UNL A   1      55.083  25.673  26.928  1.00  0.00    -0.237 OA
ATOM     80  O   UNL A   1      54.278  23.773  25.565  1.00  0.00    -0.237 OA
ATOM     81  O   UNL A   1      54.559  25.991  24.535  1.00  0.00    -0.744 OA
ENDBRANCH  77  78
ENDBRANCH  49  72
BRANCH  61  82
ATOM     82  C   UNL A   1      47.083  32.624  27.749  1.00  0.00    -0.014 A 
ATOM     83  C   UNL A   1      47.611  33.248  28.894  1.00  0.00     0.010 A 
ATOM     84  C   UNL A   1      47.106  33.304  26.519  1.00  0.00     0.010 A 
ATOM     85  C   UNL A   1      48.130  34.542  28.813  1.00  0.00     0.020 A 
ATOM     86  C   UNL A   1      47.644  34.589  26.431  1.00  0.00     0.020 A 
ATOM     87  C   UNL A   1      48.141  35.205  27.582  1.00  0.00     0.054 A 
BRANCH  87  88
ATOM     88  S   UNL A   1      48.857  36.869  27.492  1.00  0.00     0.124 S 
ATOM     89  O   UNL A   1      47.837  37.598  26.743  1.00  0.00    -0.237 OA
ATOM     90  O   UNL A   1      48.988  37.239  28.900  1.00  0.00    -0.237 OA
ATOM     91  O   UNL A   1      50.121  36.664  26.789  1.00  0.00    -0.744 OA
ENDBRANCH  87  88
ENDBRANCH  61  82
ENDBRANCH  35  36
ENDBRANCH  28  30
ENDBRANCH  27  28
ENDBRANCH  26  27
ENDBRANCH   1  26
TORSDOF 18
ENDMDL
