MODEL 1
REMARK VINA RESULT:     -14.5      0.000      0.000
REMARK SMILES Cc1ccc(-c2cnnc(-n3nc(C)c4c3NC(=O)C[C@@H]4c3ccc(C(=O)OCCOC(=O)c4ccc(-c5c6nc(c(-c7ccc(S(=O)(=O)[O-])cc7)c7ccc([nH]7)c(-c7ccc(S(=O)(=O)[O-])cc7)c7nc(c(-c8ccc(S(=O)(=O)[O-])cc8)c8ccc5[nH]8)C=C7)C=C6)cc4)cc3)n2)cc1
REMARK SMILES IDX 29 1 28 2 26 3 27 4 25 5 22 6 23 7 95 8 24 9 94 10 21 11
REMARK SMILES IDX 11 12 12 13 16 14 13 15 15 16 17 17 14 18 18 19 20 21 19 22
REMARK SMILES IDX 10 23 6 24 7 25 96 26 8 27 9 28 5 29 1 30 2 31 3 32 98 33
REMARK SMILES IDX 4 34 97 35 30 36 31 37 32 38 33 39 34 40 35 41 93 42 36 43
REMARK SMILES IDX 92 44 37 45 38 46 39 47 86 48 40 49 91 50 85 51 87 52 41 53
REMARK SMILES IDX 90 54 84 55 83 56 42 58 72 59 53 60 71 61 54 62 57 63 70 64
REMARK SMILES IDX 88 65 55 66 56 67 69 69 89 70 58 71 43 72 44 73 52 74 45 75
REMARK SMILES IDX 51 76 46 77 47 78 48 79 49 80 50 81 73 82 74 83 82 84 75 85
REMARK SMILES IDX 81 86 76 87 77 88 78 89 79 90 80 91 59 92 60 93 68 94 61 95
REMARK SMILES IDX 67 96 62 97 63 98 64 99 65 100 66 101
REMARK H PARENT 17 20 87 57 57 68
REMARK Flexibility Score: inf
ROOT
ATOM      1  C   UNL A   1      33.414  30.874  27.112  1.00  0.00     0.275 C 
ENDROOT
BRANCH   1   2
ATOM      2  O   UNL A   1      33.029  30.423  25.802  1.00  0.00    -0.458 OA
BRANCH   2   3
ATOM      3  C   UNL A   1      31.697  30.493  25.591  1.00  0.00     0.338 C 
ATOM      4  O   UNL A   1      30.983  31.455  25.819  1.00  0.00    -0.246 OA
BRANCH   3   5
ATOM      5  C   UNL A   1      31.118  29.192  25.245  1.00  0.00     0.060 A 
ATOM      6  C   UNL A   1      30.922  26.720  24.000  1.00  0.00    -0.040 A 
ATOM      7  C   UNL A   1      31.353  26.784  25.319  1.00  0.00     0.005 A 
ATOM      8  C   UNL A   1      30.367  27.874  23.405  1.00  0.00     0.005 A 
ATOM      9  C   UNL A   1      31.465  28.024  25.926  1.00  0.00     0.016 A 
ATOM     10  C   UNL A   1      30.507  29.115  24.005  1.00  0.00     0.016 A 
BRANCH   6  11
ATOM     11  C   UNL A   1      31.242  25.448  23.250  1.00  0.00     0.064 C 
ATOM     12  N   UNL A   1      33.729  23.481  24.959  1.00  0.00    -0.180 N 
ATOM     13  N   UNL A   1      32.844  23.502  25.991  1.00  0.00    -0.168 NA
ATOM     14  C   UNL A   1      33.408  24.466  24.046  1.00  0.00     0.143 A 
ATOM     15  C   UNL A   1      31.756  24.073  25.468  1.00  0.00     0.066 A 
ATOM     16  C   UNL A   1      32.047  24.622  24.185  1.00  0.00     0.026 A 
ATOM     17  N   UNL A   1      34.119  25.228  23.137  1.00  0.00    -0.310 N 
ATOM     18  C   UNL A   1      30.539  24.190  26.312  1.00  0.00     0.069 C 
ATOM     19  C   UNL A   1      33.405  26.058  22.196  1.00  0.00     0.226 C 
ATOM     20  H   UNL A   1      35.103  25.205  23.133  1.00  0.00     0.171 HD
ATOM     21  C   UNL A   1      31.965  25.682  21.934  1.00  0.00     0.113 C 
ATOM     22  O   UNL A   1      34.043  26.886  21.596  1.00  0.00    -0.275 OA
BRANCH  12  23
ATOM     23  C   UNL A   1      34.486  22.314  24.691  1.00  0.00     0.272 A 
ATOM     24  C   UNL A   1      34.891  20.094  24.957  1.00  0.00     0.095 A 
ATOM     25  C   UNL A   1      36.224  20.315  24.658  1.00  0.00     0.164 A 
ATOM     26  N   UNL A   1      33.992  21.108  25.033  1.00  0.00    -0.208 NA
ATOM     27  N   UNL A   1      36.666  21.535  24.331  1.00  0.00    -0.153 NA
ATOM     28  N   UNL A   1      35.769  22.538  24.304  1.00  0.00    -0.109 NA
BRANCH  24  29
ATOM     29  C   UNL A   1      34.350  18.742  25.074  1.00  0.00     0.002 A 
ATOM     30  C   UNL A   1      32.564  14.813  25.258  1.00  0.00     0.044 C 
ATOM     31  C   UNL A   1      33.174  16.180  25.189  1.00  0.00    -0.051 A 
ATOM     32  C   UNL A   1      34.456  16.349  24.655  1.00  0.00     0.004 A 
ATOM     33  C   UNL A   1      32.481  17.293  25.667  1.00  0.00     0.004 A 
ATOM     34  C   UNL A   1      35.039  17.618  24.597  1.00  0.00     0.011 A 
ATOM     35  C   UNL A   1      33.066  18.558  25.613  1.00  0.00     0.011 A 
ENDBRANCH  24  29
ENDBRANCH  12  23
ENDBRANCH   6  11
ENDBRANCH   3   5
ENDBRANCH   2   3
ENDBRANCH   1   2
BRANCH   1  36
ATOM     36  C   UNL A   1      34.440  29.922  27.749  1.00  0.00     0.275 C 
BRANCH  36  37
ATOM     37  O   UNL A   1      35.709  29.762  27.083  1.00  0.00    -0.458 OA
BRANCH  37  38
ATOM     38  C   UNL A   1      36.761  30.418  27.641  1.00  0.00     0.338 C 
ATOM     39  O   UNL A   1      36.705  31.555  28.066  1.00  0.00    -0.246 OA
BRANCH  38  40
ATOM     40  C   UNL A   1      37.829  29.414  27.887  1.00  0.00     0.060 A 
ATOM     41  C   UNL A   1      38.941  29.394  27.046  1.00  0.00     0.016 A 
ATOM     42  C   UNL A   1      37.861  28.762  29.126  1.00  0.00     0.016 A 
ATOM     43  C   UNL A   1      40.129  28.830  27.493  1.00  0.00     0.010 A 
ATOM     44  C   UNL A   1      39.067  28.344  29.625  1.00  0.00     0.010 A 
ATOM     45  C   UNL A   1      40.199  28.380  28.803  1.00  0.00    -0.014 A 
BRANCH  45  46
ATOM     46  C   UNL A   1      41.279  27.545  29.274  1.00  0.00     0.031 A 
ATOM     47  C   UNL A   1      41.406  26.127  28.905  1.00  0.00     0.074 A 
ATOM     48  C   UNL A   1      42.227  28.362  29.784  1.00  0.00     0.049 A 
ATOM     49  N   UNL A   1      42.384  25.393  29.287  1.00  0.00    -0.248 NA
ATOM     50  C   UNL A   1      40.439  25.362  28.117  1.00  0.00     0.031 C 
ATOM     51  C   UNL A   1      43.661  28.246  29.918  1.00  0.00     0.029 A 
ATOM     52  N   UNL A   1      41.926  29.545  30.470  1.00  0.00    -0.354 N 
ATOM     53  C   UNL A   1      42.385  24.254  28.504  1.00  0.00     0.074 A 
ATOM     54  C   UNL A   1      41.090  24.213  27.888  1.00  0.00     0.031 C 
ATOM     55  C   UNL A   1      44.068  29.125  30.861  1.00  0.00     0.029 A 
ATOM     56  C   UNL A   1      42.864  29.683  31.479  1.00  0.00     0.049 A 
ATOM     57  H   UNL A   1      41.186  30.164  30.272  1.00  0.00     0.167 HD
ATOM     58  C   UNL A   1      43.570  23.601  28.357  1.00  0.00     0.031 A 
ATOM     59  C   UNL A   1      42.432  29.387  32.744  1.00  0.00     0.031 A 
ATOM     60  C   UNL A   1      44.556  24.206  29.250  1.00  0.00     0.049 A 
ATOM     61  C   UNL A   1      43.099  28.125  33.252  1.00  0.00     0.074 A 
ATOM     62  C   UNL A   1      45.526  25.173  29.050  1.00  0.00     0.029 A 
ATOM     63  N   UNL A   1      44.313  24.164  30.613  1.00  0.00    -0.354 N 
ATOM     64  N   UNL A   1      43.459  27.103  32.519  1.00  0.00    -0.248 NA
ATOM     65  C   UNL A   1      43.492  27.987  34.642  1.00  0.00     0.031 C 
ATOM     66  C   UNL A   1      45.834  25.741  30.319  1.00  0.00     0.029 A 
ATOM     67  C   UNL A   1      45.044  25.128  31.277  1.00  0.00     0.049 A 
ATOM     68  H   UNL A   1      43.700  23.529  31.050  1.00  0.00     0.167 HD
ATOM     69  C   UNL A   1      44.251  26.261  33.266  1.00  0.00     0.074 A 
ATOM     70  C   UNL A   1      44.161  26.822  34.608  1.00  0.00     0.031 C 
ATOM     71  C   UNL A   1      44.954  25.210  32.730  1.00  0.00     0.031 A 
BRANCH  58  72
ATOM     72  C   UNL A   1      43.944  22.635  27.257  1.00  0.00    -0.014 A 
ATOM     73  C   UNL A   1      43.001  21.636  26.920  1.00  0.00     0.010 A 
ATOM     74  C   UNL A   1      45.165  22.598  26.556  1.00  0.00     0.010 A 
ATOM     75  C   UNL A   1      43.262  20.636  25.979  1.00  0.00     0.020 A 
ATOM     76  C   UNL A   1      45.440  21.594  25.601  1.00  0.00     0.020 A 
ATOM     77  C   UNL A   1      44.486  20.614  25.325  1.00  0.00     0.054 A 
BRANCH  77  78
ATOM     78  S   UNL A   1      44.783  19.298  24.114  1.00  0.00     0.124 S 
ATOM     79  O   UNL A   1      43.823  18.275  24.523  1.00  0.00    -0.237 OA
ATOM     80  O   UNL A   1      44.489  19.963  22.848  1.00  0.00    -0.237 OA
ATOM     81  O   UNL A   1      46.186  18.945  24.321  1.00  0.00    -0.744 OA
ENDBRANCH  77  78
ENDBRANCH  58  72
BRANCH  59  82
ATOM     82  C   UNL A   1      41.017  29.827  33.048  1.00  0.00    -0.014 A 
ATOM     83  C   UNL A   1      40.723  31.214  32.986  1.00  0.00     0.010 A 
ATOM     84  C   UNL A   1      39.929  28.937  33.089  1.00  0.00     0.010 A 
ATOM     85  C   UNL A   1      39.411  31.686  32.837  1.00  0.00     0.020 A 
ATOM     86  C   UNL A   1      38.603  29.410  32.967  1.00  0.00     0.020 A 
ATOM     87  C   UNL A   1      38.356  30.777  32.802  1.00  0.00     0.054 A 
BRANCH  87  88
ATOM     88  S   UNL A   1      36.705  31.376  32.310  1.00  0.00     0.124 S 
ATOM     89  O   UNL A   1      37.016  32.309  31.233  1.00  0.00    -0.237 OA
ATOM     90  O   UNL A   1      36.035  30.144  31.904  1.00  0.00    -0.237 OA
ATOM     91  O   UNL A   1      36.193  31.979  33.541  1.00  0.00    -0.744 OA
ENDBRANCH  87  88
ENDBRANCH  59  82
BRANCH  71  92
ATOM     92  C   UNL A   1      45.666  24.106  33.495  1.00  0.00    -0.014 A 
ATOM     93  C   UNL A   1      45.099  22.887  33.867  1.00  0.00     0.010 A 
ATOM     94  C   UNL A   1      47.025  24.297  33.870  1.00  0.00     0.010 A 
ATOM     95  C   UNL A   1      45.861  21.879  34.473  1.00  0.00     0.020 A 
ATOM     96  C   UNL A   1      47.798  23.309  34.478  1.00  0.00     0.020 A 
ATOM     97  C   UNL A   1      47.208  22.092  34.758  1.00  0.00     0.054 A 
BRANCH  97  98
ATOM     98  S   UNL A   1      48.156  20.763  35.521  1.00  0.00     0.124 S 
ATOM     99  O   UNL A   1      49.087  21.504  36.369  1.00  0.00    -0.237 OA
ATOM    100  O   UNL A   1      47.119  20.017  36.229  1.00  0.00    -0.237 OA
ATOM    101  O   UNL A   1      48.760  20.067  34.389  1.00  0.00    -0.744 OA
ENDBRANCH  97  98
ENDBRANCH  71  92
ENDBRANCH  45  46
ENDBRANCH  38  40
ENDBRANCH  37  38
ENDBRANCH  36  37
ENDBRANCH   1  36
TORSDOF 17
ENDMDL
MODEL 2
REMARK VINA RESULT:     -13.8      1.552      1.980
REMARK SMILES Cc1ccc(-c2cnnc(-n3nc(C)c4c3NC(=O)C[C@@H]4c3ccc(C(=O)OCCOC(=O)c4ccc(-c5c6nc(c(-c7ccc(S(=O)(=O)[O-])cc7)c7ccc([nH]7)c(-c7ccc(S(=O)(=O)[O-])cc7)c7nc(c(-c8ccc(S(=O)(=O)[O-])cc8)c8ccc5[nH]8)C=C7)C=C6)cc4)cc3)n2)cc1
REMARK SMILES IDX 29 1 28 2 26 3 27 4 25 5 22 6 23 7 95 8 24 9 94 10 21 11
REMARK SMILES IDX 11 12 12 13 16 14 13 15 15 16 17 17 14 18 18 19 20 21 19 22
REMARK SMILES IDX 10 23 6 24 7 25 96 26 8 27 9 28 5 29 1 30 2 31 3 32 98 33
REMARK SMILES IDX 4 34 97 35 30 36 31 37 32 38 33 39 34 40 35 41 93 42 36 43
REMARK SMILES IDX 92 44 37 45 38 46 39 47 86 48 40 49 91 50 85 51 87 52 41 53
REMARK SMILES IDX 90 54 84 55 83 56 42 58 72 59 53 60 71 61 54 62 57 63 70 64
REMARK SMILES IDX 88 65 55 66 56 67 69 69 89 70 58 71 43 72 44 73 52 74 45 75
REMARK SMILES IDX 51 76 46 77 47 78 48 79 49 80 50 81 73 82 74 83 82 84 75 85
REMARK SMILES IDX 81 86 76 87 77 88 78 89 79 90 80 91 59 92 60 93 68 94 61 95
REMARK SMILES IDX 67 96 62 97 63 98 64 99 65 100 66 101
REMARK H PARENT 17 20 87 57 57 68
REMARK Flexibility Score: inf
ROOT
ATOM      1  C   UNL A   1      33.482  30.492  27.154  1.00  0.00     0.275 C 
ENDROOT
BRANCH   1   2
ATOM      2  O   UNL A   1      33.084  30.340  25.781  1.00  0.00    -0.458 OA
BRANCH   2   3
ATOM      3  C   UNL A   1      31.748  30.433  25.607  1.00  0.00     0.338 C 
ATOM      4  O   UNL A   1      31.055  31.402  25.868  1.00  0.00    -0.246 OA
BRANCH   3   5
ATOM      5  C   UNL A   1      31.141  29.146  25.256  1.00  0.00     0.060 A 
ATOM      6  C   UNL A   1      30.895  26.678  24.012  1.00  0.00    -0.040 A 
ATOM      7  C   UNL A   1      31.315  26.733  25.335  1.00  0.00     0.005 A 
ATOM      8  C   UNL A   1      30.375  27.845  23.410  1.00  0.00     0.005 A 
ATOM      9  C   UNL A   1      31.452  27.971  25.941  1.00  0.00     0.016 A 
ATOM     10  C   UNL A   1      30.539  29.083  24.010  1.00  0.00     0.016 A 
BRANCH   6  11
ATOM     11  C   UNL A   1      31.191  25.398  23.266  1.00  0.00     0.064 C 
ATOM     12  N   UNL A   1      33.666  23.406  24.963  1.00  0.00    -0.180 N 
ATOM     13  N   UNL A   1      32.791  23.445  26.004  1.00  0.00    -0.168 NA
ATOM     14  C   UNL A   1      33.350  24.390  24.048  1.00  0.00     0.143 A 
ATOM     15  C   UNL A   1      31.706  24.028  25.487  1.00  0.00     0.066 A 
ATOM     16  C   UNL A   1      31.992  24.566  24.198  1.00  0.00     0.026 A 
ATOM     17  N   UNL A   1      34.063  25.138  23.128  1.00  0.00    -0.310 N 
ATOM     18  C   UNL A   1      30.498  24.167  26.341  1.00  0.00     0.069 C 
ATOM     19  C   UNL A   1      33.352  25.972  22.189  1.00  0.00     0.226 C 
ATOM     20  H   UNL A   1      35.047  25.101  23.115  1.00  0.00     0.171 HD
ATOM     21  C   UNL A   1      31.905  25.615  21.942  1.00  0.00     0.113 C 
ATOM     22  O   UNL A   1      33.996  26.788  21.578  1.00  0.00    -0.275 OA
BRANCH  12  23
ATOM     23  C   UNL A   1      34.404  22.227  24.695  1.00  0.00     0.272 A 
ATOM     24  C   UNL A   1      34.746  19.993  24.922  1.00  0.00     0.095 A 
ATOM     25  C   UNL A   1      36.094  20.188  24.677  1.00  0.00     0.164 A 
ATOM     26  N   UNL A   1      33.869  21.027  24.991  1.00  0.00    -0.208 NA
ATOM     27  N   UNL A   1      36.577  21.403  24.395  1.00  0.00    -0.153 NA
ATOM     28  N   UNL A   1      35.705  22.428  24.360  1.00  0.00    -0.109 NA
BRANCH  24  29
ATOM     29  C   UNL A   1      34.169  18.652  24.988  1.00  0.00     0.002 A 
ATOM     30  C   UNL A   1      32.647  14.626  25.355  1.00  0.00     0.044 C 
ATOM     31  C   UNL A   1      33.184  16.020  25.233  1.00  0.00    -0.051 A 
ATOM     32  C   UNL A   1      32.401  17.110  25.627  1.00  0.00     0.004 A 
ATOM     33  C   UNL A   1      34.460  16.247  24.715  1.00  0.00     0.004 A 
ATOM     34  C   UNL A   1      32.889  18.414  25.507  1.00  0.00     0.011 A 
ATOM     35  C   UNL A   1      34.944  17.549  24.591  1.00  0.00     0.011 A 
ENDBRANCH  24  29
ENDBRANCH  12  23
ENDBRANCH   6  11
ENDBRANCH   3   5
ENDBRANCH   2   3
ENDBRANCH   1   2
BRANCH   1  36
ATOM     36  C   UNL A   1      34.403  29.343  27.597  1.00  0.00     0.275 C 
BRANCH  36  37
ATOM     37  O   UNL A   1      35.815  29.476  27.331  1.00  0.00    -0.458 OA
BRANCH  37  38
ATOM     38  C   UNL A   1      36.572  29.940  28.360  1.00  0.00     0.338 C 
ATOM     39  O   UNL A   1      36.162  30.692  29.222  1.00  0.00    -0.246 OA
BRANCH  38  40
ATOM     40  C   UNL A   1      37.827  29.144  28.380  1.00  0.00     0.060 A 
ATOM     41  C   UNL A   1      38.708  29.247  27.303  1.00  0.00     0.016 A 
ATOM     42  C   UNL A   1      38.252  28.595  29.596  1.00  0.00     0.016 A 
ATOM     43  C   UNL A   1      40.046  28.918  27.477  1.00  0.00     0.010 A 
ATOM     44  C   UNL A   1      39.593  28.416  29.812  1.00  0.00     0.010 A 
ATOM     45  C   UNL A   1      40.486  28.579  28.747  1.00  0.00    -0.014 A 
BRANCH  45  46
ATOM     46  C   UNL A   1      41.775  27.967  28.978  1.00  0.00     0.031 A 
ATOM     47  C   UNL A   1      42.007  26.524  28.820  1.00  0.00     0.074 A 
ATOM     48  C   UNL A   1      42.690  28.960  29.022  1.00  0.00     0.049 A 
ATOM     49  N   UNL A   1      43.157  25.981  28.984  1.00  0.00    -0.248 NA
ATOM     50  C   UNL A   1      40.984  25.524  28.514  1.00  0.00     0.031 C 
ATOM     51  C   UNL A   1      44.100  29.016  28.710  1.00  0.00     0.029 A 
ATOM     52  N   UNL A   1      42.422  30.220  29.569  1.00  0.00    -0.354 N 
ATOM     53  C   UNL A   1      43.106  24.714  28.435  1.00  0.00     0.074 A 
ATOM     54  C   UNL A   1      41.710  24.422  28.277  1.00  0.00     0.031 C 
ATOM     55  C   UNL A   1      44.623  30.102  29.321  1.00  0.00     0.029 A 
ATOM     56  C   UNL A   1      43.582  30.651  30.192  1.00  0.00     0.049 A 
ATOM     57  H   UNL A   1      41.570  30.710  29.520  1.00  0.00     0.167 HD
ATOM     58  C   UNL A   1      44.283  24.166  28.025  1.00  0.00     0.031 A 
ATOM     59  C   UNL A   1      43.593  30.573  31.559  1.00  0.00     0.031 A 
ATOM     60  C   UNL A   1      45.380  25.033  28.448  1.00  0.00     0.049 A 
ATOM     61  C   UNL A   1      44.569  29.512  32.024  1.00  0.00     0.074 A 
ATOM     62  C   UNL A   1      46.084  26.031  27.798  1.00  0.00     0.029 A 
ATOM     63  N   UNL A   1      45.558  25.241  29.807  1.00  0.00    -0.354 N 
ATOM     64  N   UNL A   1      44.853  28.404  31.388  1.00  0.00    -0.248 NA
ATOM     65  C   UNL A   1      45.370  29.696  33.220  1.00  0.00     0.031 C 
ATOM     66  C   UNL A   1      46.659  26.871  28.795  1.00  0.00     0.029 A 
ATOM     67  C   UNL A   1      46.291  26.387  30.040  1.00  0.00     0.049 A 
ATOM     68  H   UNL A   1      45.208  24.650  30.512  1.00  0.00     0.167 HD
ATOM     69  C   UNL A   1      45.951  27.812  31.969  1.00  0.00     0.074 A 
ATOM     70  C   UNL A   1      46.173  28.620  33.162  1.00  0.00     0.031 C 
ATOM     71  C   UNL A   1      46.621  26.750  31.414  1.00  0.00     0.031 A 
BRANCH  58  72
ATOM     72  C   UNL A   1      44.463  23.040  27.033  1.00  0.00    -0.014 A 
ATOM     73  C   UNL A   1      43.373  22.159  26.843  1.00  0.00     0.010 A 
ATOM     74  C   UNL A   1      45.631  22.748  26.303  1.00  0.00     0.010 A 
ATOM     75  C   UNL A   1      43.444  21.034  26.017  1.00  0.00     0.020 A 
ATOM     76  C   UNL A   1      45.716  21.616  25.463  1.00  0.00     0.020 A 
ATOM     77  C   UNL A   1      44.620  20.762  25.332  1.00  0.00     0.054 A 
BRANCH  77  78
ATOM     78  S   UNL A   1      44.670  19.291  24.273  1.00  0.00     0.124 S 
ATOM     79  O   UNL A   1      43.563  18.492  24.796  1.00  0.00    -0.237 OA
ATOM     80  O   UNL A   1      44.462  19.854  22.942  1.00  0.00    -0.237 OA
ATOM     81  O   UNL A   1      46.000  18.735  24.512  1.00  0.00    -0.744 OA
ENDBRANCH  77  78
ENDBRANCH  58  72
BRANCH  59  82
ATOM     82  C   UNL A   1      42.279  30.923  32.222  1.00  0.00    -0.014 A 
ATOM     83  C   UNL A   1      41.431  29.859  32.623  1.00  0.00     0.010 A 
ATOM     84  C   UNL A   1      41.993  32.204  32.728  1.00  0.00     0.010 A 
ATOM     85  C   UNL A   1      40.428  30.036  33.587  1.00  0.00     0.020 A 
ATOM     86  C   UNL A   1      40.965  32.393  33.678  1.00  0.00     0.020 A 
ATOM     87  C   UNL A   1      40.217  31.301  34.131  1.00  0.00     0.054 A 
BRANCH  87  88
ATOM     88  S   UNL A   1      39.125  31.453  35.585  1.00  0.00     0.124 S 
ATOM     89  O   UNL A   1      39.711  32.580  36.302  1.00  0.00    -0.237 OA
ATOM     90  O   UNL A   1      37.824  31.704  34.972  1.00  0.00    -0.237 OA
ATOM     91  O   UNL A   1      39.260  30.150  36.236  1.00  0.00    -0.744 OA
ENDBRANCH  87  88
ENDBRANCH  59  82
BRANCH  71  92
ATOM     92  C   UNL A   1      47.690  25.898  32.079  1.00  0.00    -0.014 A 
ATOM     93  C   UNL A   1      47.551  25.237  33.299  1.00  0.00     0.010 A 
ATOM     94  C   UNL A   1      48.943  25.736  31.425  1.00  0.00     0.010 A 
ATOM     95  C   UNL A   1      48.548  24.382  33.787  1.00  0.00     0.020 A 
ATOM     96  C   UNL A   1      49.949  24.894  31.897  1.00  0.00     0.020 A 
ATOM     97  C   UNL A   1      49.731  24.204  33.074  1.00  0.00     0.054 A 
BRANCH  97  98
ATOM     98  S   UNL A   1      50.980  23.080  33.726  1.00  0.00     0.124 S 
ATOM     99  O   UNL A   1      52.094  23.986  33.991  1.00  0.00    -0.237 OA
ATOM    100  O   UNL A   1      50.314  22.540  34.909  1.00  0.00    -0.237 OA
ATOM    101  O   UNL A   1      51.194  22.125  32.643  1.00  0.00    -0.744 OA
ENDBRANCH  97  98
ENDBRANCH  71  92
ENDBRANCH  45  46
ENDBRANCH  38  40
ENDBRANCH  37  38
ENDBRANCH  36  37
ENDBRANCH   1  36
TORSDOF 17
ENDMDL
MODEL 3
REMARK VINA RESULT:     -13.4      4.506     10.910
REMARK SMILES Cc1ccc(-c2cnnc(-n3nc(C)c4c3NC(=O)C[C@@H]4c3ccc(C(=O)OCCOC(=O)c4ccc(-c5c6nc(c(-c7ccc(S(=O)(=O)[O-])cc7)c7ccc([nH]7)c(-c7ccc(S(=O)(=O)[O-])cc7)c7nc(c(-c8ccc(S(=O)(=O)[O-])cc8)c8ccc5[nH]8)C=C7)C=C6)cc4)cc3)n2)cc1
REMARK SMILES IDX 29 1 28 2 26 3 27 4 25 5 22 6 23 7 95 8 24 9 94 10 21 11
REMARK SMILES IDX 11 12 12 13 16 14 13 15 15 16 17 17 14 18 18 19 20 21 19 22
REMARK SMILES IDX 10 23 6 24 7 25 96 26 8 27 9 28 5 29 1 30 2 31 3 32 98 33
REMARK SMILES IDX 4 34 97 35 30 36 31 37 32 38 33 39 34 40 35 41 93 42 36 43
REMARK SMILES IDX 92 44 37 45 38 46 39 47 86 48 40 49 91 50 85 51 87 52 41 53
REMARK SMILES IDX 90 54 84 55 83 56 42 58 72 59 53 60 71 61 54 62 57 63 70 64
REMARK SMILES IDX 88 65 55 66 56 67 69 69 89 70 58 71 43 72 44 73 52 74 45 75
REMARK SMILES IDX 51 76 46 77 47 78 48 79 49 80 50 81 73 82 74 83 82 84 75 85
REMARK SMILES IDX 81 86 76 87 77 88 78 89 79 90 80 91 59 92 60 93 68 94 61 95
REMARK SMILES IDX 67 96 62 97 63 98 64 99 65 100 66 101
REMARK H PARENT 17 20 87 57 57 68
REMARK Flexibility Score: inf
ROOT
ATOM      1  C   UNL A   1      45.251  26.306  25.183  1.00  0.00     0.275 C 
ENDROOT
BRANCH   1   2
ATOM      2  O   UNL A   1      45.898  25.167  25.772  1.00  0.00    -0.458 OA
BRANCH   2   3
ATOM      3  C   UNL A   1      45.682  24.024  25.086  1.00  0.00     0.338 C 
ATOM      4  O   UNL A   1      46.099  23.768  23.968  1.00  0.00    -0.246 OA
BRANCH   3   5
ATOM      5  C   UNL A   1      44.691  23.162  25.735  1.00  0.00     0.060 A 
ATOM      6  C   UNL A   1      42.367  22.498  27.099  1.00  0.00    -0.040 A 
ATOM      7  C   UNL A   1      42.425  22.313  25.723  1.00  0.00     0.005 A 
ATOM      8  C   UNL A   1      43.559  22.786  27.800  1.00  0.00     0.005 A 
ATOM      9  C   UNL A   1      43.582  22.664  25.049  1.00  0.00     0.016 A 
ATOM     10  C   UNL A   1      44.705  23.163  27.120  1.00  0.00     0.016 A 
BRANCH   6  11
ATOM     11  C   UNL A   1      40.988  22.541  27.715  1.00  0.00     0.064 C 
ATOM     12  N   UNL A   1      38.466  21.387  25.417  1.00  0.00    -0.180 N 
ATOM     13  N   UNL A   1      39.204  20.245  25.388  1.00  0.00    -0.168 NA
ATOM     14  C   UNL A   1      39.219  22.418  25.942  1.00  0.00     0.143 A 
ATOM     15  C   UNL A   1      40.126  20.437  26.334  1.00  0.00     0.066 A 
ATOM     16  C   UNL A   1      40.110  21.790  26.783  1.00  0.00     0.026 A 
ATOM     17  N   UNL A   1      39.237  23.793  25.790  1.00  0.00    -0.310 N 
ATOM     18  C   UNL A   1      41.076  19.334  26.636  1.00  0.00     0.069 C 
ATOM     19  C   UNL A   1      40.069  24.591  26.659  1.00  0.00     0.226 C 
ATOM     20  H   UNL A   1      38.689  24.223  25.095  1.00  0.00     0.171 HD
ATOM     21  C   UNL A   1      40.477  23.950  27.965  1.00  0.00     0.113 C 
ATOM     22  O   UNL A   1      40.254  25.740  26.345  1.00  0.00    -0.275 OA
BRANCH  12  23
ATOM     23  C   UNL A   1      37.051  21.324  25.382  1.00  0.00     0.272 A 
ATOM     24  C   UNL A   1      35.114  20.226  24.933  1.00  0.00     0.095 A 
ATOM     25  C   UNL A   1      34.476  21.443  24.774  1.00  0.00     0.164 A 
ATOM     26  N   UNL A   1      36.443  20.137  25.191  1.00  0.00    -0.208 NA
ATOM     27  N   UNL A   1      35.128  22.596  24.968  1.00  0.00    -0.153 NA
ATOM     28  N   UNL A   1      36.424  22.528  25.323  1.00  0.00    -0.109 NA
BRANCH  24  29
ATOM     29  C   UNL A   1      34.365  18.971  24.966  1.00  0.00     0.002 A 
ATOM     30  C   UNL A   1      32.322  15.175  25.232  1.00  0.00     0.044 C 
ATOM     31  C   UNL A   1      33.039  16.488  25.145  1.00  0.00    -0.051 A 
ATOM     32  C   UNL A   1      32.405  17.662  25.564  1.00  0.00     0.004 A 
ATOM     33  C   UNL A   1      34.337  16.557  24.635  1.00  0.00     0.004 A 
ATOM     34  C   UNL A   1      33.061  18.893  25.476  1.00  0.00     0.011 A 
ATOM     35  C   UNL A   1      34.988  17.786  24.543  1.00  0.00     0.011 A 
ENDBRANCH  24  29
ENDBRANCH  12  23
ENDBRANCH   6  11
ENDBRANCH   3   5
ENDBRANCH   2   3
ENDBRANCH   1   2
BRANCH   1  36
ATOM     36  C   UNL A   1      43.763  26.361  25.565  1.00  0.00     0.275 C 
BRANCH  36  37
ATOM     37  O   UNL A   1      43.339  27.413  26.457  1.00  0.00    -0.458 OA
BRANCH  37  38
ATOM     38  C   UNL A   1      42.586  28.398  25.899  1.00  0.00     0.338 C 
ATOM     39  O   UNL A   1      42.336  28.474  24.713  1.00  0.00    -0.246 OA
BRANCH  38  40
ATOM     40  C   UNL A   1      41.924  29.132  27.010  1.00  0.00     0.060 A 
ATOM     41  C   UNL A   1      40.692  28.675  27.478  1.00  0.00     0.016 A 
ATOM     42  C   UNL A   1      42.687  30.026  27.769  1.00  0.00     0.016 A 
ATOM     43  C   UNL A   1      40.279  29.013  28.761  1.00  0.00     0.010 A 
ATOM     44  C   UNL A   1      42.356  30.233  29.083  1.00  0.00     0.010 A 
ATOM     45  C   UNL A   1      41.148  29.724  29.573  1.00  0.00    -0.014 A 
BRANCH  45  46
ATOM     46  C   UNL A   1      40.717  30.349  30.803  1.00  0.00     0.031 A 
ATOM     47  C   UNL A   1      39.991  31.627  30.831  1.00  0.00     0.074 A 
ATOM     48  C   UNL A   1      40.812  29.421  31.780  1.00  0.00     0.049 A 
ATOM     49  N   UNL A   1      39.571  32.165  31.915  1.00  0.00    -0.248 NA
ATOM     50  C   UNL A   1      39.698  32.467  29.669  1.00  0.00     0.031 C 
ATOM     51  C   UNL A   1      40.102  29.222  33.023  1.00  0.00     0.029 A 
ATOM     52  N   UNL A   1      41.826  28.457  31.821  1.00  0.00    -0.354 N 
ATOM     53  C   UNL A   1      38.656  33.143  31.573  1.00  0.00     0.074 A 
ATOM     54  C   UNL A   1      38.864  33.388  30.174  1.00  0.00     0.031 C 
ATOM     55  C   UNL A   1      40.854  28.425  33.814  1.00  0.00     0.029 A 
ATOM     56  C   UNL A   1      42.150  28.259  33.152  1.00  0.00     0.049 A 
ATOM     57  H   UNL A   1      42.232  28.002  31.047  1.00  0.00     0.167 HD
ATOM     58  C   UNL A   1      37.721  33.475  32.505  1.00  0.00     0.031 A 
ATOM     59  C   UNL A   1      43.318  28.833  33.577  1.00  0.00     0.031 A 
ATOM     60  C   UNL A   1      38.046  32.800  33.759  1.00  0.00     0.049 A 
ATOM     61  C   UNL A   1      43.034  29.969  34.538  1.00  0.00     0.074 A 
ATOM     62  C   UNL A   1      37.602  31.617  34.324  1.00  0.00     0.029 A 
ATOM     63  N   UNL A   1      39.254  33.101  34.368  1.00  0.00    -0.354 N 
ATOM     64  N   UNL A   1      41.991  30.759  34.501  1.00  0.00    -0.248 NA
ATOM     65  C   UNL A   1      43.889  30.220  35.684  1.00  0.00     0.031 C 
ATOM     66  C   UNL A   1      38.589  31.190  35.258  1.00  0.00     0.029 A 
ATOM     67  C   UNL A   1      39.628  32.106  35.247  1.00  0.00     0.049 A 
ATOM     68  H   UNL A   1      39.775  33.918  34.196  1.00  0.00     0.167 HD
ATOM     69  C   UNL A   1      41.936  31.498  35.661  1.00  0.00     0.074 A 
ATOM     70  C   UNL A   1      43.197  31.180  36.319  1.00  0.00     0.031 C 
ATOM     71  C   UNL A   1      40.855  32.266  36.019  1.00  0.00     0.031 A 
BRANCH  58  72
ATOM     72  C   UNL A   1      36.394  34.153  32.258  1.00  0.00    -0.014 A 
ATOM     73  C   UNL A   1      35.846  34.917  33.315  1.00  0.00     0.010 A 
ATOM     74  C   UNL A   1      35.615  34.065  31.088  1.00  0.00     0.010 A 
ATOM     75  C   UNL A   1      34.589  35.523  33.239  1.00  0.00     0.020 A 
ATOM     76  C   UNL A   1      34.343  34.674  30.998  1.00  0.00     0.020 A 
ATOM     77  C   UNL A   1      33.837  35.394  32.080  1.00  0.00     0.054 A 
BRANCH  77  78
ATOM     78  S   UNL A   1      32.211  36.194  32.025  1.00  0.00     0.124 S 
ATOM     79  O   UNL A   1      32.004  36.384  30.591  1.00  0.00    -0.237 OA
ATOM     80  O   UNL A   1      31.349  35.198  32.656  1.00  0.00    -0.237 OA
ATOM     81  O   UNL A   1      32.402  37.424  32.791  1.00  0.00    -0.744 OA
ENDBRANCH  77  78
ENDBRANCH  58  72
BRANCH  59  82
ATOM     82  C   UNL A   1      44.449  28.781  32.574  1.00  0.00    -0.014 A 
ATOM     83  C   UNL A   1      44.962  27.508  32.213  1.00  0.00     0.010 A 
ATOM     84  C   UNL A   1      44.808  29.876  31.766  1.00  0.00     0.010 A 
ATOM     85  C   UNL A   1      45.688  27.312  31.030  1.00  0.00     0.020 A 
ATOM     86  C   UNL A   1      45.563  29.687  30.588  1.00  0.00     0.020 A 
ATOM     87  C   UNL A   1      45.964  28.402  30.207  1.00  0.00     0.054 A 
BRANCH  87  88
ATOM     88  S   UNL A   1      46.639  28.087  28.542  1.00  0.00     0.124 S 
ATOM     89  O   UNL A   1      48.032  28.496  28.684  1.00  0.00    -0.237 OA
ATOM     90  O   UNL A   1      46.416  26.653  28.382  1.00  0.00    -0.237 OA
ATOM     91  O   UNL A   1      45.815  28.939  27.684  1.00  0.00    -0.744 OA
ENDBRANCH  87  88
ENDBRANCH  59  82
BRANCH  71  92
ATOM     92  C   UNL A   1      40.791  33.277  37.151  1.00  0.00    -0.014 A 
ATOM     93  C   UNL A   1      40.492  32.981  38.481  1.00  0.00     0.010 A 
ATOM     94  C   UNL A   1      41.061  34.645  36.866  1.00  0.00     0.010 A 
ATOM     95  C   UNL A   1      40.565  33.958  39.483  1.00  0.00     0.020 A 
ATOM     96  C   UNL A   1      41.131  35.631  37.848  1.00  0.00     0.020 A 
ATOM     97  C   UNL A   1      40.900  35.271  39.162  1.00  0.00     0.054 A 
BRANCH  97  98
ATOM     98  S   UNL A   1      41.000  36.493  40.483  1.00  0.00     0.124 S 
ATOM     99  O   UNL A   1      40.736  37.737  39.765  1.00  0.00    -0.237 OA
ATOM    100  O   UNL A   1      39.941  36.050  41.386  1.00  0.00    -0.237 OA
ATOM    101  O   UNL A   1      42.358  36.343  40.997  1.00  0.00    -0.744 OA
ENDBRANCH  97  98
ENDBRANCH  71  92
ENDBRANCH  45  46
ENDBRANCH  38  40
ENDBRANCH  37  38
ENDBRANCH  36  37
ENDBRANCH   1  36
TORSDOF 17
ENDMDL
