MODEL 1
REMARK VINA RESULT:      -9.4      0.000      0.000
REMARK SMILES O=C(COc1ccc(C(=O)/C=C/c2ccc(Cl)c([N+](=O)[O-])c2)cc1)OCCOC(=O)c1ccc(-c2c3nc(c(-c4ccc(S(=O)(=O)[O-])cc4)c4ccc([nH]4)c(-c4ccc(S(=O)(=O)[O-])cc4)c4nc(c(-c5ccc(S(=O)(=O)[O-])cc5)c5ccc2[nH]5)C=C4)C=C3)cc1
REMARK SMILES IDX 25 1 2 2 1 3 3 4 4 5 5 6 6 7 24 8 7 9 23 10 8 11 9 12 10 13
REMARK SMILES IDX 11 14 12 15 13 16 14 17 22 18 15 19 18 20 16 21 17 22 19 23
REMARK SMILES IDX 20 24 21 25 26 26 27 27 28 28 29 29 30 30 31 31 32 32 90 33
REMARK SMILES IDX 33 34 89 35 34 36 35 37 36 38 83 39 37 40 88 41 82 42 84 43
REMARK SMILES IDX 38 44 87 45 81 46 80 47 39 49 69 50 50 51 68 52 51 53 54 54
REMARK SMILES IDX 67 55 85 56 52 57 53 58 66 60 86 61 55 62 40 63 41 64 49 65
REMARK SMILES IDX 42 66 48 67 43 68 44 69 45 70 46 71 47 72 70 73 71 74 79 75
REMARK SMILES IDX 72 76 78 77 73 78 74 79 75 80 76 81 77 82 56 83 57 84 65 85
REMARK SMILES IDX 58 86 64 87 59 88 60 89 61 90 62 91 63 92
REMARK H PARENT 84 48 54 59
REMARK Flexibility Score: inf
ROOT
ATOM      1  O   UNL A   1      32.584  34.581  29.179  1.00  0.00    -0.460 OA
ENDROOT
BRANCH   1   2
ATOM      2  C   UNL A   1      33.265  35.582  29.791  1.00  0.00     0.344 C 
ATOM      3  O   UNL A   1      33.501  36.627  29.187  1.00  0.00    -0.248 OA
BRANCH   2   4
ATOM      4  C   UNL A   1      33.669  35.401  31.252  1.00  0.00     0.351 C 
BRANCH   4   5
ATOM      5  O   UNL A   1      33.915  34.049  31.638  1.00  0.00    -0.482 OA
BRANCH   5   6
ATOM      6  C   UNL A   1      35.166  33.953  32.183  1.00  0.00     0.120 A 
ATOM      7  C   UNL A   1      36.164  33.259  31.502  1.00  0.00     0.047 A 
ATOM      8  C   UNL A   1      35.414  34.545  33.417  1.00  0.00     0.047 A 
ATOM      9  C   UNL A   1      37.458  33.235  32.025  1.00  0.00     0.016 A 
ATOM     10  C   UNL A   1      36.703  34.515  33.942  1.00  0.00     0.016 A 
ATOM     11  C   UNL A   1      37.740  33.900  33.225  1.00  0.00     0.022 A 
BRANCH  11  12
ATOM     12  C   UNL A   1      39.136  33.903  33.733  1.00  0.00     0.185 C 
ATOM     13  O   UNL A   1      39.640  34.936  34.161  1.00  0.00    -0.289 OA
BRANCH  12  14
ATOM     14  C   UNL A   1      39.959  32.662  33.681  1.00  0.00     0.053 C 
ATOM     15  C   UNL A   1      40.002  31.739  34.654  1.00  0.00     0.012 C 
BRANCH  15  16
ATOM     16  C   UNL A   1      40.749  30.493  34.495  1.00  0.00    -0.019 A 
ATOM     17  C   UNL A   1      41.245  30.162  33.231  1.00  0.00     0.010 A 
ATOM     18  C   UNL A   1      40.981  29.635  35.572  1.00  0.00     0.095 A 
ATOM     19  C   UNL A   1      41.986  28.991  33.046  1.00  0.00     0.028 A 
ATOM     20  C   UNL A   1      41.718  28.448  35.380  1.00  0.00     0.288 A 
ATOM     21  C   UNL A   1      42.238  28.129  34.120  1.00  0.00     0.118 A 
ATOM     22  Cl  UNL A   1      43.238  26.763  33.771  1.00  0.00    -0.077 Cl
BRANCH  20  23
ATOM     23  N   UNL A   1      41.915  27.586  36.545  1.00  0.00     0.064 N 
ATOM     24  O   UNL A   1      41.077  26.709  36.782  1.00  0.00    -0.258 OA
ATOM     25  O   UNL A   1      42.904  27.818  37.256  1.00  0.00    -0.258 OA
ENDBRANCH  20  23
ENDBRANCH  15  16
ENDBRANCH  12  14
ENDBRANCH  11  12
ENDBRANCH   5   6
ENDBRANCH   4   5
ENDBRANCH   2   4
ENDBRANCH   1   2
BRANCH   1  26
ATOM     26  C   UNL A   1      33.033  33.906  27.984  1.00  0.00     0.274 C 
BRANCH  26  27
ATOM     27  C   UNL A   1      34.405  33.266  28.206  1.00  0.00     0.275 C 
BRANCH  27  28
ATOM     28  O   UNL A   1      34.259  32.068  28.987  1.00  0.00    -0.458 OA
BRANCH  28  29
ATOM     29  C   UNL A   1      34.377  30.896  28.312  1.00  0.00     0.338 C 
ATOM     30  O   UNL A   1      33.567  30.414  27.541  1.00  0.00    -0.246 OA
BRANCH  29  31
ATOM     31  C   UNL A   1      35.760  30.400  28.491  1.00  0.00     0.060 A 
ATOM     32  C   UNL A   1      36.169  30.014  29.776  1.00  0.00     0.016 A 
ATOM     33  C   UNL A   1      36.627  30.258  27.404  1.00  0.00     0.016 A 
ATOM     34  C   UNL A   1      37.455  29.505  29.977  1.00  0.00     0.010 A 
ATOM     35  C   UNL A   1      37.913  29.754  27.609  1.00  0.00     0.010 A 
ATOM     36  C   UNL A   1      38.341  29.396  28.899  1.00  0.00    -0.014 A 
BRANCH  36  37
ATOM     37  C   UNL A   1      39.768  29.060  29.112  1.00  0.00     0.031 A 
ATOM     38  C   UNL A   1      40.700  30.150  29.557  1.00  0.00     0.074 A 
ATOM     39  C   UNL A   1      40.243  27.830  28.849  1.00  0.00     0.049 A 
ATOM     40  N   UNL A   1      41.999  30.120  29.702  1.00  0.00    -0.248 NA
ATOM     41  C   UNL A   1      40.083  31.450  29.868  1.00  0.00     0.031 C 
ATOM     42  C   UNL A   1      39.443  26.683  28.422  1.00  0.00     0.029 A 
ATOM     43  N   UNL A   1      41.531  27.353  28.875  1.00  0.00    -0.354 N 
ATOM     44  C   UNL A   1      42.358  31.400  30.106  1.00  0.00     0.074 A 
ATOM     45  C   UNL A   1      41.144  32.185  30.163  1.00  0.00     0.031 C 
ATOM     46  C   UNL A   1      40.264  25.642  28.195  1.00  0.00     0.029 A 
ATOM     47  C   UNL A   1      41.646  26.057  28.433  1.00  0.00     0.049 A 
ATOM     48  H   UNL A   1      42.298  27.889  29.181  1.00  0.00     0.167 HD
ATOM     49  C   UNL A   1      43.588  31.881  30.402  1.00  0.00     0.031 A 
ATOM     50  C   UNL A   1      42.742  25.303  28.214  1.00  0.00     0.031 A 
ATOM     51  C   UNL A   1      44.799  31.112  30.321  1.00  0.00     0.049 A 
ATOM     52  C   UNL A   1      44.109  25.871  28.496  1.00  0.00     0.074 A 
ATOM     53  C   UNL A   1      46.089  31.504  30.630  1.00  0.00     0.029 A 
ATOM     54  N   UNL A   1      44.871  29.800  29.879  1.00  0.00    -0.354 N 
ATOM     55  N   UNL A   1      44.430  27.065  28.937  1.00  0.00    -0.248 NA
ATOM     56  C   UNL A   1      45.262  24.990  28.256  1.00  0.00     0.031 C 
ATOM     57  C   UNL A   1      46.949  30.445  30.324  1.00  0.00     0.029 A 
ATOM     58  C   UNL A   1      46.189  29.376  29.876  1.00  0.00     0.049 A 
ATOM     59  H   UNL A   1      44.100  29.251  29.608  1.00  0.00     0.167 HD
ATOM     60  C   UNL A   1      45.817  27.069  29.050  1.00  0.00     0.074 A 
ATOM     61  C   UNL A   1      46.275  25.759  28.635  1.00  0.00     0.031 C 
ATOM     62  C   UNL A   1      46.634  28.067  29.466  1.00  0.00     0.031 A 
BRANCH  49  63
ATOM     63  C   UNL A   1      43.676  33.329  30.796  1.00  0.00    -0.014 A 
ATOM     64  C   UNL A   1      43.837  34.337  29.829  1.00  0.00     0.010 A 
ATOM     65  C   UNL A   1      43.612  33.683  32.155  1.00  0.00     0.010 A 
ATOM     66  C   UNL A   1      43.991  35.670  30.218  1.00  0.00     0.020 A 
ATOM     67  C   UNL A   1      43.740  35.018  32.547  1.00  0.00     0.020 A 
ATOM     68  C   UNL A   1      43.954  35.999  31.578  1.00  0.00     0.054 A 
BRANCH  68  69
ATOM     69  S   UNL A   1      44.181  37.732  32.062  1.00  0.00     0.124 S 
ATOM     70  O   UNL A   1      43.252  37.852  33.184  1.00  0.00    -0.237 OA
ATOM     71  O   UNL A   1      45.598  37.787  32.413  1.00  0.00    -0.237 OA
ATOM     72  O   UNL A   1      43.810  38.478  30.863  1.00  0.00    -0.744 OA
ENDBRANCH  68  69
ENDBRANCH  49  63
BRANCH  50  73
ATOM     73  C   UNL A   1      42.589  23.928  27.669  1.00  0.00    -0.014 A 
ATOM     74  C   UNL A   1      42.735  23.678  26.294  1.00  0.00     0.010 A 
ATOM     75  C   UNL A   1      42.318  22.852  28.536  1.00  0.00     0.010 A 
ATOM     76  C   UNL A   1      42.609  22.379  25.794  1.00  0.00     0.020 A 
ATOM     77  C   UNL A   1      42.213  21.549  28.043  1.00  0.00     0.020 A 
ATOM     78  C   UNL A   1      42.353  21.322  26.673  1.00  0.00     0.054 A 
BRANCH  78  79
ATOM     79  S   UNL A   1      42.265  19.633  26.014  1.00  0.00     0.124 S 
ATOM     80  O   UNL A   1      43.189  19.699  24.887  1.00  0.00    -0.237 OA
ATOM     81  O   UNL A   1      42.707  18.827  27.150  1.00  0.00    -0.237 OA
ATOM     82  O   UNL A   1      40.855  19.479  25.662  1.00  0.00    -0.744 OA
ENDBRANCH  78  79
ENDBRANCH  50  73
BRANCH  62  83
ATOM     83  C   UNL A   1      48.113  27.791  29.533  1.00  0.00    -0.014 A 
ATOM     84  C   UNL A   1      48.659  27.000  30.558  1.00  0.00     0.010 A 
ATOM     85  C   UNL A   1      48.946  28.236  28.490  1.00  0.00     0.010 A 
ATOM     86  C   UNL A   1      50.016  26.663  30.541  1.00  0.00     0.020 A 
ATOM     87  C   UNL A   1      50.297  27.884  28.458  1.00  0.00     0.020 A 
ATOM     88  C   UNL A   1      50.826  27.102  29.488  1.00  0.00     0.054 A 
BRANCH  88  89
ATOM     89  S   UNL A   1      52.561  26.576  29.439  1.00  0.00     0.124 S 
ATOM     90  O   UNL A   1      53.251  27.828  29.143  1.00  0.00    -0.237 OA
ATOM     91  O   UNL A   1      52.775  26.043  30.782  1.00  0.00    -0.237 OA
ATOM     92  O   UNL A   1      52.592  25.580  28.370  1.00  0.00    -0.744 OA
ENDBRANCH  88  89
ENDBRANCH  62  83
ENDBRANCH  36  37
ENDBRANCH  29  31
ENDBRANCH  28  29
ENDBRANCH  27  28
ENDBRANCH  26  27
ENDBRANCH   1  26
TORSDOF 20
ENDMDL
MODEL 2
REMARK VINA RESULT:      -9.4      1.985      8.199
REMARK SMILES O=C(COc1ccc(C(=O)/C=C/c2ccc(Cl)c([N+](=O)[O-])c2)cc1)OCCOC(=O)c1ccc(-c2c3nc(c(-c4ccc(S(=O)(=O)[O-])cc4)c4ccc([nH]4)c(-c4ccc(S(=O)(=O)[O-])cc4)c4nc(c(-c5ccc(S(=O)(=O)[O-])cc5)c5ccc2[nH]5)C=C4)C=C3)cc1
REMARK SMILES IDX 25 1 2 2 1 3 3 4 4 5 5 6 6 7 24 8 7 9 23 10 8 11 9 12 10 13
REMARK SMILES IDX 11 14 12 15 13 16 14 17 22 18 15 19 18 20 16 21 17 22 19 23
REMARK SMILES IDX 20 24 21 25 26 26 27 27 28 28 29 29 30 30 31 31 32 32 90 33
REMARK SMILES IDX 33 34 89 35 34 36 35 37 36 38 83 39 37 40 88 41 82 42 84 43
REMARK SMILES IDX 38 44 87 45 81 46 80 47 39 49 69 50 50 51 68 52 51 53 54 54
REMARK SMILES IDX 67 55 85 56 52 57 53 58 66 60 86 61 55 62 40 63 41 64 49 65
REMARK SMILES IDX 42 66 48 67 43 68 44 69 45 70 46 71 47 72 70 73 71 74 79 75
REMARK SMILES IDX 72 76 78 77 73 78 74 79 75 80 76 81 77 82 56 83 57 84 65 85
REMARK SMILES IDX 58 86 64 87 59 88 60 89 61 90 62 91 63 92
REMARK H PARENT 84 48 54 59
REMARK Flexibility Score: inf
ROOT
ATOM      1  O   UNL A   1      33.412  34.950  28.440  1.00  0.00    -0.460 OA
ENDROOT
BRANCH   1   2
ATOM      2  C   UNL A   1      33.176  35.429  29.687  1.00  0.00     0.344 C 
ATOM      3  O   UNL A   1      32.226  36.185  29.889  1.00  0.00    -0.248 OA
BRANCH   2   4
ATOM      4  C   UNL A   1      34.072  34.957  30.830  1.00  0.00     0.351 C 
BRANCH   4   5
ATOM      5  O   UNL A   1      33.814  33.627  31.277  1.00  0.00    -0.482 OA
BRANCH   5   6
ATOM      6  C   UNL A   1      34.729  33.285  32.234  1.00  0.00     0.120 A 
ATOM      7  C   UNL A   1      35.469  32.112  32.095  1.00  0.00     0.047 A 
ATOM      8  C   UNL A   1      34.897  34.114  33.339  1.00  0.00     0.047 A 
ATOM      9  C   UNL A   1      36.457  31.811  33.033  1.00  0.00     0.016 A 
ATOM     10  C   UNL A   1      35.878  33.810  34.278  1.00  0.00     0.016 A 
ATOM     11  C   UNL A   1      36.694  32.683  34.104  1.00  0.00     0.022 A 
BRANCH  11  12
ATOM     12  C   UNL A   1      37.787  32.366  35.059  1.00  0.00     0.185 C 
ATOM     13  O   UNL A   1      37.890  32.986  36.112  1.00  0.00    -0.289 OA
BRANCH  12  14
ATOM     14  C   UNL A   1      38.801  31.327  34.726  1.00  0.00     0.053 C 
ATOM     15  C   UNL A   1      39.794  30.946  35.545  1.00  0.00     0.012 C 
BRANCH  15  16
ATOM     16  C   UNL A   1      40.693  29.848  35.198  1.00  0.00    -0.019 A 
ATOM     17  C   UNL A   1      40.438  29.109  34.040  1.00  0.00     0.010 A 
ATOM     18  C   UNL A   1      41.796  29.525  35.992  1.00  0.00     0.095 A 
ATOM     19  C   UNL A   1      41.291  28.067  33.663  1.00  0.00     0.028 A 
ATOM     20  C   UNL A   1      42.648  28.467  35.617  1.00  0.00     0.288 A 
ATOM     21  C   UNL A   1      42.409  27.743  34.442  1.00  0.00     0.118 A 
ATOM     22  Cl  UNL A   1      43.425  26.492  33.817  1.00  0.00    -0.077 Cl
BRANCH  20  23
ATOM     23  N   UNL A   1      43.779  28.172  36.497  1.00  0.00     0.064 N 
ATOM     24  O   UNL A   1      44.825  28.815  36.353  1.00  0.00    -0.258 OA
ATOM     25  O   UNL A   1      43.630  27.255  37.317  1.00  0.00    -0.258 OA
ENDBRANCH  20  23
ENDBRANCH  15  16
ENDBRANCH  12  14
ENDBRANCH  11  12
ENDBRANCH   5   6
ENDBRANCH   4   5
ENDBRANCH   2   4
ENDBRANCH   1   2
BRANCH   1  26
ATOM     26  C   UNL A   1      33.065  33.619  28.003  1.00  0.00     0.274 C 
BRANCH  26  27
ATOM     27  C   UNL A   1      34.316  32.749  27.869  1.00  0.00     0.275 C 
BRANCH  27  28
ATOM     28  O   UNL A   1      34.145  31.536  28.622  1.00  0.00    -0.458 OA
BRANCH  28  29
ATOM     29  C   UNL A   1      34.501  30.386  27.993  1.00  0.00     0.338 C 
ATOM     30  O   UNL A   1      33.867  29.799  27.135  1.00  0.00    -0.246 OA
BRANCH  29  31
ATOM     31  C   UNL A   1      35.901  30.076  28.361  1.00  0.00     0.060 A 
ATOM     32  C   UNL A   1      36.160  29.588  29.649  1.00  0.00     0.016 A 
ATOM     33  C   UNL A   1      36.940  30.206  27.435  1.00  0.00     0.016 A 
ATOM     34  C   UNL A   1      37.464  29.248  30.019  1.00  0.00     0.010 A 
ATOM     35  C   UNL A   1      38.242  29.871  27.808  1.00  0.00     0.010 A 
ATOM     36  C   UNL A   1      38.515  29.412  29.108  1.00  0.00    -0.014 A 
BRANCH  36  37
ATOM     37  C   UNL A   1      39.926  29.260  29.532  1.00  0.00     0.031 A 
ATOM     38  C   UNL A   1      40.645  27.988  29.183  1.00  0.00     0.074 A 
ATOM     39  C   UNL A   1      40.538  30.201  30.273  1.00  0.00     0.049 A 
ATOM     40  N   UNL A   1      41.837  27.587  29.539  1.00  0.00    -0.248 NA
ATOM     41  C   UNL A   1      39.913  27.039  28.329  1.00  0.00     0.031 C 
ATOM     42  C   UNL A   1      39.956  31.482  30.670  1.00  0.00     0.029 A 
ATOM     43  N   UNL A   1      41.784  30.202  30.852  1.00  0.00    -0.354 N 
ATOM     44  C   UNL A   1      41.995  26.332  28.965  1.00  0.00     0.074 A 
ATOM     45  C   UNL A   1      40.769  26.031  28.256  1.00  0.00     0.031 C 
ATOM     46  C   UNL A   1      40.833  32.133  31.454  1.00  0.00     0.029 A 
ATOM     47  C   UNL A   1      42.024  31.303  31.637  1.00  0.00     0.049 A 
ATOM     48  H   UNL A   1      42.441  29.482  30.716  1.00  0.00     0.167 HD
ATOM     49  C   UNL A   1      43.062  25.502  29.023  1.00  0.00     0.031 A 
ATOM     50  C   UNL A   1      43.069  31.593  32.439  1.00  0.00     0.031 A 
ATOM     51  C   UNL A   1      44.270  25.786  29.747  1.00  0.00     0.049 A 
ATOM     52  C   UNL A   1      44.226  30.633  32.535  1.00  0.00     0.074 A 
ATOM     53  C   UNL A   1      45.418  25.019  29.840  1.00  0.00     0.029 A 
ATOM     54  N   UNL A   1      44.477  26.917  30.521  1.00  0.00    -0.354 N 
ATOM     55  N   UNL A   1      44.388  29.476  31.938  1.00  0.00    -0.248 NA
ATOM     56  C   UNL A   1      45.343  31.019  33.410  1.00  0.00     0.031 C 
ATOM     57  C   UNL A   1      46.300  25.662  30.714  1.00  0.00     0.029 A 
ATOM     58  C   UNL A   1      45.723  26.854  31.122  1.00  0.00     0.049 A 
ATOM     59  H   UNL A   1      43.834  27.654  30.628  1.00  0.00     0.167 HD
ATOM     60  C   UNL A   1      45.634  29.009  32.345  1.00  0.00     0.074 A 
ATOM     61  C   UNL A   1      46.186  30.008  33.236  1.00  0.00     0.031 C 
ATOM     62  C   UNL A   1      46.265  27.858  32.004  1.00  0.00     0.031 A 
BRANCH  49  63
ATOM     63  C   UNL A   1      42.938  24.182  28.313  1.00  0.00    -0.014 A 
ATOM     64  C   UNL A   1      43.263  24.056  26.951  1.00  0.00     0.010 A 
ATOM     65  C   UNL A   1      42.474  23.058  29.017  1.00  0.00     0.010 A 
ATOM     66  C   UNL A   1      43.072  22.840  26.290  1.00  0.00     0.020 A 
ATOM     67  C   UNL A   1      42.305  21.833  28.366  1.00  0.00     0.020 A 
ATOM     68  C   UNL A   1      42.581  21.739  27.001  1.00  0.00     0.054 A 
BRANCH  68  69
ATOM     69  S   UNL A   1      42.316  20.178  26.118  1.00  0.00     0.124 S 
ATOM     70  O   UNL A   1      43.429  20.178  25.171  1.00  0.00    -0.237 OA
ATOM     71  O   UNL A   1      42.402  19.184  27.185  1.00  0.00    -0.237 OA
ATOM     72  O   UNL A   1      40.992  20.337  25.524  1.00  0.00    -0.744 OA
ENDBRANCH  68  69
ENDBRANCH  49  63
BRANCH  50  73
ATOM     73  C   UNL A   1      43.052  32.847  33.239  1.00  0.00    -0.014 A 
ATOM     74  C   UNL A   1      43.521  34.054  32.695  1.00  0.00     0.010 A 
ATOM     75  C   UNL A   1      42.540  32.839  34.550  1.00  0.00     0.010 A 
ATOM     76  C   UNL A   1      43.482  35.231  33.448  1.00  0.00     0.020 A 
ATOM     77  C   UNL A   1      42.480  34.018  35.298  1.00  0.00     0.020 A 
ATOM     78  C   UNL A   1      42.958  35.206  34.744  1.00  0.00     0.054 A 
BRANCH  78  79
ATOM     79  S   UNL A   1      42.849  36.758  35.678  1.00  0.00     0.124 S 
ATOM     80  O   UNL A   1      41.673  36.528  36.511  1.00  0.00    -0.237 OA
ATOM     81  O   UNL A   1      44.128  36.793  36.383  1.00  0.00    -0.237 OA
ATOM     82  O   UNL A   1      42.692  37.771  34.636  1.00  0.00    -0.744 OA
ENDBRANCH  78  79
ENDBRANCH  50  73
BRANCH  62  83
ATOM     83  C   UNL A   1      47.641  27.612  32.562  1.00  0.00    -0.014 A 
ATOM     84  C   UNL A   1      48.786  28.116  31.921  1.00  0.00     0.010 A 
ATOM     85  C   UNL A   1      47.778  26.967  33.805  1.00  0.00     0.010 A 
ATOM     86  C   UNL A   1      50.046  27.974  32.512  1.00  0.00     0.020 A 
ATOM     87  C   UNL A   1      49.031  26.842  34.409  1.00  0.00     0.020 A 
ATOM     88  C   UNL A   1      50.160  27.343  33.755  1.00  0.00     0.054 A 
BRANCH  88  89
ATOM     89  S   UNL A   1      51.791  27.251  34.545  1.00  0.00     0.124 S 
ATOM     90  O   UNL A   1      52.555  28.233  33.781  1.00  0.00    -0.237 OA
ATOM     91  O   UNL A   1      51.500  27.619  35.929  1.00  0.00    -0.237 OA
ATOM     92  O   UNL A   1      52.193  25.859  34.350  1.00  0.00    -0.744 OA
ENDBRANCH  88  89
ENDBRANCH  62  83
ENDBRANCH  36  37
ENDBRANCH  29  31
ENDBRANCH  28  29
ENDBRANCH  27  28
ENDBRANCH  26  27
ENDBRANCH   1  26
TORSDOF 20
ENDMDL
MODEL 3
REMARK VINA RESULT:      -9.1      4.222     10.482
REMARK SMILES O=C(COc1ccc(C(=O)/C=C/c2ccc(Cl)c([N+](=O)[O-])c2)cc1)OCCOC(=O)c1ccc(-c2c3nc(c(-c4ccc(S(=O)(=O)[O-])cc4)c4ccc([nH]4)c(-c4ccc(S(=O)(=O)[O-])cc4)c4nc(c(-c5ccc(S(=O)(=O)[O-])cc5)c5ccc2[nH]5)C=C4)C=C3)cc1
REMARK SMILES IDX 25 1 2 2 1 3 3 4 4 5 5 6 6 7 24 8 7 9 23 10 8 11 9 12 10 13
REMARK SMILES IDX 11 14 12 15 13 16 14 17 22 18 15 19 18 20 16 21 17 22 19 23
REMARK SMILES IDX 20 24 21 25 26 26 27 27 28 28 29 29 30 30 31 31 32 32 90 33
REMARK SMILES IDX 33 34 89 35 34 36 35 37 36 38 83 39 37 40 88 41 82 42 84 43
REMARK SMILES IDX 38 44 87 45 81 46 80 47 39 49 69 50 50 51 68 52 51 53 54 54
REMARK SMILES IDX 67 55 85 56 52 57 53 58 66 60 86 61 55 62 40 63 41 64 49 65
REMARK SMILES IDX 42 66 48 67 43 68 44 69 45 70 46 71 47 72 70 73 71 74 79 75
REMARK SMILES IDX 72 76 78 77 73 78 74 79 75 80 76 81 77 82 56 83 57 84 65 85
REMARK SMILES IDX 58 86 64 87 59 88 60 89 61 90 62 91 63 92
REMARK H PARENT 84 48 54 59
REMARK Flexibility Score: inf
ROOT
ATOM      1  O   UNL A   1      34.055  33.517  29.573  1.00  0.00    -0.460 OA
ENDROOT
BRANCH   1   2
ATOM      2  C   UNL A   1      34.315  33.092  28.311  1.00  0.00     0.344 C 
ATOM      3  O   UNL A   1      35.147  33.680  27.621  1.00  0.00    -0.248 OA
BRANCH   2   4
ATOM      4  C   UNL A   1      33.601  31.842  27.803  1.00  0.00     0.351 C 
BRANCH   4   5
ATOM      5  O   UNL A   1      34.470  30.805  27.348  1.00  0.00    -0.482 OA
BRANCH   5   6
ATOM      6  C   UNL A   1      33.733  29.689  27.059  1.00  0.00     0.120 A 
ATOM      7  C   UNL A   1      34.357  28.572  26.510  1.00  0.00     0.047 A 
ATOM      8  C   UNL A   1      32.364  29.698  27.312  1.00  0.00     0.047 A 
ATOM      9  C   UNL A   1      33.614  27.411  26.293  1.00  0.00     0.016 A 
ATOM     10  C   UNL A   1      31.622  28.541  27.090  1.00  0.00     0.016 A 
ATOM     11  C   UNL A   1      32.253  27.379  26.624  1.00  0.00     0.022 A 
BRANCH  11  12
ATOM     12  C   UNL A   1      31.497  26.114  26.432  1.00  0.00     0.185 C 
ATOM     13  O   UNL A   1      30.271  26.114  26.454  1.00  0.00    -0.289 OA
BRANCH  12  14
ATOM     14  C   UNL A   1      32.220  24.823  26.262  1.00  0.00     0.053 C 
ATOM     15  C   UNL A   1      32.385  24.194  25.088  1.00  0.00     0.012 C 
BRANCH  15  16
ATOM     16  C   UNL A   1      33.195  22.983  24.975  1.00  0.00    -0.019 A 
ATOM     17  C   UNL A   1      34.587  23.105  24.939  1.00  0.00     0.010 A 
ATOM     18  C   UNL A   1      32.612  21.716  24.907  1.00  0.00     0.095 A 
ATOM     19  C   UNL A   1      35.394  21.966  24.857  1.00  0.00     0.028 A 
ATOM     20  C   UNL A   1      33.428  20.570  24.812  1.00  0.00     0.288 A 
ATOM     21  C   UNL A   1      34.824  20.689  24.803  1.00  0.00     0.118 A 
ATOM     22  Cl  UNL A   1      35.937  19.367  24.791  1.00  0.00    -0.077 Cl
BRANCH  20  23
ATOM     23  N   UNL A   1      32.757  19.274  24.733  1.00  0.00     0.064 N 
ATOM     24  O   UNL A   1      32.398  18.727  25.782  1.00  0.00    -0.258 OA
ATOM     25  O   UNL A   1      32.622  18.777  23.605  1.00  0.00    -0.258 OA
ENDBRANCH  20  23
ENDBRANCH  15  16
ENDBRANCH  12  14
ENDBRANCH  11  12
ENDBRANCH   5   6
ENDBRANCH   4   5
ENDBRANCH   2   4
ENDBRANCH   1   2
BRANCH   1  26
ATOM     26  C   UNL A   1      34.554  32.873  30.765  1.00  0.00     0.274 C 
BRANCH  26  27
ATOM     27  C   UNL A   1      36.005  32.427  30.573  1.00  0.00     0.275 C 
BRANCH  27  28
ATOM     28  O   UNL A   1      36.045  31.013  30.315  1.00  0.00    -0.458 OA
BRANCH  28  29
ATOM     29  C   UNL A   1      36.803  30.271  31.162  1.00  0.00     0.338 C 
ATOM     30  O   UNL A   1      36.421  29.681  32.156  1.00  0.00    -0.246 OA
BRANCH  29  31
ATOM     31  C   UNL A   1      38.144  30.107  30.555  1.00  0.00     0.060 A 
ATOM     32  C   UNL A   1      38.232  29.951  29.165  1.00  0.00     0.016 A 
ATOM     33  C   UNL A   1      39.304  30.164  31.333  1.00  0.00     0.016 A 
ATOM     34  C   UNL A   1      39.483  29.832  28.553  1.00  0.00     0.010 A 
ATOM     35  C   UNL A   1      40.552  30.040  30.719  1.00  0.00     0.010 A 
ATOM     36  C   UNL A   1      40.647  29.851  29.330  1.00  0.00    -0.014 A 
BRANCH  36  37
ATOM     37  C   UNL A   1      41.965  29.520  28.741  1.00  0.00     0.031 A 
ATOM     38  C   UNL A   1      42.225  28.101  28.320  1.00  0.00     0.074 A 
ATOM     39  C   UNL A   1      42.940  30.442  28.645  1.00  0.00     0.049 A 
ATOM     40  N   UNL A   1      43.330  27.556  27.886  1.00  0.00    -0.248 NA
ATOM     41  C   UNL A   1      41.085  27.174  28.416  1.00  0.00     0.031 C 
ATOM     42  C   UNL A   1      42.813  31.852  29.008  1.00  0.00     0.029 A 
ATOM     43  N   UNL A   1      44.245  30.312  28.239  1.00  0.00    -0.354 N 
ATOM     44  C   UNL A   1      43.025  26.217  27.669  1.00  0.00     0.074 A 
ATOM     45  C   UNL A   1      41.639  26.031  28.040  1.00  0.00     0.031 C 
ATOM     46  C   UNL A   1      44.005  32.453  28.837  1.00  0.00     0.029 A 
ATOM     47  C   UNL A   1      44.981  31.463  28.381  1.00  0.00     0.049 A 
ATOM     48  H   UNL A   1      44.617  29.474  27.880  1.00  0.00     0.167 HD
ATOM     49  C   UNL A   1      43.826  25.230  27.205  1.00  0.00     0.031 A 
ATOM     50  C   UNL A   1      46.299  31.686  28.198  1.00  0.00     0.031 A 
ATOM     51  C   UNL A   1      45.210  25.406  26.862  1.00  0.00     0.049 A 
ATOM     52  C   UNL A   1      47.189  30.563  27.734  1.00  0.00     0.074 A 
ATOM     53  C   UNL A   1      46.096  24.471  26.354  1.00  0.00     0.029 A 
ATOM     54  N   UNL A   1      45.915  26.590  27.010  1.00  0.00    -0.354 N 
ATOM     55  N   UNL A   1      46.874  29.316  27.474  1.00  0.00    -0.248 NA
ATOM     56  C   UNL A   1      48.612  30.877  27.532  1.00  0.00     0.031 C 
ATOM     57  C   UNL A   1      47.351  25.077  26.246  1.00  0.00     0.029 A 
ATOM     58  C   UNL A   1      47.235  26.403  26.635  1.00  0.00     0.049 A 
ATOM     59  H   UNL A   1      45.535  27.438  27.335  1.00  0.00     0.167 HD
ATOM     60  C   UNL A   1      48.053  28.704  27.056  1.00  0.00     0.074 A 
ATOM     61  C   UNL A   1      49.087  29.718  27.093  1.00  0.00     0.031 C 
ATOM     62  C   UNL A   1      48.255  27.421  26.671  1.00  0.00     0.031 A 
BRANCH  49  63
ATOM     63  C   UNL A   1      43.222  23.858  27.093  1.00  0.00    -0.014 A 
ATOM     64  C   UNL A   1      43.222  22.972  28.185  1.00  0.00     0.010 A 
ATOM     65  C   UNL A   1      42.659  23.447  25.872  1.00  0.00     0.010 A 
ATOM     66  C   UNL A   1      42.721  21.676  28.040  1.00  0.00     0.020 A 
ATOM     67  C   UNL A   1      42.134  22.160  25.731  1.00  0.00     0.020 A 
ATOM     68  C   UNL A   1      42.192  21.275  26.809  1.00  0.00     0.054 A 
BRANCH  68  69
ATOM     69  S   UNL A   1      41.572  19.580  26.636  1.00  0.00     0.124 S 
ATOM     70  O   UNL A   1      42.813  18.818  26.517  1.00  0.00    -0.237 OA
ATOM     71  O   UNL A   1      40.830  19.379  27.878  1.00  0.00    -0.237 OA
ATOM     72  O   UNL A   1      40.754  19.632  25.427  1.00  0.00    -0.744 OA
ENDBRANCH  68  69
ENDBRANCH  49  63
BRANCH  50  73
ATOM     73  C   UNL A   1      46.861  33.033  28.483  1.00  0.00    -0.014 A 
ATOM     74  C   UNL A   1      47.291  33.373  29.777  1.00  0.00     0.010 A 
ATOM     75  C   UNL A   1      46.991  33.977  27.447  1.00  0.00     0.010 A 
ATOM     76  C   UNL A   1      47.837  34.635  30.031  1.00  0.00     0.020 A 
ATOM     77  C   UNL A   1      47.557  35.231  27.693  1.00  0.00     0.020 A 
ATOM     78  C   UNL A   1      47.970  35.554  28.986  1.00  0.00     0.054 A 
BRANCH  78  79
ATOM     79  S   UNL A   1      48.748  37.159  29.320  1.00  0.00     0.124 S 
ATOM     80  O   UNL A   1      47.752  37.808  30.167  1.00  0.00    -0.237 OA
ATOM     81  O   UNL A   1      49.991  36.776  29.983  1.00  0.00    -0.237 OA
ATOM     82  O   UNL A   1      48.914  37.740  27.989  1.00  0.00    -0.744 OA
ENDBRANCH  78  79
ENDBRANCH  50  73
BRANCH  62  83
ATOM     83  C   UNL A   1      49.637  27.025  26.222  1.00  0.00    -0.014 A 
ATOM     84  C   UNL A   1      50.504  26.320  27.074  1.00  0.00     0.010 A 
ATOM     85  C   UNL A   1      50.026  27.265  24.891  1.00  0.00     0.010 A 
ATOM     86  C   UNL A   1      51.740  25.864  26.603  1.00  0.00     0.020 A 
ATOM     87  C   UNL A   1      51.250  26.794  24.411  1.00  0.00     0.020 A 
ATOM     88  C   UNL A   1      52.103  26.099  25.272  1.00  0.00     0.054 A 
BRANCH  88  89
ATOM     89  S   UNL A   1      53.669  25.420  24.659  1.00  0.00     0.124 S 
ATOM     90  O   UNL A   1      54.653  26.218  25.386  1.00  0.00    -0.237 OA
ATOM     91  O   UNL A   1      53.587  24.015  25.050  1.00  0.00    -0.237 OA
ATOM     92  O   UNL A   1      53.612  25.663  23.218  1.00  0.00    -0.744 OA
ENDBRANCH  88  89
ENDBRANCH  62  83
ENDBRANCH  36  37
ENDBRANCH  29  31
ENDBRANCH  28  29
ENDBRANCH  27  28
ENDBRANCH  26  27
ENDBRANCH   1  26
TORSDOF 20
ENDMDL
