MODEL 1
REMARK VINA RESULT:     -10.4      0.000      0.000
REMARK SMILES Cc1cc(C)cc(C[N@@H+]2CCO[C@@H](CC(=O)OCCOC(=O)c3ccc(-c4c5nc(c(-c6ccc(S(=O)(=O)[O-])cc6)c6ccc([nH]6)c(-c6ccc(S(=O)(=O)[O-])cc6)c6nc(c(-c7ccc(S(=O)(=O)[O-])cc7)c7ccc4[nH]7)C=C6)C=C5)cc3)C2)c1
REMARK SMILES IDX 18 1 17 2 15 3 16 4 14 5 13 6 9 7 10 8 83 9 11 11 12 12 8 13
REMARK SMILES IDX 7 14 1 15 2 16 3 17 84 18 4 19 5 20 6 21 19 22 20 23 21 24
REMARK SMILES IDX 22 25 23 26 24 27 82 28 25 29 81 30 26 31 27 32 28 33 75 34
REMARK SMILES IDX 29 35 80 36 74 37 76 38 30 39 79 40 73 41 72 42 31 44 61 45
REMARK SMILES IDX 42 46 60 47 43 48 46 49 59 50 77 51 44 52 45 53 58 55 78 56
REMARK SMILES IDX 47 57 32 58 33 59 41 60 34 61 40 62 35 63 36 64 37 65 38 66
REMARK SMILES IDX 39 67 62 68 63 69 71 70 64 71 70 72 65 73 66 74 67 75 68 76
REMARK SMILES IDX 69 77 48 78 49 79 57 80 50 81 56 82 51 83 52 84 53 85 54 86
REMARK SMILES IDX 55 87
REMARK H PARENT 9 10 76 43 46 54
REMARK Flexibility Score: inf
ROOT
ATOM      1  C   UNL A   1      31.729  29.749  25.636  1.00  0.00     0.274 C 
ENDROOT
BRANCH   1   2
ATOM      2  O   UNL A   1      32.161  28.381  25.774  1.00  0.00    -0.462 OA
BRANCH   2   3
ATOM      3  C   UNL A   1      31.361  27.573  26.521  1.00  0.00     0.308 C 
ATOM      4  O   UNL A   1      31.267  27.623  27.741  1.00  0.00    -0.252 OA
BRANCH   3   5
ATOM      5  C   UNL A   1      30.684  26.522  25.688  1.00  0.00     0.160 C 
BRANCH   5   6
ATOM      6  C   UNL A   1      31.286  25.117  25.671  1.00  0.00     0.184 C 
ATOM      7  N   UNL A   1      33.382  23.773  26.307  1.00  0.00    -0.327 N 
ATOM      8  C   UNL A   1      32.513  23.036  27.223  1.00  0.00     0.291 C 
ATOM      9  C   UNL A   1      32.815  25.080  25.934  1.00  0.00     0.295 C 
ATOM     10  H   UNL A   1      34.215  23.996  26.852  1.00  0.00     0.348 HD
ATOM     11  C   UNL A   1      31.019  23.091  26.880  1.00  0.00     0.222 C 
ATOM     12  O   UNL A   1      30.579  24.439  26.740  1.00  0.00    -0.366 OA
BRANCH   7  13
ATOM     13  C   UNL A   1      34.027  22.999  25.241  1.00  0.00     0.299 C 
BRANCH  13  14
ATOM     14  C   UNL A   1      35.499  22.682  25.363  1.00  0.00     0.007 A 
ATOM     15  C   UNL A   1      37.842  19.724  24.785  1.00  0.00     0.044 C 
ATOM     16  C   UNL A   1      37.333  21.082  25.161  1.00  0.00    -0.050 A 
ATOM     17  C   UNL A   1      38.216  22.034  25.680  1.00  0.00     0.006 A 
ATOM     18  C   UNL A   1      35.980  21.413  25.015  1.00  0.00     0.013 A 
ATOM     19  C   UNL A   1      37.769  23.321  25.992  1.00  0.00    -0.050 A 
ATOM     20  C   UNL A   1      38.711  24.313  26.607  1.00  0.00     0.044 C 
ATOM     21  C   UNL A   1      36.423  23.646  25.784  1.00  0.00     0.013 A 
ENDBRANCH  13  14
ENDBRANCH   7  13
ENDBRANCH   5   6
ENDBRANCH   3   5
ENDBRANCH   2   3
ENDBRANCH   1   2
BRANCH   1  22
ATOM     22  C   UNL A   1      32.254  30.657  26.756  1.00  0.00     0.275 C 
BRANCH  22  23
ATOM     23  O   UNL A   1      33.609  30.346  27.136  1.00  0.00    -0.458 OA
BRANCH  23  24
ATOM     24  C   UNL A   1      34.292  31.388  27.657  1.00  0.00     0.338 C 
ATOM     25  O   UNL A   1      33.894  32.547  27.706  1.00  0.00    -0.246 OA
BRANCH  24  26
ATOM     26  C   UNL A   1      35.565  30.972  28.263  1.00  0.00     0.060 A 
ATOM     27  C   UNL A   1      35.585  29.773  28.988  1.00  0.00     0.016 A 
ATOM     28  C   UNL A   1      36.696  31.790  28.218  1.00  0.00     0.016 A 
ATOM     29  C   UNL A   1      36.736  29.387  29.670  1.00  0.00     0.010 A 
ATOM     30  C   UNL A   1      37.850  31.404  28.907  1.00  0.00     0.010 A 
ATOM     31  C   UNL A   1      37.875  30.204  29.640  1.00  0.00    -0.014 A 
BRANCH  31  32
ATOM     32  C   UNL A   1      39.109  29.772  30.334  1.00  0.00     0.031 A 
ATOM     33  C   UNL A   1      39.579  30.468  31.578  1.00  0.00     0.074 A 
ATOM     34  C   UNL A   1      39.805  28.738  29.829  1.00  0.00     0.049 A 
ATOM     35  N   UNL A   1      40.646  30.234  32.298  1.00  0.00    -0.248 NA
ATOM     36  C   UNL A   1      38.741  31.564  32.083  1.00  0.00     0.031 C 
ATOM     37  C   UNL A   1      39.423  27.966  28.644  1.00  0.00     0.029 A 
ATOM     38  N   UNL A   1      40.979  28.163  30.240  1.00  0.00    -0.354 N 
ATOM     39  C   UNL A   1      40.607  31.149  33.344  1.00  0.00     0.074 A 
ATOM     40  C   UNL A   1      39.420  31.955  33.154  1.00  0.00     0.031 C 
ATOM     41  C   UNL A   1      40.354  27.026  28.418  1.00  0.00     0.029 A 
ATOM     42  C   UNL A   1      41.410  27.151  29.419  1.00  0.00     0.049 A 
ATOM     43  H   UNL A   1      41.467  28.449  31.046  1.00  0.00     0.167 HD
ATOM     44  C   UNL A   1      41.483  31.300  34.366  1.00  0.00     0.031 A 
ATOM     45  C   UNL A   1      42.540  26.420  29.452  1.00  0.00     0.031 A 
ATOM     46  C   UNL A   1      42.680  30.516  34.529  1.00  0.00     0.049 A 
ATOM     47  C   UNL A   1      43.536  26.661  30.551  1.00  0.00     0.074 A 
ATOM     48  C   UNL A   1      43.627  30.589  35.537  1.00  0.00     0.029 A 
ATOM     49  N   UNL A   1      43.101  29.525  33.656  1.00  0.00    -0.354 N 
ATOM     50  N   UNL A   1      43.471  27.513  31.546  1.00  0.00    -0.248 NA
ATOM     51  C   UNL A   1      44.754  25.842  30.533  1.00  0.00     0.031 C 
ATOM     52  C   UNL A   1      44.646  29.675  35.244  1.00  0.00     0.029 A 
ATOM     53  C   UNL A   1      44.309  28.998  34.083  1.00  0.00     0.049 A 
ATOM     54  H   UNL A   1      42.614  29.237  32.851  1.00  0.00     0.167 HD
ATOM     55  C   UNL A   1      44.630  27.318  32.286  1.00  0.00     0.074 A 
ATOM     56  C   UNL A   1      45.374  26.261  31.629  1.00  0.00     0.031 C 
ATOM     57  C   UNL A   1      45.039  27.953  33.413  1.00  0.00     0.031 A 
BRANCH  44  58
ATOM     58  C   UNL A   1      41.199  32.381  35.375  1.00  0.00    -0.014 A 
ATOM     59  C   UNL A   1      41.603  33.709  35.148  1.00  0.00     0.010 A 
ATOM     60  C   UNL A   1      40.473  32.076  36.540  1.00  0.00     0.010 A 
ATOM     61  C   UNL A   1      41.311  34.707  36.083  1.00  0.00     0.020 A 
ATOM     62  C   UNL A   1      40.163  33.074  37.469  1.00  0.00     0.020 A 
ATOM     63  C   UNL A   1      40.596  34.381  37.240  1.00  0.00     0.054 A 
BRANCH  63  64
ATOM     64  S   UNL A   1      40.211  35.698  38.428  1.00  0.00     0.124 S 
ATOM     65  O   UNL A   1      39.035  35.157  39.105  1.00  0.00    -0.237 OA
ATOM     66  O   UNL A   1      41.425  35.765  39.239  1.00  0.00    -0.237 OA
ATOM     67  O   UNL A   1      39.962  36.864  37.586  1.00  0.00    -0.744 OA
ENDBRANCH  63  64
ENDBRANCH  44  58
BRANCH  45  68
ATOM     68  C   UNL A   1      42.791  25.409  28.392  1.00  0.00    -0.014 A 
ATOM     69  C   UNL A   1      43.550  25.733  27.256  1.00  0.00     0.010 A 
ATOM     70  C   UNL A   1      42.297  24.099  28.539  1.00  0.00     0.010 A 
ATOM     71  C   UNL A   1      43.806  24.766  26.280  1.00  0.00     0.020 A 
ATOM     72  C   UNL A   1      42.570  23.124  27.577  1.00  0.00     0.020 A 
ATOM     73  C   UNL A   1      43.316  23.467  26.448  1.00  0.00     0.054 A 
BRANCH  73  74
ATOM     74  S   UNL A   1      43.714  22.208  25.203  1.00  0.00     0.124 S 
ATOM     75  O   UNL A   1      45.099  21.886  25.531  1.00  0.00    -0.237 OA
ATOM     76  O   UNL A   1      42.736  21.161  25.486  1.00  0.00    -0.237 OA
ATOM     77  O   UNL A   1      43.516  22.909  23.936  1.00  0.00    -0.744 OA
ENDBRANCH  73  74
ENDBRANCH  45  68
BRANCH  57  78
ATOM     78  C   UNL A   1      46.341  27.507  34.019  1.00  0.00    -0.014 A 
ATOM     79  C   UNL A   1      46.389  26.433  34.924  1.00  0.00     0.010 A 
ATOM     80  C   UNL A   1      47.538  28.140  33.637  1.00  0.00     0.010 A 
ATOM     81  C   UNL A   1      47.612  26.015  35.456  1.00  0.00     0.020 A 
ATOM     82  C   UNL A   1      48.763  27.711  34.151  1.00  0.00     0.020 A 
ATOM     83  C   UNL A   1      48.791  26.658  35.068  1.00  0.00     0.054 A 
BRANCH  83  84
ATOM     84  S   UNL A   1      50.372  26.068  35.735  1.00  0.00     0.124 S 
ATOM     85  O   UNL A   1      50.251  26.413  37.149  1.00  0.00    -0.237 OA
ATOM     86  O   UNL A   1      50.337  24.639  35.432  1.00  0.00    -0.237 OA
ATOM     87  O   UNL A   1      51.368  26.832  34.988  1.00  0.00    -0.744 OA
ENDBRANCH  83  84
ENDBRANCH  57  78
ENDBRANCH  31  32
ENDBRANCH  24  26
ENDBRANCH  23  24
ENDBRANCH  22  23
ENDBRANCH   1  22
TORSDOF 17
ENDMDL
MODEL 2
REMARK VINA RESULT:     -10.0      2.598      3.395
REMARK SMILES Cc1cc(C)cc(C[N@@H+]2CCO[C@@H](CC(=O)OCCOC(=O)c3ccc(-c4c5nc(c(-c6ccc(S(=O)(=O)[O-])cc6)c6ccc([nH]6)c(-c6ccc(S(=O)(=O)[O-])cc6)c6nc(c(-c7ccc(S(=O)(=O)[O-])cc7)c7ccc4[nH]7)C=C6)C=C5)cc3)C2)c1
REMARK SMILES IDX 18 1 17 2 15 3 16 4 14 5 13 6 9 7 10 8 83 9 11 11 12 12 8 13
REMARK SMILES IDX 7 14 1 15 2 16 3 17 84 18 4 19 5 20 6 21 19 22 20 23 21 24
REMARK SMILES IDX 22 25 23 26 24 27 82 28 25 29 81 30 26 31 27 32 28 33 75 34
REMARK SMILES IDX 29 35 80 36 74 37 76 38 30 39 79 40 73 41 72 42 31 44 61 45
REMARK SMILES IDX 42 46 60 47 43 48 46 49 59 50 77 51 44 52 45 53 58 55 78 56
REMARK SMILES IDX 47 57 32 58 33 59 41 60 34 61 40 62 35 63 36 64 37 65 38 66
REMARK SMILES IDX 39 67 62 68 63 69 71 70 64 71 70 72 65 73 66 74 67 75 68 76
REMARK SMILES IDX 69 77 48 78 49 79 57 80 50 81 56 82 51 83 52 84 53 85 54 86
REMARK SMILES IDX 55 87
REMARK H PARENT 9 10 76 43 46 54
REMARK Flexibility Score: inf
ROOT
ATOM      1  C   UNL A   1      31.780  29.626  26.044  1.00  0.00     0.274 C 
ENDROOT
BRANCH   1   2
ATOM      2  O   UNL A   1      31.094  28.686  25.194  1.00  0.00    -0.462 OA
BRANCH   2   3
ATOM      3  C   UNL A   1      30.921  29.065  23.899  1.00  0.00     0.308 C 
ATOM      4  O   UNL A   1      29.841  29.347  23.395  1.00  0.00    -0.252 OA
BRANCH   3   5
ATOM      5  C   UNL A   1      32.197  28.987  23.112  1.00  0.00     0.160 C 
BRANCH   5   6
ATOM      6  C   UNL A   1      32.708  27.606  22.699  1.00  0.00     0.184 C 
ATOM      7  N   UNL A   1      33.053  25.205  23.550  1.00  0.00    -0.327 N 
ATOM      8  C   UNL A   1      32.103  24.805  22.513  1.00  0.00     0.291 C 
ATOM      9  C   UNL A   1      32.937  26.635  23.887  1.00  0.00     0.295 C 
ATOM     10  H   UNL A   1      32.751  24.713  24.391  1.00  0.00     0.348 HD
ATOM     11  C   UNL A   1      31.955  25.800  21.354  1.00  0.00     0.222 C 
ATOM     12  O   UNL A   1      31.652  27.105  21.841  1.00  0.00    -0.366 OA
BRANCH   7  13
ATOM     13  C   UNL A   1      34.407  24.653  23.454  1.00  0.00     0.299 C 
BRANCH  13  14
ATOM     14  C   UNL A   1      34.830  23.593  24.445  1.00  0.00     0.007 A 
ATOM     15  C   UNL A   1      37.342  20.727  24.665  1.00  0.00     0.044 C 
ATOM     16  C   UNL A   1      36.239  21.680  25.011  1.00  0.00    -0.050 A 
ATOM     17  C   UNL A   1      35.565  21.548  26.228  1.00  0.00     0.006 A 
ATOM     18  C   UNL A   1      35.859  22.698  24.126  1.00  0.00     0.013 A 
ATOM     19  C   UNL A   1      34.566  22.457  26.589  1.00  0.00    -0.050 A 
ATOM     20  C   UNL A   1      33.807  22.267  27.868  1.00  0.00     0.044 C 
ATOM     21  C   UNL A   1      34.243  23.500  25.713  1.00  0.00     0.013 A 
ENDBRANCH  13  14
ENDBRANCH   7  13
ENDBRANCH   5   6
ENDBRANCH   3   5
ENDBRANCH   2   3
ENDBRANCH   1   2
BRANCH   1  22
ATOM     22  C   UNL A   1      32.838  28.963  26.936  1.00  0.00     0.275 C 
BRANCH  22  23
ATOM     23  O   UNL A   1      34.163  29.485  26.710  1.00  0.00    -0.458 OA
BRANCH  23  24
ATOM     24  C   UNL A   1      34.582  30.359  27.651  1.00  0.00     0.338 C 
ATOM     25  O   UNL A   1      33.909  31.264  28.133  1.00  0.00    -0.246 OA
BRANCH  24  26
ATOM     26  C   UNL A   1      35.939  30.055  28.127  1.00  0.00     0.060 A 
ATOM     27  C   UNL A   1      36.985  30.101  27.197  1.00  0.00     0.016 A 
ATOM     28  C   UNL A   1      36.174  29.627  29.437  1.00  0.00     0.016 A 
ATOM     29  C   UNL A   1      38.271  29.719  27.571  1.00  0.00     0.010 A 
ATOM     30  C   UNL A   1      37.466  29.240  29.810  1.00  0.00     0.010 A 
ATOM     31  C   UNL A   1      38.518  29.279  28.879  1.00  0.00    -0.014 A 
BRANCH  31  32
ATOM     32  C   UNL A   1      39.895  28.911  29.284  1.00  0.00     0.031 A 
ATOM     33  C   UNL A   1      40.767  29.882  30.024  1.00  0.00     0.074 A 
ATOM     34  C   UNL A   1      40.352  27.684  28.976  1.00  0.00     0.049 A 
ATOM     35  N   UNL A   1      42.000  29.734  30.435  1.00  0.00    -0.248 NA
ATOM     36  C   UNL A   1      40.177  31.188  30.352  1.00  0.00     0.031 C 
ATOM     37  C   UNL A   1      39.579  26.647  28.288  1.00  0.00     0.029 A 
ATOM     38  N   UNL A   1      41.574  27.104  29.194  1.00  0.00    -0.354 N 
ATOM     39  C   UNL A   1      42.335  30.922  31.073  1.00  0.00     0.074 A 
ATOM     40  C   UNL A   1      41.179  31.790  30.980  1.00  0.00     0.031 C 
ATOM     41  C   UNL A   1      40.352  25.561  28.129  1.00  0.00     0.029 A 
ATOM     42  C   UNL A   1      41.679  25.838  28.674  1.00  0.00     0.049 A 
ATOM     43  H   UNL A   1      42.306  27.552  29.675  1.00  0.00     0.167 HD
ATOM     44  C   UNL A   1      43.499  31.255  31.680  1.00  0.00     0.031 A 
ATOM     45  C   UNL A   1      42.732  25.001  28.618  1.00  0.00     0.031 A 
ATOM     46  C   UNL A   1      44.655  30.398  31.739  1.00  0.00     0.049 A 
ATOM     47  C   UNL A   1      44.038  25.425  29.228  1.00  0.00     0.074 A 
ATOM     48  C   UNL A   1      45.879  30.643  32.338  1.00  0.00     0.029 A 
ATOM     49  N   UNL A   1      44.735  29.137  31.168  1.00  0.00    -0.354 N 
ATOM     50  N   UNL A   1      44.329  26.542  29.851  1.00  0.00    -0.248 NA
ATOM     51  C   UNL A   1      45.154  24.477  29.131  1.00  0.00     0.031 C 
ATOM     52  C   UNL A   1      46.715  29.549  32.085  1.00  0.00     0.029 A 
ATOM     53  C   UNL A   1      45.996  28.602  31.374  1.00  0.00     0.049 A 
ATOM     54  H   UNL A   1      44.003  28.687  30.688  1.00  0.00     0.167 HD
ATOM     55  C   UNL A   1      45.657  26.422  30.239  1.00  0.00     0.074 A 
ATOM     56  C   UNL A   1      46.110  25.121  29.789  1.00  0.00     0.031 C 
ATOM     57  C   UNL A   1      46.432  27.310  30.912  1.00  0.00     0.031 A 
BRANCH  44  58
ATOM     58  C   UNL A   1      43.596  32.623  32.301  1.00  0.00    -0.014 A 
ATOM     59  C   UNL A   1      43.260  32.832  33.650  1.00  0.00     0.010 A 
ATOM     60  C   UNL A   1      44.079  33.703  31.540  1.00  0.00     0.010 A 
ATOM     61  C   UNL A   1      43.378  34.103  34.220  1.00  0.00     0.020 A 
ATOM     62  C   UNL A   1      44.216  34.972  32.111  1.00  0.00     0.020 A 
ATOM     63  C   UNL A   1      43.851  35.167  33.444  1.00  0.00     0.054 A 
BRANCH  63  64
ATOM     64  S   UNL A   1      44.015  36.803  34.212  1.00  0.00     0.124 S 
ATOM     65  O   UNL A   1      44.778  36.494  35.419  1.00  0.00    -0.237 OA
ATOM     66  O   UNL A   1      44.735  37.566  33.194  1.00  0.00    -0.237 OA
ATOM     67  O   UNL A   1      42.634  37.221  34.439  1.00  0.00    -0.744 OA
ENDBRANCH  63  64
ENDBRANCH  44  58
BRANCH  45  68
ATOM     68  C   UNL A   1      42.589  23.688  27.937  1.00  0.00    -0.014 A 
ATOM     69  C   UNL A   1      42.881  23.552  26.571  1.00  0.00     0.010 A 
ATOM     70  C   UNL A   1      42.194  22.554  28.672  1.00  0.00     0.010 A 
ATOM     71  C   UNL A   1      42.774  22.306  25.946  1.00  0.00     0.020 A 
ATOM     72  C   UNL A   1      42.107  21.303  28.057  1.00  0.00     0.020 A 
ATOM     73  C   UNL A   1      42.390  21.189  26.694  1.00  0.00     0.054 A 
BRANCH  73  74
ATOM     74  S   UNL A   1      42.319  19.568  25.883  1.00  0.00     0.124 S 
ATOM     75  O   UNL A   1      43.332  19.706  24.841  1.00  0.00    -0.237 OA
ATOM     76  O   UNL A   1      42.651  18.652  26.971  1.00  0.00    -0.237 OA
ATOM     77  O   UNL A   1      40.940  19.485  25.409  1.00  0.00    -0.744 OA
ENDBRANCH  73  74
ENDBRANCH  45  68
BRANCH  57  78
ATOM     78  C   UNL A   1      47.842  26.893  31.223  1.00  0.00    -0.014 A 
ATOM     79  C   UNL A   1      48.155  26.231  32.423  1.00  0.00     0.010 A 
ATOM     80  C   UNL A   1      48.859  27.122  30.278  1.00  0.00     0.010 A 
ATOM     81  C   UNL A   1      49.468  25.826  32.683  1.00  0.00     0.020 A 
ATOM     82  C   UNL A   1      50.167  26.700  30.525  1.00  0.00     0.020 A 
ATOM     83  C   UNL A   1      50.465  26.066  31.733  1.00  0.00     0.054 A 
BRANCH  83  84
ATOM     84  S   UNL A   1      52.153  25.490  32.071  1.00  0.00     0.124 S 
ATOM     85  O   UNL A   1      52.862  25.906  30.864  1.00  0.00    -0.237 OA
ATOM     86  O   UNL A   1      52.504  26.215  33.288  1.00  0.00    -0.237 OA
ATOM     87  O   UNL A   1      51.997  24.046  32.237  1.00  0.00    -0.744 OA
ENDBRANCH  83  84
ENDBRANCH  57  78
ENDBRANCH  31  32
ENDBRANCH  24  26
ENDBRANCH  23  24
ENDBRANCH  22  23
ENDBRANCH   1  22
TORSDOF 17
ENDMDL
MODEL 3
REMARK VINA RESULT:     -10.0      5.552     10.614
REMARK SMILES Cc1cc(C)cc(C[N@@H+]2CCO[C@@H](CC(=O)OCCOC(=O)c3ccc(-c4c5nc(c(-c6ccc(S(=O)(=O)[O-])cc6)c6ccc([nH]6)c(-c6ccc(S(=O)(=O)[O-])cc6)c6nc(c(-c7ccc(S(=O)(=O)[O-])cc7)c7ccc4[nH]7)C=C6)C=C5)cc3)C2)c1
REMARK SMILES IDX 18 1 17 2 15 3 16 4 14 5 13 6 9 7 10 8 83 9 11 11 12 12 8 13
REMARK SMILES IDX 7 14 1 15 2 16 3 17 84 18 4 19 5 20 6 21 19 22 20 23 21 24
REMARK SMILES IDX 22 25 23 26 24 27 82 28 25 29 81 30 26 31 27 32 28 33 75 34
REMARK SMILES IDX 29 35 80 36 74 37 76 38 30 39 79 40 73 41 72 42 31 44 61 45
REMARK SMILES IDX 42 46 60 47 43 48 46 49 59 50 77 51 44 52 45 53 58 55 78 56
REMARK SMILES IDX 47 57 32 58 33 59 41 60 34 61 40 62 35 63 36 64 37 65 38 66
REMARK SMILES IDX 39 67 62 68 63 69 71 70 64 71 70 72 65 73 66 74 67 75 68 76
REMARK SMILES IDX 69 77 48 78 49 79 57 80 50 81 56 82 51 83 52 84 53 85 54 86
REMARK SMILES IDX 55 87
REMARK H PARENT 9 10 76 43 46 54
REMARK Flexibility Score: inf
ROOT
ATOM      1  C   UNL A   1      36.337  34.246  34.215  1.00  0.00     0.274 C 
ENDROOT
BRANCH   1   2
ATOM      2  O   UNL A   1      36.021  35.221  33.201  1.00  0.00    -0.462 OA
BRANCH   2   3
ATOM      3  C   UNL A   1      34.999  34.905  32.363  1.00  0.00     0.308 C 
ATOM      4  O   UNL A   1      34.208  35.714  31.893  1.00  0.00    -0.252 OA
BRANCH   3   5
ATOM      5  C   UNL A   1      34.869  33.422  32.164  1.00  0.00     0.160 C 
BRANCH   5   6
ATOM      6  C   UNL A   1      35.457  32.810  30.892  1.00  0.00     0.184 C 
ATOM      7  N   UNL A   1      34.903  32.209  28.456  1.00  0.00    -0.327 N 
ATOM      8  C   UNL A   1      35.943  33.168  28.085  1.00  0.00     0.291 C 
ATOM      9  C   UNL A   1      34.399  32.437  29.821  1.00  0.00     0.295 C 
ATOM     10  H   UNL A   1      34.114  32.425  27.847  1.00  0.00     0.348 HD
ATOM     11  C   UNL A   1      36.972  33.460  29.184  1.00  0.00     0.222 C 
ATOM     12  O   UNL A   1      36.328  33.856  30.392  1.00  0.00    -0.366 OA
BRANCH   7  13
ATOM     13  C   UNL A   1      35.112  30.817  28.048  1.00  0.00     0.299 C 
BRANCH  13  14
ATOM     14  C   UNL A   1      36.376  30.114  28.487  1.00  0.00     0.007 A 
ATOM     15  C   UNL A   1      39.706  29.018  26.978  1.00  0.00     0.044 C 
ATOM     16  C   UNL A   1      38.587  29.227  27.952  1.00  0.00    -0.050 A 
ATOM     17  C   UNL A   1      38.694  28.719  29.249  1.00  0.00     0.006 A 
ATOM     18  C   UNL A   1      37.424  29.914  27.580  1.00  0.00     0.013 A 
ATOM     19  C   UNL A   1      37.681  28.945  30.186  1.00  0.00    -0.050 A 
ATOM     20  C   UNL A   1      37.778  28.340  31.555  1.00  0.00     0.044 C 
ATOM     21  C   UNL A   1      36.553  29.683  29.807  1.00  0.00     0.013 A 
ENDBRANCH  13  14
ENDBRANCH   7  13
ENDBRANCH   5   6
ENDBRANCH   3   5
ENDBRANCH   2   3
ENDBRANCH   1   2
BRANCH   1  22
ATOM     22  C   UNL A   1      37.825  33.872  34.241  1.00  0.00     0.275 C 
BRANCH  22  23
ATOM     23  O   UNL A   1      38.265  33.252  33.016  1.00  0.00    -0.458 OA
BRANCH  23  24
ATOM     24  C   UNL A   1      38.413  31.912  33.095  1.00  0.00     0.338 C 
ATOM     25  O   UNL A   1      37.689  31.152  33.730  1.00  0.00    -0.246 OA
BRANCH  24  26
ATOM     26  C   UNL A   1      39.508  31.423  32.245  1.00  0.00     0.060 A 
ATOM     27  C   UNL A   1      40.473  30.594  32.832  1.00  0.00     0.016 A 
ATOM     28  C   UNL A   1      39.652  31.851  30.923  1.00  0.00     0.016 A 
ATOM     29  C   UNL A   1      41.586  30.189  32.100  1.00  0.00     0.010 A 
ATOM     30  C   UNL A   1      40.773  31.448  30.190  1.00  0.00     0.010 A 
ATOM     31  C   UNL A   1      41.747  30.620  30.776  1.00  0.00    -0.014 A 
BRANCH  31  32
ATOM     32  C   UNL A   1      42.913  30.156  29.988  1.00  0.00     0.031 A 
ATOM     33  C   UNL A   1      42.932  28.788  29.372  1.00  0.00     0.074 A 
ATOM     34  C   UNL A   1      43.958  30.987  29.832  1.00  0.00     0.049 A 
ATOM     35  N   UNL A   1      43.876  28.214  28.672  1.00  0.00    -0.248 NA
ATOM     36  C   UNL A   1      41.734  27.958  29.559  1.00  0.00     0.031 C 
ATOM     37  C   UNL A   1      44.033  32.351  30.359  1.00  0.00     0.029 A 
ATOM     38  N   UNL A   1      45.157  30.806  29.195  1.00  0.00    -0.354 N 
ATOM     39  C   UNL A   1      43.388  26.958  28.331  1.00  0.00     0.074 A 
ATOM     40  C   UNL A   1      42.069  26.846  28.917  1.00  0.00     0.031 C 
ATOM     41  C   UNL A   1      45.224  32.880  30.033  1.00  0.00     0.029 A 
ATOM     42  C   UNL A   1      46.003  31.882  29.305  1.00  0.00     0.049 A 
ATOM     43  H   UNL A   1      45.391  29.984  28.706  1.00  0.00     0.167 HD
ATOM     44  C   UNL A   1      43.987  25.990  27.596  1.00  0.00     0.031 A 
ATOM     45  C   UNL A   1      47.274  32.040  28.889  1.00  0.00     0.031 A 
ATOM     46  C   UNL A   1      45.313  26.097  27.045  1.00  0.00     0.049 A 
ATOM     47  C   UNL A   1      47.946  30.921  28.146  1.00  0.00     0.074 A 
ATOM     48  C   UNL A   1      46.005  25.173  26.280  1.00  0.00     0.029 A 
ATOM     49  N   UNL A   1      46.153  27.188  27.210  1.00  0.00    -0.354 N 
ATOM     50  N   UNL A   1      47.460  29.750  27.810  1.00  0.00    -0.248 NA
ATOM     51  C   UNL A   1      49.334  31.146  27.723  1.00  0.00     0.031 C 
ATOM     52  C   UNL A   1      47.282  25.686  26.025  1.00  0.00     0.029 A 
ATOM     53  C   UNL A   1      47.368  26.950  26.587  1.00  0.00     0.049 A 
ATOM     54  H   UNL A   1      45.921  28.011  27.697  1.00  0.00     0.167 HD
ATOM     55  C   UNL A   1      48.477  29.105  27.117  1.00  0.00     0.074 A 
ATOM     56  C   UNL A   1      49.601  30.019  27.075  1.00  0.00     0.031 C 
ATOM     57  C   UNL A   1      48.478  27.867  26.562  1.00  0.00     0.031 A 
BRANCH  44  58
ATOM     58  C   UNL A   1      43.227  24.710  27.375  1.00  0.00    -0.014 A 
ATOM     59  C   UNL A   1      42.358  24.563  26.279  1.00  0.00     0.010 A 
ATOM     60  C   UNL A   1      43.422  23.621  28.244  1.00  0.00     0.010 A 
ATOM     61  C   UNL A   1      41.677  23.360  26.072  1.00  0.00     0.020 A 
ATOM     62  C   UNL A   1      42.757  22.411  28.031  1.00  0.00     0.020 A 
ATOM     63  C   UNL A   1      41.877  22.293  26.954  1.00  0.00     0.054 A 
BRANCH  63  64
ATOM     64  S   UNL A   1      40.998  20.734  26.653  1.00  0.00     0.124 S 
ATOM     65  O   UNL A   1      39.793  21.196  25.967  1.00  0.00    -0.237 OA
ATOM     66  O   UNL A   1      41.941  19.985  25.826  1.00  0.00    -0.237 OA
ATOM     67  O   UNL A   1      40.782  20.193  27.993  1.00  0.00    -0.744 OA
ENDBRANCH  63  64
ENDBRANCH  44  58
BRANCH  45  68
ATOM     68  C   UNL A   1      47.992  33.306  29.192  1.00  0.00    -0.014 A 
ATOM     69  C   UNL A   1      48.747  33.439  30.368  1.00  0.00     0.010 A 
ATOM     70  C   UNL A   1      47.950  34.375  28.276  1.00  0.00     0.010 A 
ATOM     71  C   UNL A   1      49.444  34.623  30.629  1.00  0.00     0.020 A 
ATOM     72  C   UNL A   1      48.663  35.550  28.522  1.00  0.00     0.020 A 
ATOM     73  C   UNL A   1      49.400  35.669  29.703  1.00  0.00     0.054 A 
BRANCH  73  74
ATOM     74  S   UNL A   1      50.363  37.172  30.026  1.00  0.00     0.124 S 
ATOM     75  O   UNL A   1      51.567  36.937  29.236  1.00  0.00    -0.237 OA
ATOM     76  O   UNL A   1      49.480  38.228  29.537  1.00  0.00    -0.237 OA
ATOM     77  O   UNL A   1      50.550  37.151  31.475  1.00  0.00    -0.744 OA
ENDBRANCH  73  74
ENDBRANCH  45  68
BRANCH  57  78
ATOM     78  C   UNL A   1      49.725  27.438  25.841  1.00  0.00    -0.014 A 
ATOM     79  C   UNL A   1      49.959  27.818  24.508  1.00  0.00     0.010 A 
ATOM     80  C   UNL A   1      50.700  26.688  26.524  1.00  0.00     0.010 A 
ATOM     81  C   UNL A   1      51.138  27.433  23.862  1.00  0.00     0.020 A 
ATOM     82  C   UNL A   1      51.887  26.320  25.888  1.00  0.00     0.020 A 
ATOM     83  C   UNL A   1      52.093  26.684  24.556  1.00  0.00     0.054 A 
BRANCH  83  84
ATOM     84  S   UNL A   1      53.636  26.236  23.713  1.00  0.00     0.124 S 
ATOM     85  O   UNL A   1      53.168  25.939  22.362  1.00  0.00    -0.237 OA
ATOM     86  O   UNL A   1      54.441  27.447  23.847  1.00  0.00    -0.237 OA
ATOM     87  O   UNL A   1      54.122  25.086  24.473  1.00  0.00    -0.744 OA
ENDBRANCH  83  84
ENDBRANCH  57  78
ENDBRANCH  31  32
ENDBRANCH  24  26
ENDBRANCH  23  24
ENDBRANCH  22  23
ENDBRANCH   1  22
TORSDOF 17
ENDMDL
