MODEL 1
REMARK VINA RESULT:     -14.2      0.000      0.000
REMARK SMILES Cc1ccc(N2C(=O)C[C@H](Sc3ccccc3C(=O)OCCOC(=O)c3ccc(-c4c5nc(c(-c6ccc(S(=O)(=O)[O-])cc6)c6ccc([nH]6)c(-c6ccc(S(=O)(=O)[O-])cc6)c6nc(c(-c7ccc(S(=O)(=O)[O-])cc7)c7ccc4[nH]7)C=C6)C=C5)cc3)C2=O)cc1
REMARK SMILES IDX 21 1 20 2 18 3 19 4 17 5 12 6 13 7 14 8 16 9 15 10 11 11
REMARK SMILES IDX 10 12 6 13 7 14 86 15 8 16 9 17 87 18 5 19 1 20 2 21 3 22
REMARK SMILES IDX 89 23 4 24 88 25 22 26 23 27 24 28 25 29 26 30 27 31 85 32
REMARK SMILES IDX 28 33 84 34 29 35 30 36 31 37 78 38 32 39 83 40 77 41 79 42
REMARK SMILES IDX 33 43 82 44 76 45 75 46 34 48 64 49 45 50 63 51 46 52 49 53
REMARK SMILES IDX 62 54 80 55 47 56 48 57 61 59 81 60 50 61 35 62 36 63 44 64
REMARK SMILES IDX 37 65 43 66 38 67 39 68 40 69 41 70 42 71 65 72 66 73 74 74
REMARK SMILES IDX 67 75 73 76 68 77 69 78 70 79 71 80 72 81 51 82 52 83 60 84
REMARK SMILES IDX 53 85 59 86 54 87 55 88 56 89 57 90 58 91
REMARK H PARENT 79 47 49 58
REMARK Flexibility Score: inf
ROOT
ATOM      1  C   UNL A   1      32.475  30.228  26.213  1.00  0.00     0.275 C 
ENDROOT
BRANCH   1   2
ATOM      2  O   UNL A   1      33.278  29.686  25.144  1.00  0.00    -0.458 OA
BRANCH   2   3
ATOM      3  C   UNL A   1      32.524  29.043  24.042  1.00  0.00     0.339 C 
ATOM      4  O   UNL A   1      33.475  28.432  23.465  1.00  0.00    -0.246 OA
BRANCH   3   5
ATOM      5  C   UNL A   1      30.389  29.053  23.643  1.00  0.00     0.073 A 
ATOM      6  C   UNL A   1      29.319  27.756  23.665  1.00  0.00     0.023 A 
ATOM      7  C   UNL A   1      27.919  27.778  23.362  1.00  0.00     0.016 A 
ATOM      8  C   UNL A   1      27.279  28.972  23.125  1.00  0.00     0.001 A 
ATOM      9  C   UNL A   1      29.432  30.172  23.336  1.00  0.00     0.017 A 
ATOM     10  C   UNL A   1      28.016  30.138  23.126  1.00  0.00     0.001 A 
BRANCH   6  11
ATOM     11  S   UNL A   1      29.586  25.689  23.853  1.00  0.00    -0.111 SA
BRANCH  11  12
ATOM     12  C   UNL A   1      31.225  25.133  24.876  1.00  0.00     0.151 C 
ATOM     13  N   UNL A   1      32.088  23.019  25.355  1.00  0.00    -0.250 N 
ATOM     14  C   UNL A   1      31.909  23.566  26.600  1.00  0.00     0.235 C 
ATOM     15  C   UNL A   1      31.759  23.844  24.302  1.00  0.00     0.247 C 
ATOM     16  O   UNL A   1      32.161  23.034  27.674  1.00  0.00    -0.274 OA
ATOM     17  C   UNL A   1      31.393  24.959  26.429  1.00  0.00     0.126 C 
ATOM     18  O   UNL A   1      31.928  23.617  23.109  1.00  0.00    -0.273 OA
BRANCH  13  19
ATOM     19  C   UNL A   1      32.829  21.846  25.199  1.00  0.00     0.052 A 
ATOM     20  C   UNL A   1      35.027  18.225  24.576  1.00  0.00     0.044 C 
ATOM     21  C   UNL A   1      34.268  19.500  24.771  1.00  0.00    -0.051 A 
ATOM     22  C   UNL A   1      32.868  19.473  24.769  1.00  0.00     0.005 A 
ATOM     23  C   UNL A   1      34.938  20.719  24.958  1.00  0.00     0.005 A 
ATOM     24  C   UNL A   1      32.149  20.645  24.974  1.00  0.00     0.027 A 
ATOM     25  C   UNL A   1      34.221  21.893  25.177  1.00  0.00     0.027 A 
ENDBRANCH  13  19
ENDBRANCH  11  12
ENDBRANCH   6  11
ENDBRANCH   3   5
ENDBRANCH   2   3
ENDBRANCH   1   2
BRANCH   1  26
ATOM     26  C   UNL A   1      33.337  30.509  27.464  1.00  0.00     0.275 C 
BRANCH  26  27
ATOM     27  O   UNL A   1      33.726  31.885  27.682  1.00  0.00    -0.458 OA
BRANCH  27  28
ATOM     28  C   UNL A   1      34.969  32.110  28.176  1.00  0.00     0.338 C 
ATOM     29  O   UNL A   1      35.479  33.151  28.533  1.00  0.00    -0.246 OA
BRANCH  28  30
ATOM     30  C   UNL A   1      35.543  30.783  28.396  1.00  0.00     0.060 A 
ATOM     31  C   UNL A   1      35.711  30.297  30.120  1.00  0.00     0.016 A 
ATOM     32  C   UNL A   1      36.810  30.349  27.249  1.00  0.00     0.016 A 
ATOM     33  C   UNL A   1      37.165  29.307  30.745  1.00  0.00     0.010 A 
ATOM     34  C   UNL A   1      38.295  29.517  27.851  1.00  0.00     0.010 A 
ATOM     35  C   UNL A   1      38.469  28.970  29.566  1.00  0.00    -0.014 A 
BRANCH  35  36
ATOM     36  C   UNL A   1      39.879  28.803  29.876  1.00  0.00     0.031 A 
ATOM     37  C   UNL A   1      40.424  27.478  29.485  1.00  0.00     0.074 A 
ATOM     38  C   UNL A   1      40.596  29.938  30.102  1.00  0.00     0.049 A 
ATOM     39  N   UNL A   1      41.584  27.058  29.811  1.00  0.00    -0.248 NA
ATOM     40  C   UNL A   1      39.700  26.442  28.723  1.00  0.00     0.031 C 
ATOM     41  C   UNL A   1      42.009  30.232  29.856  1.00  0.00     0.029 A 
ATOM     42  N   UNL A   1      40.161  31.093  30.754  1.00  0.00    -0.354 N 
ATOM     43  C   UNL A   1      41.892  26.012  28.962  1.00  0.00     0.074 A 
ATOM     44  C   UNL A   1      40.654  25.567  28.409  1.00  0.00     0.031 C 
ATOM     45  C   UNL A   1      42.378  31.320  30.563  1.00  0.00     0.029 A 
ATOM     46  C   UNL A   1      41.241  31.753  31.359  1.00  0.00     0.049 A 
ATOM     47  H   UNL A   1      39.226  31.402  30.785  1.00  0.00     0.167 HD
ATOM     48  C   UNL A   1      43.200  25.796  28.689  1.00  0.00     0.031 A 
ATOM     49  C   UNL A   1      41.278  31.854  32.721  1.00  0.00     0.031 A 
ATOM     50  C   UNL A   1      44.007  26.661  29.546  1.00  0.00     0.049 A 
ATOM     51  C   UNL A   1      42.123  30.777  33.352  1.00  0.00     0.074 A 
ATOM     52  C   UNL A   1      44.621  27.878  29.324  1.00  0.00     0.029 A 
ATOM     53  N   UNL A   1      43.838  26.542  30.919  1.00  0.00    -0.354 N 
ATOM     54  N   UNL A   1      42.560  29.755  32.671  1.00  0.00    -0.248 NA
ATOM     55  C   UNL A   1      42.597  30.767  34.735  1.00  0.00     0.031 C 
ATOM     56  C   UNL A   1      44.706  28.544  30.585  1.00  0.00     0.029 A 
ATOM     57  C   UNL A   1      44.159  27.723  31.559  1.00  0.00     0.049 A 
ATOM     58  H   UNL A   1      43.530  25.727  31.376  1.00  0.00     0.167 HD
ATOM     59  C   UNL A   1      43.345  28.976  33.456  1.00  0.00     0.074 A 
ATOM     60  C   UNL A   1      43.345  29.648  34.743  1.00  0.00     0.031 C 
ATOM     61  C   UNL A   1      43.933  27.838  32.995  1.00  0.00     0.031 A 
BRANCH  48  62
ATOM     62  C   UNL A   1      43.758  25.024  27.526  1.00  0.00    -0.014 A 
ATOM     63  C   UNL A   1      44.807  24.127  27.805  1.00  0.00     0.010 A 
ATOM     64  C   UNL A   1      43.375  25.141  26.172  1.00  0.00     0.010 A 
ATOM     65  C   UNL A   1      45.432  23.378  26.808  1.00  0.00     0.020 A 
ATOM     66  C   UNL A   1      43.990  24.384  25.159  1.00  0.00     0.020 A 
ATOM     67  C   UNL A   1      45.010  23.498  25.490  1.00  0.00     0.054 A 
BRANCH  67  68
ATOM     68  S   UNL A   1      45.795  22.447  24.245  1.00  0.00     0.124 S 
ATOM     69  O   UNL A   1      44.666  22.060  23.404  1.00  0.00    -0.237 OA
ATOM     70  O   UNL A   1      46.754  23.362  23.631  1.00  0.00    -0.237 OA
ATOM     71  O   UNL A   1      46.386  21.362  25.027  1.00  0.00    -0.744 OA
ENDBRANCH  67  68
ENDBRANCH  48  62
BRANCH  49  72
ATOM     72  C   UNL A   1      40.043  32.467  33.258  1.00  0.00    -0.014 A 
ATOM     73  C   UNL A   1      39.671  33.690  32.661  1.00  0.00     0.010 A 
ATOM     74  C   UNL A   1      39.071  31.712  33.934  1.00  0.00     0.010 A 
ATOM     75  C   UNL A   1      38.342  34.099  32.644  1.00  0.00     0.020 A 
ATOM     76  C   UNL A   1      37.734  32.134  33.937  1.00  0.00     0.020 A 
ATOM     77  C   UNL A   1      37.385  33.327  33.295  1.00  0.00     0.054 A 
BRANCH  77  78
ATOM     78  S   UNL A   1      35.698  33.955  33.302  1.00  0.00     0.124 S 
ATOM     79  O   UNL A   1      35.898  35.398  33.254  1.00  0.00    -0.237 OA
ATOM     80  O   UNL A   1      35.131  33.359  32.096  1.00  0.00    -0.237 OA
ATOM     81  O   UNL A   1      35.152  33.454  34.562  1.00  0.00    -0.744 OA
ENDBRANCH  77  78
ENDBRANCH  49  72
BRANCH  61  82
ATOM     82  C   UNL A   1      44.418  26.762  33.917  1.00  0.00    -0.014 A 
ATOM     83  C   UNL A   1      45.743  26.305  33.920  1.00  0.00     0.010 A 
ATOM     84  C   UNL A   1      43.544  26.240  34.895  1.00  0.00     0.010 A 
ATOM     85  C   UNL A   1      46.123  25.229  34.714  1.00  0.00     0.020 A 
ATOM     86  C   UNL A   1      43.944  25.237  35.768  1.00  0.00     0.020 A 
ATOM     87  C   UNL A   1      45.208  24.686  35.614  1.00  0.00     0.054 A 
BRANCH  87  88
ATOM     88  S   UNL A   1      45.676  23.225  36.550  1.00  0.00     0.124 S 
ATOM     89  O   UNL A   1      47.118  23.181  36.321  1.00  0.00    -0.237 OA
ATOM     90  O   UNL A   1      45.263  23.570  37.908  1.00  0.00    -0.237 OA
ATOM     91  O   UNL A   1      44.908  22.153  35.921  1.00  0.00    -0.744 OA
ENDBRANCH  87  88
ENDBRANCH  61  82
ENDBRANCH  35  36
ENDBRANCH  28  30
ENDBRANCH  27  28
ENDBRANCH  26  27
ENDBRANCH   1  26
TORSDOF 17
ENDMDL
MODEL 2
REMARK VINA RESULT:     -14.0      1.659      4.192
REMARK SMILES Cc1ccc(N2C(=O)C[C@H](Sc3ccccc3C(=O)OCCOC(=O)c3ccc(-c4c5nc(c(-c6ccc(S(=O)(=O)[O-])cc6)c6ccc([nH]6)c(-c6ccc(S(=O)(=O)[O-])cc6)c6nc(c(-c7ccc(S(=O)(=O)[O-])cc7)c7ccc4[nH]7)C=C6)C=C5)cc3)C2=O)cc1
REMARK SMILES IDX 21 1 20 2 18 3 19 4 17 5 12 6 13 7 14 8 16 9 15 10 11 11
REMARK SMILES IDX 10 12 6 13 7 14 86 15 8 16 9 17 87 18 5 19 1 20 2 21 3 22
REMARK SMILES IDX 89 23 4 24 88 25 22 26 23 27 24 28 25 29 26 30 27 31 85 32
REMARK SMILES IDX 28 33 84 34 29 35 30 36 31 37 78 38 32 39 83 40 77 41 79 42
REMARK SMILES IDX 33 43 82 44 76 45 75 46 34 48 64 49 45 50 63 51 46 52 49 53
REMARK SMILES IDX 62 54 80 55 47 56 48 57 61 59 81 60 50 61 35 62 36 63 44 64
REMARK SMILES IDX 37 65 43 66 38 67 39 68 40 69 41 70 42 71 65 72 66 73 74 74
REMARK SMILES IDX 67 75 73 76 68 77 69 78 70 79 71 80 72 81 51 82 52 83 60 84
REMARK SMILES IDX 53 85 59 86 54 87 55 88 56 89 57 90 58 91
REMARK H PARENT 79 47 49 58
REMARK Flexibility Score: inf
ROOT
ATOM      1  C   UNL A   1      32.841  28.932  26.575  1.00  0.00     0.275 C 
ENDROOT
BRANCH   1   2
ATOM      2  O   UNL A   1      33.468  28.070  25.603  1.00  0.00    -0.458 OA
BRANCH   2   3
ATOM      3  C   UNL A   1      33.380  26.618  25.886  1.00  0.00     0.339 C 
ATOM      4  O   UNL A   1      32.319  26.604  26.580  1.00  0.00    -0.246 OA
BRANCH   3   5
ATOM      5  C   UNL A   1      34.643  24.997  25.182  1.00  0.00     0.073 A 
ATOM      6  C   UNL A   1      34.569  24.181  23.713  1.00  0.00     0.023 A 
ATOM      7  C   UNL A   1      35.389  23.088  23.283  1.00  0.00     0.016 A 
ATOM      8  C   UNL A   1      36.450  22.672  24.052  1.00  0.00     0.001 A 
ATOM      9  C   UNL A   1      35.839  24.321  25.792  1.00  0.00     0.017 A 
ATOM     10  C   UNL A   1      36.675  23.283  25.268  1.00  0.00     0.001 A 
BRANCH   6  11
ATOM     11  S   UNL A   1      33.200  24.213  22.131  1.00  0.00    -0.111 SA
BRANCH  11  12
ATOM     12  C   UNL A   1      31.308  24.649  22.653  1.00  0.00     0.151 C 
ATOM     13  N   UNL A   1      30.347  26.637  23.408  1.00  0.00    -0.250 N 
ATOM     14  C   UNL A   1      30.066  25.757  24.421  1.00  0.00     0.235 C 
ATOM     15  C   UNL A   1      31.023  26.097  22.336  1.00  0.00     0.247 C 
ATOM     16  O   UNL A   1      29.451  26.002  25.451  1.00  0.00    -0.274 OA
ATOM     17  C   UNL A   1      30.598  24.413  24.036  1.00  0.00     0.126 C 
ATOM     18  O   UNL A   1      31.293  26.656  21.279  1.00  0.00    -0.273 OA
BRANCH  13  19
ATOM     19  C   UNL A   1      29.718  27.883  23.360  1.00  0.00     0.052 A 
ATOM     20  C   UNL A   1      27.680  31.648  23.323  1.00  0.00     0.044 C 
ATOM     21  C   UNL A   1      28.396  30.334  23.362  1.00  0.00    -0.051 A 
ATOM     22  C   UNL A   1      27.704  29.165  23.024  1.00  0.00     0.005 A 
ATOM     23  C   UNL A   1      29.748  30.257  23.729  1.00  0.00     0.005 A 
ATOM     24  C   UNL A   1      28.361  27.940  23.030  1.00  0.00     0.027 A 
ATOM     25  C   UNL A   1      30.413  29.033  23.725  1.00  0.00     0.027 A 
ENDBRANCH  13  19
ENDBRANCH  11  12
ENDBRANCH   6  11
ENDBRANCH   3   5
ENDBRANCH   2   3
ENDBRANCH   1   2
BRANCH   1  26
ATOM     26  C   UNL A   1      33.245  30.406  26.349  1.00  0.00     0.275 C 
BRANCH  26  27
ATOM     27  O   UNL A   1      33.455  31.206  27.535  1.00  0.00    -0.458 OA
BRANCH  27  28
ATOM     28  C   UNL A   1      34.728  31.578  27.818  1.00  0.00     0.338 C 
ATOM     29  O   UNL A   1      35.200  32.691  27.923  1.00  0.00    -0.246 OA
BRANCH  28  30
ATOM     30  C   UNL A   1      35.419  30.342  28.185  1.00  0.00     0.060 A 
ATOM     31  C   UNL A   1      35.654  30.091  29.950  1.00  0.00     0.016 A 
ATOM     32  C   UNL A   1      36.703  29.879  27.068  1.00  0.00     0.016 A 
ATOM     33  C   UNL A   1      37.197  29.313  30.656  1.00  0.00     0.010 A 
ATOM     34  C   UNL A   1      38.263  29.258  27.731  1.00  0.00     0.010 A 
ATOM     35  C   UNL A   1      38.509  28.945  29.494  1.00  0.00    -0.014 A 
BRANCH  35  36
ATOM     36  C   UNL A   1      39.932  28.939  29.787  1.00  0.00     0.031 A 
ATOM     37  C   UNL A   1      40.586  27.626  29.549  1.00  0.00     0.074 A 
ATOM     38  C   UNL A   1      40.551  30.150  29.854  1.00  0.00     0.049 A 
ATOM     39  N   UNL A   1      41.783  27.351  29.895  1.00  0.00    -0.248 NA
ATOM     40  C   UNL A   1      39.944  26.446  28.938  1.00  0.00     0.031 C 
ATOM     41  C   UNL A   1      41.929  30.531  29.538  1.00  0.00     0.029 A 
ATOM     42  N   UNL A   1      40.026  31.336  30.370  1.00  0.00    -0.354 N 
ATOM     43  C   UNL A   1      42.169  26.237  29.173  1.00  0.00     0.074 A 
ATOM     44  C   UNL A   1      40.967  25.623  28.710  1.00  0.00     0.031 C 
ATOM     45  C   UNL A   1      42.211  31.726  30.097  1.00  0.00     0.029 A 
ATOM     46  C   UNL A   1      41.052  32.155  30.862  1.00  0.00     0.049 A 
ATOM     47  H   UNL A   1      39.068  31.565  30.386  1.00  0.00     0.167 HD
ATOM     48  C   UNL A   1      43.487  26.102  28.896  1.00  0.00     0.031 A 
ATOM     49  C   UNL A   1      41.100  32.429  32.200  1.00  0.00     0.031 A 
ATOM     50  C   UNL A   1      44.228  27.132  29.620  1.00  0.00     0.049 A 
ATOM     51  C   UNL A   1      42.044  31.515  32.937  1.00  0.00     0.074 A 
ATOM     52  C   UNL A   1      44.729  28.360  29.235  1.00  0.00     0.029 A 
ATOM     53  N   UNL A   1      44.089  27.171  31.001  1.00  0.00    -0.354 N 
ATOM     54  N   UNL A   1      42.560  30.457  32.376  1.00  0.00    -0.248 NA
ATOM     55  C   UNL A   1      42.537  31.717  34.299  1.00  0.00     0.031 C 
ATOM     56  C   UNL A   1      44.773  29.182  30.401  1.00  0.00     0.029 A 
ATOM     57  C   UNL A   1      44.314  28.446  31.483  1.00  0.00     0.049 A 
ATOM     58  H   UNL A   1      43.860  26.396  31.562  1.00  0.00     0.167 HD
ATOM     59  C   UNL A   1      43.421  29.851  33.231  1.00  0.00     0.074 A 
ATOM     60  C   UNL A   1      43.381  30.676  34.425  1.00  0.00     0.031 C 
ATOM     61  C   UNL A   1      44.100  28.719  32.899  1.00  0.00     0.031 A 
BRANCH  48  62
ATOM     62  C   UNL A   1      44.094  25.240  27.823  1.00  0.00    -0.014 A 
ATOM     63  C   UNL A   1      44.562  25.900  26.670  1.00  0.00     0.010 A 
ATOM     64  C   UNL A   1      44.196  23.833  27.827  1.00  0.00     0.010 A 
ATOM     65  C   UNL A   1      45.113  25.211  25.589  1.00  0.00     0.020 A 
ATOM     66  C   UNL A   1      44.759  23.127  26.748  1.00  0.00     0.020 A 
ATOM     67  C   UNL A   1      45.224  23.827  25.639  1.00  0.00     0.054 A 
BRANCH  67  68
ATOM     68  S   UNL A   1      46.019  22.985  24.250  1.00  0.00     0.124 S 
ATOM     69  O   UNL A   1      47.019  23.960  23.824  1.00  0.00    -0.237 OA
ATOM     70  O   UNL A   1      46.543  21.778  24.882  1.00  0.00    -0.237 OA
ATOM     71  O   UNL A   1      44.926  22.766  23.304  1.00  0.00    -0.744 OA
ENDBRANCH  67  68
ENDBRANCH  48  62
BRANCH  49  72
ATOM     72  C   UNL A   1      39.824  32.997  32.688  1.00  0.00    -0.014 A 
ATOM     73  C   UNL A   1      39.396  34.168  32.028  1.00  0.00     0.010 A 
ATOM     74  C   UNL A   1      38.883  32.221  33.384  1.00  0.00     0.010 A 
ATOM     75  C   UNL A   1      38.047  34.501  31.971  1.00  0.00     0.020 A 
ATOM     76  C   UNL A   1      37.524  32.568  33.347  1.00  0.00     0.020 A 
ATOM     77  C   UNL A   1      37.122  33.708  32.643  1.00  0.00     0.054 A 
BRANCH  77  78
ATOM     78  S   UNL A   1      35.404  34.241  32.596  1.00  0.00     0.124 S 
ATOM     79  O   UNL A   1      34.771  33.355  33.565  1.00  0.00    -0.237 OA
ATOM     80  O   UNL A   1      35.494  35.643  32.993  1.00  0.00    -0.237 OA
ATOM     81  O   UNL A   1      35.012  34.009  31.207  1.00  0.00    -0.744 OA
ENDBRANCH  77  78
ENDBRANCH  49  72
BRANCH  61  82
ATOM     82  C   UNL A   1      44.690  27.812  33.933  1.00  0.00    -0.014 A 
ATOM     83  C   UNL A   1      46.001  27.954  34.409  1.00  0.00     0.010 A 
ATOM     84  C   UNL A   1      43.880  26.825  34.536  1.00  0.00     0.010 A 
ATOM     85  C   UNL A   1      46.545  27.023  35.287  1.00  0.00     0.020 A 
ATOM     86  C   UNL A   1      44.382  25.955  35.495  1.00  0.00     0.020 A 
ATOM     87  C   UNL A   1      45.733  26.013  35.802  1.00  0.00     0.054 A 
BRANCH  87  88
ATOM     88  S   UNL A   1      46.477  24.751  36.844  1.00  0.00     0.124 S 
ATOM     89  O   UNL A   1      46.600  25.458  38.116  1.00  0.00    -0.237 OA
ATOM     90  O   UNL A   1      45.482  23.682  36.810  1.00  0.00    -0.237 OA
ATOM     91  O   UNL A   1      47.737  24.447  36.170  1.00  0.00    -0.744 OA
ENDBRANCH  87  88
ENDBRANCH  61  82
ENDBRANCH  35  36
ENDBRANCH  28  30
ENDBRANCH  27  28
ENDBRANCH  26  27
ENDBRANCH   1  26
TORSDOF 17
ENDMDL
MODEL 3
REMARK VINA RESULT:     -13.3      2.275      4.693
REMARK SMILES Cc1ccc(N2C(=O)C[C@H](Sc3ccccc3C(=O)OCCOC(=O)c3ccc(-c4c5nc(c(-c6ccc(S(=O)(=O)[O-])cc6)c6ccc([nH]6)c(-c6ccc(S(=O)(=O)[O-])cc6)c6nc(c(-c7ccc(S(=O)(=O)[O-])cc7)c7ccc4[nH]7)C=C6)C=C5)cc3)C2=O)cc1
REMARK SMILES IDX 21 1 20 2 18 3 19 4 17 5 12 6 13 7 14 8 16 9 15 10 11 11
REMARK SMILES IDX 10 12 6 13 7 14 86 15 8 16 9 17 87 18 5 19 1 20 2 21 3 22
REMARK SMILES IDX 89 23 4 24 88 25 22 26 23 27 24 28 25 29 26 30 27 31 85 32
REMARK SMILES IDX 28 33 84 34 29 35 30 36 31 37 78 38 32 39 83 40 77 41 79 42
REMARK SMILES IDX 33 43 82 44 76 45 75 46 34 48 64 49 45 50 63 51 46 52 49 53
REMARK SMILES IDX 62 54 80 55 47 56 48 57 61 59 81 60 50 61 35 62 36 63 44 64
REMARK SMILES IDX 37 65 43 66 38 67 39 68 40 69 41 70 42 71 65 72 66 73 74 74
REMARK SMILES IDX 67 75 73 76 68 77 69 78 70 79 71 80 72 81 51 82 52 83 60 84
REMARK SMILES IDX 53 85 59 86 54 87 55 88 56 89 57 90 58 91
REMARK H PARENT 79 47 49 58
REMARK Flexibility Score: inf
ROOT
ATOM      1  C   UNL A   1      33.616  28.989  27.003  1.00  0.00     0.275 C 
ENDROOT
BRANCH   1   2
ATOM      2  O   UNL A   1      34.097  28.158  25.926  1.00  0.00    -0.458 OA
BRANCH   2   3
ATOM      3  C   UNL A   1      33.710  26.729  26.002  1.00  0.00     0.339 C 
ATOM      4  O   UNL A   1      32.547  26.852  26.493  1.00  0.00    -0.246 OA
BRANCH   3   5
ATOM      5  C   UNL A   1      34.793  24.970  25.329  1.00  0.00     0.073 A 
ATOM      6  C   UNL A   1      34.661  24.166  23.858  1.00  0.00     0.023 A 
ATOM      7  C   UNL A   1      35.358  22.984  23.448  1.00  0.00     0.016 A 
ATOM      8  C   UNL A   1      36.344  22.448  24.243  1.00  0.00     0.001 A 
ATOM      9  C   UNL A   1      35.886  24.160  25.968  1.00  0.00     0.017 A 
ATOM     10  C   UNL A   1      36.608  23.031  25.465  1.00  0.00     0.001 A 
BRANCH   6  11
ATOM     11  S   UNL A   1      33.345  24.354  22.242  1.00  0.00    -0.111 SA
BRANCH  11  12
ATOM     12  C   UNL A   1      31.438  24.749  22.740  1.00  0.00     0.151 C 
ATOM     13  N   UNL A   1      30.421  26.719  23.469  1.00  0.00    -0.250 N 
ATOM     14  C   UNL A   1      30.151  25.840  24.486  1.00  0.00     0.235 C 
ATOM     15  C   UNL A   1      31.123  26.187  22.408  1.00  0.00     0.247 C 
ATOM     16  O   UNL A   1      29.520  26.079  25.508  1.00  0.00    -0.274 OA
ATOM     17  C   UNL A   1      30.719  24.507  24.117  1.00  0.00     0.126 C 
ATOM     18  O   UNL A   1      31.390  26.744  21.350  1.00  0.00    -0.273 OA
BRANCH  13  19
ATOM     19  C   UNL A   1      29.765  27.949  23.405  1.00  0.00     0.052 A 
ATOM     20  C   UNL A   1      27.637  31.663  23.314  1.00  0.00     0.044 C 
ATOM     21  C   UNL A   1      28.383  30.367  23.372  1.00  0.00    -0.051 A 
ATOM     22  C   UNL A   1      27.726  29.181  23.024  1.00  0.00     0.005 A 
ATOM     23  C   UNL A   1      29.729  30.325  23.766  1.00  0.00     0.005 A 
ATOM     24  C   UNL A   1      28.412  27.972  23.048  1.00  0.00     0.027 A 
ATOM     25  C   UNL A   1      30.424  29.117  23.779  1.00  0.00     0.027 A 
ENDBRANCH  13  19
ENDBRANCH  11  12
ENDBRANCH   6  11
ENDBRANCH   3   5
ENDBRANCH   2   3
ENDBRANCH   1   2
BRANCH   1  26
ATOM     26  C   UNL A   1      34.234  30.403  26.927  1.00  0.00     0.275 C 
BRANCH  26  27
ATOM     27  O   UNL A   1      34.786  30.932  28.155  1.00  0.00    -0.458 OA
BRANCH  27  28
ATOM     28  C   UNL A   1      36.128  31.116  28.206  1.00  0.00     0.338 C 
ATOM     29  O   UNL A   1      36.759  32.131  28.417  1.00  0.00    -0.246 OA
BRANCH  28  30
ATOM     30  C   UNL A   1      36.704  29.773  28.155  1.00  0.00     0.060 A 
ATOM     31  C   UNL A   1      37.051  29.027  29.755  1.00  0.00     0.016 A 
ATOM     32  C   UNL A   1      37.834  29.526  26.825  1.00  0.00     0.016 A 
ATOM     33  C   UNL A   1      38.549  27.956  30.059  1.00  0.00     0.010 A 
ATOM     34  C   UNL A   1      39.363  28.615  27.126  1.00  0.00     0.010 A 
ATOM     35  C   UNL A   1      39.714  27.810  28.707  1.00  0.00    -0.014 A 
BRANCH  35  36
ATOM     36  C   UNL A   1      41.146  27.601  28.832  1.00  0.00     0.031 A 
ATOM     37  C   UNL A   1      41.556  26.178  28.713  1.00  0.00     0.074 A 
ATOM     38  C   UNL A   1      41.943  28.690  28.651  1.00  0.00     0.049 A 
ATOM     39  N   UNL A   1      42.734  25.751  28.955  1.00  0.00    -0.248 NA
ATOM     40  C   UNL A   1      40.666  25.055  28.357  1.00  0.00     0.031 C 
ATOM     41  C   UNL A   1      43.306  28.792  28.128  1.00  0.00     0.029 A 
ATOM     42  N   UNL A   1      41.678  30.002  29.047  1.00  0.00    -0.354 N 
ATOM     43  C   UNL A   1      42.845  24.507  28.363  1.00  0.00     0.074 A 
ATOM     44  C   UNL A   1      41.513  24.051  28.134  1.00  0.00     0.031 C 
ATOM     45  C   UNL A   1      43.839  29.983  28.472  1.00  0.00     0.029 A 
ATOM     46  C   UNL A   1      42.873  30.693  29.294  1.00  0.00     0.049 A 
ATOM     47  H   UNL A   1      40.777  30.389  29.140  1.00  0.00     0.167 HD
ATOM     48  C   UNL A   1      44.078  24.119  27.959  1.00  0.00     0.031 A 
ATOM     49  C   UNL A   1      43.144  31.118  30.565  1.00  0.00     0.031 A 
ATOM     50  C   UNL A   1      45.057  25.093  28.436  1.00  0.00     0.049 A 
ATOM     51  C   UNL A   1      44.032  30.158  31.312  1.00  0.00     0.074 A 
ATOM     52  C   UNL A   1      45.680  26.162  27.823  1.00  0.00     0.029 A 
ATOM     53  N   UNL A   1      45.115  25.326  29.804  1.00  0.00    -0.354 N 
ATOM     54  N   UNL A   1      44.301  28.967  30.855  1.00  0.00    -0.248 NA
ATOM     55  C   UNL A   1      44.731  30.442  32.565  1.00  0.00     0.031 C 
ATOM     56  C   UNL A   1      46.006  27.103  28.845  1.00  0.00     0.029 A 
ATOM     57  C   UNL A   1      45.594  26.595  30.067  1.00  0.00     0.049 A 
ATOM     58  H   UNL A   1      44.851  24.676  30.493  1.00  0.00     0.167 HD
ATOM     59  C   UNL A   1      45.169  28.337  31.684  1.00  0.00     0.074 A 
ATOM     60  C   UNL A   1      45.417  29.299  32.743  1.00  0.00     0.031 C 
ATOM     61  C   UNL A   1      45.618  27.074  31.444  1.00  0.00     0.031 A 
BRANCH  48  62
ATOM     62  C   UNL A   1      44.395  23.042  26.959  1.00  0.00    -0.014 A 
ATOM     63  C   UNL A   1      43.469  21.987  26.848  1.00  0.00     0.010 A 
ATOM     64  C   UNL A   1      45.552  22.949  26.155  1.00  0.00     0.010 A 
ATOM     65  C   UNL A   1      43.665  20.910  25.983  1.00  0.00     0.020 A 
ATOM     66  C   UNL A   1      45.758  21.874  25.272  1.00  0.00     0.020 A 
ATOM     67  C   UNL A   1      44.803  20.866  25.186  1.00  0.00     0.054 A 
BRANCH  67  68
ATOM     68  S   UNL A   1      44.975  19.493  24.023  1.00  0.00     0.124 S 
ATOM     69  O   UNL A   1      46.401  19.191  24.103  1.00  0.00    -0.237 OA
ATOM     70  O   UNL A   1      44.084  18.489  24.598  1.00  0.00    -0.237 OA
ATOM     71  O   UNL A   1      44.532  20.058  22.749  1.00  0.00    -0.744 OA
ENDBRANCH  67  68
ENDBRANCH  48  62
BRANCH  49  72
ATOM     72  C   UNL A   1      42.046  31.949  31.109  1.00  0.00    -0.014 A 
ATOM     73  C   UNL A   1      41.257  31.327  32.099  1.00  0.00     0.010 A 
ATOM     74  C   UNL A   1      42.066  33.351  31.029  1.00  0.00     0.010 A 
ATOM     75  C   UNL A   1      40.588  32.084  33.055  1.00  0.00     0.020 A 
ATOM     76  C   UNL A   1      41.372  34.115  31.978  1.00  0.00     0.020 A 
ATOM     77  C   UNL A   1      40.637  33.472  32.979  1.00  0.00     0.054 A 
BRANCH  77  78
ATOM     78  S   UNL A   1      39.682  34.389  34.199  1.00  0.00     0.124 S 
ATOM     79  O   UNL A   1      40.650  35.363  34.690  1.00  0.00    -0.237 OA
ATOM     80  O   UNL A   1      38.590  34.939  33.400  1.00  0.00    -0.237 OA
ATOM     81  O   UNL A   1      39.294  33.368  35.169  1.00  0.00    -0.744 OA
ENDBRANCH  77  78
ENDBRANCH  49  72
BRANCH  61  82
ATOM     82  C   UNL A   1      46.201  26.216  32.524  1.00  0.00    -0.014 A 
ATOM     83  C   UNL A   1      47.548  26.284  32.903  1.00  0.00     0.010 A 
ATOM     84  C   UNL A   1      45.355  25.365  33.267  1.00  0.00     0.010 A 
ATOM     85  C   UNL A   1      48.072  25.393  33.833  1.00  0.00     0.020 A 
ATOM     86  C   UNL A   1      45.848  24.546  34.274  1.00  0.00     0.020 A 
ATOM     87  C   UNL A   1      47.217  24.511  34.492  1.00  0.00     0.054 A 
BRANCH  87  88
ATOM     88  S   UNL A   1      47.923  23.288  35.605  1.00  0.00     0.124 S 
ATOM     89  O   UNL A   1      48.482  24.137  36.654  1.00  0.00    -0.237 OA
ATOM     90  O   UNL A   1      46.757  22.496  35.989  1.00  0.00    -0.237 OA
ATOM     91  O   UNL A   1      48.901  22.591  34.774  1.00  0.00    -0.744 OA
ENDBRANCH  87  88
ENDBRANCH  61  82
ENDBRANCH  35  36
ENDBRANCH  28  30
ENDBRANCH  27  28
ENDBRANCH  26  27
ENDBRANCH   1  26
TORSDOF 17
ENDMDL
