MODEL 1
REMARK VINA RESULT:     -10.4      0.000      0.000
REMARK SMILES CS(=O)(=O)Nc1cc(NS(C)(=O)=O)cc(C(=O)OCCOC(=O)c2ccc(-c3c4nc(c(-c5ccc(S(=O)(=O)[O-])cc5)c5ccc([nH]5)c(-c5ccc(S(=O)(=O)[O-])cc5)c5nc(c(-c6ccc(S(=O)(=O)[O-])cc6)c6ccc3[nH]6)C=C5)C=C4)cc2)c1
REMARK SMILES IDX 20 1 19 2 18 3 16 4 17 5 15 6 6 7 7 8 84 9 8 10 14 11 5 12
REMARK SMILES IDX 2 14 1 15 3 16 4 17 9 18 10 20 11 21 12 22 13 23 21 24 22 25
REMARK SMILES IDX 23 26 24 27 25 28 83 29 26 30 82 31 27 32 28 33 29 34 76 35
REMARK SMILES IDX 30 36 81 37 75 38 77 39 31 40 80 41 74 42 73 43 32 45 62 46
REMARK SMILES IDX 43 47 61 48 44 49 47 50 60 51 78 52 45 53 46 54 59 56 79 57
REMARK SMILES IDX 48 58 33 59 34 60 42 61 35 62 41 63 36 64 37 65 38 66 39 67
REMARK SMILES IDX 40 68 63 69 64 70 72 71 65 72 71 73 66 74 67 75 68 76 69 77
REMARK SMILES IDX 70 78 49 79 50 80 58 81 51 82 57 83 52 84 53 85 54 86 55 87
REMARK SMILES IDX 56 88
REMARK H PARENT 5 13 9 19 77 44 47 55
REMARK Flexibility Score: inf
ROOT
ATOM      1  C   UNL A   1      38.168  24.060  26.335  1.00  0.00     0.275 C 
ENDROOT
BRANCH   1   2
ATOM      2  C   UNL A   1      38.244  22.564  26.024  1.00  0.00     0.275 C 
BRANCH   2   3
ATOM      3  O   UNL A   1      36.923  21.993  25.945  1.00  0.00    -0.458 OA
BRANCH   3   4
ATOM      4  C   UNL A   1      36.382  21.901  24.709  1.00  0.00     0.338 C 
ATOM      5  O   UNL A   1      36.934  22.151  23.650  1.00  0.00    -0.246 OA
BRANCH   4   6
ATOM      6  C   UNL A   1      34.987  21.405  24.783  1.00  0.00     0.064 A 
ATOM      7  C   UNL A   1      33.455  19.640  25.258  1.00  0.00     0.051 A 
ATOM      8  C   UNL A   1      32.386  20.551  25.253  1.00  0.00     0.053 A 
ATOM      9  C   UNL A   1      34.725  20.045  24.873  1.00  0.00     0.042 A 
ATOM     10  C   UNL A   1      32.605  21.897  24.984  1.00  0.00     0.051 A 
ATOM     11  C   UNL A   1      33.930  22.323  24.886  1.00  0.00     0.042 A 
BRANCH   7  12
ATOM     12  N   UNL A   1      33.195  18.303  25.682  1.00  0.00    -0.284 N 
ATOM     13  H   UNL A   1      32.841  18.149  26.587  1.00  0.00     0.180 HD
BRANCH  12  14
ATOM     14  S   UNL A   1      33.474  16.984  24.678  1.00  0.00     0.229 S 
ATOM     15  C   UNL A   1      32.491  15.612  25.289  1.00  0.00     0.183 C 
ATOM     16  O   UNL A   1      34.869  16.616  24.802  1.00  0.00    -0.207 OA
ATOM     17  O   UNL A   1      32.924  17.372  23.396  1.00  0.00    -0.207 OA
ENDBRANCH  12  14
ENDBRANCH   7  12
BRANCH  10  18
ATOM     18  N   UNL A   1      31.609  22.939  25.043  1.00  0.00    -0.284 N 
ATOM     19  H   UNL A   1      30.887  22.949  24.375  1.00  0.00     0.180 HD
BRANCH  18  20
ATOM     20  S   UNL A   1      31.650  24.148  26.235  1.00  0.00     0.229 S 
ATOM     21  C   UNL A   1      30.221  25.090  25.748  1.00  0.00     0.183 C 
ATOM     22  O   UNL A   1      31.366  23.496  27.495  1.00  0.00    -0.207 OA
ATOM     23  O   UNL A   1      32.803  24.996  26.055  1.00  0.00    -0.207 OA
ENDBRANCH  18  20
ENDBRANCH  10  18
ENDBRANCH   4   6
ENDBRANCH   3   4
ENDBRANCH   2   3
ENDBRANCH   1   2
BRANCH   1  24
ATOM     24  O   UNL A   1      39.191  24.452  27.269  1.00  0.00    -0.458 OA
BRANCH  24  25
ATOM     25  C   UNL A   1      39.858  25.581  26.940  1.00  0.00     0.338 C 
ATOM     26  O   UNL A   1      40.392  25.843  25.875  1.00  0.00    -0.246 OA
BRANCH  25  27
ATOM     27  C   UNL A   1      39.743  26.568  28.020  1.00  0.00     0.060 A 
ATOM     28  C   UNL A   1      40.392  27.785  27.849  1.00  0.00     0.016 A 
ATOM     29  C   UNL A   1      39.165  26.251  29.243  1.00  0.00     0.016 A 
ATOM     30  C   UNL A   1      40.581  28.647  28.919  1.00  0.00     0.010 A 
ATOM     31  C   UNL A   1      39.250  27.175  30.293  1.00  0.00     0.010 A 
ATOM     32  C   UNL A   1      39.990  28.367  30.154  1.00  0.00    -0.014 A 
BRANCH  32  33
ATOM     33  C   UNL A   1      40.159  29.303  31.298  1.00  0.00     0.031 A 
ATOM     34  C   UNL A   1      41.332  29.140  32.230  1.00  0.00     0.074 A 
ATOM     35  C   UNL A   1      39.271  30.299  31.505  1.00  0.00     0.049 A 
ATOM     36  N   UNL A   1      41.534  29.678  33.403  1.00  0.00    -0.248 NA
ATOM     37  C   UNL A   1      42.413  28.243  31.787  1.00  0.00     0.031 C 
ATOM     38  C   UNL A   1      38.133  30.627  30.638  1.00  0.00     0.029 A 
ATOM     39  N   UNL A   1      39.180  31.222  32.519  1.00  0.00    -0.354 N 
ATOM     40  C   UNL A   1      42.737  29.152  33.860  1.00  0.00     0.074 A 
ATOM     41  C   UNL A   1      43.213  28.239  32.845  1.00  0.00     0.031 C 
ATOM     42  C   UNL A   1      37.477  31.681  31.145  1.00  0.00     0.029 A 
ATOM     43  C   UNL A   1      38.073  32.035  32.425  1.00  0.00     0.049 A 
ATOM     44  H   UNL A   1      39.844  31.296  33.243  1.00  0.00     0.167 HD
ATOM     45  C   UNL A   1      43.385  29.411  35.021  1.00  0.00     0.031 A 
ATOM     46  C   UNL A   1      37.550  32.919  33.299  1.00  0.00     0.031 A 
ATOM     47  C   UNL A   1      42.909  30.340  36.013  1.00  0.00     0.049 A 
ATOM     48  C   UNL A   1      38.228  33.108  34.627  1.00  0.00     0.074 A 
ATOM     49  C   UNL A   1      43.475  30.659  37.235  1.00  0.00     0.029 A 
ATOM     50  N   UNL A   1      41.764  31.112  35.888  1.00  0.00    -0.354 N 
ATOM     51  N   UNL A   1      39.331  32.556  35.074  1.00  0.00    -0.248 NA
ATOM     52  C   UNL A   1      37.589  34.030  35.576  1.00  0.00     0.031 C 
ATOM     53  C   UNL A   1      42.647  31.590  37.868  1.00  0.00     0.029 A 
ATOM     54  C   UNL A   1      41.604  31.902  37.012  1.00  0.00     0.049 A 
ATOM     55  H   UNL A   1      41.156  31.099  35.114  1.00  0.00     0.167 HD
ATOM     56  C   UNL A   1      39.539  33.097  36.337  1.00  0.00     0.074 A 
ATOM     57  C   UNL A   1      38.454  34.024  36.580  1.00  0.00     0.031 C 
ATOM     58  C   UNL A   1      40.538  32.848  37.217  1.00  0.00     0.031 A 
BRANCH  45  59
ATOM     59  C   UNL A   1      44.667  28.669  35.300  1.00  0.00    -0.014 A 
ATOM     60  C   UNL A   1      44.659  27.412  35.928  1.00  0.00     0.010 A 
ATOM     61  C   UNL A   1      45.891  29.204  34.856  1.00  0.00     0.010 A 
ATOM     62  C   UNL A   1      45.854  26.714  36.130  1.00  0.00     0.020 A 
ATOM     63  C   UNL A   1      47.085  28.497  35.030  1.00  0.00     0.020 A 
ATOM     64  C   UNL A   1      47.058  27.260  35.675  1.00  0.00     0.054 A 
BRANCH  64  65
ATOM     65  S   UNL A   1      48.584  26.306  35.905  1.00  0.00     0.124 S 
ATOM     66  O   UNL A   1      49.396  26.759  34.779  1.00  0.00    -0.237 OA
ATOM     67  O   UNL A   1      49.037  26.742  37.223  1.00  0.00    -0.237 OA
ATOM     68  O   UNL A   1      48.140  24.916  35.831  1.00  0.00    -0.744 OA
ENDBRANCH  64  65
ENDBRANCH  45  59
BRANCH  46  69
ATOM     69  C   UNL A   1      36.280  33.633  32.984  1.00  0.00    -0.014 A 
ATOM     70  C   UNL A   1      36.301  34.913  32.405  1.00  0.00     0.010 A 
ATOM     71  C   UNL A   1      35.038  33.050  33.298  1.00  0.00     0.010 A 
ATOM     72  C   UNL A   1      35.110  35.613  32.186  1.00  0.00     0.020 A 
ATOM     73  C   UNL A   1      33.843  33.727  33.044  1.00  0.00     0.020 A 
ATOM     74  C   UNL A   1      33.889  35.016  32.512  1.00  0.00     0.054 A 
BRANCH  74  75
ATOM     75  S   UNL A   1      32.356  35.943  32.225  1.00  0.00     0.124 S 
ATOM     76  O   UNL A   1      32.447  36.239  30.799  1.00  0.00    -0.237 OA
ATOM     77  O   UNL A   1      31.328  34.978  32.608  1.00  0.00    -0.237 OA
ATOM     78  O   UNL A   1      32.481  37.095  33.114  1.00  0.00    -0.744 OA
ENDBRANCH  74  75
ENDBRANCH  46  69
BRANCH  58  79
ATOM     79  C   UNL A   1      40.564  33.650  38.489  1.00  0.00    -0.014 A 
ATOM     80  C   UNL A   1      41.227  34.887  38.566  1.00  0.00     0.010 A 
ATOM     81  C   UNL A   1      39.831  33.192  39.600  1.00  0.00     0.010 A 
ATOM     82  C   UNL A   1      41.163  35.647  39.736  1.00  0.00     0.020 A 
ATOM     83  C   UNL A   1      39.739  33.963  40.759  1.00  0.00     0.020 A 
ATOM     84  C   UNL A   1      40.411  35.185  40.821  1.00  0.00     0.054 A 
BRANCH  84  85
ATOM     85  S   UNL A   1      40.270  36.233  42.293  1.00  0.00     0.124 S 
ATOM     86  O   UNL A   1      39.301  37.236  41.862  1.00  0.00    -0.237 OA
ATOM     87  O   UNL A   1      39.793  35.295  43.307  1.00  0.00    -0.237 OA
ATOM     88  O   UNL A   1      41.629  36.727  42.501  1.00  0.00    -0.744 OA
ENDBRANCH  84  85
ENDBRANCH  58  79
ENDBRANCH  32  33
ENDBRANCH  25  27
ENDBRANCH  24  25
ENDBRANCH   1  24
TORSDOF 18
ENDMDL
MODEL 2
REMARK VINA RESULT:     -10.2      3.178      7.945
REMARK SMILES CS(=O)(=O)Nc1cc(NS(C)(=O)=O)cc(C(=O)OCCOC(=O)c2ccc(-c3c4nc(c(-c5ccc(S(=O)(=O)[O-])cc5)c5ccc([nH]5)c(-c5ccc(S(=O)(=O)[O-])cc5)c5nc(c(-c6ccc(S(=O)(=O)[O-])cc6)c6ccc3[nH]6)C=C5)C=C4)cc2)c1
REMARK SMILES IDX 20 1 19 2 18 3 16 4 17 5 15 6 6 7 7 8 84 9 8 10 14 11 5 12
REMARK SMILES IDX 2 14 1 15 3 16 4 17 9 18 10 20 11 21 12 22 13 23 21 24 22 25
REMARK SMILES IDX 23 26 24 27 25 28 83 29 26 30 82 31 27 32 28 33 29 34 76 35
REMARK SMILES IDX 30 36 81 37 75 38 77 39 31 40 80 41 74 42 73 43 32 45 62 46
REMARK SMILES IDX 43 47 61 48 44 49 47 50 60 51 78 52 45 53 46 54 59 56 79 57
REMARK SMILES IDX 48 58 33 59 34 60 42 61 35 62 41 63 36 64 37 65 38 66 39 67
REMARK SMILES IDX 40 68 63 69 64 70 72 71 65 72 71 73 66 74 67 75 68 76 69 77
REMARK SMILES IDX 70 78 49 79 50 80 58 81 51 82 57 83 52 84 53 85 54 86 55 87
REMARK SMILES IDX 56 88
REMARK H PARENT 5 13 9 19 77 44 47 55
REMARK Flexibility Score: inf
ROOT
ATOM      1  C   UNL A   1      33.323  32.310  27.476  1.00  0.00     0.275 C 
ENDROOT
BRANCH   1   2
ATOM      2  C   UNL A   1      32.055  31.579  27.030  1.00  0.00     0.275 C 
BRANCH   2   3
ATOM      3  O   UNL A   1      32.380  30.497  26.136  1.00  0.00    -0.458 OA
BRANCH   3   4
ATOM      4  C   UNL A   1      32.386  29.256  26.673  1.00  0.00     0.338 C 
ATOM      5  O   UNL A   1      32.900  28.919  27.727  1.00  0.00    -0.246 OA
BRANCH   4   6
ATOM      6  C   UNL A   1      31.630  28.311  25.817  1.00  0.00     0.064 A 
ATOM      7  C   UNL A   1      30.403  26.279  25.584  1.00  0.00     0.051 A 
ATOM      8  C   UNL A   1      29.934  26.693  24.326  1.00  0.00     0.053 A 
ATOM      9  C   UNL A   1      31.367  27.019  26.253  1.00  0.00     0.042 A 
ATOM     10  C   UNL A   1      30.333  27.912  23.788  1.00  0.00     0.051 A 
ATOM     11  C   UNL A   1      31.074  28.762  24.610  1.00  0.00     0.042 A 
BRANCH   7  12
ATOM     12  N   UNL A   1      29.849  25.092  26.148  1.00  0.00    -0.284 N 
ATOM     13  H   UNL A   1      28.908  25.095  26.441  1.00  0.00     0.180 HD
BRANCH  12  14
ATOM     14  S   UNL A   1      30.755  23.687  26.326  1.00  0.00     0.229 S 
ATOM     15  C   UNL A   1      31.842  23.554  24.904  1.00  0.00     0.183 C 
ATOM     16  O   UNL A   1      29.845  22.562  26.291  1.00  0.00    -0.207 OA
ATOM     17  O   UNL A   1      31.588  23.929  27.485  1.00  0.00    -0.207 OA
ENDBRANCH  12  14
ENDBRANCH   7  12
BRANCH  10  18
ATOM     18  N   UNL A   1      29.849  28.486  22.557  1.00  0.00    -0.284 N 
ATOM     19  H   UNL A   1      30.382  28.379  21.736  1.00  0.00     0.180 HD
BRANCH  18  20
ATOM     20  S   UNL A   1      28.384  29.343  22.485  1.00  0.00     0.229 S 
ATOM     21  C   UNL A   1      28.808  30.736  23.509  1.00  0.00     0.183 C 
ATOM     22  O   UNL A   1      28.239  29.800  21.120  1.00  0.00    -0.207 OA
ATOM     23  O   UNL A   1      27.340  28.615  23.164  1.00  0.00    -0.207 OA
ENDBRANCH  18  20
ENDBRANCH  10  18
ENDBRANCH   4   6
ENDBRANCH   3   4
ENDBRANCH   2   3
ENDBRANCH   1   2
BRANCH   1  24
ATOM     24  O   UNL A   1      33.081  33.720  27.643  1.00  0.00    -0.458 OA
BRANCH  24  25
ATOM     25  C   UNL A   1      33.365  34.203  28.873  1.00  0.00     0.338 C 
ATOM     26  O   UNL A   1      32.654  34.901  29.578  1.00  0.00    -0.246 OA
BRANCH  25  27
ATOM     27  C   UNL A   1      34.639  33.652  29.351  1.00  0.00     0.060 A 
ATOM     28  C   UNL A   1      34.585  32.680  30.343  1.00  0.00     0.016 A 
ATOM     29  C   UNL A   1      35.860  34.193  28.969  1.00  0.00     0.016 A 
ATOM     30  C   UNL A   1      35.723  32.321  31.050  1.00  0.00     0.010 A 
ATOM     31  C   UNL A   1      37.027  33.743  29.600  1.00  0.00     0.010 A 
ATOM     32  C   UNL A   1      36.969  32.829  30.672  1.00  0.00    -0.014 A 
BRANCH  32  33
ATOM     33  C   UNL A   1      38.199  32.423  31.403  1.00  0.00     0.031 A 
ATOM     34  C   UNL A   1      39.064  31.318  30.854  1.00  0.00     0.074 A 
ATOM     35  C   UNL A   1      38.547  33.039  32.553  1.00  0.00     0.049 A 
ATOM     36  N   UNL A   1      40.025  30.654  31.440  1.00  0.00    -0.248 NA
ATOM     37  C   UNL A   1      38.805  30.899  29.466  1.00  0.00     0.031 C 
ATOM     38  C   UNL A   1      37.849  34.178  33.161  1.00  0.00     0.029 A 
ATOM     39  N   UNL A   1      39.578  32.790  33.427  1.00  0.00    -0.354 N 
ATOM     40  C   UNL A   1      40.453  29.709  30.515  1.00  0.00     0.074 A 
ATOM     41  C   UNL A   1      39.638  29.874  29.332  1.00  0.00     0.031 C 
ATOM     42  C   UNL A   1      38.479  34.536  34.289  1.00  0.00     0.029 A 
ATOM     43  C   UNL A   1      39.555  33.590  34.548  1.00  0.00     0.049 A 
ATOM     44  H   UNL A   1      40.267  32.105  33.267  1.00  0.00     0.167 HD
ATOM     45  C   UNL A   1      41.440  28.790  30.642  1.00  0.00     0.031 A 
ATOM     46  C   UNL A   1      40.270  33.530  35.689  1.00  0.00     0.031 A 
ATOM     47  C   UNL A   1      42.259  28.653  31.818  1.00  0.00     0.049 A 
ATOM     48  C   UNL A   1      41.284  32.432  35.849  1.00  0.00     0.074 A 
ATOM     49  C   UNL A   1      43.269  27.739  32.060  1.00  0.00     0.029 A 
ATOM     50  N   UNL A   1      42.173  29.463  32.940  1.00  0.00    -0.354 N 
ATOM     51  N   UNL A   1      41.636  31.505  34.991  1.00  0.00    -0.248 NA
ATOM     52  C   UNL A   1      41.994  32.364  37.134  1.00  0.00     0.031 C 
ATOM     53  C   UNL A   1      43.764  27.968  33.348  1.00  0.00     0.029 A 
ATOM     54  C   UNL A   1      43.109  29.068  33.879  1.00  0.00     0.049 A 
ATOM     55  H   UNL A   1      41.541  30.209  33.051  1.00  0.00     0.167 HD
ATOM     56  C   UNL A   1      42.635  30.770  35.618  1.00  0.00     0.074 A 
ATOM     57  C   UNL A   1      42.839  31.366  36.922  1.00  0.00     0.031 C 
ATOM     58  C   UNL A   1      43.323  29.699  35.155  1.00  0.00     0.031 A 
BRANCH  45  59
ATOM     59  C   UNL A   1      41.680  27.844  29.494  1.00  0.00    -0.014 A 
ATOM     60  C   UNL A   1      42.723  28.061  28.577  1.00  0.00     0.010 A 
ATOM     61  C   UNL A   1      40.898  26.679  29.376  1.00  0.00     0.010 A 
ATOM     62  C   UNL A   1      42.965  27.143  27.550  1.00  0.00     0.020 A 
ATOM     63  C   UNL A   1      41.155  25.744  28.369  1.00  0.00     0.020 A 
ATOM     64  C   UNL A   1      42.181  25.988  27.456  1.00  0.00     0.054 A 
BRANCH  64  65
ATOM     65  S   UNL A   1      42.554  24.792  26.144  1.00  0.00     0.124 S 
ATOM     66  O   UNL A   1      42.393  25.604  24.940  1.00  0.00    -0.237 OA
ATOM     67  O   UNL A   1      43.924  24.394  26.456  1.00  0.00    -0.237 OA
ATOM     68  O   UNL A   1      41.549  23.748  26.329  1.00  0.00    -0.744 OA
ENDBRANCH  64  65
ENDBRANCH  45  59
BRANCH  46  69
ATOM     69  C   UNL A   1      40.001  34.487  36.800  1.00  0.00    -0.014 A 
ATOM     70  C   UNL A   1      40.697  35.706  36.883  1.00  0.00     0.010 A 
ATOM     71  C   UNL A   1      39.072  34.166  37.808  1.00  0.00     0.010 A 
ATOM     72  C   UNL A   1      40.500  36.563  37.970  1.00  0.00     0.020 A 
ATOM     73  C   UNL A   1      38.842  35.037  38.875  1.00  0.00     0.020 A 
ATOM     74  C   UNL A   1      39.577  36.220  38.962  1.00  0.00     0.054 A 
BRANCH  74  75
ATOM     75  S   UNL A   1      39.342  37.344  40.366  1.00  0.00     0.124 S 
ATOM     76  O   UNL A   1      39.162  36.410  41.472  1.00  0.00    -0.237 OA
ATOM     77  O   UNL A   1      40.590  38.103  40.374  1.00  0.00    -0.237 OA
ATOM     78  O   UNL A   1      38.156  38.112  39.993  1.00  0.00    -0.744 OA
ENDBRANCH  74  75
ENDBRANCH  46  69
BRANCH  58  79
ATOM     79  C   UNL A   1      44.424  29.149  36.019  1.00  0.00    -0.014 A 
ATOM     80  C   UNL A   1      45.713  29.710  36.014  1.00  0.00     0.010 A 
ATOM     81  C   UNL A   1      44.130  28.108  36.919  1.00  0.00     0.010 A 
ATOM     82  C   UNL A   1      46.691  29.231  36.889  1.00  0.00     0.020 A 
ATOM     83  C   UNL A   1      45.095  27.649  37.816  1.00  0.00     0.020 A 
ATOM     84  C   UNL A   1      46.373  28.211  37.791  1.00  0.00     0.054 A 
BRANCH  84  85
ATOM     85  S   UNL A   1      47.633  27.671  38.976  1.00  0.00     0.124 S 
ATOM     86  O   UNL A   1      48.664  28.691  38.811  1.00  0.00    -0.237 OA
ATOM     87  O   UNL A   1      46.912  27.707  40.246  1.00  0.00    -0.237 OA
ATOM     88  O   UNL A   1      47.999  26.334  38.512  1.00  0.00    -0.744 OA
ENDBRANCH  84  85
ENDBRANCH  58  79
ENDBRANCH  32  33
ENDBRANCH  25  27
ENDBRANCH  24  25
ENDBRANCH   1  24
TORSDOF 18
ENDMDL
MODEL 3
REMARK VINA RESULT:     -10.1      3.838      5.553
REMARK SMILES CS(=O)(=O)Nc1cc(NS(C)(=O)=O)cc(C(=O)OCCOC(=O)c2ccc(-c3c4nc(c(-c5ccc(S(=O)(=O)[O-])cc5)c5ccc([nH]5)c(-c5ccc(S(=O)(=O)[O-])cc5)c5nc(c(-c6ccc(S(=O)(=O)[O-])cc6)c6ccc3[nH]6)C=C5)C=C4)cc2)c1
REMARK SMILES IDX 20 1 19 2 18 3 16 4 17 5 15 6 6 7 7 8 84 9 8 10 14 11 5 12
REMARK SMILES IDX 2 14 1 15 3 16 4 17 9 18 10 20 11 21 12 22 13 23 21 24 22 25
REMARK SMILES IDX 23 26 24 27 25 28 83 29 26 30 82 31 27 32 28 33 29 34 76 35
REMARK SMILES IDX 30 36 81 37 75 38 77 39 31 40 80 41 74 42 73 43 32 45 62 46
REMARK SMILES IDX 43 47 61 48 44 49 47 50 60 51 78 52 45 53 46 54 59 56 79 57
REMARK SMILES IDX 48 58 33 59 34 60 42 61 35 62 41 63 36 64 37 65 38 66 39 67
REMARK SMILES IDX 40 68 63 69 64 70 72 71 65 72 71 73 66 74 67 75 68 76 69 77
REMARK SMILES IDX 70 78 49 79 50 80 58 81 51 82 57 83 52 84 53 85 54 86 55 87
REMARK SMILES IDX 56 88
REMARK H PARENT 5 13 9 19 77 44 47 55
REMARK Flexibility Score: inf
ROOT
ATOM      1  C   UNL A   1      36.064  23.531  25.533  1.00  0.00     0.275 C 
ENDROOT
BRANCH   1   2
ATOM      2  C   UNL A   1      35.087  23.663  24.364  1.00  0.00     0.275 C 
BRANCH   2   3
ATOM      3  O   UNL A   1      34.608  25.017  24.252  1.00  0.00    -0.458 OA
BRANCH   3   4
ATOM      4  C   UNL A   1      33.845  25.296  23.171  1.00  0.00     0.338 C 
ATOM      5  O   UNL A   1      33.682  24.590  22.190  1.00  0.00    -0.246 OA
BRANCH   4   6
ATOM      6  C   UNL A   1      33.166  26.605  23.333  1.00  0.00     0.064 A 
ATOM      7  C   UNL A   1      31.195  27.934  23.147  1.00  0.00     0.051 A 
ATOM      8  C   UNL A   1      31.784  28.937  23.934  1.00  0.00     0.053 A 
ATOM      9  C   UNL A   1      31.941  26.844  22.723  1.00  0.00     0.042 A 
ATOM     10  C   UNL A   1      33.084  28.795  24.406  1.00  0.00     0.051 A 
ATOM     11  C   UNL A   1      33.706  27.562  24.205  1.00  0.00     0.042 A 
BRANCH   7  12
ATOM     12  N   UNL A   1      29.815  28.068  22.813  1.00  0.00    -0.284 N 
ATOM     13  H   UNL A   1      29.269  27.256  22.702  1.00  0.00     0.180 HD
BRANCH  12  14
ATOM     14  S   UNL A   1      29.093  29.572  22.607  1.00  0.00     0.229 S 
ATOM     15  C   UNL A   1      27.319  29.355  22.773  1.00  0.00     0.183 C 
ATOM     16  O   UNL A   1      29.358  30.012  21.253  1.00  0.00    -0.207 OA
ATOM     17  O   UNL A   1      29.540  30.355  23.740  1.00  0.00    -0.207 OA
ENDBRANCH  12  14
ENDBRANCH   7  12
BRANCH  10  18
ATOM     18  N   UNL A   1      33.760  29.707  25.296  1.00  0.00    -0.284 N 
ATOM     19  H   UNL A   1      34.133  30.542  24.933  1.00  0.00     0.180 HD
BRANCH  18  20
ATOM     20  S   UNL A   1      33.930  29.377  26.954  1.00  0.00     0.229 S 
ATOM     21  C   UNL A   1      33.961  31.040  27.584  1.00  0.00     0.183 C 
ATOM     22  O   UNL A   1      32.698  28.745  27.377  1.00  0.00    -0.207 OA
ATOM     23  O   UNL A   1      35.221  28.792  27.222  1.00  0.00    -0.207 OA
ENDBRANCH  18  20
ENDBRANCH  10  18
ENDBRANCH   4   6
ENDBRANCH   3   4
ENDBRANCH   2   3
ENDBRANCH   1   2
BRANCH   1  24
ATOM     24  O   UNL A   1      37.408  23.850  25.129  1.00  0.00    -0.458 OA
BRANCH  24  25
ATOM     25  C   UNL A   1      38.378  23.264  25.867  1.00  0.00     0.338 C 
ATOM     26  O   UNL A   1      38.714  22.092  25.853  1.00  0.00    -0.246 OA
BRANCH  25  27
ATOM     27  C   UNL A   1      39.117  24.280  26.627  1.00  0.00     0.060 A 
ATOM     28  C   UNL A   1      38.831  24.401  27.982  1.00  0.00     0.016 A 
ATOM     29  C   UNL A   1      39.938  25.209  26.001  1.00  0.00     0.016 A 
ATOM     30  C   UNL A   1      39.256  25.507  28.702  1.00  0.00     0.010 A 
ATOM     31  C   UNL A   1      40.468  26.263  26.757  1.00  0.00     0.010 A 
ATOM     32  C   UNL A   1      40.104  26.444  28.107  1.00  0.00    -0.014 A 
BRANCH  32  33
ATOM     33  C   UNL A   1      40.592  27.616  28.883  1.00  0.00     0.031 A 
ATOM     34  C   UNL A   1      41.938  27.557  29.557  1.00  0.00     0.074 A 
ATOM     35  C   UNL A   1      39.839  28.732  28.986  1.00  0.00     0.049 A 
ATOM     36  N   UNL A   1      42.442  28.351  30.465  1.00  0.00    -0.248 NA
ATOM     37  C   UNL A   1      42.831  26.452  29.165  1.00  0.00     0.031 C 
ATOM     38  C   UNL A   1      38.552  28.961  28.320  1.00  0.00     0.029 A 
ATOM     39  N   UNL A   1      40.044  29.889  29.698  1.00  0.00    -0.354 N 
ATOM     40  C   UNL A   1      43.685  27.818  30.788  1.00  0.00     0.074 A 
ATOM     41  C   UNL A   1      43.855  26.624  29.991  1.00  0.00     0.031 C 
ATOM     42  C   UNL A   1      38.096  30.182  28.639  1.00  0.00     0.029 A 
ATOM     43  C   UNL A   1      38.996  30.779  29.616  1.00  0.00     0.049 A 
ATOM     44  H   UNL A   1      40.862  30.066  30.218  1.00  0.00     0.167 HD
ATOM     45  C   UNL A   1      44.601  28.287  31.669  1.00  0.00     0.031 A 
ATOM     46  C   UNL A   1      38.746  31.914  30.298  1.00  0.00     0.031 A 
ATOM     47  C   UNL A   1      44.427  29.490  32.440  1.00  0.00     0.049 A 
ATOM     48  C   UNL A   1      39.727  32.355  31.349  1.00  0.00     0.074 A 
ATOM     49  C   UNL A   1      45.282  30.042  33.378  1.00  0.00     0.029 A 
ATOM     50  N   UNL A   1      43.333  30.337  32.347  1.00  0.00    -0.354 N 
ATOM     51  N   UNL A   1      40.869  31.808  31.690  1.00  0.00    -0.248 NA
ATOM     52  C   UNL A   1      39.384  33.562  32.115  1.00  0.00     0.031 C 
ATOM     53  C   UNL A   1      44.683  31.198  33.886  1.00  0.00     0.029 A 
ATOM     54  C   UNL A   1      43.489  31.404  33.214  1.00  0.00     0.049 A 
ATOM     55  H   UNL A   1      42.561  30.200  31.752  1.00  0.00     0.167 HD
ATOM     56  C   UNL A   1      41.398  32.626  32.681  1.00  0.00     0.074 A 
ATOM     57  C   UNL A   1      40.458  33.710  32.877  1.00  0.00     0.031 C 
ATOM     58  C   UNL A   1      42.559  32.493  33.366  1.00  0.00     0.031 A 
BRANCH  45  59
ATOM     59  C   UNL A   1      45.865  27.492  31.869  1.00  0.00    -0.014 A 
ATOM     60  C   UNL A   1      47.030  27.780  31.136  1.00  0.00     0.010 A 
ATOM     61  C   UNL A   1      45.911  26.492  32.859  1.00  0.00     0.010 A 
ATOM     62  C   UNL A   1      48.210  27.066  31.373  1.00  0.00     0.020 A 
ATOM     63  C   UNL A   1      47.095  25.796  33.119  1.00  0.00     0.020 A 
ATOM     64  C   UNL A   1      48.235  26.082  32.367  1.00  0.00     0.054 A 
BRANCH  64  65
ATOM     65  S   UNL A   1      49.794  25.211  32.686  1.00  0.00     0.124 S 
ATOM     66  O   UNL A   1      49.345  24.068  33.477  1.00  0.00    -0.237 OA
ATOM     67  O   UNL A   1      50.265  24.898  31.339  1.00  0.00    -0.237 OA
ATOM     68  O   UNL A   1      50.598  26.192  33.411  1.00  0.00    -0.744 OA
ENDBRANCH  64  65
ENDBRANCH  45  59
BRANCH  46  69
ATOM     69  C   UNL A   1      37.483  32.672  30.070  1.00  0.00    -0.014 A 
ATOM     70  C   UNL A   1      36.351  32.437  30.869  1.00  0.00     0.010 A 
ATOM     71  C   UNL A   1      37.394  33.609  29.023  1.00  0.00     0.010 A 
ATOM     72  C   UNL A   1      35.144  33.091  30.599  1.00  0.00     0.020 A 
ATOM     73  C   UNL A   1      36.202  34.295  28.775  1.00  0.00     0.020 A 
ATOM     74  C   UNL A   1      35.077  34.012  29.550  1.00  0.00     0.054 A 
BRANCH  74  75
ATOM     75  S   UNL A   1      33.502  34.846  29.215  1.00  0.00     0.124 S 
ATOM     76  O   UNL A   1      33.946  36.106  28.631  1.00  0.00    -0.237 OA
ATOM     77  O   UNL A   1      32.844  33.918  28.297  1.00  0.00    -0.237 OA
ATOM     78  O   UNL A   1      32.882  34.948  30.534  1.00  0.00    -0.744 OA
ENDBRANCH  74  75
ENDBRANCH  46  69
BRANCH  58  79
ATOM     79  C   UNL A   1      42.931  33.586  34.330  1.00  0.00    -0.014 A 
ATOM     80  C   UNL A   1      43.646  34.722  33.914  1.00  0.00     0.010 A 
ATOM     81  C   UNL A   1      42.471  33.510  35.658  1.00  0.00     0.010 A 
ATOM     82  C   UNL A   1      43.903  35.759  34.814  1.00  0.00     0.020 A 
ATOM     83  C   UNL A   1      42.699  34.557  36.551  1.00  0.00     0.020 A 
ATOM     84  C   UNL A   1      43.419  35.674  36.124  1.00  0.00     0.054 A 
BRANCH  84  85
ATOM     85  S   UNL A   1      43.689  37.073  37.244  1.00  0.00     0.124 S 
ATOM     86  O   UNL A   1      44.988  36.751  37.828  1.00  0.00    -0.237 OA
ATOM     87  O   UNL A   1      43.674  38.217  36.335  1.00  0.00    -0.237 OA
ATOM     88  O   UNL A   1      42.557  37.004  38.167  1.00  0.00    -0.744 OA
ENDBRANCH  84  85
ENDBRANCH  58  79
ENDBRANCH  32  33
ENDBRANCH  25  27
ENDBRANCH  24  25
ENDBRANCH   1  24
TORSDOF 18
ENDMDL
