MODEL 1
REMARK VINA RESULT:     -11.1      0.000      0.000
REMARK SMILES C[C@@H]1C[C@@H](C)CN(C(=O)Cn2cccc2C(=O)OCCOC(=O)c2ccc(-c3c4nc(c(-c5ccc(S(=O)(=O)[O-])cc5)c5ccc([nH]5)c(-c5ccc(S(=O)(=O)[O-])cc5)c5nc(c(-c6ccc(S(=O)(=O)[O-])cc6)c6ccc3[nH]6)C=C5)C=C4)cc2)C1
REMARK SMILES IDX 20 1 19 2 18 3 16 4 17 5 15 6 11 7 12 8 13 9 14 10 10 11
REMARK SMILES IDX 8 12 1 13 2 14 3 15 84 16 4 17 7 18 6 19 5 20 9 21 21 22
REMARK SMILES IDX 22 23 23 24 24 25 25 26 83 27 26 28 82 29 27 30 28 31 29 32
REMARK SMILES IDX 76 33 30 34 81 35 75 36 77 37 31 38 80 39 74 40 73 41 32 43
REMARK SMILES IDX 62 44 43 45 61 46 44 47 47 48 60 49 78 50 45 51 46 52 59 54
REMARK SMILES IDX 79 55 48 56 33 57 34 58 42 59 35 60 41 61 36 62 37 63 38 64
REMARK SMILES IDX 39 65 40 66 63 67 64 68 72 69 65 70 71 71 66 72 67 73 68 74
REMARK SMILES IDX 69 75 70 76 49 77 50 78 58 79 51 80 57 81 52 82 53 83 54 84
REMARK SMILES IDX 55 85 56 86
REMARK H PARENT 77 42 47 53
REMARK Flexibility Score: inf
ROOT
ATOM      1  C   UNL A   1      35.122  30.996  27.682  1.00  0.00     0.275 C 
ENDROOT
BRANCH   1   2
ATOM      2  C   UNL A   1      33.707  31.531  27.892  1.00  0.00     0.275 C 
BRANCH   2   3
ATOM      3  O   UNL A   1      33.352  32.931  27.742  1.00  0.00    -0.457 OA
BRANCH   3   4
ATOM      4  C   UNL A   1      34.219  33.929  28.048  1.00  0.00     0.355 C 
ATOM      5  O   UNL A   1      35.346  34.092  27.589  1.00  0.00    -0.244 OA
BRANCH   4   6
ATOM      6  C   UNL A   1      33.781  34.684  29.181  1.00  0.00     0.128 A 
ATOM      7  N   UNL A   1      34.145  34.416  30.489  1.00  0.00    -0.333 N 
ATOM      8  C   UNL A   1      33.442  35.266  31.312  1.00  0.00     0.087 A 
ATOM      9  C   UNL A   1      32.854  36.237  30.530  1.00  0.00     0.020 A 
ATOM     10  C   UNL A   1      33.129  35.907  29.185  1.00  0.00     0.035 A 
BRANCH   7  11
ATOM     11  C   UNL A   1      34.933  33.270  30.943  1.00  0.00     0.222 C 
BRANCH  11  12
ATOM     12  C   UNL A   1      36.157  33.496  31.844  1.00  0.00     0.242 C 
ATOM     13  C   UNL A   1      39.769  32.668  33.493  1.00  0.00     0.009 C 
ATOM     14  C   UNL A   1      38.572  32.195  34.321  1.00  0.00     0.006 C 
ATOM     15  C   UNL A   1      38.383  30.676  34.188  1.00  0.00     0.010 C 
ATOM     16  C   UNL A   1      37.292  32.980  33.976  1.00  0.00     0.122 C 
ATOM     17  C   UNL A   1      37.761  30.319  32.835  1.00  0.00     0.006 C 
ATOM     18  N   UNL A   1      36.616  32.536  32.759  1.00  0.00    -0.341 N 
ATOM     19  C   UNL A   1      36.441  31.090  32.690  1.00  0.00     0.122 C 
ATOM     20  C   UNL A   1      37.604  28.803  32.701  1.00  0.00     0.009 C 
ATOM     21  O   UNL A   1      36.624  34.644  31.876  1.00  0.00    -0.273 OA
ENDBRANCH  11  12
ENDBRANCH   7  11
ENDBRANCH   4   6
ENDBRANCH   3   4
ENDBRANCH   2   3
ENDBRANCH   1   2
BRANCH   1  22
ATOM     22  O   UNL A   1      35.811  30.755  28.890  1.00  0.00    -0.458 OA
BRANCH  22  23
ATOM     23  C   UNL A   1      37.131  30.949  28.687  1.00  0.00     0.338 C 
ATOM     24  O   UNL A   1      37.763  31.981  28.851  1.00  0.00    -0.246 OA
BRANCH  23  25
ATOM     25  C   UNL A   1      37.765  29.713  28.270  1.00  0.00     0.060 A 
ATOM     26  C   UNL A   1      37.600  28.638  29.156  1.00  0.00     0.016 A 
ATOM     27  C   UNL A   1      38.820  29.836  27.370  1.00  0.00     0.016 A 
ATOM     28  C   UNL A   1      38.647  27.789  29.331  1.00  0.00     0.010 A 
ATOM     29  C   UNL A   1      39.905  29.037  27.605  1.00  0.00     0.010 A 
ATOM     30  C   UNL A   1      39.822  28.113  28.656  1.00  0.00    -0.014 A 
BRANCH  30  31
ATOM     31  C   UNL A   1      41.037  27.548  29.216  1.00  0.00     0.031 A 
ATOM     32  C   UNL A   1      41.414  26.290  28.463  1.00  0.00     0.074 A 
ATOM     33  C   UNL A   1      41.478  28.212  30.330  1.00  0.00     0.049 A 
ATOM     34  N   UNL A   1      42.042  25.245  28.889  1.00  0.00    -0.248 NA
ATOM     35  C   UNL A   1      40.930  26.104  27.064  1.00  0.00     0.031 C 
ATOM     36  C   UNL A   1      40.840  29.423  30.924  1.00  0.00     0.029 A 
ATOM     37  N   UNL A   1      42.512  28.014  31.206  1.00  0.00    -0.354 N 
ATOM     38  C   UNL A   1      42.212  24.391  27.788  1.00  0.00     0.074 A 
ATOM     39  C   UNL A   1      41.398  24.903  26.729  1.00  0.00     0.031 C 
ATOM     40  C   UNL A   1      41.445  29.781  32.076  1.00  0.00     0.029 A 
ATOM     41  C   UNL A   1      42.543  28.875  32.329  1.00  0.00     0.049 A 
ATOM     42  H   UNL A   1      43.193  27.317  31.063  1.00  0.00     0.167 HD
ATOM     43  C   UNL A   1      43.135  23.394  27.767  1.00  0.00     0.031 A 
ATOM     44  C   UNL A   1      43.371  28.821  33.414  1.00  0.00     0.031 A 
ATOM     45  C   UNL A   1      43.824  23.319  29.015  1.00  0.00     0.049 A 
ATOM     46  C   UNL A   1      44.320  27.729  33.125  1.00  0.00     0.074 A 
ATOM     47  C   UNL A   1      43.446  22.864  30.252  1.00  0.00     0.029 A 
ATOM     48  N   UNL A   1      44.925  24.134  29.161  1.00  0.00    -0.354 N 
ATOM     49  N   UNL A   1      45.226  27.750  32.196  1.00  0.00    -0.248 NA
ATOM     50  C   UNL A   1      44.169  26.457  33.840  1.00  0.00     0.031 C 
ATOM     51  C   UNL A   1      44.033  23.788  31.145  1.00  0.00     0.029 A 
ATOM     52  C   UNL A   1      44.879  24.651  30.437  1.00  0.00     0.049 A 
ATOM     53  H   UNL A   1      45.614  24.315  28.481  1.00  0.00     0.167 HD
ATOM     54  C   UNL A   1      45.449  26.416  31.953  1.00  0.00     0.074 A 
ATOM     55  C   UNL A   1      45.027  25.711  33.147  1.00  0.00     0.031 C 
ATOM     56  C   UNL A   1      45.479  25.949  30.675  1.00  0.00     0.031 A 
BRANCH  43  57
ATOM     57  C   UNL A   1      43.656  22.602  26.612  1.00  0.00    -0.014 A 
ATOM     58  C   UNL A   1      42.958  21.419  26.282  1.00  0.00     0.010 A 
ATOM     59  C   UNL A   1      44.937  22.789  26.071  1.00  0.00     0.010 A 
ATOM     60  C   UNL A   1      43.566  20.399  25.553  1.00  0.00     0.020 A 
ATOM     61  C   UNL A   1      45.541  21.780  25.306  1.00  0.00     0.020 A 
ATOM     62  C   UNL A   1      44.871  20.572  25.103  1.00  0.00     0.054 A 
BRANCH  62  63
ATOM     63  S   UNL A   1      45.705  19.157  24.340  1.00  0.00     0.124 S 
ATOM     64  O   UNL A   1      45.404  18.083  25.282  1.00  0.00    -0.237 OA
ATOM     65  O   UNL A   1      45.039  19.060  23.044  1.00  0.00    -0.237 OA
ATOM     66  O   UNL A   1      47.105  19.571  24.284  1.00  0.00    -0.744 OA
ENDBRANCH  62  63
ENDBRANCH  43  57
BRANCH  44  67
ATOM     67  C   UNL A   1      43.428  29.422  34.794  1.00  0.00    -0.014 A 
ATOM     68  C   UNL A   1      44.589  29.831  35.464  1.00  0.00     0.010 A 
ATOM     69  C   UNL A   1      42.194  29.798  35.395  1.00  0.00     0.010 A 
ATOM     70  C   UNL A   1      44.518  30.715  36.565  1.00  0.00     0.020 A 
ATOM     71  C   UNL A   1      42.113  30.713  36.446  1.00  0.00     0.020 A 
ATOM     72  C   UNL A   1      43.283  31.199  37.007  1.00  0.00     0.054 A 
BRANCH  72  73
ATOM     73  S   UNL A   1      43.192  32.589  38.174  1.00  0.00     0.124 S 
ATOM     74  O   UNL A   1      43.989  32.108  39.297  1.00  0.00    -0.237 OA
ATOM     75  O   UNL A   1      43.773  33.693  37.414  1.00  0.00    -0.237 OA
ATOM     76  O   UNL A   1      41.758  32.718  38.432  1.00  0.00    -0.744 OA
ENDBRANCH  72  73
ENDBRANCH  44  67
BRANCH  56  77
ATOM     77  C   UNL A   1      45.737  27.010  29.598  1.00  0.00    -0.014 A 
ATOM     78  C   UNL A   1      44.670  27.618  28.914  1.00  0.00     0.010 A 
ATOM     79  C   UNL A   1      47.034  27.352  29.168  1.00  0.00     0.010 A 
ATOM     80  C   UNL A   1      44.889  28.506  27.844  1.00  0.00     0.020 A 
ATOM     81  C   UNL A   1      47.271  28.234  28.099  1.00  0.00     0.020 A 
ATOM     82  C   UNL A   1      46.190  28.810  27.441  1.00  0.00     0.054 A 
BRANCH  82  83
ATOM     83  S   UNL A   1      46.445  29.944  26.043  1.00  0.00     0.124 S 
ATOM     84  O   UNL A   1      45.237  30.764  26.061  1.00  0.00    -0.237 OA
ATOM     85  O   UNL A   1      47.674  30.635  26.423  1.00  0.00    -0.237 OA
ATOM     86  O   UNL A   1      46.567  29.057  24.886  1.00  0.00    -0.744 OA
ENDBRANCH  82  83
ENDBRANCH  56  77
ENDBRANCH  30  31
ENDBRANCH  23  25
ENDBRANCH  22  23
ENDBRANCH   1  22
TORSDOF 16
ENDMDL
MODEL 2
REMARK VINA RESULT:     -11.1      4.912     10.578
REMARK SMILES C[C@@H]1C[C@@H](C)CN(C(=O)Cn2cccc2C(=O)OCCOC(=O)c2ccc(-c3c4nc(c(-c5ccc(S(=O)(=O)[O-])cc5)c5ccc([nH]5)c(-c5ccc(S(=O)(=O)[O-])cc5)c5nc(c(-c6ccc(S(=O)(=O)[O-])cc6)c6ccc3[nH]6)C=C5)C=C4)cc2)C1
REMARK SMILES IDX 20 1 19 2 18 3 16 4 17 5 15 6 11 7 12 8 13 9 14 10 10 11
REMARK SMILES IDX 8 12 1 13 2 14 3 15 84 16 4 17 7 18 6 19 5 20 9 21 21 22
REMARK SMILES IDX 22 23 23 24 24 25 25 26 83 27 26 28 82 29 27 30 28 31 29 32
REMARK SMILES IDX 76 33 30 34 81 35 75 36 77 37 31 38 80 39 74 40 73 41 32 43
REMARK SMILES IDX 62 44 43 45 61 46 44 47 47 48 60 49 78 50 45 51 46 52 59 54
REMARK SMILES IDX 79 55 48 56 33 57 34 58 42 59 35 60 41 61 36 62 37 63 38 64
REMARK SMILES IDX 39 65 40 66 63 67 64 68 72 69 65 70 71 71 66 72 67 73 68 74
REMARK SMILES IDX 69 75 70 76 49 77 50 78 58 79 51 80 57 81 52 82 53 83 54 84
REMARK SMILES IDX 55 85 56 86
REMARK H PARENT 77 42 47 53
REMARK Flexibility Score: inf
ROOT
ATOM      1  C   UNL A   1      38.536  21.576  25.724  1.00  0.00     0.275 C 
ENDROOT
BRANCH   1   2
ATOM      2  C   UNL A   1      38.184  23.062  25.700  1.00  0.00     0.275 C 
BRANCH   2   3
ATOM      3  O   UNL A   1      36.969  23.586  25.101  1.00  0.00    -0.457 OA
BRANCH   3   4
ATOM      4  C   UNL A   1      36.419  23.032  23.990  1.00  0.00     0.355 C 
ATOM      5  O   UNL A   1      36.904  23.006  22.863  1.00  0.00    -0.244 OA
BRANCH   4   6
ATOM      6  C   UNL A   1      35.053  22.666  24.201  1.00  0.00     0.128 A 
ATOM      7  N   UNL A   1      33.968  23.440  23.828  1.00  0.00    -0.333 N 
ATOM      8  C   UNL A   1      32.826  22.831  24.296  1.00  0.00     0.087 A 
ATOM      9  C   UNL A   1      33.154  21.560  24.715  1.00  0.00     0.020 A 
ATOM     10  C   UNL A   1      34.554  21.432  24.588  1.00  0.00     0.035 A 
BRANCH   7  11
ATOM     11  C   UNL A   1      34.029  24.790  23.267  1.00  0.00     0.222 C 
BRANCH  11  12
ATOM     12  C   UNL A   1      32.860  25.762  23.492  1.00  0.00     0.242 C 
ATOM     13  C   UNL A   1      31.068  29.260  24.493  1.00  0.00     0.009 C 
ATOM     14  C   UNL A   1      31.148  28.242  25.632  1.00  0.00     0.006 C 
ATOM     15  C   UNL A   1      32.252  28.625  26.629  1.00  0.00     0.010 C 
ATOM     16  C   UNL A   1      31.305  26.803  25.104  1.00  0.00     0.122 C 
ATOM     17  C   UNL A   1      33.638  28.301  26.060  1.00  0.00     0.006 C 
ATOM     18  N   UNL A   1      32.664  26.448  24.701  1.00  0.00    -0.341 N 
ATOM     19  C   UNL A   1      33.673  26.812  25.689  1.00  0.00     0.122 C 
ATOM     20  C   UNL A   1      34.732  28.713  27.048  1.00  0.00     0.009 C 
ATOM     21  O   UNL A   1      31.972  25.780  22.627  1.00  0.00    -0.273 OA
ENDBRANCH  11  12
ENDBRANCH   7  11
ENDBRANCH   4   6
ENDBRANCH   3   4
ENDBRANCH   2   3
ENDBRANCH   1   2
BRANCH   1  22
ATOM     22  O   UNL A   1      39.423  21.231  26.764  1.00  0.00    -0.458 OA
BRANCH  22  23
ATOM     23  C   UNL A   1      40.333  20.353  26.292  1.00  0.00     0.338 C 
ATOM     24  O   UNL A   1      40.116  19.299  25.714  1.00  0.00    -0.246 OA
BRANCH  23  25
ATOM     25  C   UNL A   1      41.677  20.847  26.522  1.00  0.00     0.060 A 
ATOM     26  C   UNL A   1      41.984  21.121  27.862  1.00  0.00     0.016 A 
ATOM     27  C   UNL A   1      42.306  21.443  25.432  1.00  0.00     0.016 A 
ATOM     28  C   UNL A   1      42.760  22.205  28.130  1.00  0.00     0.010 A 
ATOM     29  C   UNL A   1      43.016  22.582  25.699  1.00  0.00     0.010 A 
ATOM     30  C   UNL A   1      43.124  22.988  27.036  1.00  0.00    -0.014 A 
BRANCH  30  31
ATOM     31  C   UNL A   1      43.485  24.359  27.346  1.00  0.00     0.031 A 
ATOM     32  C   UNL A   1      42.237  25.207  27.461  1.00  0.00     0.074 A 
ATOM     33  C   UNL A   1      44.838  24.572  27.352  1.00  0.00     0.049 A 
ATOM     34  N   UNL A   1      42.083  26.466  27.211  1.00  0.00    -0.248 NA
ATOM     35  C   UNL A   1      40.938  24.552  27.792  1.00  0.00     0.031 C 
ATOM     36  C   UNL A   1      45.879  23.530  27.116  1.00  0.00     0.029 A 
ATOM     37  N   UNL A   1      45.624  25.681  27.526  1.00  0.00    -0.354 N 
ATOM     38  C   UNL A   1      40.759  26.791  27.548  1.00  0.00     0.074 A 
ATOM     39  C   UNL A   1      40.067  25.560  27.771  1.00  0.00     0.031 C 
ATOM     40  C   UNL A   1      47.116  24.070  27.083  1.00  0.00     0.029 A 
ATOM     41  C   UNL A   1      47.012  25.492  27.323  1.00  0.00     0.049 A 
ATOM     42  H   UNL A   1      45.248  26.556  27.777  1.00  0.00     0.167 HD
ATOM     43  C   UNL A   1      40.351  28.068  27.771  1.00  0.00     0.031 A 
ATOM     44  C   UNL A   1      48.000  26.435  27.300  1.00  0.00     0.031 A 
ATOM     45  C   UNL A   1      41.422  28.985  27.552  1.00  0.00     0.049 A 
ATOM     46  C   UNL A   1      47.334  27.705  27.645  1.00  0.00     0.074 A 
ATOM     47  C   UNL A   1      42.027  29.440  26.409  1.00  0.00     0.029 A 
ATOM     48  N   UNL A   1      42.259  29.222  28.621  1.00  0.00    -0.354 N 
ATOM     49  N   UNL A   1      46.823  27.993  28.804  1.00  0.00    -0.248 NA
ATOM     50  C   UNL A   1      47.098  28.689  26.583  1.00  0.00     0.031 C 
ATOM     51  C   UNL A   1      43.397  29.505  26.756  1.00  0.00     0.029 A 
ATOM     52  C   UNL A   1      43.544  29.262  28.127  1.00  0.00     0.049 A 
ATOM     53  H   UNL A   1      41.989  29.339  29.561  1.00  0.00     0.167 HD
ATOM     54  C   UNL A   1      45.891  28.955  28.499  1.00  0.00     0.074 A 
ATOM     55  C   UNL A   1      46.305  29.535  27.237  1.00  0.00     0.031 C 
ATOM     56  C   UNL A   1      44.630  28.871  29.004  1.00  0.00     0.031 A 
BRANCH  43  57
ATOM     57  C   UNL A   1      39.099  28.569  28.415  1.00  0.00    -0.014 A 
ATOM     58  C   UNL A   1      38.489  29.701  27.830  1.00  0.00     0.010 A 
ATOM     59  C   UNL A   1      38.697  28.192  29.706  1.00  0.00     0.010 A 
ATOM     60  C   UNL A   1      37.614  30.506  28.555  1.00  0.00     0.020 A 
ATOM     61  C   UNL A   1      37.789  28.979  30.428  1.00  0.00     0.020 A 
ATOM     62  C   UNL A   1      37.300  30.160  29.866  1.00  0.00     0.054 A 
BRANCH  62  63
ATOM     63  S   UNL A   1      36.328  31.330  30.848  1.00  0.00     0.124 S 
ATOM     64  O   UNL A   1      37.311  32.366  31.149  1.00  0.00    -0.237 OA
ATOM     65  O   UNL A   1      35.270  31.720  29.918  1.00  0.00    -0.237 OA
ATOM     66  O   UNL A   1      35.881  30.535  31.990  1.00  0.00    -0.744 OA
ENDBRANCH  62  63
ENDBRANCH  43  57
BRANCH  44  67
ATOM     67  C   UNL A   1      49.438  26.521  26.861  1.00  0.00    -0.014 A 
ATOM     68  C   UNL A   1      50.560  26.357  27.685  1.00  0.00     0.010 A 
ATOM     69  C   UNL A   1      49.693  26.570  25.462  1.00  0.00     0.010 A 
ATOM     70  C   UNL A   1      51.831  26.077  27.134  1.00  0.00     0.020 A 
ATOM     71  C   UNL A   1      50.931  26.240  24.906  1.00  0.00     0.020 A 
ATOM     72  C   UNL A   1      51.992  25.958  25.750  1.00  0.00     0.054 A 
BRANCH  72  73
ATOM     73  S   UNL A   1      53.517  25.261  25.048  1.00  0.00     0.124 S 
ATOM     74  O   UNL A   1      53.433  25.667  23.650  1.00  0.00    -0.237 OA
ATOM     75  O   UNL A   1      54.565  25.909  25.833  1.00  0.00    -0.237 OA
ATOM     76  O   UNL A   1      53.374  23.826  25.294  1.00  0.00    -0.744 OA
ENDBRANCH  72  73
ENDBRANCH  44  67
BRANCH  56  77
ATOM     77  C   UNL A   1      44.483  27.982  30.245  1.00  0.00    -0.014 A 
ATOM     78  C   UNL A   1      44.822  28.463  31.522  1.00  0.00     0.010 A 
ATOM     79  C   UNL A   1      44.109  26.626  30.164  1.00  0.00     0.010 A 
ATOM     80  C   UNL A   1      44.805  27.628  32.655  1.00  0.00     0.020 A 
ATOM     81  C   UNL A   1      44.089  25.777  31.285  1.00  0.00     0.020 A 
ATOM     82  C   UNL A   1      44.439  26.287  32.531  1.00  0.00     0.054 A 
BRANCH  82  83
ATOM     83  S   UNL A   1      44.445  25.223  34.005  1.00  0.00     0.124 S 
ATOM     84  O   UNL A   1      45.857  25.186  34.376  1.00  0.00    -0.237 OA
ATOM     85  O   UNL A   1      43.577  25.956  34.922  1.00  0.00    -0.237 OA
ATOM     86  O   UNL A   1      43.904  23.951  33.525  1.00  0.00    -0.744 OA
ENDBRANCH  82  83
ENDBRANCH  56  77
ENDBRANCH  30  31
ENDBRANCH  23  25
ENDBRANCH  22  23
ENDBRANCH   1  22
TORSDOF 16
ENDMDL
MODEL 3
REMARK VINA RESULT:     -10.7      4.700      7.713
REMARK SMILES C[C@@H]1C[C@@H](C)CN(C(=O)Cn2cccc2C(=O)OCCOC(=O)c2ccc(-c3c4nc(c(-c5ccc(S(=O)(=O)[O-])cc5)c5ccc([nH]5)c(-c5ccc(S(=O)(=O)[O-])cc5)c5nc(c(-c6ccc(S(=O)(=O)[O-])cc6)c6ccc3[nH]6)C=C5)C=C4)cc2)C1
REMARK SMILES IDX 20 1 19 2 18 3 16 4 17 5 15 6 11 7 12 8 13 9 14 10 10 11
REMARK SMILES IDX 8 12 1 13 2 14 3 15 84 16 4 17 7 18 6 19 5 20 9 21 21 22
REMARK SMILES IDX 22 23 23 24 24 25 25 26 83 27 26 28 82 29 27 30 28 31 29 32
REMARK SMILES IDX 76 33 30 34 81 35 75 36 77 37 31 38 80 39 74 40 73 41 32 43
REMARK SMILES IDX 62 44 43 45 61 46 44 47 47 48 60 49 78 50 45 51 46 52 59 54
REMARK SMILES IDX 79 55 48 56 33 57 34 58 42 59 35 60 41 61 36 62 37 63 38 64
REMARK SMILES IDX 39 65 40 66 63 67 64 68 72 69 65 70 71 71 66 72 67 73 68 74
REMARK SMILES IDX 69 75 70 76 49 77 50 78 58 79 51 80 57 81 52 82 53 83 54 84
REMARK SMILES IDX 55 85 56 86
REMARK H PARENT 77 42 47 53
REMARK Flexibility Score: inf
ROOT
ATOM      1  C   UNL A   1      33.199  30.882  27.242  1.00  0.00     0.275 C 
ENDROOT
BRANCH   1   2
ATOM      2  C   UNL A   1      33.696  29.577  26.624  1.00  0.00     0.275 C 
BRANCH   2   3
ATOM      3  O   UNL A   1      33.226  28.267  27.039  1.00  0.00    -0.457 OA
BRANCH   3   4
ATOM      4  C   UNL A   1      31.913  27.928  26.994  1.00  0.00     0.355 C 
ATOM      5  O   UNL A   1      31.148  27.817  27.947  1.00  0.00    -0.244 OA
BRANCH   4   6
ATOM      6  C   UNL A   1      31.530  27.459  25.698  1.00  0.00     0.128 A 
ATOM      7  N   UNL A   1      31.597  26.137  25.292  1.00  0.00    -0.333 N 
ATOM      8  C   UNL A   1      31.266  26.082  23.957  1.00  0.00     0.087 A 
ATOM      9  C   UNL A   1      30.733  27.300  23.593  1.00  0.00     0.020 A 
ATOM     10  C   UNL A   1      30.835  28.148  24.717  1.00  0.00     0.035 A 
BRANCH   7  11
ATOM     11  C   UNL A   1      32.166  25.031  26.061  1.00  0.00     0.222 C 
BRANCH  11  12
ATOM     12  C   UNL A   1      33.597  24.554  25.766  1.00  0.00     0.242 C 
ATOM     13  C   UNL A   1      36.494  22.398  23.919  1.00  0.00     0.009 C 
ATOM     14  C   UNL A   1      35.980  21.782  25.221  1.00  0.00     0.006 C 
ATOM     15  C   UNL A   1      35.041  20.601  24.932  1.00  0.00     0.010 C 
ATOM     16  C   UNL A   1      35.333  22.837  26.138  1.00  0.00     0.122 C 
ATOM     17  C   UNL A   1      33.668  21.096  24.466  1.00  0.00     0.006 C 
ATOM     18  N   UNL A   1      33.964  23.199  25.777  1.00  0.00    -0.341 N 
ATOM     19  C   UNL A   1      33.107  22.044  25.534  1.00  0.00     0.122 C 
ATOM     20  C   UNL A   1      32.750  19.913  24.153  1.00  0.00     0.009 C 
ATOM     21  O   UNL A   1      34.476  25.425  25.700  1.00  0.00    -0.273 OA
ENDBRANCH  11  12
ENDBRANCH   7  11
ENDBRANCH   4   6
ENDBRANCH   3   4
ENDBRANCH   2   3
ENDBRANCH   1   2
BRANCH   1  22
ATOM     22  O   UNL A   1      34.159  31.511  28.062  1.00  0.00    -0.458 OA
BRANCH  22  23
ATOM     23  C   UNL A   1      33.820  32.808  28.218  1.00  0.00     0.338 C 
ATOM     24  O   UNL A   1      32.972  33.433  27.601  1.00  0.00    -0.246 OA
BRANCH  23  25
ATOM     25  C   UNL A   1      34.589  33.404  29.294  1.00  0.00     0.060 A 
ATOM     26  C   UNL A   1      35.804  33.984  28.899  1.00  0.00     0.016 A 
ATOM     27  C   UNL A   1      34.323  32.930  30.575  1.00  0.00     0.016 A 
ATOM     28  C   UNL A   1      36.872  33.857  29.731  1.00  0.00     0.010 A 
ATOM     29  C   UNL A   1      35.413  32.725  31.377  1.00  0.00     0.010 A 
ATOM     30  C   UNL A   1      36.671  33.093  30.879  1.00  0.00    -0.014 A 
BRANCH  30  31
ATOM     31  C   UNL A   1      37.872  32.538  31.475  1.00  0.00     0.031 A 
ATOM     32  C   UNL A   1      38.194  31.203  30.839  1.00  0.00     0.074 A 
ATOM     33  C   UNL A   1      38.352  33.286  32.518  1.00  0.00     0.049 A 
ATOM     34  N   UNL A   1      38.791  30.179  31.353  1.00  0.00    -0.248 NA
ATOM     35  C   UNL A   1      37.684  30.907  29.468  1.00  0.00     0.031 C 
ATOM     36  C   UNL A   1      37.766  34.569  33.004  1.00  0.00     0.029 A 
ATOM     37  N   UNL A   1      39.392  33.131  33.397  1.00  0.00    -0.354 N 
ATOM     38  C   UNL A   1      38.914  29.222  30.333  1.00  0.00     0.074 A 
ATOM     39  C   UNL A   1      38.104  29.664  29.241  1.00  0.00     0.031 C 
ATOM     40  C   UNL A   1      38.401  35.009  34.112  1.00  0.00     0.029 A 
ATOM     41  C   UNL A   1      39.469  34.090  34.436  1.00  0.00     0.049 A 
ATOM     42  H   UNL A   1      40.045  32.400  33.313  1.00  0.00     0.167 HD
ATOM     43  C   UNL A   1      39.800  28.194  30.395  1.00  0.00     0.031 A 
ATOM     44  C   UNL A   1      40.310  34.106  35.512  1.00  0.00     0.031 A 
ATOM     45  C   UNL A   1      40.504  28.209  31.636  1.00  0.00     0.049 A 
ATOM     46  C   UNL A   1      41.215  32.958  35.315  1.00  0.00     0.074 A 
ATOM     47  C   UNL A   1      40.128  27.884  32.914  1.00  0.00     0.029 A 
ATOM     48  N   UNL A   1      41.635  28.993  31.694  1.00  0.00    -0.354 N 
ATOM     49  N   UNL A   1      42.108  32.860  34.378  1.00  0.00    -0.248 NA
ATOM     50  C   UNL A   1      41.029  31.764  36.146  1.00  0.00     0.031 C 
ATOM     51  C   UNL A   1      40.760  28.865  33.712  1.00  0.00     0.029 A 
ATOM     52  C   UNL A   1      41.626  29.626  32.918  1.00  0.00     0.049 A 
ATOM     53  H   UNL A   1      42.320  29.085  30.993  1.00  0.00     0.167 HD
ATOM     54  C   UNL A   1      42.280  31.502  34.257  1.00  0.00     0.074 A 
ATOM     55  C   UNL A   1      41.851  30.926  35.516  1.00  0.00     0.031 C 
ATOM     56  C   UNL A   1      42.275  30.918  33.028  1.00  0.00     0.031 A 
BRANCH  43  57
ATOM     57  C   UNL A   1      40.276  27.280  29.313  1.00  0.00    -0.014 A 
ATOM     58  C   UNL A   1      39.359  26.313  28.844  1.00  0.00     0.010 A 
ATOM     59  C   UNL A   1      41.632  27.123  28.983  1.00  0.00     0.010 A 
ATOM     60  C   UNL A   1      39.792  25.162  28.189  1.00  0.00     0.020 A 
ATOM     61  C   UNL A   1      42.070  25.984  28.293  1.00  0.00     0.020 A 
ATOM     62  C   UNL A   1      41.153  24.987  27.953  1.00  0.00     0.054 A 
BRANCH  62  63
ATOM     63  S   UNL A   1      41.705  23.396  27.289  1.00  0.00     0.124 S 
ATOM     64  O   UNL A   1      40.464  22.626  27.269  1.00  0.00    -0.237 OA
ATOM     65  O   UNL A   1      42.234  23.767  25.978  1.00  0.00    -0.237 OA
ATOM     66  O   UNL A   1      42.708  22.949  28.253  1.00  0.00    -0.744 OA
ENDBRANCH  62  63
ENDBRANCH  43  57
BRANCH  44  67
ATOM     67  C   UNL A   1      40.408  34.829  36.830  1.00  0.00    -0.014 A 
ATOM     68  C   UNL A   1      41.308  35.859  37.136  1.00  0.00     0.010 A 
ATOM     69  C   UNL A   1      39.375  34.599  37.781  1.00  0.00     0.010 A 
ATOM     70  C   UNL A   1      41.079  36.720  38.234  1.00  0.00     0.020 A 
ATOM     71  C   UNL A   1      39.107  35.475  38.834  1.00  0.00     0.020 A 
ATOM     72  C   UNL A   1      39.946  36.559  39.036  1.00  0.00     0.054 A 
BRANCH  72  73
ATOM     73  S   UNL A   1      39.452  37.849  40.217  1.00  0.00     0.124 S 
ATOM     74  O   UNL A   1      39.217  37.084  41.437  1.00  0.00    -0.237 OA
ATOM     75  O   UNL A   1      40.615  38.734  40.240  1.00  0.00    -0.237 OA
ATOM     76  O   UNL A   1      38.259  38.430  39.602  1.00  0.00    -0.744 OA
ENDBRANCH  72  73
ENDBRANCH  44  67
BRANCH  56  77
ATOM     77  C   UNL A   1      42.555  31.866  31.855  1.00  0.00    -0.014 A 
ATOM     78  C   UNL A   1      43.860  32.315  31.586  1.00  0.00     0.010 A 
ATOM     79  C   UNL A   1      41.527  32.413  31.062  1.00  0.00     0.010 A 
ATOM     80  C   UNL A   1      44.120  33.274  30.588  1.00  0.00     0.020 A 
ATOM     81  C   UNL A   1      41.769  33.374  30.065  1.00  0.00     0.020 A 
ATOM     82  C   UNL A   1      43.072  33.800  29.832  1.00  0.00     0.054 A 
BRANCH  82  83
ATOM     83  S   UNL A   1      43.432  35.052  28.565  1.00  0.00     0.124 S 
ATOM     84  O   UNL A   1      43.763  34.246  27.393  1.00  0.00    -0.237 OA
ATOM     85  O   UNL A   1      42.171  35.784  28.482  1.00  0.00    -0.237 OA
ATOM     86  O   UNL A   1      44.551  35.810  29.124  1.00  0.00    -0.744 OA
ENDBRANCH  82  83
ENDBRANCH  56  77
ENDBRANCH  30  31
ENDBRANCH  23  25
ENDBRANCH  22  23
ENDBRANCH   1  22
TORSDOF 16
ENDMDL
