MODEL 1
REMARK VINA RESULT:     -10.3      0.000      0.000
REMARK SMILES C[C@H](SCc1nc2ccccc2c(=O)[nH]1)C(=O)OCCOC(=O)c1ccc(-c2c3nc(c(-c4ccc(S(=O)(=O)[O-])cc4)c4ccc([nH]4)c(-c4ccc(S(=O)(=O)[O-])cc4)c4nc(c(-c5ccc(S(=O)(=O)[O-])cc5)c5ccc2[nH]5)C=C4)C=C3)cc1
REMARK SMILES IDX 19 1 18 2 16 3 17 4 2 5 1 6 3 7 4 8 5 9 6 10 15 11 7 12
REMARK SMILES IDX 13 13 8 15 12 16 14 17 9 18 11 19 10 20 20 21 21 22 22 23
REMARK SMILES IDX 23 24 24 25 25 26 83 27 26 28 82 29 27 30 28 31 29 32 76 33
REMARK SMILES IDX 30 34 81 35 75 36 77 37 31 38 80 39 74 40 73 41 32 43 62 44
REMARK SMILES IDX 43 45 61 46 44 47 47 48 60 49 78 50 45 51 46 52 59 54 79 55
REMARK SMILES IDX 48 56 33 57 34 58 42 59 35 60 41 61 36 62 37 63 38 64 39 65
REMARK SMILES IDX 40 66 63 67 64 68 72 69 65 70 71 71 66 72 67 73 68 74 69 75
REMARK SMILES IDX 70 76 49 77 50 78 58 79 51 80 57 81 52 82 53 83 54 84 55 85
REMARK SMILES IDX 56 86
REMARK H PARENT 15 14 77 42 47 53
REMARK Flexibility Score: inf
ROOT
ATOM      1  C   UNL A   1      44.269  23.129  24.218  1.00  0.00     0.274 C 
ENDROOT
BRANCH   1   2
ATOM      2  O   UNL A   1      44.388  21.693  24.078  1.00  0.00    -0.461 OA
BRANCH   2   3
ATOM      3  C   UNL A   1      45.448  21.118  24.702  1.00  0.00     0.318 C 
ATOM      4  O   UNL A   1      46.567  21.634  24.711  1.00  0.00    -0.251 OA
BRANCH   3   5
ATOM      5  C   UNL A   1      45.132  19.871  25.533  1.00  0.00     0.153 C 
ATOM      6  C   UNL A   1      46.385  18.976  25.488  1.00  0.00     0.032 C 
BRANCH   5   7
ATOM      7  S   UNL A   1      43.724  18.768  25.109  1.00  0.00    -0.139 SA
BRANCH   7   8
ATOM      8  C   UNL A   1      42.560  18.776  26.503  1.00  0.00     0.145 C 
BRANCH   8   9
ATOM      9  C   UNL A   1      41.795  20.039  26.842  1.00  0.00     0.119 A 
ATOM     10  N   UNL A   1      40.634  20.220  26.284  1.00  0.00    -0.234 NA
ATOM     11  N   UNL A   1      42.311  20.908  27.765  1.00  0.00    -0.309 N 
ATOM     12  C   UNL A   1      39.960  21.428  26.522  1.00  0.00     0.078 A 
ATOM     13  C   UNL A   1      41.697  22.090  28.114  1.00  0.00     0.258 A 
ATOM     14  H   UNL A   1      43.163  20.676  28.200  1.00  0.00     0.171 HD
ATOM     15  C   UNL A   1      38.817  21.715  25.770  1.00  0.00     0.029 A 
ATOM     16  C   UNL A   1      40.430  22.387  27.420  1.00  0.00     0.065 A 
ATOM     17  O   UNL A   1      42.183  22.867  28.928  1.00  0.00    -0.269 OA
ATOM     18  C   UNL A   1      38.152  22.935  25.918  1.00  0.00     0.002 A 
ATOM     19  C   UNL A   1      39.756  23.601  27.598  1.00  0.00     0.016 A 
ATOM     20  C   UNL A   1      38.616  23.875  26.839  1.00  0.00     0.001 A 
ENDBRANCH   8   9
ENDBRANCH   7   8
ENDBRANCH   5   7
ENDBRANCH   3   5
ENDBRANCH   2   3
ENDBRANCH   1   2
BRANCH   1  21
ATOM     21  C   UNL A   1      43.134  23.523  25.185  1.00  0.00     0.275 C 
BRANCH  21  22
ATOM     22  O   UNL A   1      43.458  24.544  26.160  1.00  0.00    -0.458 OA
BRANCH  22  23
ATOM     23  C   UNL A   1      42.571  25.553  26.219  1.00  0.00     0.338 C 
ATOM     24  O   UNL A   1      41.772  25.860  25.348  1.00  0.00    -0.246 OA
BRANCH  23  25
ATOM     25  C   UNL A   1      42.549  26.357  27.433  1.00  0.00     0.060 A 
ATOM     26  C   UNL A   1      41.610  25.972  28.401  1.00  0.00     0.016 A 
ATOM     27  C   UNL A   1      43.189  27.593  27.500  1.00  0.00     0.016 A 
ATOM     28  C   UNL A   1      41.293  26.831  29.438  1.00  0.00     0.010 A 
ATOM     29  C   UNL A   1      42.886  28.449  28.562  1.00  0.00     0.010 A 
ATOM     30  C   UNL A   1      41.937  28.071  29.528  1.00  0.00    -0.014 A 
BRANCH  30  31
ATOM     31  C   UNL A   1      41.706  28.892  30.731  1.00  0.00     0.031 A 
ATOM     32  C   UNL A   1      42.564  28.764  31.950  1.00  0.00     0.074 A 
ATOM     33  C   UNL A   1      40.709  29.793  30.667  1.00  0.00     0.049 A 
ATOM     34  N   UNL A   1      42.460  29.401  33.088  1.00  0.00    -0.248 NA
ATOM     35  C   UNL A   1      43.675  27.804  31.892  1.00  0.00     0.031 C 
ATOM     36  C   UNL A   1      39.852  30.012  29.498  1.00  0.00     0.029 A 
ATOM     37  N   UNL A   1      40.254  30.693  31.590  1.00  0.00    -0.354 N 
ATOM     38  C   UNL A   1      43.482  28.912  33.891  1.00  0.00     0.074 A 
ATOM     39  C   UNL A   1      44.189  27.916  33.112  1.00  0.00     0.031 C 
ATOM     40  C   UNL A   1      38.978  30.989  29.773  1.00  0.00     0.029 A 
ATOM     41  C   UNL A   1      39.186  31.432  31.146  1.00  0.00     0.049 A 
ATOM     42  H   UNL A   1      40.652  30.800  32.484  1.00  0.00     0.167 HD
ATOM     43  C   UNL A   1      43.792  29.270  35.161  1.00  0.00     0.031 A 
ATOM     44  C   UNL A   1      38.440  32.351  31.782  1.00  0.00     0.031 A 
ATOM     45  C   UNL A   1      43.074  30.270  35.914  1.00  0.00     0.049 A 
ATOM     46  C   UNL A   1      38.785  32.703  33.195  1.00  0.00     0.074 A 
ATOM     47  C   UNL A   1      43.314  30.717  37.202  1.00  0.00     0.029 A 
ATOM     48  N   UNL A   1      41.977  30.980  35.444  1.00  0.00    -0.354 N 
ATOM     49  N   UNL A   1      39.750  32.223  33.946  1.00  0.00    -0.248 NA
ATOM     50  C   UNL A   1      37.949  33.716  33.846  1.00  0.00     0.031 C 
ATOM     51  C   UNL A   1      42.338  31.669  37.523  1.00  0.00     0.029 A 
ATOM     52  C   UNL A   1      41.516  31.846  36.422  1.00  0.00     0.049 A 
ATOM     53  H   UNL A   1      41.585  30.881  34.546  1.00  0.00     0.167 HD
ATOM     54  C   UNL A   1      39.642  32.884  35.160  1.00  0.00     0.074 A 
ATOM     55  C   UNL A   1      38.530  33.808  35.035  1.00  0.00     0.031 C 
ATOM     56  C   UNL A   1      40.396  32.739  36.278  1.00  0.00     0.031 A 
BRANCH  43  57
ATOM     57  C   UNL A   1      44.932  28.553  35.833  1.00  0.00    -0.014 A 
ATOM     58  C   UNL A   1      46.248  29.045  35.765  1.00  0.00     0.010 A 
ATOM     59  C   UNL A   1      44.674  27.397  36.592  1.00  0.00     0.010 A 
ATOM     60  C   UNL A   1      47.288  28.378  36.421  1.00  0.00     0.020 A 
ATOM     61  C   UNL A   1      45.708  26.737  37.264  1.00  0.00     0.020 A 
ATOM     62  C   UNL A   1      47.013  27.224  37.162  1.00  0.00     0.054 A 
BRANCH  62  63
ATOM     63  S   UNL A   1      48.371  26.389  38.029  1.00  0.00     0.124 S 
ATOM     64  O   UNL A   1      47.850  25.031  38.169  1.00  0.00    -0.237 OA
ATOM     65  O   UNL A   1      49.490  26.539  37.101  1.00  0.00    -0.237 OA
ATOM     66  O   UNL A   1      48.498  27.138  39.276  1.00  0.00    -0.744 OA
ENDBRANCH  62  63
ENDBRANCH  43  57
BRANCH  44  67
ATOM     67  C   UNL A   1      37.294  32.968  31.071  1.00  0.00    -0.014 A 
ATOM     68  C   UNL A   1      37.506  33.811  29.969  1.00  0.00     0.010 A 
ATOM     69  C   UNL A   1      35.977  32.640  31.446  1.00  0.00     0.010 A 
ATOM     70  C   UNL A   1      36.419  34.315  29.250  1.00  0.00     0.020 A 
ATOM     71  C   UNL A   1      34.890  33.124  30.717  1.00  0.00     0.020 A 
ATOM     72  C   UNL A   1      35.118  33.964  29.625  1.00  0.00     0.054 A 
BRANCH  72  73
ATOM     73  S   UNL A   1      33.722  34.550  28.625  1.00  0.00     0.124 S 
ATOM     74  O   UNL A   1      33.552  33.456  27.674  1.00  0.00    -0.237 OA
ATOM     75  O   UNL A   1      32.658  34.700  29.615  1.00  0.00    -0.237 OA
ATOM     76  O   UNL A   1      34.214  35.805  28.060  1.00  0.00    -0.744 OA
ENDBRANCH  72  73
ENDBRANCH  44  67
BRANCH  56  77
ATOM     77  C   UNL A   1      40.033  33.614  37.444  1.00  0.00    -0.014 A 
ATOM     78  C   UNL A   1      39.045  33.215  38.361  1.00  0.00     0.010 A 
ATOM     79  C   UNL A   1      40.692  34.842  37.626  1.00  0.00     0.010 A 
ATOM     80  C   UNL A   1      38.695  34.050  39.424  1.00  0.00     0.020 A 
ATOM     81  C   UNL A   1      40.356  35.671  38.699  1.00  0.00     0.020 A 
ATOM     82  C   UNL A   1      39.347  35.277  39.580  1.00  0.00     0.054 A 
BRANCH  82  83
ATOM     83  S   UNL A   1      38.890  36.343  40.974  1.00  0.00     0.124 S 
ATOM     84  O   UNL A   1      38.494  37.574  40.297  1.00  0.00    -0.237 OA
ATOM     85  O   UNL A   1      37.804  35.600  41.611  1.00  0.00    -0.237 OA
ATOM     86  O   UNL A   1      40.120  36.429  41.759  1.00  0.00    -0.744 OA
ENDBRANCH  82  83
ENDBRANCH  56  77
ENDBRANCH  30  31
ENDBRANCH  23  25
ENDBRANCH  22  23
ENDBRANCH  21  22
ENDBRANCH   1  21
TORSDOF 17
ENDMDL
MODEL 2
REMARK VINA RESULT:     -10.1      4.902     11.175
REMARK SMILES C[C@H](SCc1nc2ccccc2c(=O)[nH]1)C(=O)OCCOC(=O)c1ccc(-c2c3nc(c(-c4ccc(S(=O)(=O)[O-])cc4)c4ccc([nH]4)c(-c4ccc(S(=O)(=O)[O-])cc4)c4nc(c(-c5ccc(S(=O)(=O)[O-])cc5)c5ccc2[nH]5)C=C4)C=C3)cc1
REMARK SMILES IDX 19 1 18 2 16 3 17 4 2 5 1 6 3 7 4 8 5 9 6 10 15 11 7 12
REMARK SMILES IDX 13 13 8 15 12 16 14 17 9 18 11 19 10 20 20 21 21 22 22 23
REMARK SMILES IDX 23 24 24 25 25 26 83 27 26 28 82 29 27 30 28 31 29 32 76 33
REMARK SMILES IDX 30 34 81 35 75 36 77 37 31 38 80 39 74 40 73 41 32 43 62 44
REMARK SMILES IDX 43 45 61 46 44 47 47 48 60 49 78 50 45 51 46 52 59 54 79 55
REMARK SMILES IDX 48 56 33 57 34 58 42 59 35 60 41 61 36 62 37 63 38 64 39 65
REMARK SMILES IDX 40 66 63 67 64 68 72 69 65 70 71 71 66 72 67 73 68 74 69 75
REMARK SMILES IDX 70 76 49 77 50 78 58 79 51 80 57 81 52 82 53 83 54 84 55 85
REMARK SMILES IDX 56 86
REMARK H PARENT 15 14 77 42 47 53
REMARK Flexibility Score: inf
ROOT
ATOM      1  C   UNL A   1      32.100  28.938  25.116  1.00  0.00     0.274 C 
ENDROOT
BRANCH   1   2
ATOM      2  O   UNL A   1      31.452  28.177  26.162  1.00  0.00    -0.461 OA
BRANCH   2   3
ATOM      3  C   UNL A   1      31.110  26.902  25.848  1.00  0.00     0.318 C 
ATOM      4  O   UNL A   1      30.680  26.109  26.687  1.00  0.00    -0.251 OA
BRANCH   3   5
ATOM      5  C   UNL A   1      31.135  26.556  24.356  1.00  0.00     0.153 C 
ATOM      6  C   UNL A   1      29.796  25.866  24.035  1.00  0.00     0.032 C 
BRANCH   5   7
ATOM      7  S   UNL A   1      32.434  25.465  23.647  1.00  0.00    -0.139 SA
BRANCH   7   8
ATOM      8  C   UNL A   1      31.998  23.745  24.030  1.00  0.00     0.145 C 
BRANCH   8   9
ATOM      9  C   UNL A   1      33.090  22.734  24.318  1.00  0.00     0.119 A 
ATOM     10  N   UNL A   1      34.289  23.180  24.554  1.00  0.00    -0.234 NA
ATOM     11  N   UNL A   1      32.772  21.405  24.389  1.00  0.00    -0.309 N 
ATOM     12  C   UNL A   1      35.324  22.247  24.731  1.00  0.00     0.078 A 
ATOM     13  C   UNL A   1      33.703  20.418  24.620  1.00  0.00     0.258 A 
ATOM     14  H   UNL A   1      31.830  21.143  24.267  1.00  0.00     0.171 HD
ATOM     15  C   UNL A   1      36.641  22.713  24.780  1.00  0.00     0.029 A 
ATOM     16  C   UNL A   1      35.096  20.872  24.782  1.00  0.00     0.065 A 
ATOM     17  O   UNL A   1      33.404  19.230  24.659  1.00  0.00    -0.269 OA
ATOM     18  C   UNL A   1      37.711  21.820  24.883  1.00  0.00     0.002 A 
ATOM     19  C   UNL A   1      36.158  19.969  24.914  1.00  0.00     0.016 A 
ATOM     20  C   UNL A   1      37.469  20.448  24.960  1.00  0.00     0.001 A 
ENDBRANCH   8   9
ENDBRANCH   7   8
ENDBRANCH   5   7
ENDBRANCH   3   5
ENDBRANCH   2   3
ENDBRANCH   1   2
BRANCH   1  21
ATOM     21  C   UNL A   1      33.244  29.816  25.663  1.00  0.00     0.275 C 
BRANCH  21  22
ATOM     22  O   UNL A   1      33.928  29.309  26.835  1.00  0.00    -0.458 OA
BRANCH  22  23
ATOM     23  C   UNL A   1      34.403  30.263  27.654  1.00  0.00     0.338 C 
ATOM     24  O   UNL A   1      33.800  31.257  28.026  1.00  0.00    -0.246 OA
BRANCH  23  25
ATOM     25  C   UNL A   1      35.762  30.102  28.154  1.00  0.00     0.060 A 
ATOM     26  C   UNL A   1      36.777  30.165  27.188  1.00  0.00     0.016 A 
ATOM     27  C   UNL A   1      36.013  29.615  29.435  1.00  0.00     0.016 A 
ATOM     28  C   UNL A   1      38.053  29.727  27.496  1.00  0.00     0.010 A 
ATOM     29  C   UNL A   1      37.308  29.196  29.752  1.00  0.00     0.010 A 
ATOM     30  C   UNL A   1      38.326  29.247  28.784  1.00  0.00    -0.014 A 
BRANCH  30  31
ATOM     31  C   UNL A   1      39.727  28.945  29.133  1.00  0.00     0.031 A 
ATOM     32  C   UNL A   1      40.593  29.937  29.843  1.00  0.00     0.074 A 
ATOM     33  C   UNL A   1      40.178  27.718  28.820  1.00  0.00     0.049 A 
ATOM     34  N   UNL A   1      41.849  29.819  30.189  1.00  0.00    -0.248 NA
ATOM     35  C   UNL A   1      39.982  31.223  30.209  1.00  0.00     0.031 C 
ATOM     36  C   UNL A   1      39.382  26.674  28.166  1.00  0.00     0.029 A 
ATOM     37  N   UNL A   1      41.400  27.137  29.013  1.00  0.00    -0.354 N 
ATOM     38  C   UNL A   1      42.189  31.018  30.803  1.00  0.00     0.074 A 
ATOM     39  C   UNL A   1      41.007  31.855  30.771  1.00  0.00     0.031 C 
ATOM     40  C   UNL A   1      40.137  25.578  28.018  1.00  0.00     0.029 A 
ATOM     41  C   UNL A   1      41.474  25.855  28.526  1.00  0.00     0.049 A 
ATOM     42  H   UNL A   1      42.152  27.591  29.457  1.00  0.00     0.167 HD
ATOM     43  C   UNL A   1      43.380  31.375  31.339  1.00  0.00     0.031 A 
ATOM     44  C   UNL A   1      42.512  25.004  28.473  1.00  0.00     0.031 A 
ATOM     45  C   UNL A   1      44.542  30.519  31.363  1.00  0.00     0.049 A 
ATOM     46  C   UNL A   1      43.826  25.438  29.044  1.00  0.00     0.074 A 
ATOM     47  C   UNL A   1      45.794  30.777  31.893  1.00  0.00     0.029 A 
ATOM     48  N   UNL A   1      44.591  29.236  30.833  1.00  0.00    -0.354 N 
ATOM     49  N   UNL A   1      44.134  26.580  29.612  1.00  0.00    -0.248 NA
ATOM     50  C   UNL A   1      44.928  24.473  28.971  1.00  0.00     0.031 C 
ATOM     51  C   UNL A   1      46.611  29.666  31.650  1.00  0.00     0.029 A 
ATOM     52  C   UNL A   1      45.856  28.698  31.006  1.00  0.00     0.049 A 
ATOM     53  H   UNL A   1      43.837  28.776  30.399  1.00  0.00     0.167 HD
ATOM     54  C   UNL A   1      45.468  26.470  29.974  1.00  0.00     0.074 A 
ATOM     55  C   UNL A   1      45.900  25.143  29.575  1.00  0.00     0.031 C 
ATOM     56  C   UNL A   1      46.264  27.384  30.581  1.00  0.00     0.031 A 
BRANCH  43  57
ATOM     57  C   UNL A   1      43.505  32.761  31.913  1.00  0.00    -0.014 A 
ATOM     58  C   UNL A   1      43.946  33.840  31.127  1.00  0.00     0.010 A 
ATOM     59  C   UNL A   1      43.120  32.998  33.245  1.00  0.00     0.010 A 
ATOM     60  C   UNL A   1      44.028  35.127  31.672  1.00  0.00     0.020 A 
ATOM     61  C   UNL A   1      43.183  34.286  33.788  1.00  0.00     0.020 A 
ATOM     62  C   UNL A   1      43.652  35.340  33.002  1.00  0.00     0.054 A 
BRANCH  62  63
ATOM     63  S   UNL A   1      43.737  37.021  33.682  1.00  0.00     0.124 S 
ATOM     64  O   UNL A   1      42.503  37.093  34.461  1.00  0.00    -0.237 OA
ATOM     65  O   UNL A   1      44.971  36.993  34.464  1.00  0.00    -0.237 OA
ATOM     66  O   UNL A   1      43.776  37.873  32.497  1.00  0.00    -0.744 OA
ENDBRANCH  62  63
ENDBRANCH  43  57
BRANCH  44  67
ATOM     67  C   UNL A   1      42.326  23.678  27.835  1.00  0.00    -0.014 A 
ATOM     68  C   UNL A   1      42.792  23.439  26.533  1.00  0.00     0.010 A 
ATOM     69  C   UNL A   1      41.755  22.621  28.569  1.00  0.00     0.010 A 
ATOM     70  C   UNL A   1      42.694  22.162  25.974  1.00  0.00     0.020 A 
ATOM     71  C   UNL A   1      41.675  21.339  28.021  1.00  0.00     0.020 A 
ATOM     72  C   UNL A   1      42.140  21.119  26.724  1.00  0.00     0.054 A 
BRANCH  72  73
ATOM     73  S   UNL A   1      42.105  19.447  26.020  1.00  0.00     0.124 S 
ATOM     74  O   UNL A   1      42.671  18.651  27.104  1.00  0.00    -0.237 OA
ATOM     75  O   UNL A   1      40.683  19.239  25.756  1.00  0.00    -0.237 OA
ATOM     76  O   UNL A   1      42.938  19.566  24.826  1.00  0.00    -0.744 OA
ENDBRANCH  72  73
ENDBRANCH  44  67
BRANCH  56  77
ATOM     77  C   UNL A   1      47.680  26.960  30.851  1.00  0.00    -0.014 A 
ATOM     78  C   UNL A   1      48.010  26.267  32.030  1.00  0.00     0.010 A 
ATOM     79  C   UNL A   1      48.686  27.251  29.915  1.00  0.00     0.010 A 
ATOM     80  C   UNL A   1      49.334  25.905  32.285  1.00  0.00     0.020 A 
ATOM     81  C   UNL A   1      50.009  26.875  30.159  1.00  0.00     0.020 A 
ATOM     82  C   UNL A   1      50.326  26.220  31.351  1.00  0.00     0.054 A 
BRANCH  82  83
ATOM     83  S   UNL A   1      52.039  25.729  31.691  1.00  0.00     0.124 S 
ATOM     84  O   UNL A   1      52.417  26.664  32.747  1.00  0.00    -0.237 OA
ATOM     85  O   UNL A   1      51.902  24.335  32.107  1.00  0.00    -0.237 OA
ATOM     86  O   UNL A   1      52.714  25.926  30.410  1.00  0.00    -0.744 OA
ENDBRANCH  82  83
ENDBRANCH  56  77
ENDBRANCH  30  31
ENDBRANCH  23  25
ENDBRANCH  22  23
ENDBRANCH  21  22
ENDBRANCH   1  21
TORSDOF 17
ENDMDL
MODEL 3
REMARK VINA RESULT:     -10.0      3.658      5.355
REMARK SMILES C[C@H](SCc1nc2ccccc2c(=O)[nH]1)C(=O)OCCOC(=O)c1ccc(-c2c3nc(c(-c4ccc(S(=O)(=O)[O-])cc4)c4ccc([nH]4)c(-c4ccc(S(=O)(=O)[O-])cc4)c4nc(c(-c5ccc(S(=O)(=O)[O-])cc5)c5ccc2[nH]5)C=C4)C=C3)cc1
REMARK SMILES IDX 19 1 18 2 16 3 17 4 2 5 1 6 3 7 4 8 5 9 6 10 15 11 7 12
REMARK SMILES IDX 13 13 8 15 12 16 14 17 9 18 11 19 10 20 20 21 21 22 22 23
REMARK SMILES IDX 23 24 24 25 25 26 83 27 26 28 82 29 27 30 28 31 29 32 76 33
REMARK SMILES IDX 30 34 81 35 75 36 77 37 31 38 80 39 74 40 73 41 32 43 62 44
REMARK SMILES IDX 43 45 61 46 44 47 47 48 60 49 78 50 45 51 46 52 59 54 79 55
REMARK SMILES IDX 48 56 33 57 34 58 42 59 35 60 41 61 36 62 37 63 38 64 39 65
REMARK SMILES IDX 40 66 63 67 64 68 72 69 65 70 71 71 66 72 67 73 68 74 69 75
REMARK SMILES IDX 70 76 49 77 50 78 58 79 51 80 57 81 52 82 53 83 54 84 55 85
REMARK SMILES IDX 56 86
REMARK H PARENT 15 14 77 42 47 53
REMARK Flexibility Score: inf
ROOT
ATOM      1  C   UNL A   1      38.072  22.285  25.749  1.00  0.00     0.274 C 
ENDROOT
BRANCH   1   2
ATOM      2  O   UNL A   1      36.650  22.032  25.825  1.00  0.00    -0.461 OA
BRANCH   2   3
ATOM      3  C   UNL A   1      35.886  22.627  24.874  1.00  0.00     0.318 C 
ATOM      4  O   UNL A   1      36.209  22.647  23.686  1.00  0.00    -0.251 OA
BRANCH   3   5
ATOM      5  C   UNL A   1      34.517  23.130  25.341  1.00  0.00     0.153 C 
ATOM      6  C   UNL A   1      34.510  23.045  26.879  1.00  0.00     0.032 C 
BRANCH   5   7
ATOM      7  S   UNL A   1      32.960  22.318  24.796  1.00  0.00    -0.139 SA
BRANCH   7   8
ATOM      8  C   UNL A   1      31.566  23.357  25.320  1.00  0.00     0.145 C 
BRANCH   8   9
ATOM      9  C   UNL A   1      31.635  24.860  25.142  1.00  0.00     0.119 A 
ATOM     10  N   UNL A   1      31.910  25.588  26.185  1.00  0.00    -0.234 NA
ATOM     11  N   UNL A   1      31.475  25.395  23.893  1.00  0.00    -0.309 N 
ATOM     12  C   UNL A   1      31.886  26.985  26.048  1.00  0.00     0.078 A 
ATOM     13  C   UNL A   1      31.497  26.749  23.644  1.00  0.00     0.258 A 
ATOM     14  H   UNL A   1      31.337  24.782  23.135  1.00  0.00     0.171 HD
ATOM     15  C   UNL A   1      31.978  27.770  27.201  1.00  0.00     0.029 A 
ATOM     16  C   UNL A   1      31.695  27.617  24.820  1.00  0.00     0.065 A 
ATOM     17  O   UNL A   1      31.331  27.213  22.522  1.00  0.00    -0.269 OA
ATOM     18  C   UNL A   1      31.886  29.163  27.126  1.00  0.00     0.002 A 
ATOM     19  C   UNL A   1      31.631  29.012  24.728  1.00  0.00     0.016 A 
ATOM     20  C   UNL A   1      31.722  29.785  25.888  1.00  0.00     0.001 A 
ENDBRANCH   8   9
ENDBRANCH   7   8
ENDBRANCH   5   7
ENDBRANCH   3   5
ENDBRANCH   2   3
ENDBRANCH   1   2
BRANCH   1  21
ATOM     21  C   UNL A   1      38.423  23.736  26.136  1.00  0.00     0.275 C 
BRANCH  21  22
ATOM     22  O   UNL A   1      39.750  23.946  26.677  1.00  0.00    -0.458 OA
BRANCH  22  23
ATOM     23  C   UNL A   1      40.233  25.186  26.491  1.00  0.00     0.338 C 
ATOM     24  O   UNL A   1      40.835  25.584  25.506  1.00  0.00    -0.246 OA
BRANCH  23  25
ATOM     25  C   UNL A   1      40.018  26.157  27.556  1.00  0.00     0.060 A 
ATOM     26  C   UNL A   1      40.859  27.279  27.535  1.00  0.00     0.016 A 
ATOM     27  C   UNL A   1      39.254  25.849  28.680  1.00  0.00     0.016 A 
ATOM     28  C   UNL A   1      40.952  28.095  28.649  1.00  0.00     0.010 A 
ATOM     29  C   UNL A   1      39.330  26.687  29.794  1.00  0.00     0.010 A 
ATOM     30  C   UNL A   1      40.180  27.807  29.782  1.00  0.00    -0.014 A 
BRANCH  30  31
ATOM     31  C   UNL A   1      40.172  28.783  30.887  1.00  0.00     0.031 A 
ATOM     32  C   UNL A   1      41.134  28.689  32.029  1.00  0.00     0.074 A 
ATOM     33  C   UNL A   1      39.283  29.789  30.800  1.00  0.00     0.049 A 
ATOM     34  N   UNL A   1      41.223  29.460  33.082  1.00  0.00    -0.248 NA
ATOM     35  C   UNL A   1      42.116  27.596  31.992  1.00  0.00     0.031 C 
ATOM     36  C   UNL A   1      38.337  29.978  29.696  1.00  0.00     0.029 A 
ATOM     37  N   UNL A   1      39.033  30.839  31.639  1.00  0.00    -0.354 N 
ATOM     38  C   UNL A   1      42.263  28.942  33.844  1.00  0.00     0.074 A 
ATOM     39  C   UNL A   1      42.765  27.782  33.136  1.00  0.00     0.031 C 
ATOM     40  C   UNL A   1      37.614  31.082  29.924  1.00  0.00     0.029 A 
ATOM     41  C   UNL A   1      38.015  31.650  31.204  1.00  0.00     0.049 A 
ATOM     42  H   UNL A   1      39.533  30.997  32.472  1.00  0.00     0.167 HD
ATOM     43  C   UNL A   1      42.744  29.401  35.025  1.00  0.00     0.031 A 
ATOM     44  C   UNL A   1      37.450  32.723  31.784  1.00  0.00     0.031 A 
ATOM     45  C   UNL A   1      42.228  30.563  35.707  1.00  0.00     0.049 A 
ATOM     46  C   UNL A   1      37.980  33.188  33.104  1.00  0.00     0.074 A 
ATOM     47  C   UNL A   1      42.651  31.122  36.901  1.00  0.00     0.029 A 
ATOM     48  N   UNL A   1      41.175  31.347  35.253  1.00  0.00    -0.354 N 
ATOM     49  N   UNL A   1      38.958  32.680  33.818  1.00  0.00    -0.248 NA
ATOM     50  C   UNL A   1      37.338  34.366  33.695  1.00  0.00     0.031 C 
ATOM     51  C   UNL A   1      41.830  32.219  37.187  1.00  0.00     0.029 A 
ATOM     52  C   UNL A   1      40.921  32.370  36.151  1.00  0.00     0.049 A 
ATOM     53  H   UNL A   1      40.682  31.196  34.414  1.00  0.00     0.167 HD
ATOM     54  C   UNL A   1      39.055  33.484  34.944  1.00  0.00     0.074 A 
ATOM     55  C   UNL A   1      38.048  34.520  34.805  1.00  0.00     0.031 C 
ATOM     56  C   UNL A   1      39.901  33.375  35.998  1.00  0.00     0.031 A 
BRANCH  43  57
ATOM     57  C   UNL A   1      43.859  28.628  35.676  1.00  0.00    -0.014 A 
ATOM     58  C   UNL A   1      45.208  28.948  35.436  1.00  0.00     0.010 A 
ATOM     59  C   UNL A   1      43.553  27.601  36.587  1.00  0.00     0.010 A 
ATOM     60  C   UNL A   1      46.229  28.235  36.073  1.00  0.00     0.020 A 
ATOM     61  C   UNL A   1      44.570  26.898  37.240  1.00  0.00     0.020 A 
ATOM     62  C   UNL A   1      45.904  27.209  36.967  1.00  0.00     0.054 A 
BRANCH  62  63
ATOM     63  S   UNL A   1      47.242  26.315  37.806  1.00  0.00     0.124 S 
ATOM     64  O   UNL A   1      46.859  24.922  37.584  1.00  0.00    -0.237 OA
ATOM     65  O   UNL A   1      48.433  26.761  37.086  1.00  0.00    -0.237 OA
ATOM     66  O   UNL A   1      47.150  26.772  39.190  1.00  0.00    -0.744 OA
ENDBRANCH  62  63
ENDBRANCH  43  57
BRANCH  44  67
ATOM     67  C   UNL A   1      36.313  33.393  31.108  1.00  0.00    -0.014 A 
ATOM     68  C   UNL A   1      35.156  33.736  31.825  1.00  0.00     0.010 A 
ATOM     69  C   UNL A   1      36.424  33.768  29.756  1.00  0.00     0.010 A 
ATOM     70  C   UNL A   1      34.128  34.448  31.202  1.00  0.00     0.020 A 
ATOM     71  C   UNL A   1      35.407  34.498  29.136  1.00  0.00     0.020 A 
ATOM     72  C   UNL A   1      34.262  34.828  29.863  1.00  0.00     0.054 A 
BRANCH  72  73
ATOM     73  S   UNL A   1      32.960  35.832  29.095  1.00  0.00     0.124 S 
ATOM     74  O   UNL A   1      33.728  36.925  28.508  1.00  0.00    -0.237 OA
ATOM     75  O   UNL A   1      32.354  34.902  28.146  1.00  0.00    -0.237 OA
ATOM     76  O   UNL A   1      32.106  36.198  30.223  1.00  0.00    -0.744 OA
ENDBRANCH  72  73
ENDBRANCH  44  67
BRANCH  56  77
ATOM     77  C   UNL A   1      39.765  34.417  37.072  1.00  0.00    -0.014 A 
ATOM     78  C   UNL A   1      40.422  35.655  36.958  1.00  0.00     0.010 A 
ATOM     79  C   UNL A   1      38.969  34.156  38.200  1.00  0.00     0.010 A 
ATOM     80  C   UNL A   1      40.313  36.604  37.977  1.00  0.00     0.020 A 
ATOM     81  C   UNL A   1      38.844  35.110  39.212  1.00  0.00     0.020 A 
ATOM     82  C   UNL A   1      39.532  36.321  39.102  1.00  0.00     0.054 A 
BRANCH  82  83
ATOM     83  S   UNL A   1      39.390  37.570  40.409  1.00  0.00     0.124 S 
ATOM     84  O   UNL A   1      40.757  38.078  40.491  1.00  0.00    -0.237 OA
ATOM     85  O   UNL A   1      38.407  38.503  39.862  1.00  0.00    -0.237 OA
ATOM     86  O   UNL A   1      38.936  36.805  41.568  1.00  0.00    -0.744 OA
ENDBRANCH  82  83
ENDBRANCH  56  77
ENDBRANCH  30  31
ENDBRANCH  23  25
ENDBRANCH  22  23
ENDBRANCH  21  22
ENDBRANCH   1  21
TORSDOF 17
ENDMDL
