MODEL 1
REMARK VINA RESULT:     -11.0      0.000      0.000
REMARK SMILES CC1=C(C)C[C@@H](C(=O)OCCOC(=O)c2ccc(-c3c4nc(c(-c5ccc(S(=O)(=O)[O-])cc5)c5ccc([nH]5)c(-c5ccc(S(=O)(=O)[O-])cc5)c5nc(c(-c6ccc(S(=O)(=O)[O-])cc6)c6ccc3[nH]6)C=C5)C=C4)cc2)[C@@H](C(=O)NCC[NH+]2CCOCC2)C1
REMARK SMILES IDX 10 1 9 2 7 3 8 4 6 5 1 6 2 7 3 8 87 9 4 10 5 11 75 12 76 13
REMARK SMILES IDX 77 14 78 15 79 17 80 18 81 19 82 20 86 21 83 23 85 24 84 25
REMARK SMILES IDX 11 26 12 27 13 28 14 29 15 30 16 31 74 32 17 33 73 34 18 35
REMARK SMILES IDX 19 36 20 37 67 38 21 39 72 40 66 41 68 42 22 43 71 44 65 45
REMARK SMILES IDX 64 46 23 48 53 49 34 50 52 51 35 52 38 53 51 54 69 55 36 56
REMARK SMILES IDX 37 57 50 59 70 60 39 61 24 62 25 63 33 64 26 65 32 66 27 67
REMARK SMILES IDX 28 68 29 69 30 70 31 71 54 72 55 73 63 74 56 75 62 76 57 77
REMARK SMILES IDX 58 78 59 79 60 80 61 81 40 82 41 83 49 84 42 85 48 86 43 87
REMARK SMILES IDX 44 88 45 89 46 90 47 91
REMARK H PARENT 78 16 81 22 68 47 38 58
REMARK Flexibility Score: inf
ROOT
ATOM      1  C   UNL A   1      36.008  21.968  25.686  1.00  0.00     0.274 C 
ENDROOT
BRANCH   1   2
ATOM      2  O   UNL A   1      35.362  23.012  24.928  1.00  0.00    -0.462 OA
BRANCH   2   3
ATOM      3  C   UNL A   1      34.265  23.594  25.447  1.00  0.00     0.310 C 
ATOM      4  O   UNL A   1      34.085  23.734  26.653  1.00  0.00    -0.252 OA
BRANCH   3   5
ATOM      5  C   UNL A   1      33.241  24.075  24.412  1.00  0.00     0.116 C 
ATOM      6  C   UNL A   1      29.276  26.127  24.503  1.00  0.00     0.039 C 
ATOM      7  C   UNL A   1      30.666  25.585  24.302  1.00  0.00    -0.074 C 
ATOM      8  C   UNL A   1      31.787  26.243  24.657  1.00  0.00    -0.073 C 
ATOM      9  C   UNL A   1      30.750  24.212  23.682  1.00  0.00     0.045 C 
ATOM     10  C   UNL A   1      31.829  27.648  25.201  1.00  0.00     0.039 C 
ATOM     11  C   UNL A   1      33.149  25.616  24.514  1.00  0.00     0.046 C 
ATOM     12  C   UNL A   1      31.904  23.332  24.192  1.00  0.00     0.097 C 
BRANCH  12  13
ATOM     13  C   UNL A   1      31.340  22.334  25.205  1.00  0.00     0.224 C 
ATOM     14  O   UNL A   1      30.620  22.731  26.127  1.00  0.00    -0.275 OA
ATOM     15  N   UNL A   1      31.705  21.033  25.238  1.00  0.00    -0.350 N 
ATOM     16  H   UNL A   1      31.219  20.488  25.899  1.00  0.00     0.163 HD
BRANCH  15  17
ATOM     17  C   UNL A   1      32.686  20.309  24.467  1.00  0.00     0.177 C 
BRANCH  17  18
ATOM     18  C   UNL A   1      33.053  18.996  25.157  1.00  0.00     0.283 C 
BRANCH  18  19
ATOM     19  N   UNL A   1      32.299  17.848  24.616  1.00  0.00    -0.330 N 
ATOM     20  C   UNL A   1      32.504  16.649  25.458  1.00  0.00     0.291 C 
ATOM     21  C   UNL A   1      32.721  17.503  23.237  1.00  0.00     0.291 C 
ATOM     22  H   UNL A   1      31.318  18.127  24.611  1.00  0.00     0.348 HD
ATOM     23  C   UNL A   1      33.933  16.091  25.369  1.00  0.00     0.221 C 
ATOM     24  C   UNL A   1      34.129  16.886  23.148  1.00  0.00     0.221 C 
ATOM     25  O   UNL A   1      34.272  15.755  24.018  1.00  0.00    -0.370 OA
ENDBRANCH  18  19
ENDBRANCH  17  18
ENDBRANCH  15  17
ENDBRANCH  12  13
ENDBRANCH   3   5
ENDBRANCH   2   3
ENDBRANCH   1   2
BRANCH   1  26
ATOM     26  C   UNL A   1      37.469  21.853  25.254  1.00  0.00     0.275 C 
BRANCH  26  27
ATOM     27  O   UNL A   1      38.144  23.080  25.574  1.00  0.00    -0.458 OA
BRANCH  27  28
ATOM     28  C   UNL A   1      39.161  22.932  26.454  1.00  0.00     0.338 C 
ATOM     29  O   UNL A   1      39.868  21.958  26.626  1.00  0.00    -0.246 OA
BRANCH  28  30
ATOM     30  C   UNL A   1      39.455  24.241  27.030  1.00  0.00     0.060 A 
ATOM     31  C   UNL A   1      40.150  25.160  26.236  1.00  0.00     0.016 A 
ATOM     32  C   UNL A   1      39.084  24.541  28.337  1.00  0.00     0.016 A 
ATOM     33  C   UNL A   1      40.493  26.400  26.750  1.00  0.00     0.010 A 
ATOM     34  C   UNL A   1      39.434  25.781  28.856  1.00  0.00     0.010 A 
ATOM     35  C   UNL A   1      40.150  26.703  28.070  1.00  0.00    -0.014 A 
BRANCH  35  36
ATOM     36  C   UNL A   1      40.625  27.948  28.694  1.00  0.00     0.031 A 
ATOM     37  C   UNL A   1      42.005  27.967  29.274  1.00  0.00     0.074 A 
ATOM     38  C   UNL A   1      39.800  29.004  28.775  1.00  0.00     0.049 A 
ATOM     39  N   UNL A   1      42.550  28.838  30.076  1.00  0.00    -0.248 NA
ATOM     40  C   UNL A   1      42.881  26.837  28.915  1.00  0.00     0.031 C 
ATOM     41  C   UNL A   1      38.469  29.088  28.169  1.00  0.00     0.029 A 
ATOM     42  N   UNL A   1      39.950  30.197  29.426  1.00  0.00    -0.354 N 
ATOM     43  C   UNL A   1      43.819  28.344  30.354  1.00  0.00     0.074 A 
ATOM     44  C   UNL A   1      43.960  27.093  29.640  1.00  0.00     0.031 C 
ATOM     45  C   UNL A   1      37.916  30.267  28.494  1.00  0.00     0.029 A 
ATOM     46  C   UNL A   1      38.827  30.986  29.380  1.00  0.00     0.049 A 
ATOM     47  H   UNL A   1      40.781  30.465  29.881  1.00  0.00     0.167 HD
ATOM     48  C   UNL A   1      44.769  28.888  31.149  1.00  0.00     0.031 A 
ATOM     49  C   UNL A   1      38.553  32.134  30.025  1.00  0.00     0.031 A 
ATOM     50  C   UNL A   1      44.580  30.128  31.854  1.00  0.00     0.049 A 
ATOM     51  C   UNL A   1      39.599  32.691  30.952  1.00  0.00     0.074 A 
ATOM     52  C   UNL A   1      45.453  30.783  32.702  1.00  0.00     0.029 A 
ATOM     53  N   UNL A   1      43.429  30.901  31.784  1.00  0.00    -0.354 N 
ATOM     54  N   UNL A   1      40.782  32.202  31.245  1.00  0.00    -0.248 NA
ATOM     55  C   UNL A   1      39.274  33.946  31.638  1.00  0.00     0.031 C 
ATOM     56  C   UNL A   1      44.811  31.934  33.177  1.00  0.00     0.029 A 
ATOM     57  C   UNL A   1      43.561  32.025  32.580  1.00  0.00     0.049 A 
ATOM     58  H   UNL A   1      42.633  30.682  31.246  1.00  0.00     0.167 HD
ATOM     59  C   UNL A   1      41.358  33.105  32.128  1.00  0.00     0.074 A 
ATOM     60  C   UNL A   1      40.392  34.173  32.315  1.00  0.00     0.031 C 
ATOM     61  C   UNL A   1      42.572  33.064  32.731  1.00  0.00     0.031 A 
BRANCH  48  62
ATOM     62  C   UNL A   1      46.049  28.116  31.329  1.00  0.00    -0.014 A 
ATOM     63  C   UNL A   1      47.155  28.320  30.483  1.00  0.00     0.010 A 
ATOM     64  C   UNL A   1      46.147  27.160  32.357  1.00  0.00     0.010 A 
ATOM     65  C   UNL A   1      48.313  27.551  30.630  1.00  0.00     0.020 A 
ATOM     66  C   UNL A   1      47.313  26.408  32.526  1.00  0.00     0.020 A 
ATOM     67  C   UNL A   1      48.382  26.594  31.647  1.00  0.00     0.054 A 
BRANCH  67  68
ATOM     68  S   UNL A   1      49.897  25.610  31.819  1.00  0.00     0.124 S 
ATOM     69  O   UNL A   1      50.864  26.617  32.248  1.00  0.00    -0.237 OA
ATOM     70  O   UNL A   1      49.526  24.625  32.832  1.00  0.00    -0.237 OA
ATOM     71  O   UNL A   1      50.113  25.068  30.480  1.00  0.00    -0.744 OA
ENDBRANCH  67  68
ENDBRANCH  48  62
BRANCH  49  72
ATOM     72  C   UNL A   1      37.241  32.805  29.825  1.00  0.00    -0.014 A 
ATOM     73  C   UNL A   1      36.211  32.645  30.768  1.00  0.00     0.010 A 
ATOM     74  C   UNL A   1      37.026  33.646  28.717  1.00  0.00     0.010 A 
ATOM     75  C   UNL A   1      34.991  33.308  30.604  1.00  0.00     0.020 A 
ATOM     76  C   UNL A   1      35.817  34.331  28.563  1.00  0.00     0.020 A 
ATOM     77  C   UNL A   1      34.803  34.151  29.505  1.00  0.00     0.054 A 
BRANCH  77  78
ATOM     78  S   UNL A   1      33.235  35.052  29.353  1.00  0.00     0.124 S 
ATOM     79  O   UNL A   1      33.681  36.362  28.891  1.00  0.00    -0.237 OA
ATOM     80  O   UNL A   1      32.504  34.251  28.374  1.00  0.00    -0.237 OA
ATOM     81  O   UNL A   1      32.688  35.017  30.708  1.00  0.00    -0.744 OA
ENDBRANCH  77  78
ENDBRANCH  49  72
BRANCH  61  82
ATOM     82  C   UNL A   1      42.937  34.231  33.603  1.00  0.00    -0.014 A 
ATOM     83  C   UNL A   1      42.663  34.226  34.982  1.00  0.00     0.010 A 
ATOM     84  C   UNL A   1      43.620  35.324  33.037  1.00  0.00     0.010 A 
ATOM     85  C   UNL A   1      43.042  35.311  35.776  1.00  0.00     0.020 A 
ATOM     86  C   UNL A   1      44.023  36.396  33.832  1.00  0.00     0.020 A 
ATOM     87  C   UNL A   1      43.721  36.387  35.195  1.00  0.00     0.054 A 
BRANCH  87  88
ATOM     88  S   UNL A   1      44.248  37.760  36.256  1.00  0.00     0.124 S 
ATOM     89  O   UNL A   1      45.635  37.405  36.544  1.00  0.00    -0.237 OA
ATOM     90  O   UNL A   1      44.063  38.923  35.393  1.00  0.00    -0.237 OA
ATOM     91  O   UNL A   1      43.336  37.686  37.396  1.00  0.00    -0.744 OA
ENDBRANCH  87  88
ENDBRANCH  61  82
ENDBRANCH  35  36
ENDBRANCH  28  30
ENDBRANCH  27  28
ENDBRANCH  26  27
ENDBRANCH   1  26
TORSDOF 18
ENDMDL
MODEL 2
REMARK VINA RESULT:     -10.7      3.000      8.481
REMARK SMILES CC1=C(C)C[C@@H](C(=O)OCCOC(=O)c2ccc(-c3c4nc(c(-c5ccc(S(=O)(=O)[O-])cc5)c5ccc([nH]5)c(-c5ccc(S(=O)(=O)[O-])cc5)c5nc(c(-c6ccc(S(=O)(=O)[O-])cc6)c6ccc3[nH]6)C=C5)C=C4)cc2)[C@@H](C(=O)NCC[NH+]2CCOCC2)C1
REMARK SMILES IDX 10 1 9 2 7 3 8 4 6 5 1 6 2 7 3 8 87 9 4 10 5 11 75 12 76 13
REMARK SMILES IDX 77 14 78 15 79 17 80 18 81 19 82 20 86 21 83 23 85 24 84 25
REMARK SMILES IDX 11 26 12 27 13 28 14 29 15 30 16 31 74 32 17 33 73 34 18 35
REMARK SMILES IDX 19 36 20 37 67 38 21 39 72 40 66 41 68 42 22 43 71 44 65 45
REMARK SMILES IDX 64 46 23 48 53 49 34 50 52 51 35 52 38 53 51 54 69 55 36 56
REMARK SMILES IDX 37 57 50 59 70 60 39 61 24 62 25 63 33 64 26 65 32 66 27 67
REMARK SMILES IDX 28 68 29 69 30 70 31 71 54 72 55 73 63 74 56 75 62 76 57 77
REMARK SMILES IDX 58 78 59 79 60 80 61 81 40 82 41 83 49 84 42 85 48 86 43 87
REMARK SMILES IDX 44 88 45 89 46 90 47 91
REMARK H PARENT 78 16 81 22 68 47 38 58
REMARK Flexibility Score: inf
ROOT
ATOM      1  C   UNL A   1      35.930  21.582  25.415  1.00  0.00     0.274 C 
ENDROOT
BRANCH   1   2
ATOM      2  O   UNL A   1      35.227  22.222  24.328  1.00  0.00    -0.462 OA
BRANCH   2   3
ATOM      3  C   UNL A   1      34.669  23.425  24.549  1.00  0.00     0.310 C 
ATOM      4  O   UNL A   1      35.105  24.229  25.367  1.00  0.00    -0.252 OA
BRANCH   3   5
ATOM      5  C   UNL A   1      33.432  23.727  23.694  1.00  0.00     0.116 C 
ATOM      6  C   UNL A   1      29.618  25.991  24.216  1.00  0.00     0.039 C 
ATOM      7  C   UNL A   1      30.916  25.332  23.832  1.00  0.00    -0.074 C 
ATOM      8  C   UNL A   1      32.095  25.982  23.759  1.00  0.00    -0.073 C 
ATOM      9  C   UNL A   1      30.840  23.854  23.543  1.00  0.00     0.045 C 
ATOM     10  C   UNL A   1      32.276  27.467  23.939  1.00  0.00     0.039 C 
ATOM     11  C   UNL A   1      33.380  25.255  23.456  1.00  0.00     0.046 C 
ATOM     12  C   UNL A   1      32.075  23.039  23.964  1.00  0.00     0.097 C 
BRANCH  12  13
ATOM     13  C   UNL A   1      31.761  22.328  25.281  1.00  0.00     0.224 C 
ATOM     14  O   UNL A   1      31.444  22.987  26.277  1.00  0.00    -0.275 OA
ATOM     15  N   UNL A   1      31.950  21.003  25.467  1.00  0.00    -0.350 N 
ATOM     16  H   UNL A   1      31.648  20.664  26.341  1.00  0.00     0.163 HD
BRANCH  15  17
ATOM     17  C   UNL A   1      32.520  20.002  24.599  1.00  0.00     0.177 C 
BRANCH  17  18
ATOM     18  C   UNL A   1      32.799  18.713  25.371  1.00  0.00     0.283 C 
BRANCH  18  19
ATOM     19  N   UNL A   1      32.206  17.528  24.718  1.00  0.00    -0.330 N 
ATOM     20  C   UNL A   1      32.545  16.299  25.467  1.00  0.00     0.291 C 
ATOM     21  C   UNL A   1      32.693  17.355  23.328  1.00  0.00     0.291 C 
ATOM     22  H   UNL A   1      31.197  17.682  24.707  1.00  0.00     0.348 HD
ATOM     23  C   UNL A   1      34.034  15.933  25.374  1.00  0.00     0.221 C 
ATOM     24  C   UNL A   1      34.170  16.927  23.231  1.00  0.00     0.221 C 
ATOM     25  O   UNL A   1      34.438  15.755  24.011  1.00  0.00    -0.370 OA
ENDBRANCH  18  19
ENDBRANCH  17  18
ENDBRANCH  15  17
ENDBRANCH  12  13
ENDBRANCH   3   5
ENDBRANCH   2   3
ENDBRANCH   1   2
BRANCH   1  26
ATOM     26  C   UNL A   1      37.422  21.517  25.089  1.00  0.00     0.275 C 
BRANCH  26  27
ATOM     27  O   UNL A   1      38.105  22.533  25.839  1.00  0.00    -0.458 OA
BRANCH  27  28
ATOM     28  C   UNL A   1      39.299  22.136  26.338  1.00  0.00     0.338 C 
ATOM     29  O   UNL A   1      39.866  21.075  26.167  1.00  0.00    -0.246 OA
BRANCH  28  30
ATOM     30  C   UNL A   1      39.946  23.297  26.942  1.00  0.00     0.060 A 
ATOM     31  C   UNL A   1      39.628  24.559  26.430  1.00  0.00     0.016 A 
ATOM     32  C   UNL A   1      40.873  23.138  27.967  1.00  0.00     0.016 A 
ATOM     33  C   UNL A   1      40.248  25.689  26.939  1.00  0.00     0.010 A 
ATOM     34  C   UNL A   1      41.502  24.269  28.472  1.00  0.00     0.010 A 
ATOM     35  C   UNL A   1      41.200  25.541  27.949  1.00  0.00    -0.014 A 
BRANCH  35  36
ATOM     36  C   UNL A   1      41.982  26.699  28.409  1.00  0.00     0.031 A 
ATOM     37  C   UNL A   1      41.251  27.836  29.053  1.00  0.00     0.074 A 
ATOM     38  C   UNL A   1      43.307  26.732  28.192  1.00  0.00     0.049 A 
ATOM     39  N   UNL A   1      41.668  29.043  29.312  1.00  0.00    -0.248 NA
ATOM     40  C   UNL A   1      39.852  27.577  29.439  1.00  0.00     0.031 C 
ATOM     41  C   UNL A   1      44.102  25.634  27.637  1.00  0.00     0.029 A 
ATOM     42  N   UNL A   1      44.212  27.739  28.387  1.00  0.00    -0.354 N 
ATOM     43  C   UNL A   1      40.572  29.706  29.853  1.00  0.00     0.074 A 
ATOM     44  C   UNL A   1      39.472  28.767  29.880  1.00  0.00     0.031 C 
ATOM     45  C   UNL A   1      45.378  26.036  27.519  1.00  0.00     0.029 A 
ATOM     46  C   UNL A   1      45.470  27.434  27.928  1.00  0.00     0.049 A 
ATOM     47  H   UNL A   1      43.984  28.596  28.814  1.00  0.00     0.167 HD
ATOM     48  C   UNL A   1      40.500  30.989  30.274  1.00  0.00     0.031 A 
ATOM     49  C   UNL A   1      46.557  28.218  27.808  1.00  0.00     0.031 A 
ATOM     50  C   UNL A   1      41.618  31.894  30.215  1.00  0.00     0.049 A 
ATOM     51  C   UNL A   1      46.438  29.659  28.224  1.00  0.00     0.074 A 
ATOM     52  C   UNL A   1      41.678  33.223  30.594  1.00  0.00     0.029 A 
ATOM     53  N   UNL A   1      42.879  31.552  29.745  1.00  0.00    -0.354 N 
ATOM     54  N   UNL A   1      45.391  30.294  28.698  1.00  0.00    -0.248 NA
ATOM     55  C   UNL A   1      47.640  30.488  28.086  1.00  0.00     0.031 C 
ATOM     56  C   UNL A   1      42.967  33.693  30.314  1.00  0.00     0.029 A 
ATOM     57  C   UNL A   1      43.725  32.643  29.814  1.00  0.00     0.049 A 
ATOM     58  H   UNL A   1      43.134  30.661  29.411  1.00  0.00     0.167 HD
ATOM     59  C   UNL A   1      45.815  31.594  28.944  1.00  0.00     0.074 A 
ATOM     60  C   UNL A   1      47.217  31.649  28.570  1.00  0.00     0.031 C 
ATOM     61  C   UNL A   1      45.116  32.649  29.434  1.00  0.00     0.031 A 
BRANCH  48  62
ATOM     62  C   UNL A   1      39.168  31.483  30.772  1.00  0.00    -0.014 A 
ATOM     63  C   UNL A   1      38.251  32.117  29.913  1.00  0.00     0.010 A 
ATOM     64  C   UNL A   1      38.829  31.322  32.129  1.00  0.00     0.010 A 
ATOM     65  C   UNL A   1      37.045  32.622  30.408  1.00  0.00     0.020 A 
ATOM     66  C   UNL A   1      37.611  31.799  32.623  1.00  0.00     0.020 A 
ATOM     67  C   UNL A   1      36.736  32.466  31.763  1.00  0.00     0.054 A 
BRANCH  67  68
ATOM     68  S   UNL A   1      35.164  33.127  32.382  1.00  0.00     0.124 S 
ATOM     69  O   UNL A   1      35.275  32.878  33.817  1.00  0.00    -0.237 OA
ATOM     70  O   UNL A   1      35.227  34.531  31.983  1.00  0.00    -0.237 OA
ATOM     71  O   UNL A   1      34.155  32.331  31.688  1.00  0.00    -0.744 OA
ENDBRANCH  67  68
ENDBRANCH  48  62
BRANCH  49  72
ATOM     72  C   UNL A   1      47.821  27.658  27.260  1.00  0.00    -0.014 A 
ATOM     73  C   UNL A   1      48.139  27.823  25.901  1.00  0.00     0.010 A 
ATOM     74  C   UNL A   1      48.737  26.999  28.100  1.00  0.00     0.010 A 
ATOM     75  C   UNL A   1      49.346  27.334  25.392  1.00  0.00     0.020 A 
ATOM     76  C   UNL A   1      49.957  26.532  27.600  1.00  0.00     0.020 A 
ATOM     77  C   UNL A   1      50.250  26.696  26.246  1.00  0.00     0.054 A 
BRANCH  77  78
ATOM     78  S   UNL A   1      51.839  26.132  25.573  1.00  0.00     0.124 S 
ATOM     79  O   UNL A   1      51.645  26.323  24.139  1.00  0.00    -0.237 OA
ATOM     80  O   UNL A   1      52.791  27.038  26.209  1.00  0.00    -0.237 OA
ATOM     81  O   UNL A   1      51.923  24.742  26.015  1.00  0.00    -0.744 OA
ENDBRANCH  77  78
ENDBRANCH  49  72
BRANCH  61  82
ATOM     82  C   UNL A   1      45.876  33.928  29.641  1.00  0.00    -0.014 A 
ATOM     83  C   UNL A   1      45.916  34.921  28.647  1.00  0.00     0.010 A 
ATOM     84  C   UNL A   1      46.508  34.159  30.876  1.00  0.00     0.010 A 
ATOM     85  C   UNL A   1      46.602  36.116  28.877  1.00  0.00     0.020 A 
ATOM     86  C   UNL A   1      47.171  35.362  31.119  1.00  0.00     0.020 A 
ATOM     87  C   UNL A   1      47.223  36.328  30.112  1.00  0.00     0.054 A 
BRANCH  87  88
ATOM     88  S   UNL A   1      48.064  37.908  30.406  1.00  0.00     0.124 S 
ATOM     89  O   UNL A   1      47.266  38.829  29.601  1.00  0.00    -0.237 OA
ATOM     90  O   UNL A   1      47.945  38.071  31.852  1.00  0.00    -0.237 OA
ATOM     91  O   UNL A   1      49.422  37.672  29.921  1.00  0.00    -0.744 OA
ENDBRANCH  87  88
ENDBRANCH  61  82
ENDBRANCH  35  36
ENDBRANCH  28  30
ENDBRANCH  27  28
ENDBRANCH  26  27
ENDBRANCH   1  26
TORSDOF 18
ENDMDL
MODEL 3
REMARK VINA RESULT:     -10.7      2.270      2.803
REMARK SMILES CC1=C(C)C[C@@H](C(=O)OCCOC(=O)c2ccc(-c3c4nc(c(-c5ccc(S(=O)(=O)[O-])cc5)c5ccc([nH]5)c(-c5ccc(S(=O)(=O)[O-])cc5)c5nc(c(-c6ccc(S(=O)(=O)[O-])cc6)c6ccc3[nH]6)C=C5)C=C4)cc2)[C@@H](C(=O)NCC[NH+]2CCOCC2)C1
REMARK SMILES IDX 10 1 9 2 7 3 8 4 6 5 1 6 2 7 3 8 87 9 4 10 5 11 75 12 76 13
REMARK SMILES IDX 77 14 78 15 79 17 80 18 81 19 82 20 86 21 83 23 85 24 84 25
REMARK SMILES IDX 11 26 12 27 13 28 14 29 15 30 16 31 74 32 17 33 73 34 18 35
REMARK SMILES IDX 19 36 20 37 67 38 21 39 72 40 66 41 68 42 22 43 71 44 65 45
REMARK SMILES IDX 64 46 23 48 53 49 34 50 52 51 35 52 38 53 51 54 69 55 36 56
REMARK SMILES IDX 37 57 50 59 70 60 39 61 24 62 25 63 33 64 26 65 32 66 27 67
REMARK SMILES IDX 28 68 29 69 30 70 31 71 54 72 55 73 63 74 56 75 62 76 57 77
REMARK SMILES IDX 58 78 59 79 60 80 61 81 40 82 41 83 49 84 42 85 48 86 43 87
REMARK SMILES IDX 44 88 45 89 46 90 47 91
REMARK H PARENT 78 16 81 22 68 47 38 58
REMARK Flexibility Score: inf
ROOT
ATOM      1  C   UNL A   1      36.356  21.097  25.303  1.00  0.00     0.274 C 
ENDROOT
BRANCH   1   2
ATOM      2  O   UNL A   1      35.679  21.910  24.321  1.00  0.00    -0.462 OA
BRANCH   2   3
ATOM      3  C   UNL A   1      34.932  22.942  24.750  1.00  0.00     0.310 C 
ATOM      4  O   UNL A   1      35.105  23.493  25.833  1.00  0.00    -0.252 OA
BRANCH   3   5
ATOM      5  C   UNL A   1      33.834  23.391  23.778  1.00  0.00     0.116 C 
ATOM      6  C   UNL A   1      30.287  26.099  23.937  1.00  0.00     0.039 C 
ATOM      7  C   UNL A   1      31.529  25.288  23.679  1.00  0.00    -0.074 C 
ATOM      8  C   UNL A   1      32.778  25.791  23.733  1.00  0.00    -0.073 C 
ATOM      9  C   UNL A   1      31.305  23.829  23.367  1.00  0.00     0.045 C 
ATOM     10  C   UNL A   1      33.117  27.243  23.947  1.00  0.00     0.039 C 
ATOM     11  C   UNL A   1      33.990  24.914  23.553  1.00  0.00     0.046 C 
ATOM     12  C   UNL A   1      32.384  22.871  23.901  1.00  0.00     0.097 C 
BRANCH  12  13
ATOM     13  C   UNL A   1      31.854  22.205  25.172  1.00  0.00     0.224 C 
ATOM     14  O   UNL A   1      31.402  22.898  26.089  1.00  0.00    -0.275 OA
ATOM     15  N   UNL A   1      31.982  20.883  25.419  1.00  0.00    -0.350 N 
ATOM     16  H   UNL A   1      31.541  20.575  26.244  1.00  0.00     0.163 HD
BRANCH  15  17
ATOM     17  C   UNL A   1      32.657  19.846  24.676  1.00  0.00     0.177 C 
BRANCH  17  18
ATOM     18  C   UNL A   1      32.731  18.557  25.493  1.00  0.00     0.283 C 
BRANCH  18  19
ATOM     19  N   UNL A   1      32.204  17.393  24.753  1.00  0.00    -0.330 N 
ATOM     20  C   UNL A   1      32.556  16.135  25.446  1.00  0.00     0.291 C 
ATOM     21  C   UNL A   1      32.750  17.313  23.377  1.00  0.00     0.291 C 
ATOM     22  H   UNL A   1      31.193  17.515  24.710  1.00  0.00     0.348 HD
ATOM     23  C   UNL A   1      34.060  15.822  25.394  1.00  0.00     0.221 C 
ATOM     24  C   UNL A   1      34.243  16.938  23.315  1.00  0.00     0.221 C 
ATOM     25  O   UNL A   1      34.521  15.734  24.040  1.00  0.00    -0.370 OA
ENDBRANCH  18  19
ENDBRANCH  17  18
ENDBRANCH  15  17
ENDBRANCH  12  13
ENDBRANCH   3   5
ENDBRANCH   2   3
ENDBRANCH   1   2
BRANCH   1  26
ATOM     26  C   UNL A   1      37.864  21.325  25.202  1.00  0.00     0.275 C 
BRANCH  26  27
ATOM     27  O   UNL A   1      38.257  22.275  26.205  1.00  0.00    -0.458 OA
BRANCH  27  28
ATOM     28  C   UNL A   1      39.577  22.240  26.503  1.00  0.00     0.338 C 
ATOM     29  O   UNL A   1      40.370  21.344  26.292  1.00  0.00    -0.246 OA
BRANCH  28  30
ATOM     30  C   UNL A   1      39.982  23.580  26.920  1.00  0.00     0.060 A 
ATOM     31  C   UNL A   1      39.812  24.625  26.006  1.00  0.00     0.016 A 
ATOM     32  C   UNL A   1      40.549  23.791  28.173  1.00  0.00     0.016 A 
ATOM     33  C   UNL A   1      40.221  25.907  26.336  1.00  0.00     0.010 A 
ATOM     34  C   UNL A   1      40.968  25.074  28.502  1.00  0.00     0.010 A 
ATOM     35  C   UNL A   1      40.817  26.127  27.580  1.00  0.00    -0.014 A 
BRANCH  35  36
ATOM     36  C   UNL A   1      41.395  27.440  27.905  1.00  0.00     0.031 A 
ATOM     37  C   UNL A   1      42.878  27.611  27.785  1.00  0.00     0.074 A 
ATOM     38  C   UNL A   1      40.596  28.424  28.348  1.00  0.00     0.049 A 
ATOM     39  N   UNL A   1      43.637  28.568  28.238  1.00  0.00    -0.248 NA
ATOM     40  C   UNL A   1      43.603  26.543  27.072  1.00  0.00     0.031 C 
ATOM     41  C   UNL A   1      39.134  28.359  28.422  1.00  0.00     0.029 A 
ATOM     42  N   UNL A   1      40.904  29.660  28.846  1.00  0.00    -0.354 N 
ATOM     43  C   UNL A   1      44.936  28.201  27.904  1.00  0.00     0.074 A 
ATOM     44  C   UNL A   1      44.861  26.931  27.216  1.00  0.00     0.031 C 
ATOM     45  C   UNL A   1      38.674  29.502  28.955  1.00  0.00     0.029 A 
ATOM     46  C   UNL A   1      39.810  30.344  29.316  1.00  0.00     0.049 A 
ATOM     47  H   UNL A   1      41.820  30.023  28.865  1.00  0.00     0.167 HD
ATOM     48  C   UNL A   1      46.083  28.868  28.168  1.00  0.00     0.031 A 
ATOM     49  C   UNL A   1      39.746  31.498  30.005  1.00  0.00     0.031 A 
ATOM     50  C   UNL A   1      46.113  30.124  28.870  1.00  0.00     0.049 A 
ATOM     51  C   UNL A   1      41.038  32.192  30.341  1.00  0.00     0.074 A 
ATOM     52  C   UNL A   1      47.205  30.898  29.216  1.00  0.00     0.029 A 
ATOM     53  N   UNL A   1      44.984  30.790  29.332  1.00  0.00    -0.354 N 
ATOM     54  N   UNL A   1      42.266  31.824  30.061  1.00  0.00    -0.248 NA
ATOM     55  C   UNL A   1      40.937  33.451  31.089  1.00  0.00     0.031 C 
ATOM     56  C   UNL A   1      46.737  32.012  29.923  1.00  0.00     0.029 A 
ATOM     57  C   UNL A   1      45.351  31.962  29.968  1.00  0.00     0.049 A 
ATOM     58  H   UNL A   1      44.058  30.474  29.223  1.00  0.00     0.167 HD
ATOM     59  C   UNL A   1      43.088  32.821  30.572  1.00  0.00     0.074 A 
ATOM     60  C   UNL A   1      42.211  33.810  31.174  1.00  0.00     0.031 C 
ATOM     61  C   UNL A   1      44.441  32.918  30.549  1.00  0.00     0.031 A 
BRANCH  48  62
ATOM     62  C   UNL A   1      47.375  28.221  27.745  1.00  0.00    -0.014 A 
ATOM     63  C   UNL A   1      47.963  28.502  26.498  1.00  0.00     0.010 A 
ATOM     64  C   UNL A   1      48.009  27.305  28.605  1.00  0.00     0.010 A 
ATOM     65  C   UNL A   1      49.132  27.846  26.100  1.00  0.00     0.020 A 
ATOM     66  C   UNL A   1      49.193  26.667  28.223  1.00  0.00     0.020 A 
ATOM     67  C   UNL A   1      49.736  26.926  26.963  1.00  0.00     0.054 A 
BRANCH  67  68
ATOM     68  S   UNL A   1      51.253  26.089  26.424  1.00  0.00     0.124 S 
ATOM     69  O   UNL A   1      51.090  24.762  27.013  1.00  0.00    -0.237 OA
ATOM     70  O   UNL A   1      51.150  26.145  24.968  1.00  0.00    -0.237 OA
ATOM     71  O   UNL A   1      52.321  26.900  27.001  1.00  0.00    -0.744 OA
ENDBRANCH  67  68
ENDBRANCH  48  62
BRANCH  49  72
ATOM     72  C   UNL A   1      38.427  32.041  30.426  1.00  0.00    -0.014 A 
ATOM     73  C   UNL A   1      37.908  31.737  31.696  1.00  0.00     0.010 A 
ATOM     74  C   UNL A   1      37.704  32.903  29.581  1.00  0.00     0.010 A 
ATOM     75  C   UNL A   1      36.688  32.280  32.110  1.00  0.00     0.020 A 
ATOM     76  C   UNL A   1      36.496  33.468  30.002  1.00  0.00     0.020 A 
ATOM     77  C   UNL A   1      35.992  33.146  31.263  1.00  0.00     0.054 A 
BRANCH  77  78
ATOM     78  S   UNL A   1      34.444  33.889  31.853  1.00  0.00     0.124 S 
ATOM     79  O   UNL A   1      33.772  34.223  30.601  1.00  0.00    -0.237 OA
ATOM     80  O   UNL A   1      33.845  32.803  32.623  1.00  0.00    -0.237 OA
ATOM     81  O   UNL A   1      34.894  35.031  32.647  1.00  0.00    -0.744 OA
ENDBRANCH  77  78
ENDBRANCH  49  72
BRANCH  61  82
ATOM     82  C   UNL A   1      45.043  34.158  31.145  1.00  0.00    -0.014 A 
ATOM     83  C   UNL A   1      45.441  34.201  32.492  1.00  0.00     0.010 A 
ATOM     84  C   UNL A   1      45.266  35.277  30.322  1.00  0.00     0.010 A 
ATOM     85  C   UNL A   1      46.028  35.356  33.013  1.00  0.00     0.020 A 
ATOM     86  C   UNL A   1      45.876  36.422  30.832  1.00  0.00     0.020 A 
ATOM     87  C   UNL A   1      46.243  36.458  32.179  1.00  0.00     0.054 A 
BRANCH  87  88
ATOM     88  S   UNL A   1      47.054  37.927  32.865  1.00  0.00     0.124 S 
ATOM     89  O   UNL A   1      45.937  38.621  33.501  1.00  0.00    -0.237 OA
ATOM     90  O   UNL A   1      48.040  37.353  33.778  1.00  0.00    -0.237 OA
ATOM     91  O   UNL A   1      47.614  38.593  31.691  1.00  0.00    -0.744 OA
ENDBRANCH  87  88
ENDBRANCH  61  82
ENDBRANCH  35  36
ENDBRANCH  28  30
ENDBRANCH  27  28
ENDBRANCH  26  27
ENDBRANCH   1  26
TORSDOF 18
ENDMDL
