MODEL 1
REMARK VINA RESULT:     -11.5      0.000      0.000
REMARK SMILES Cc1[nH]c(=O)sc1S(=O)(=O)NC1(CC(=O)OCCOC(=O)c2ccc(-c3c4nc(c(-c5ccc(S(=O)(=O)[O-])cc5)c5ccc([nH]5)c(-c5ccc(S(=O)(=O)[O-])cc5)c5nc(c(-c6ccc(S(=O)(=O)[O-])cc6)c6ccc3[nH]6)C=C5)C=C4)cc2)CCC1
REMARK SMILES IDX 17 1 16 2 14 3 15 4 13 5 12 6 82 7 84 8 83 9 11 10 8 12 9 13
REMARK SMILES IDX 10 14 7 15 1 16 2 17 3 18 4 19 6 21 5 22 18 23 19 24 20 25
REMARK SMILES IDX 21 26 22 27 23 28 81 29 24 30 80 31 25 32 26 33 27 34 74 35
REMARK SMILES IDX 28 36 79 37 73 38 75 39 29 40 78 41 72 42 71 43 30 45 60 46
REMARK SMILES IDX 41 47 59 48 42 49 45 50 58 51 76 52 43 53 44 54 57 56 77 57
REMARK SMILES IDX 46 58 31 59 32 60 40 61 33 62 39 63 34 64 35 65 36 66 37 67
REMARK SMILES IDX 38 68 61 69 62 70 70 71 63 72 69 73 64 74 65 75 66 76 67 77
REMARK SMILES IDX 68 78 47 79 48 80 56 81 49 82 55 83 50 84 51 85 52 86 53 87
REMARK SMILES IDX 54 88
REMARK H PARENT 11 11 3 20 75 44 45 55
REMARK Flexibility Score: inf
ROOT
ATOM      1  C   UNL A   1      31.907  29.123  27.112  1.00  0.00     0.274 C 
ENDROOT
BRANCH   1   2
ATOM      2  O   UNL A   1      31.427  28.493  25.905  1.00  0.00    -0.462 OA
BRANCH   2   3
ATOM      3  C   UNL A   1      31.411  27.135  25.904  1.00  0.00     0.307 C 
ATOM      4  O   UNL A   1      31.360  26.440  26.916  1.00  0.00    -0.252 OA
BRANCH   3   5
ATOM      5  C   UNL A   1      31.617  26.538  24.538  1.00  0.00     0.146 C 
BRANCH   5   6
ATOM      6  C   UNL A   1      33.033  26.168  24.045  1.00  0.00     0.044 C 
ATOM      7  C   UNL A   1      34.074  27.238  24.519  1.00  0.00     0.024 C 
ATOM      8  C   UNL A   1      33.362  26.626  22.594  1.00  0.00     0.024 C 
ATOM      9  C   UNL A   1      33.874  27.958  23.178  1.00  0.00     0.004 C 
BRANCH   6  10
ATOM     10  N   UNL A   1      33.377  24.744  24.406  1.00  0.00    -0.204 NA
ATOM     11  H   UNL A   1      34.209  24.822  24.991  1.00  0.00     0.142 HD
BRANCH  10  12
ATOM     12  S   UNL A   1      33.708  23.430  23.367  1.00  0.00     0.252 S 
ATOM     13  O   UNL A   1      35.057  23.648  22.886  1.00  0.00    -0.206 OA
ATOM     14  O   UNL A   1      32.610  23.420  22.425  1.00  0.00    -0.206 OA
BRANCH  12  15
ATOM     15  C   UNL A   1      33.649  21.953  24.282  1.00  0.00     0.158 A 
ATOM     16  C   UNL A   1      36.092  21.848  25.161  1.00  0.00     0.067 C 
ATOM     17  C   UNL A   1      34.684  21.406  24.953  1.00  0.00     0.046 A 
ATOM     18  N   UNL A   1      34.347  20.209  25.550  1.00  0.00    -0.315 N 
ATOM     19  C   UNL A   1      33.052  19.779  25.409  1.00  0.00     0.305 A 
ATOM     20  H   UNL A   1      35.008  19.686  26.058  1.00  0.00     0.170 HD
ATOM     21  S   UNL A   1      32.197  20.970  24.449  1.00  0.00    -0.061 S 
ATOM     22  O   UNL A   1      32.590  18.745  25.843  1.00  0.00    -0.257 OA
ENDBRANCH  12  15
ENDBRANCH  10  12
ENDBRANCH   6  10
ENDBRANCH   5   6
ENDBRANCH   3   5
ENDBRANCH   2   3
ENDBRANCH   1   2
BRANCH   1  23
ATOM     23  C   UNL A   1      32.578  30.471  26.866  1.00  0.00     0.275 C 
BRANCH  23  24
ATOM     24  O   UNL A   1      34.003  30.387  26.918  1.00  0.00    -0.458 OA
BRANCH  24  25
ATOM     25  C   UNL A   1      34.560  31.402  27.608  1.00  0.00     0.338 C 
ATOM     26  O   UNL A   1      34.393  32.597  27.410  1.00  0.00    -0.246 OA
BRANCH  25  27
ATOM     27  C   UNL A   1      35.626  30.924  28.481  1.00  0.00     0.060 A 
ATOM     28  C   UNL A   1      36.527  31.874  28.961  1.00  0.00     0.016 A 
ATOM     29  C   UNL A   1      35.946  29.568  28.407  1.00  0.00     0.016 A 
ATOM     30  C   UNL A   1      37.843  31.506  29.136  1.00  0.00     0.010 A 
ATOM     31  C   UNL A   1      37.253  29.197  28.601  1.00  0.00     0.010 A 
ATOM     32  C   UNL A   1      38.204  30.183  28.872  1.00  0.00    -0.014 A 
BRANCH  32  33
ATOM     33  C   UNL A   1      39.578  29.776  29.094  1.00  0.00     0.031 A 
ATOM     34  C   UNL A   1      39.893  29.764  30.547  1.00  0.00     0.074 A 
ATOM     35  C   UNL A   1      40.357  29.297  28.102  1.00  0.00     0.049 A 
ATOM     36  N   UNL A   1      40.709  30.532  31.188  1.00  0.00    -0.248 NA
ATOM     37  C   UNL A   1      39.013  28.967  31.429  1.00  0.00     0.031 C 
ATOM     38  C   UNL A   1      39.985  29.069  26.700  1.00  0.00     0.029 A 
ATOM     39  N   UNL A   1      41.616  28.786  28.155  1.00  0.00    -0.354 N 
ATOM     40  C   UNL A   1      40.634  30.117  32.513  1.00  0.00     0.074 A 
ATOM     41  C   UNL A   1      39.418  29.361  32.635  1.00  0.00     0.031 C 
ATOM     42  C   UNL A   1      40.884  28.235  26.124  1.00  0.00     0.029 A 
ATOM     43  C   UNL A   1      41.960  27.980  27.067  1.00  0.00     0.049 A 
ATOM     44  H   UNL A   1      42.235  28.968  28.898  1.00  0.00     0.167 HD
ATOM     45  C   UNL A   1      41.740  30.114  33.307  1.00  0.00     0.031 A 
ATOM     46  C   UNL A   1      43.020  27.130  26.984  1.00  0.00     0.031 A 
ATOM     47  C   UNL A   1      42.786  30.923  32.738  1.00  0.00     0.049 A 
ATOM     48  C   UNL A   1      43.971  27.534  28.046  1.00  0.00     0.074 A 
ATOM     49  C   UNL A   1      42.950  32.261  32.449  1.00  0.00     0.029 A 
ATOM     50  N   UNL A   1      43.709  30.235  31.990  1.00  0.00    -0.354 N 
ATOM     51  N   UNL A   1      44.606  28.670  28.041  1.00  0.00    -0.248 NA
ATOM     52  C   UNL A   1      43.879  26.876  29.339  1.00  0.00     0.031 C 
ATOM     53  C   UNL A   1      43.726  32.294  31.254  1.00  0.00     0.029 A 
ATOM     54  C   UNL A   1      44.072  30.986  30.907  1.00  0.00     0.049 A 
ATOM     55  H   UNL A   1      44.056  29.338  32.201  1.00  0.00     0.167 HD
ATOM     56  C   UNL A   1      44.591  29.085  29.363  1.00  0.00     0.074 A 
ATOM     57  C   UNL A   1      44.251  27.887  30.129  1.00  0.00     0.031 C 
ATOM     58  C   UNL A   1      44.565  30.417  29.668  1.00  0.00     0.031 A 
BRANCH  45  59
ATOM     59  C   UNL A   1      42.045  28.988  34.274  1.00  0.00    -0.014 A 
ATOM     60  C   UNL A   1      42.428  27.737  33.750  1.00  0.00     0.010 A 
ATOM     61  C   UNL A   1      41.691  29.021  35.640  1.00  0.00     0.010 A 
ATOM     62  C   UNL A   1      42.400  26.579  34.537  1.00  0.00     0.020 A 
ATOM     63  C   UNL A   1      41.698  27.881  36.444  1.00  0.00     0.020 A 
ATOM     64  C   UNL A   1      42.027  26.660  35.879  1.00  0.00     0.054 A 
BRANCH  64  65
ATOM     65  S   UNL A   1      41.929  25.150  36.870  1.00  0.00     0.124 S 
ATOM     66  O   UNL A   1      41.802  24.123  35.843  1.00  0.00    -0.237 OA
ATOM     67  O   UNL A   1      43.197  25.176  37.594  1.00  0.00    -0.237 OA
ATOM     68  O   UNL A   1      40.742  25.361  37.697  1.00  0.00    -0.744 OA
ENDBRANCH  64  65
ENDBRANCH  45  59
BRANCH  46  69
ATOM     69  C   UNL A   1      43.143  25.814  26.296  1.00  0.00    -0.014 A 
ATOM     70  C   UNL A   1      44.044  25.631  25.224  1.00  0.00     0.010 A 
ATOM     71  C   UNL A   1      42.610  24.656  26.895  1.00  0.00     0.010 A 
ATOM     72  C   UNL A   1      44.448  24.344  24.817  1.00  0.00     0.020 A 
ATOM     73  C   UNL A   1      43.006  23.371  26.494  1.00  0.00     0.020 A 
ATOM     74  C   UNL A   1      43.943  23.220  25.473  1.00  0.00     0.054 A 
BRANCH  74  75
ATOM     75  S   UNL A   1      44.607  21.570  25.078  1.00  0.00     0.124 S 
ATOM     76  O   UNL A   1      44.603  21.573  23.617  1.00  0.00    -0.237 OA
ATOM     77  O   UNL A   1      45.925  21.597  25.704  1.00  0.00    -0.237 OA
ATOM     78  O   UNL A   1      43.650  20.656  25.698  1.00  0.00    -0.744 OA
ENDBRANCH  74  75
ENDBRANCH  46  69
BRANCH  58  79
ATOM     79  C   UNL A   1      44.937  31.396  28.579  1.00  0.00    -0.014 A 
ATOM     80  C   UNL A   1      44.158  31.666  27.436  1.00  0.00     0.010 A 
ATOM     81  C   UNL A   1      46.093  32.162  28.800  1.00  0.00     0.010 A 
ATOM     82  C   UNL A   1      44.551  32.660  26.523  1.00  0.00     0.020 A 
ATOM     83  C   UNL A   1      46.478  33.163  27.909  1.00  0.00     0.020 A 
ATOM     84  C   UNL A   1      45.714  33.399  26.767  1.00  0.00     0.054 A 
BRANCH  84  85
ATOM     85  S   UNL A   1      46.227  34.691  25.599  1.00  0.00     0.124 S 
ATOM     86  O   UNL A   1      45.324  34.476  24.471  1.00  0.00    -0.237 OA
ATOM     87  O   UNL A   1      46.009  35.921  26.354  1.00  0.00    -0.237 OA
ATOM     88  O   UNL A   1      47.632  34.381  25.331  1.00  0.00    -0.744 OA
ENDBRANCH  84  85
ENDBRANCH  58  79
ENDBRANCH  32  33
ENDBRANCH  25  27
ENDBRANCH  24  25
ENDBRANCH  23  24
ENDBRANCH   1  23
TORSDOF 18
ENDMDL
MODEL 2
REMARK VINA RESULT:     -10.9      1.144      1.842
REMARK SMILES Cc1[nH]c(=O)sc1S(=O)(=O)NC1(CC(=O)OCCOC(=O)c2ccc(-c3c4nc(c(-c5ccc(S(=O)(=O)[O-])cc5)c5ccc([nH]5)c(-c5ccc(S(=O)(=O)[O-])cc5)c5nc(c(-c6ccc(S(=O)(=O)[O-])cc6)c6ccc3[nH]6)C=C5)C=C4)cc2)CCC1
REMARK SMILES IDX 17 1 16 2 14 3 15 4 13 5 12 6 82 7 84 8 83 9 11 10 8 12 9 13
REMARK SMILES IDX 10 14 7 15 1 16 2 17 3 18 4 19 6 21 5 22 18 23 19 24 20 25
REMARK SMILES IDX 21 26 22 27 23 28 81 29 24 30 80 31 25 32 26 33 27 34 74 35
REMARK SMILES IDX 28 36 79 37 73 38 75 39 29 40 78 41 72 42 71 43 30 45 60 46
REMARK SMILES IDX 41 47 59 48 42 49 45 50 58 51 76 52 43 53 44 54 57 56 77 57
REMARK SMILES IDX 46 58 31 59 32 60 40 61 33 62 39 63 34 64 35 65 36 66 37 67
REMARK SMILES IDX 38 68 61 69 62 70 70 71 63 72 69 73 64 74 65 75 66 76 67 77
REMARK SMILES IDX 68 78 47 79 48 80 56 81 49 82 55 83 50 84 51 85 52 86 53 87
REMARK SMILES IDX 54 88
REMARK H PARENT 11 11 3 20 75 44 45 55
REMARK Flexibility Score: inf
ROOT
ATOM      1  C   UNL A   1      32.944  28.429  26.908  1.00  0.00     0.274 C 
ENDROOT
BRANCH   1   2
ATOM      2  O   UNL A   1      33.402  27.803  25.690  1.00  0.00    -0.462 OA
BRANCH   2   3
ATOM      3  C   UNL A   1      33.430  26.444  25.691  1.00  0.00     0.307 C 
ATOM      4  O   UNL A   1      34.452  25.771  25.791  1.00  0.00    -0.252 OA
BRANCH   3   5
ATOM      5  C   UNL A   1      32.091  25.822  25.403  1.00  0.00     0.146 C 
BRANCH   5   6
ATOM      6  C   UNL A   1      31.797  25.184  24.026  1.00  0.00     0.044 C 
ATOM      7  C   UNL A   1      31.849  26.271  22.899  1.00  0.00     0.024 C 
ATOM      8  C   UNL A   1      30.287  25.033  23.683  1.00  0.00     0.024 C 
ATOM      9  C   UNL A   1      30.332  26.443  23.061  1.00  0.00     0.004 C 
BRANCH   6  10
ATOM     10  N   UNL A   1      32.676  23.981  23.789  1.00  0.00    -0.204 NA
ATOM     11  H   UNL A   1      32.869  23.999  22.787  1.00  0.00     0.142 HD
BRANCH  10  12
ATOM     12  S   UNL A   1      32.351  22.340  24.130  1.00  0.00     0.252 S 
ATOM     13  O   UNL A   1      31.759  21.803  22.923  1.00  0.00    -0.206 OA
ATOM     14  O   UNL A   1      31.577  22.365  25.352  1.00  0.00    -0.206 OA
BRANCH  12  15
ATOM     15  C   UNL A   1      33.849  21.520  24.457  1.00  0.00     0.158 A 
ATOM     16  C   UNL A   1      32.993  19.085  24.762  1.00  0.00     0.067 C 
ATOM     17  C   UNL A   1      33.980  20.202  24.713  1.00  0.00     0.046 A 
ATOM     18  N   UNL A   1      35.286  19.846  24.976  1.00  0.00    -0.315 N 
ATOM     19  C   UNL A   1      36.232  20.838  24.912  1.00  0.00     0.305 A 
ATOM     20  H   UNL A   1      35.529  18.919  25.199  1.00  0.00     0.170 HD
ATOM     21  S   UNL A   1      35.413  22.328  24.492  1.00  0.00    -0.061 S 
ATOM     22  O   UNL A   1      37.417  20.711  25.137  1.00  0.00    -0.257 OA
ENDBRANCH  12  15
ENDBRANCH  10  12
ENDBRANCH   6  10
ENDBRANCH   5   6
ENDBRANCH   3   5
ENDBRANCH   2   3
ENDBRANCH   1   2
BRANCH   1  23
ATOM     23  C   UNL A   1      33.049  29.951  26.881  1.00  0.00     0.275 C 
BRANCH  23  24
ATOM     24  O   UNL A   1      34.403  30.403  26.849  1.00  0.00    -0.458 OA
BRANCH  24  25
ATOM     25  C   UNL A   1      34.674  31.307  27.811  1.00  0.00     0.338 C 
ATOM     26  O   UNL A   1      34.254  32.454  27.874  1.00  0.00    -0.246 OA
BRANCH  25  27
ATOM     27  C   UNL A   1      35.766  30.856  28.665  1.00  0.00     0.060 A 
ATOM     28  C   UNL A   1      36.680  31.821  29.089  1.00  0.00     0.016 A 
ATOM     29  C   UNL A   1      36.087  29.499  28.624  1.00  0.00     0.016 A 
ATOM     30  C   UNL A   1      38.001  31.459  29.236  1.00  0.00     0.010 A 
ATOM     31  C   UNL A   1      37.399  29.135  28.790  1.00  0.00     0.010 A 
ATOM     32  C   UNL A   1      38.356  30.129  29.003  1.00  0.00    -0.014 A 
BRANCH  32  33
ATOM     33  C   UNL A   1      39.737  29.730  29.196  1.00  0.00     0.031 A 
ATOM     34  C   UNL A   1      40.077  29.702  30.642  1.00  0.00     0.074 A 
ATOM     35  C   UNL A   1      40.503  29.270  28.184  1.00  0.00     0.049 A 
ATOM     36  N   UNL A   1      40.898  30.467  31.280  1.00  0.00    -0.248 NA
ATOM     37  C   UNL A   1      39.218  28.886  31.528  1.00  0.00     0.031 C 
ATOM     38  C   UNL A   1      40.108  29.059  26.786  1.00  0.00     0.029 A 
ATOM     39  N   UNL A   1      41.766  28.769  28.208  1.00  0.00    -0.354 N 
ATOM     40  C   UNL A   1      40.848  30.034  32.600  1.00  0.00     0.074 A 
ATOM     41  C   UNL A   1      39.640  29.268  32.732  1.00  0.00     0.031 C 
ATOM     42  C   UNL A   1      41.004  28.239  26.183  1.00  0.00     0.029 A 
ATOM     43  C   UNL A   1      42.097  27.981  27.104  1.00  0.00     0.049 A 
ATOM     44  H   UNL A   1      42.396  28.946  28.944  1.00  0.00     0.167 HD
ATOM     45  C   UNL A   1      41.967  30.029  33.375  1.00  0.00     0.031 A 
ATOM     46  C   UNL A   1      43.163  27.140  26.992  1.00  0.00     0.031 A 
ATOM     47  C   UNL A   1      42.997  30.854  32.800  1.00  0.00     0.049 A 
ATOM     48  C   UNL A   1      44.128  27.537  28.043  1.00  0.00     0.074 A 
ATOM     49  C   UNL A   1      43.146  32.197  32.526  1.00  0.00     0.029 A 
ATOM     50  N   UNL A   1      43.913  30.183  32.027  1.00  0.00    -0.354 N 
ATOM     51  N   UNL A   1      44.755  28.678  28.042  1.00  0.00    -0.248 NA
ATOM     52  C   UNL A   1      44.063  26.861  29.329  1.00  0.00     0.031 C 
ATOM     53  C   UNL A   1      43.902  32.252  31.318  1.00  0.00     0.029 A 
ATOM     54  C   UNL A   1      44.251  30.951  30.948  1.00  0.00     0.049 A 
ATOM     55  H   UNL A   1      44.271  29.286  32.220  1.00  0.00     0.167 HD
ATOM     56  C   UNL A   1      44.759  29.076  29.370  1.00  0.00     0.074 A 
ATOM     57  C   UNL A   1      44.441  27.865  30.126  1.00  0.00     0.031 C 
ATOM     58  C   UNL A   1      44.728  30.402  29.693  1.00  0.00     0.031 A 
BRANCH  45  59
ATOM     59  C   UNL A   1      42.298  28.893  34.321  1.00  0.00    -0.014 A 
ATOM     60  C   UNL A   1      42.337  29.161  35.704  1.00  0.00     0.010 A 
ATOM     61  C   UNL A   1      42.853  27.666  33.898  1.00  0.00     0.010 A 
ATOM     62  C   UNL A   1      42.949  28.275  36.601  1.00  0.00     0.020 A 
ATOM     63  C   UNL A   1      43.428  26.758  34.786  1.00  0.00     0.020 A 
ATOM     64  C   UNL A   1      43.498  27.081  36.132  1.00  0.00     0.054 A 
BRANCH  64  65
ATOM     65  S   UNL A   1      44.345  25.975  37.285  1.00  0.00     0.124 S 
ATOM     66  O   UNL A   1      43.965  26.537  38.576  1.00  0.00    -0.237 OA
ATOM     67  O   UNL A   1      43.758  24.680  36.954  1.00  0.00    -0.237 OA
ATOM     68  O   UNL A   1      45.754  26.124  36.926  1.00  0.00    -0.744 OA
ENDBRANCH  64  65
ENDBRANCH  45  59
BRANCH  46  69
ATOM     69  C   UNL A   1      43.284  25.835  26.284  1.00  0.00    -0.014 A 
ATOM     70  C   UNL A   1      44.301  25.612  25.330  1.00  0.00     0.010 A 
ATOM     71  C   UNL A   1      42.601  24.704  26.775  1.00  0.00     0.010 A 
ATOM     72  C   UNL A   1      44.666  24.309  24.938  1.00  0.00     0.020 A 
ATOM     73  C   UNL A   1      42.957  23.404  26.387  1.00  0.00     0.020 A 
ATOM     74  C   UNL A   1      44.005  23.209  25.489  1.00  0.00     0.054 A 
BRANCH  74  75
ATOM     75  S   UNL A   1      44.602  21.525  25.130  1.00  0.00     0.124 S 
ATOM     76  O   UNL A   1      45.930  21.527  25.739  1.00  0.00    -0.237 OA
ATOM     77  O   UNL A   1      43.607  20.685  25.790  1.00  0.00    -0.237 OA
ATOM     78  O   UNL A   1      44.591  21.460  23.669  1.00  0.00    -0.744 OA
ENDBRANCH  74  75
ENDBRANCH  46  69
BRANCH  58  79
ATOM     79  C   UNL A   1      45.074  31.399  28.611  1.00  0.00    -0.014 A 
ATOM     80  C   UNL A   1      44.192  31.832  27.601  1.00  0.00     0.010 A 
ATOM     81  C   UNL A   1      46.336  32.008  28.707  1.00  0.00     0.010 A 
ATOM     82  C   UNL A   1      44.584  32.829  26.691  1.00  0.00     0.020 A 
ATOM     83  C   UNL A   1      46.723  33.012  27.821  1.00  0.00     0.020 A 
ATOM     84  C   UNL A   1      45.852  33.409  26.807  1.00  0.00     0.054 A 
BRANCH  84  85
ATOM     85  S   UNL A   1      46.365  34.704  25.642  1.00  0.00     0.124 S 
ATOM     86  O   UNL A   1      46.148  35.927  26.411  1.00  0.00    -0.237 OA
ATOM     87  O   UNL A   1      47.760  34.368  25.373  1.00  0.00    -0.237 OA
ATOM     88  O   UNL A   1      45.464  34.525  24.503  1.00  0.00    -0.744 OA
ENDBRANCH  84  85
ENDBRANCH  58  79
ENDBRANCH  32  33
ENDBRANCH  25  27
ENDBRANCH  24  25
ENDBRANCH  23  24
ENDBRANCH   1  23
TORSDOF 18
ENDMDL
MODEL 3
REMARK VINA RESULT:     -10.8      4.139      6.998
REMARK SMILES Cc1[nH]c(=O)sc1S(=O)(=O)NC1(CC(=O)OCCOC(=O)c2ccc(-c3c4nc(c(-c5ccc(S(=O)(=O)[O-])cc5)c5ccc([nH]5)c(-c5ccc(S(=O)(=O)[O-])cc5)c5nc(c(-c6ccc(S(=O)(=O)[O-])cc6)c6ccc3[nH]6)C=C5)C=C4)cc2)CCC1
REMARK SMILES IDX 17 1 16 2 14 3 15 4 13 5 12 6 82 7 84 8 83 9 11 10 8 12 9 13
REMARK SMILES IDX 10 14 7 15 1 16 2 17 3 18 4 19 6 21 5 22 18 23 19 24 20 25
REMARK SMILES IDX 21 26 22 27 23 28 81 29 24 30 80 31 25 32 26 33 27 34 74 35
REMARK SMILES IDX 28 36 79 37 73 38 75 39 29 40 78 41 72 42 71 43 30 45 60 46
REMARK SMILES IDX 41 47 59 48 42 49 45 50 58 51 76 52 43 53 44 54 57 56 77 57
REMARK SMILES IDX 46 58 31 59 32 60 40 61 33 62 39 63 34 64 35 65 36 66 37 67
REMARK SMILES IDX 38 68 61 69 62 70 70 71 63 72 69 73 64 74 65 75 66 76 67 77
REMARK SMILES IDX 68 78 47 79 48 80 56 81 49 82 55 83 50 84 51 85 52 86 53 87
REMARK SMILES IDX 54 88
REMARK H PARENT 11 11 3 20 75 44 45 55
REMARK Flexibility Score: inf
ROOT
ATOM      1  C   UNL A   1      36.963  33.566  28.701  1.00  0.00     0.274 C 
ENDROOT
BRANCH   1   2
ATOM      2  O   UNL A   1      37.122  33.191  30.087  1.00  0.00    -0.462 OA
BRANCH   2   3
ATOM      3  C   UNL A   1      37.981  33.950  30.817  1.00  0.00     0.307 C 
ATOM      4  O   UNL A   1      38.937  34.561  30.349  1.00  0.00    -0.252 OA
BRANCH   3   5
ATOM      5  C   UNL A   1      37.743  33.857  32.300  1.00  0.00     0.146 C 
BRANCH   5   6
ATOM      6  C   UNL A   1      36.718  32.852  32.873  1.00  0.00     0.044 C 
ATOM      7  C   UNL A   1      36.849  32.767  34.431  1.00  0.00     0.024 C 
ATOM      8  C   UNL A   1      37.174  31.364  32.846  1.00  0.00     0.024 C 
ATOM      9  C   UNL A   1      37.799  31.577  34.239  1.00  0.00     0.004 C 
BRANCH   6  10
ATOM     10  N   UNL A   1      35.328  33.150  32.367  1.00  0.00    -0.204 NA
ATOM     11  H   UNL A   1      35.467  33.452  31.402  1.00  0.00     0.142 HD
BRANCH  10  12
ATOM     12  S   UNL A   1      34.177  34.243  32.994  1.00  0.00     0.252 S 
ATOM     13  O   UNL A   1      34.827  34.888  34.117  1.00  0.00    -0.206 OA
ATOM     14  O   UNL A   1      32.995  33.441  33.223  1.00  0.00    -0.206 OA
BRANCH  12  15
ATOM     15  C   UNL A   1      33.798  35.430  31.782  1.00  0.00     0.158 A 
ATOM     16  C   UNL A   1      33.896  37.602  33.205  1.00  0.00     0.067 C 
ATOM     17  C   UNL A   1      33.699  36.759  31.992  1.00  0.00     0.046 A 
ATOM     18  N   UNL A   1      33.345  37.445  30.848  1.00  0.00    -0.315 N 
ATOM     19  C   UNL A   1      33.182  36.711  29.701  1.00  0.00     0.305 A 
ATOM     20  H   UNL A   1      33.216  38.421  30.856  1.00  0.00     0.170 HD
ATOM     21  S   UNL A   1      33.495  35.033  30.093  1.00  0.00    -0.061 S 
ATOM     22  O   UNL A   1      32.850  37.143  28.617  1.00  0.00    -0.257 OA
ENDBRANCH  12  15
ENDBRANCH  10  12
ENDBRANCH   6  10
ENDBRANCH   5   6
ENDBRANCH   3   5
ENDBRANCH   2   3
ENDBRANCH   1   2
BRANCH   1  23
ATOM     23  C   UNL A   1      35.648  33.088  28.092  1.00  0.00     0.275 C 
BRANCH  23  24
ATOM     24  O   UNL A   1      35.038  32.051  28.861  1.00  0.00    -0.458 OA
BRANCH  24  25
ATOM     25  C   UNL A   1      34.819  30.930  28.145  1.00  0.00     0.338 C 
ATOM     26  O   UNL A   1      33.779  30.613  27.586  1.00  0.00    -0.246 OA
BRANCH  25  27
ATOM     27  C   UNL A   1      35.902  29.970  28.325  1.00  0.00     0.060 A 
ATOM     28  C   UNL A   1      36.336  29.741  29.630  1.00  0.00     0.016 A 
ATOM     29  C   UNL A   1      36.710  29.708  27.218  1.00  0.00     0.016 A 
ATOM     30  C   UNL A   1      37.671  29.484  29.846  1.00  0.00     0.010 A 
ATOM     31  C   UNL A   1      38.037  29.433  27.432  1.00  0.00     0.010 A 
ATOM     32  C   UNL A   1      38.522  29.415  28.741  1.00  0.00    -0.014 A 
BRANCH  32  33
ATOM     33  C   UNL A   1      39.923  29.104  28.955  1.00  0.00     0.031 A 
ATOM     34  C   UNL A   1      40.230  29.042  30.408  1.00  0.00     0.074 A 
ATOM     35  C   UNL A   1      40.742  28.737  27.947  1.00  0.00     0.049 A 
ATOM     36  N   UNL A   1      40.981  29.836  31.094  1.00  0.00    -0.248 NA
ATOM     37  C   UNL A   1      39.409  28.136  31.240  1.00  0.00     0.031 C 
ATOM     38  C   UNL A   1      40.396  28.553  26.532  1.00  0.00     0.029 A 
ATOM     39  N   UNL A   1      42.036  28.322  27.986  1.00  0.00    -0.354 N 
ATOM     40  C   UNL A   1      40.930  29.349  32.396  1.00  0.00     0.074 A 
ATOM     41  C   UNL A   1      39.775  28.498  32.468  1.00  0.00     0.031 C 
ATOM     42  C   UNL A   1      41.359  27.820  25.923  1.00  0.00     0.029 A 
ATOM     43  C   UNL A   1      42.446  27.601  26.862  1.00  0.00     0.049 A 
ATOM     44  H   UNL A   1      42.635  28.512  28.744  1.00  0.00     0.167 HD
ATOM     45  C   UNL A   1      42.028  29.391  33.199  1.00  0.00     0.031 A 
ATOM     46  C   UNL A   1      43.569  26.840  26.746  1.00  0.00     0.031 A 
ATOM     47  C   UNL A   1      43.012  30.305  32.682  1.00  0.00     0.049 A 
ATOM     48  C   UNL A   1      44.480  27.260  27.836  1.00  0.00     0.074 A 
ATOM     49  C   UNL A   1      43.075  31.665  32.462  1.00  0.00     0.029 A 
ATOM     50  N   UNL A   1      43.990  29.729  31.909  1.00  0.00    -0.354 N 
ATOM     51  N   UNL A   1      45.026  28.441  27.894  1.00  0.00    -0.248 NA
ATOM     52  C   UNL A   1      44.431  26.532  29.094  1.00  0.00     0.031 C 
ATOM     53  C   UNL A   1      43.853  31.818  31.277  1.00  0.00     0.029 A 
ATOM     54  C   UNL A   1      44.300  30.560  30.868  1.00  0.00     0.049 A 
ATOM     55  H   UNL A   1      44.404  28.852  32.078  1.00  0.00     0.167 HD
ATOM     56  C   UNL A   1      44.972  28.786  29.235  1.00  0.00     0.074 A 
ATOM     57  C   UNL A   1      44.720  27.527  29.937  1.00  0.00     0.031 C 
ATOM     58  C   UNL A   1      44.842  30.094  29.607  1.00  0.00     0.031 A 
BRANCH  45  59
ATOM     59  C   UNL A   1      42.414  28.244  34.111  1.00  0.00    -0.014 A 
ATOM     60  C   UNL A   1      42.815  28.539  35.429  1.00  0.00     0.010 A 
ATOM     61  C   UNL A   1      42.679  26.937  33.646  1.00  0.00     0.010 A 
ATOM     62  C   UNL A   1      43.494  27.597  36.213  1.00  0.00     0.020 A 
ATOM     63  C   UNL A   1      43.318  25.978  34.431  1.00  0.00     0.020 A 
ATOM     64  C   UNL A   1      43.747  26.323  35.702  1.00  0.00     0.054 A 
BRANCH  64  65
ATOM     65  S   UNL A   1      44.683  25.135  36.694  1.00  0.00     0.124 S 
ATOM     66  O   UNL A   1      46.060  25.519  36.404  1.00  0.00    -0.237 OA
ATOM     67  O   UNL A   1      44.211  25.425  38.045  1.00  0.00    -0.237 OA
ATOM     68  O   UNL A   1      44.266  23.841  36.159  1.00  0.00    -0.744 OA
ENDBRANCH  64  65
ENDBRANCH  45  59
BRANCH  46  69
ATOM     69  C   UNL A   1      43.797  25.574  25.994  1.00  0.00    -0.014 A 
ATOM     70  C   UNL A   1      45.094  25.182  25.599  1.00  0.00     0.010 A 
ATOM     71  C   UNL A   1      42.783  24.597  25.942  1.00  0.00     0.010 A 
ATOM     72  C   UNL A   1      45.379  23.850  25.236  1.00  0.00     0.020 A 
ATOM     73  C   UNL A   1      43.058  23.270  25.579  1.00  0.00     0.020 A 
ATOM     74  C   UNL A   1      44.361  22.895  25.251  1.00  0.00     0.054 A 
BRANCH  74  75
ATOM     75  S   UNL A   1      44.765  21.141  24.969  1.00  0.00     0.124 S 
ATOM     76  O   UNL A   1      46.120  21.042  25.505  1.00  0.00    -0.237 OA
ATOM     77  O   UNL A   1      43.733  20.447  25.733  1.00  0.00    -0.237 OA
ATOM     78  O   UNL A   1      44.661  20.993  23.518  1.00  0.00    -0.744 OA
ENDBRANCH  74  75
ENDBRANCH  46  69
BRANCH  58  79
ATOM     79  C   UNL A   1      45.144  31.153  28.572  1.00  0.00    -0.014 A 
ATOM     80  C   UNL A   1      44.226  31.630  27.615  1.00  0.00     0.010 A 
ATOM     81  C   UNL A   1      46.402  31.771  28.663  1.00  0.00     0.010 A 
ATOM     82  C   UNL A   1      44.579  32.681  26.751  1.00  0.00     0.020 A 
ATOM     83  C   UNL A   1      46.751  32.827  27.823  1.00  0.00     0.020 A 
ATOM     84  C   UNL A   1      45.844  33.269  26.860  1.00  0.00     0.054 A 
BRANCH  84  85
ATOM     85  S   UNL A   1      46.307  34.633  25.754  1.00  0.00     0.124 S 
ATOM     86  O   UNL A   1      45.388  34.459  24.633  1.00  0.00    -0.237 OA
ATOM     87  O   UNL A   1      46.079  35.815  26.579  1.00  0.00    -0.237 OA
ATOM     88  O   UNL A   1      47.713  34.368  25.444  1.00  0.00    -0.744 OA
ENDBRANCH  84  85
ENDBRANCH  58  79
ENDBRANCH  32  33
ENDBRANCH  25  27
ENDBRANCH  24  25
ENDBRANCH  23  24
ENDBRANCH   1  23
TORSDOF 18
ENDMDL
