MODEL 1
REMARK VINA RESULT:     -12.8      0.000      0.000
REMARK SMILES Cc1c(NCc2ccccn2)cccc1C(=O)N1CCOC[C@@H]1CC(=O)OCCOC(=O)c1ccc(-c2c3nc(c(-c4ccc(S(=O)(=O)[O-])cc4)c4ccc([nH]4)c(-c4ccc(S(=O)(=O)[O-])cc4)c4nc(c(-c5ccc(S(=O)(=O)[O-])cc5)c5ccc2[nH]5)C=C4)C=C3)cc1
REMARK SMILES IDX 27 1 25 2 26 3 24 4 23 5 18 6 19 7 20 8 22 9 21 10 16 11
REMARK SMILES IDX 17 12 15 13 1 14 2 15 3 16 12 17 14 18 13 19 4 20 5 22 6 23
REMARK SMILES IDX 7 24 11 25 8 26 10 27 9 28 28 29 29 30 30 31 31 32 32 33
REMARK SMILES IDX 33 34 34 35 92 36 35 37 91 38 36 39 37 40 38 41 85 42 39 43
REMARK SMILES IDX 90 44 84 45 86 46 40 47 89 48 83 49 82 50 41 52 71 53 52 54
REMARK SMILES IDX 70 55 53 56 56 57 69 58 87 59 54 60 55 61 68 63 88 64 57 65
REMARK SMILES IDX 42 66 43 67 51 68 44 69 50 70 45 71 46 72 47 73 48 74 49 75
REMARK SMILES IDX 72 76 73 77 81 78 74 79 80 80 75 81 76 82 77 83 78 84 79 85
REMARK SMILES IDX 58 86 59 87 67 88 60 89 66 90 61 91 62 92 63 93 64 94 65 95
REMARK H PARENT 4 21 86 51 56 62
REMARK Flexibility Score: inf
ROOT
ATOM      1  O   UNL A   1      33.378  26.485  24.607  1.00  0.00    -0.462 OA
ENDROOT
BRANCH   1   2
ATOM      2  C   UNL A   1      32.918  25.926  23.467  1.00  0.00     0.308 C 
ATOM      3  O   UNL A   1      33.548  25.934  22.426  1.00  0.00    -0.252 OA
BRANCH   2   4
ATOM      4  C   UNL A   1      31.565  25.274  23.633  1.00  0.00     0.150 C 
BRANCH   4   5
ATOM      5  C   UNL A   1      31.538  24.465  24.929  1.00  0.00     0.122 C 
ATOM      6  N   UNL A   1      31.266  23.032  24.678  1.00  0.00    -0.330 N 
ATOM      7  C   UNL A   1      30.995  22.269  25.890  1.00  0.00     0.148 C 
ATOM      8  C   UNL A   1      29.941  22.968  26.750  1.00  0.00     0.181 C 
ATOM      9  C   UNL A   1      30.557  25.091  25.973  1.00  0.00     0.185 C 
ATOM     10  O   UNL A   1      30.429  24.258  27.140  1.00  0.00    -0.377 OA
BRANCH   6  11
ATOM     11  C   UNL A   1      31.967  22.378  23.671  1.00  0.00     0.254 C 
ATOM     12  O   UNL A   1      31.658  22.515  22.490  1.00  0.00    -0.269 OA
BRANCH  11  13
ATOM     13  C   UNL A   1      33.038  21.388  24.076  1.00  0.00     0.045 A 
ATOM     14  C   UNL A   1      34.874  23.101  24.669  1.00  0.00     0.047 C 
ATOM     15  C   UNL A   1      34.330  21.693  24.591  1.00  0.00    -0.015 A 
ATOM     16  C   UNL A   1      35.187  20.629  25.005  1.00  0.00     0.038 A 
ATOM     17  C   UNL A   1      34.768  19.302  24.828  1.00  0.00     0.026 A 
ATOM     18  C   UNL A   1      32.643  20.039  23.974  1.00  0.00     0.014 A 
ATOM     19  C   UNL A   1      33.501  19.006  24.338  1.00  0.00     0.003 A 
BRANCH  16  20
ATOM     20  N   UNL A   1      36.403  20.905  25.619  1.00  0.00    -0.379 N 
ATOM     21  H   UNL A   1      36.466  20.738  26.588  1.00  0.00     0.160 HD
BRANCH  20  22
ATOM     22  C   UNL A   1      37.590  21.419  24.959  1.00  0.00     0.169 C 
BRANCH  22  23
ATOM     23  C   UNL A   1      38.417  22.308  25.870  1.00  0.00     0.059 A 
ATOM     24  C   UNL A   1      38.099  23.653  26.073  1.00  0.00     0.026 A 
ATOM     25  N   UNL A   1      39.503  21.737  26.454  1.00  0.00    -0.259 NA
ATOM     26  C   UNL A   1      38.891  24.430  26.906  1.00  0.00     0.004 A 
ATOM     27  C   UNL A   1      40.264  22.522  27.249  1.00  0.00     0.111 A 
ATOM     28  C   UNL A   1      40.000  23.857  27.504  1.00  0.00     0.020 A 
ENDBRANCH  22  23
ENDBRANCH  20  22
ENDBRANCH  16  20
ENDBRANCH  11  13
ENDBRANCH   6  11
ENDBRANCH   4   5
ENDBRANCH   2   4
ENDBRANCH   1   2
BRANCH   1  29
ATOM     29  C   UNL A   1      33.356  27.927  24.746  1.00  0.00     0.274 C 
BRANCH  29  30
ATOM     30  C   UNL A   1      32.555  28.608  25.894  1.00  0.00     0.275 C 
BRANCH  30  31
ATOM     31  O   UNL A   1      33.230  29.083  27.100  1.00  0.00    -0.458 OA
BRANCH  31  32
ATOM     32  C   UNL A   1      33.449  30.422  27.333  1.00  0.00     0.338 C 
ATOM     33  O   UNL A   1      32.575  31.240  27.531  1.00  0.00    -0.246 OA
BRANCH  32  34
ATOM     34  C   UNL A   1      34.911  30.654  27.536  1.00  0.00     0.060 A 
ATOM     35  C   UNL A   1      35.543  31.907  27.622  1.00  0.00     0.016 A 
ATOM     36  C   UNL A   1      35.571  29.555  28.024  1.00  0.00     0.016 A 
ATOM     37  C   UNL A   1      36.794  32.007  28.266  1.00  0.00     0.010 A 
ATOM     38  C   UNL A   1      36.431  29.768  29.055  1.00  0.00     0.010 A 
ATOM     39  C   UNL A   1      37.204  30.916  29.025  1.00  0.00    -0.014 A 
BRANCH  39  40
ATOM     40  C   UNL A   1      38.528  30.543  29.515  1.00  0.00     0.031 A 
ATOM     41  C   UNL A   1      39.203  29.320  29.077  1.00  0.00     0.074 A 
ATOM     42  C   UNL A   1      39.176  31.653  29.969  1.00  0.00     0.049 A 
ATOM     43  N   UNL A   1      40.093  28.713  29.776  1.00  0.00    -0.248 NA
ATOM     44  C   UNL A   1      38.958  28.683  27.780  1.00  0.00     0.031 C 
ATOM     45  C   UNL A   1      40.563  32.028  30.155  1.00  0.00     0.029 A 
ATOM     46  N   UNL A   1      38.510  32.836  30.341  1.00  0.00    -0.354 N 
ATOM     47  C   UNL A   1      40.790  27.912  28.893  1.00  0.00     0.074 A 
ATOM     48  C   UNL A   1      39.934  27.764  27.739  1.00  0.00     0.031 C 
ATOM     49  C   UNL A   1      40.589  33.135  30.942  1.00  0.00     0.029 A 
ATOM     50  C   UNL A   1      39.214  33.453  31.350  1.00  0.00     0.049 A 
ATOM     51  H   UNL A   1      37.673  33.169  29.942  1.00  0.00     0.167 HD
ATOM     52  C   UNL A   1      42.124  27.702  29.084  1.00  0.00     0.031 A 
ATOM     53  C   UNL A   1      38.586  33.306  32.558  1.00  0.00     0.031 A 
ATOM     54  C   UNL A   1      42.622  28.573  30.163  1.00  0.00     0.049 A 
ATOM     55  C   UNL A   1      39.267  32.190  33.329  1.00  0.00     0.074 A 
ATOM     56  C   UNL A   1      43.369  29.739  30.166  1.00  0.00     0.029 A 
ATOM     57  N   UNL A   1      42.026  28.509  31.414  1.00  0.00    -0.354 N 
ATOM     58  N   UNL A   1      40.233  31.457  32.842  1.00  0.00    -0.248 NA
ATOM     59  C   UNL A   1      38.915  31.793  34.683  1.00  0.00     0.031 C 
ATOM     60  C   UNL A   1      43.164  30.397  31.422  1.00  0.00     0.029 A 
ATOM     61  C   UNL A   1      42.297  29.631  32.180  1.00  0.00     0.049 A 
ATOM     62  H   UNL A   1      41.475  27.754  31.723  1.00  0.00     0.167 HD
ATOM     63  C   UNL A   1      40.661  30.551  33.753  1.00  0.00     0.074 A 
ATOM     64  C   UNL A   1      39.778  30.780  34.891  1.00  0.00     0.031 C 
ATOM     65  C   UNL A   1      41.708  29.704  33.514  1.00  0.00     0.031 A 
BRANCH  52  66
ATOM     66  C   UNL A   1      43.029  26.966  28.115  1.00  0.00    -0.014 A 
ATOM     67  C   UNL A   1      43.321  25.604  28.335  1.00  0.00     0.010 A 
ATOM     68  C   UNL A   1      43.570  27.535  26.941  1.00  0.00     0.010 A 
ATOM     69  C   UNL A   1      44.141  24.862  27.473  1.00  0.00     0.020 A 
ATOM     70  C   UNL A   1      44.413  26.806  26.076  1.00  0.00     0.020 A 
ATOM     71  C   UNL A   1      44.693  25.470  26.350  1.00  0.00     0.054 A 
BRANCH  71  72
ATOM     72  S   UNL A   1      45.739  24.475  25.251  1.00  0.00     0.124 S 
ATOM     73  O   UNL A   1      46.593  25.484  24.631  1.00  0.00    -0.237 OA
ATOM     74  O   UNL A   1      46.408  23.573  26.185  1.00  0.00    -0.237 OA
ATOM     75  O   UNL A   1      44.785  23.835  24.347  1.00  0.00    -0.744 OA
ENDBRANCH  71  72
ENDBRANCH  52  66
BRANCH  53  76
ATOM     76  C   UNL A   1      37.076  33.578  32.471  1.00  0.00    -0.014 A 
ATOM     77  C   UNL A   1      36.562  34.725  33.142  1.00  0.00     0.010 A 
ATOM     78  C   UNL A   1      36.211  32.958  31.548  1.00  0.00     0.010 A 
ATOM     79  C   UNL A   1      35.298  35.271  32.852  1.00  0.00     0.020 A 
ATOM     80  C   UNL A   1      34.921  33.484  31.275  1.00  0.00     0.020 A 
ATOM     81  C   UNL A   1      34.479  34.646  31.916  1.00  0.00     0.054 A 
BRANCH  81  82
ATOM     82  S   UNL A   1      32.922  35.462  31.406  1.00  0.00     0.124 S 
ATOM     83  O   UNL A   1      32.687  34.881  30.089  1.00  0.00    -0.237 OA
ATOM     84  O   UNL A   1      31.989  35.043  32.452  1.00  0.00    -0.237 OA
ATOM     85  O   UNL A   1      33.274  36.879  31.413  1.00  0.00    -0.744 OA
ENDBRANCH  81  82
ENDBRANCH  53  76
BRANCH  65  86
ATOM     86  C   UNL A   1      42.266  28.811  34.577  1.00  0.00    -0.014 A 
ATOM     87  C   UNL A   1      41.746  27.534  34.821  1.00  0.00     0.010 A 
ATOM     88  C   UNL A   1      43.275  29.283  35.445  1.00  0.00     0.010 A 
ATOM     89  C   UNL A   1      42.315  26.706  35.785  1.00  0.00     0.020 A 
ATOM     90  C   UNL A   1      43.828  28.480  36.434  1.00  0.00     0.020 A 
ATOM     91  C   UNL A   1      43.371  27.177  36.567  1.00  0.00     0.054 A 
BRANCH  91  92
ATOM     92  S   UNL A   1      44.117  26.078  37.783  1.00  0.00     0.124 S 
ATOM     93  O   UNL A   1      43.656  24.763  37.344  1.00  0.00    -0.237 OA
ATOM     94  O   UNL A   1      45.539  26.344  37.589  1.00  0.00    -0.237 OA
ATOM     95  O   UNL A   1      43.561  26.537  39.054  1.00  0.00    -0.744 OA
ENDBRANCH  91  92
ENDBRANCH  65  86
ENDBRANCH  39  40
ENDBRANCH  32  34
ENDBRANCH  31  32
ENDBRANCH  30  31
ENDBRANCH  29  30
ENDBRANCH   1  29
TORSDOF 20
ENDMDL
MODEL 2
REMARK VINA RESULT:     -12.5      3.099      5.358
REMARK SMILES Cc1c(NCc2ccccn2)cccc1C(=O)N1CCOC[C@@H]1CC(=O)OCCOC(=O)c1ccc(-c2c3nc(c(-c4ccc(S(=O)(=O)[O-])cc4)c4ccc([nH]4)c(-c4ccc(S(=O)(=O)[O-])cc4)c4nc(c(-c5ccc(S(=O)(=O)[O-])cc5)c5ccc2[nH]5)C=C4)C=C3)cc1
REMARK SMILES IDX 27 1 25 2 26 3 24 4 23 5 18 6 19 7 20 8 22 9 21 10 16 11
REMARK SMILES IDX 17 12 15 13 1 14 2 15 3 16 12 17 14 18 13 19 4 20 5 22 6 23
REMARK SMILES IDX 7 24 11 25 8 26 10 27 9 28 28 29 29 30 30 31 31 32 32 33
REMARK SMILES IDX 33 34 34 35 92 36 35 37 91 38 36 39 37 40 38 41 85 42 39 43
REMARK SMILES IDX 90 44 84 45 86 46 40 47 89 48 83 49 82 50 41 52 71 53 52 54
REMARK SMILES IDX 70 55 53 56 56 57 69 58 87 59 54 60 55 61 68 63 88 64 57 65
REMARK SMILES IDX 42 66 43 67 51 68 44 69 50 70 45 71 46 72 47 73 48 74 49 75
REMARK SMILES IDX 72 76 73 77 81 78 74 79 80 80 75 81 76 82 77 83 78 84 79 85
REMARK SMILES IDX 58 86 59 87 67 88 60 89 66 90 61 91 62 92 63 93 64 94 65 95
REMARK H PARENT 4 21 86 51 56 62
REMARK Flexibility Score: inf
ROOT
ATOM      1  O   UNL A   1      32.540  29.898  27.622  1.00  0.00    -0.462 OA
ENDROOT
BRANCH   1   2
ATOM      2  C   UNL A   1      32.030  28.698  27.268  1.00  0.00     0.308 C 
ATOM      3  O   UNL A   1      31.434  27.977  28.046  1.00  0.00    -0.252 OA
BRANCH   2   4
ATOM      4  C   UNL A   1      32.254  28.369  25.810  1.00  0.00     0.150 C 
BRANCH   4   5
ATOM      5  C   UNL A   1      30.936  28.480  25.048  1.00  0.00     0.122 C 
ATOM      6  N   UNL A   1      30.614  27.233  24.318  1.00  0.00    -0.330 N 
ATOM      7  C   UNL A   1      29.499  27.370  23.392  1.00  0.00     0.148 C 
ATOM      8  C   UNL A   1      29.683  28.594  22.494  1.00  0.00     0.181 C 
ATOM      9  C   UNL A   1      30.913  29.742  24.124  1.00  0.00     0.185 C 
ATOM     10  O   UNL A   1      29.728  29.774  23.306  1.00  0.00    -0.377 OA
BRANCH   6  11
ATOM     11  C   UNL A   1      30.734  26.014  24.979  1.00  0.00     0.254 C 
ATOM     12  O   UNL A   1      30.174  25.816  26.054  1.00  0.00    -0.269 OA
BRANCH  11  13
ATOM     13  C   UNL A   1      31.681  24.983  24.403  1.00  0.00     0.045 A 
ATOM     14  C   UNL A   1      30.717  22.923  25.623  1.00  0.00     0.047 C 
ATOM     15  C   UNL A   1      31.649  23.577  24.628  1.00  0.00    -0.015 A 
ATOM     16  C   UNL A   1      32.571  22.737  23.934  1.00  0.00     0.038 A 
ATOM     17  C   UNL A   1      33.537  23.319  23.101  1.00  0.00     0.026 A 
ATOM     18  C   UNL A   1      32.634  25.511  23.510  1.00  0.00     0.014 A 
ATOM     19  C   UNL A   1      33.558  24.691  22.872  1.00  0.00     0.003 A 
BRANCH  16  20
ATOM     20  N   UNL A   1      32.482  21.354  24.047  1.00  0.00    -0.379 N 
ATOM     21  H   UNL A   1      31.847  20.894  23.450  1.00  0.00     0.160 HD
BRANCH  20  22
ATOM     22  C   UNL A   1      33.243  20.526  24.967  1.00  0.00     0.169 C 
BRANCH  22  23
ATOM     23  C   UNL A   1      33.514  19.142  24.407  1.00  0.00     0.059 A 
ATOM     24  C   UNL A   1      34.712  18.469  24.660  1.00  0.00     0.026 A 
ATOM     25  N   UNL A   1      32.548  18.604  23.619  1.00  0.00    -0.259 NA
ATOM     26  C   UNL A   1      34.921  17.209  24.117  1.00  0.00     0.004 A 
ATOM     27  C   UNL A   1      32.786  17.382  23.092  1.00  0.00     0.111 A 
ATOM     28  C   UNL A   1      33.942  16.654  23.312  1.00  0.00     0.020 A 
ENDBRANCH  22  23
ENDBRANCH  20  22
ENDBRANCH  16  20
ENDBRANCH  11  13
ENDBRANCH   6  11
ENDBRANCH   4   5
ENDBRANCH   2   4
ENDBRANCH   1   2
BRANCH   1  29
ATOM     29  C   UNL A   1      33.694  30.413  26.912  1.00  0.00     0.274 C 
BRANCH  29  30
ATOM     30  C   UNL A   1      34.781  31.247  27.651  1.00  0.00     0.275 C 
BRANCH  30  31
ATOM     31  O   UNL A   1      36.149  30.748  27.781  1.00  0.00    -0.458 OA
BRANCH  31  32
ATOM     32  C   UNL A   1      36.531  29.937  28.827  1.00  0.00     0.338 C 
ATOM     33  O   UNL A   1      35.855  29.712  29.808  1.00  0.00    -0.246 OA
BRANCH  32  34
ATOM     34  C   UNL A   1      37.782  29.210  28.453  1.00  0.00     0.060 A 
ATOM     35  C   UNL A   1      38.713  29.617  27.481  1.00  0.00     0.016 A 
ATOM     36  C   UNL A   1      38.179  28.296  29.395  1.00  0.00     0.016 A 
ATOM     37  C   UNL A   1      40.036  29.132  27.546  1.00  0.00     0.010 A 
ATOM     38  C   UNL A   1      39.496  28.300  29.734  1.00  0.00     0.010 A 
ATOM     39  C   UNL A   1      40.422  28.501  28.724  1.00  0.00    -0.014 A 
BRANCH  39  40
ATOM     40  C   UNL A   1      41.542  27.607  29.001  1.00  0.00     0.031 A 
ATOM     41  C   UNL A   1      41.559  26.216  28.545  1.00  0.00     0.074 A 
ATOM     42  C   UNL A   1      42.663  28.343  29.248  1.00  0.00     0.049 A 
ATOM     43  N   UNL A   1      42.237  25.289  29.120  1.00  0.00    -0.248 NA
ATOM     44  C   UNL A   1      40.831  25.745  27.363  1.00  0.00     0.031 C 
ATOM     45  C   UNL A   1      44.089  28.104  29.159  1.00  0.00     0.029 A 
ATOM     46  N   UNL A   1      42.625  29.695  29.641  1.00  0.00    -0.354 N 
ATOM     47  C   UNL A   1      42.360  24.275  28.192  1.00  0.00     0.074 A 
ATOM     48  C   UNL A   1      41.315  24.503  27.221  1.00  0.00     0.031 C 
ATOM     49  C   UNL A   1      44.717  29.096  29.843  1.00  0.00     0.029 A 
ATOM     50  C   UNL A   1      43.700  29.957  30.461  1.00  0.00     0.049 A 
ATOM     51  H   UNL A   1      41.940  30.348  29.371  1.00  0.00     0.167 HD
ATOM     52  C   UNL A   1      43.500  23.527  28.162  1.00  0.00     0.031 A 
ATOM     53  C   UNL A   1      43.311  30.080  31.768  1.00  0.00     0.031 A 
ATOM     54  C   UNL A   1      44.508  24.105  29.067  1.00  0.00     0.049 A 
ATOM     55  C   UNL A   1      43.607  28.778  32.490  1.00  0.00     0.074 A 
ATOM     56  C   UNL A   1      45.654  24.853  28.851  1.00  0.00     0.029 A 
ATOM     57  N   UNL A   1      44.190  24.290  30.404  1.00  0.00    -0.354 N 
ATOM     58  N   UNL A   1      44.074  27.711  31.897  1.00  0.00    -0.248 NA
ATOM     59  C   UNL A   1      43.389  28.558  33.911  1.00  0.00     0.031 C 
ATOM     60  C   UNL A   1      45.981  25.531  30.069  1.00  0.00     0.029 A 
ATOM     61  C   UNL A   1      45.038  25.193  31.024  1.00  0.00     0.049 A 
ATOM     62  H   UNL A   1      43.447  23.832  30.861  1.00  0.00     0.167 HD
ATOM     63  C   UNL A   1      44.258  26.705  32.785  1.00  0.00     0.074 A 
ATOM     64  C   UNL A   1      43.783  27.276  34.040  1.00  0.00     0.031 C 
ATOM     65  C   UNL A   1      44.798  25.500  32.431  1.00  0.00     0.031 A 
BRANCH  52  66
ATOM     66  C   UNL A   1      43.820  22.484  27.107  1.00  0.00    -0.014 A 
ATOM     67  C   UNL A   1      45.097  22.470  26.510  1.00  0.00     0.010 A 
ATOM     68  C   UNL A   1      42.937  21.457  26.709  1.00  0.00     0.010 A 
ATOM     69  C   UNL A   1      45.462  21.527  25.537  1.00  0.00     0.020 A 
ATOM     70  C   UNL A   1      43.283  20.516  25.717  1.00  0.00     0.020 A 
ATOM     71  C   UNL A   1      44.548  20.558  25.137  1.00  0.00     0.054 A 
BRANCH  71  72
ATOM     72  S   UNL A   1      45.060  19.348  23.885  1.00  0.00     0.124 S 
ATOM     73  O   UNL A   1      44.410  18.124  24.347  1.00  0.00    -0.237 OA
ATOM     74  O   UNL A   1      44.520  19.921  22.655  1.00  0.00    -0.237 OA
ATOM     75  O   UNL A   1      46.519  19.345  23.980  1.00  0.00    -0.744 OA
ENDBRANCH  71  72
ENDBRANCH  52  66
BRANCH  53  76
ATOM     76  C   UNL A   1      42.059  30.957  31.927  1.00  0.00    -0.014 A 
ATOM     77  C   UNL A   1      42.145  32.324  31.532  1.00  0.00     0.010 A 
ATOM     78  C   UNL A   1      40.763  30.455  32.153  1.00  0.00     0.010 A 
ATOM     79  C   UNL A   1      41.006  33.117  31.295  1.00  0.00     0.020 A 
ATOM     80  C   UNL A   1      39.612  31.260  31.949  1.00  0.00     0.020 A 
ATOM     81  C   UNL A   1      39.740  32.581  31.505  1.00  0.00     0.054 A 
BRANCH  81  82
ATOM     82  S   UNL A   1      38.267  33.551  31.017  1.00  0.00     0.124 S 
ATOM     83  O   UNL A   1      37.906  32.943  29.741  1.00  0.00    -0.237 OA
ATOM     84  O   UNL A   1      37.340  33.295  32.118  1.00  0.00    -0.237 OA
ATOM     85  O   UNL A   1      38.782  34.915  30.937  1.00  0.00    -0.744 OA
ENDBRANCH  81  82
ENDBRANCH  53  76
BRANCH  65  86
ATOM     86  C   UNL A   1      45.132  24.450  33.444  1.00  0.00    -0.014 A 
ATOM     87  C   UNL A   1      44.180  23.531  33.901  1.00  0.00     0.010 A 
ATOM     88  C   UNL A   1      46.406  24.430  34.053  1.00  0.00     0.010 A 
ATOM     89  C   UNL A   1      44.531  22.534  34.809  1.00  0.00     0.020 A 
ATOM     90  C   UNL A   1      46.758  23.464  34.986  1.00  0.00     0.020 A 
ATOM     91  C   UNL A   1      45.827  22.493  35.325  1.00  0.00     0.054 A 
BRANCH  91  92
ATOM     92  S   UNL A   1      46.270  21.176  36.470  1.00  0.00     0.124 S 
ATOM     93  O   UNL A   1      45.642  21.613  37.714  1.00  0.00    -0.237 OA
ATOM     94  O   UNL A   1      45.662  20.013  35.832  1.00  0.00    -0.237 OA
ATOM     95  O   UNL A   1      47.731  21.196  36.474  1.00  0.00    -0.744 OA
ENDBRANCH  91  92
ENDBRANCH  65  86
ENDBRANCH  39  40
ENDBRANCH  32  34
ENDBRANCH  31  32
ENDBRANCH  30  31
ENDBRANCH  29  30
ENDBRANCH   1  29
TORSDOF 20
ENDMDL
MODEL 3
REMARK VINA RESULT:     -12.5      1.212      2.116
REMARK SMILES Cc1c(NCc2ccccn2)cccc1C(=O)N1CCOC[C@@H]1CC(=O)OCCOC(=O)c1ccc(-c2c3nc(c(-c4ccc(S(=O)(=O)[O-])cc4)c4ccc([nH]4)c(-c4ccc(S(=O)(=O)[O-])cc4)c4nc(c(-c5ccc(S(=O)(=O)[O-])cc5)c5ccc2[nH]5)C=C4)C=C3)cc1
REMARK SMILES IDX 27 1 25 2 26 3 24 4 23 5 18 6 19 7 20 8 22 9 21 10 16 11
REMARK SMILES IDX 17 12 15 13 1 14 2 15 3 16 12 17 14 18 13 19 4 20 5 22 6 23
REMARK SMILES IDX 7 24 11 25 8 26 10 27 9 28 28 29 29 30 30 31 31 32 32 33
REMARK SMILES IDX 33 34 34 35 92 36 35 37 91 38 36 39 37 40 38 41 85 42 39 43
REMARK SMILES IDX 90 44 84 45 86 46 40 47 89 48 83 49 82 50 41 52 71 53 52 54
REMARK SMILES IDX 70 55 53 56 56 57 69 58 87 59 54 60 55 61 68 63 88 64 57 65
REMARK SMILES IDX 42 66 43 67 51 68 44 69 50 70 45 71 46 72 47 73 48 74 49 75
REMARK SMILES IDX 72 76 73 77 81 78 74 79 80 80 75 81 76 82 77 83 78 84 79 85
REMARK SMILES IDX 58 86 59 87 67 88 60 89 66 90 61 91 62 92 63 93 64 94 65 95
REMARK H PARENT 4 21 86 51 56 62
REMARK Flexibility Score: inf
ROOT
ATOM      1  O   UNL A   1      31.371  26.864  26.796  1.00  0.00    -0.462 OA
ENDROOT
BRANCH   1   2
ATOM      2  C   UNL A   1      31.381  25.548  26.494  1.00  0.00     0.308 C 
ATOM      3  O   UNL A   1      30.425  24.819  26.681  1.00  0.00    -0.252 OA
BRANCH   2   4
ATOM      4  C   UNL A   1      32.684  25.094  25.878  1.00  0.00     0.150 C 
BRANCH   4   5
ATOM      5  C   UNL A   1      32.409  24.370  24.562  1.00  0.00     0.122 C 
ATOM      6  N   UNL A   1      33.449  23.362  24.259  1.00  0.00    -0.330 N 
ATOM      7  C   UNL A   1      33.360  22.819  22.910  1.00  0.00     0.148 C 
ATOM      8  C   UNL A   1      33.253  23.941  21.876  1.00  0.00     0.181 C 
ATOM      9  C   UNL A   1      32.189  25.381  23.388  1.00  0.00     0.185 C 
ATOM     10  O   UNL A   1      32.064  24.701  22.125  1.00  0.00    -0.377 OA
BRANCH   6  11
ATOM     11  C   UNL A   1      33.851  22.485  25.261  1.00  0.00     0.254 C 
ATOM     12  O   UNL A   1      33.157  22.296  26.257  1.00  0.00    -0.269 OA
BRANCH  11  13
ATOM     13  C   UNL A   1      35.230  21.870  25.157  1.00  0.00     0.045 A 
ATOM     14  C   UNL A   1      36.592  24.031  25.526  1.00  0.00     0.047 C 
ATOM     15  C   UNL A   1      36.476  22.535  25.338  1.00  0.00    -0.015 A 
ATOM     16  C   UNL A   1      37.686  21.780  25.288  1.00  0.00     0.038 A 
ATOM     17  C   UNL A   1      37.628  20.410  24.988  1.00  0.00     0.026 A 
ATOM     18  C   UNL A   1      35.225  20.481  24.916  1.00  0.00     0.014 A 
ATOM     19  C   UNL A   1      36.410  19.760  24.824  1.00  0.00     0.003 A 
BRANCH  16  20
ATOM     20  N   UNL A   1      38.904  22.384  25.579  1.00  0.00    -0.379 N 
ATOM     21  H   UNL A   1      39.237  23.055  24.939  1.00  0.00     0.160 HD
BRANCH  20  22
ATOM     22  C   UNL A   1      39.730  22.113  26.742  1.00  0.00     0.169 C 
BRANCH  22  23
ATOM     23  C   UNL A   1      40.987  21.340  26.389  1.00  0.00     0.059 A 
ATOM     24  C   UNL A   1      42.179  21.987  26.053  1.00  0.00     0.026 A 
ATOM     25  N   UNL A   1      40.887  19.985  26.383  1.00  0.00    -0.259 NA
ATOM     26  C   UNL A   1      43.300  21.238  25.726  1.00  0.00     0.004 A 
ATOM     27  C   UNL A   1      41.991  19.283  26.046  1.00  0.00     0.111 A 
ATOM     28  C   UNL A   1      43.206  19.858  25.716  1.00  0.00     0.020 A 
ENDBRANCH  22  23
ENDBRANCH  20  22
ENDBRANCH  16  20
ENDBRANCH  11  13
ENDBRANCH   6  11
ENDBRANCH   4   5
ENDBRANCH   2   4
ENDBRANCH   1   2
BRANCH   1  29
ATOM     29  C   UNL A   1      31.434  27.836  25.723  1.00  0.00     0.274 C 
BRANCH  29  30
ATOM     30  C   UNL A   1      32.497  28.973  25.735  1.00  0.00     0.275 C 
BRANCH  30  31
ATOM     31  O   UNL A   1      33.103  29.420  26.988  1.00  0.00    -0.458 OA
BRANCH  31  32
ATOM     32  C   UNL A   1      33.286  30.754  27.274  1.00  0.00     0.338 C 
ATOM     33  O   UNL A   1      32.390  31.542  27.491  1.00  0.00    -0.246 OA
BRANCH  32  34
ATOM     34  C   UNL A   1      34.740  31.013  27.503  1.00  0.00     0.060 A 
ATOM     35  C   UNL A   1      35.341  32.277  27.636  1.00  0.00     0.016 A 
ATOM     36  C   UNL A   1      35.419  29.916  27.966  1.00  0.00     0.016 A 
ATOM     37  C   UNL A   1      36.581  32.387  28.299  1.00  0.00     0.010 A 
ATOM     38  C   UNL A   1      36.261  30.116  29.015  1.00  0.00     0.010 A 
ATOM     39  C   UNL A   1      37.007  31.282  29.030  1.00  0.00    -0.014 A 
BRANCH  39  40
ATOM     40  C   UNL A   1      38.333  30.925  29.526  1.00  0.00     0.031 A 
ATOM     41  C   UNL A   1      39.034  29.722  29.075  1.00  0.00     0.074 A 
ATOM     42  C   UNL A   1      38.957  32.039  30.005  1.00  0.00     0.049 A 
ATOM     43  N   UNL A   1      39.929  29.119  29.771  1.00  0.00    -0.248 NA
ATOM     44  C   UNL A   1      38.813  29.103  27.765  1.00  0.00     0.031 C 
ATOM     45  C   UNL A   1      40.334  32.435  30.210  1.00  0.00     0.029 A 
ATOM     46  N   UNL A   1      38.265  33.203  30.391  1.00  0.00    -0.354 N 
ATOM     47  C   UNL A   1      40.648  28.347  28.882  1.00  0.00     0.074 A 
ATOM     48  C   UNL A   1      39.805  28.202  27.717  1.00  0.00     0.031 C 
ATOM     49  C   UNL A   1      40.333  33.529  31.016  1.00  0.00     0.029 A 
ATOM     50  C   UNL A   1      38.949  33.816  31.417  1.00  0.00     0.049 A 
ATOM     51  H   UNL A   1      37.426  33.527  29.989  1.00  0.00     0.167 HD
ATOM     52  C   UNL A   1      41.984  28.157  29.082  1.00  0.00     0.031 A 
ATOM     53  C   UNL A   1      38.313  33.637  32.615  1.00  0.00     0.031 A 
ATOM     54  C   UNL A   1      42.456  29.019  30.180  1.00  0.00     0.049 A 
ATOM     55  C   UNL A   1      39.007  32.521  33.374  1.00  0.00     0.074 A 
ATOM     56  C   UNL A   1      43.182  30.198  30.210  1.00  0.00     0.029 A 
ATOM     57  N   UNL A   1      41.850  28.923  31.424  1.00  0.00    -0.354 N 
ATOM     58  N   UNL A   1      39.991  31.814  32.884  1.00  0.00    -0.248 NA
ATOM     59  C   UNL A   1      38.650  32.094  34.719  1.00  0.00     0.031 C 
ATOM     60  C   UNL A   1      42.954  30.831  31.474  1.00  0.00     0.029 A 
ATOM     61  C   UNL A   1      42.094  30.036  32.211  1.00  0.00     0.049 A 
ATOM     62  H   UNL A   1      41.310  28.153  31.715  1.00  0.00     0.167 HD
ATOM     63  C   UNL A   1      40.427  30.900  33.784  1.00  0.00     0.074 A 
ATOM     64  C   UNL A   1      39.530  31.094  34.917  1.00  0.00     0.031 C 
ATOM     65  C   UNL A   1      41.491  30.077  33.541  1.00  0.00     0.031 A 
BRANCH  52  66
ATOM     66  C   UNL A   1      42.911  27.454  28.110  1.00  0.00    -0.014 A 
ATOM     67  C   UNL A   1      42.998  26.047  28.127  1.00  0.00     0.010 A 
ATOM     68  C   UNL A   1      43.670  28.111  27.116  1.00  0.00     0.010 A 
ATOM     69  C   UNL A   1      43.827  25.333  27.248  1.00  0.00     0.020 A 
ATOM     70  C   UNL A   1      44.524  27.408  26.240  1.00  0.00     0.020 A 
ATOM     71  C   UNL A   1      44.595  26.019  26.313  1.00  0.00     0.054 A 
BRANCH  71  72
ATOM     72  S   UNL A   1      45.646  25.062  25.185  1.00  0.00     0.124 S 
ATOM     73  O   UNL A   1      44.665  24.351  24.370  1.00  0.00    -0.237 OA
ATOM     74  O   UNL A   1      46.399  26.106  24.495  1.00  0.00    -0.237 OA
ATOM     75  O   UNL A   1      46.435  24.215  26.079  1.00  0.00    -0.744 OA
ENDBRANCH  71  72
ENDBRANCH  52  66
BRANCH  53  76
ATOM     76  C   UNL A   1      36.799  33.883  32.519  1.00  0.00    -0.014 A 
ATOM     77  C   UNL A   1      36.255  34.994  33.225  1.00  0.00     0.010 A 
ATOM     78  C   UNL A   1      35.958  33.282  31.563  1.00  0.00     0.010 A 
ATOM     79  C   UNL A   1      34.984  35.526  32.938  1.00  0.00     0.020 A 
ATOM     80  C   UNL A   1      34.662  33.792  31.293  1.00  0.00     0.020 A 
ATOM     81  C   UNL A   1      34.189  34.921  31.970  1.00  0.00     0.054 A 
BRANCH  81  82
ATOM     82  S   UNL A   1      32.623  35.725  31.470  1.00  0.00     0.124 S 
ATOM     83  O   UNL A   1      31.693  35.249  32.488  1.00  0.00    -0.237 OA
ATOM     84  O   UNL A   1      32.960  37.146  31.544  1.00  0.00    -0.237 OA
ATOM     85  O   UNL A   1      32.399  35.205  30.125  1.00  0.00    -0.744 OA
ENDBRANCH  81  82
ENDBRANCH  53  76
BRANCH  65  86
ATOM     86  C   UNL A   1      42.056  29.176  34.594  1.00  0.00    -0.014 A 
ATOM     87  C   UNL A   1      41.620  27.855  34.751  1.00  0.00     0.010 A 
ATOM     88  C   UNL A   1      42.977  29.677  35.538  1.00  0.00     0.010 A 
ATOM     89  C   UNL A   1      42.196  27.024  35.709  1.00  0.00     0.020 A 
ATOM     90  C   UNL A   1      43.534  28.869  36.521  1.00  0.00     0.020 A 
ATOM     91  C   UNL A   1      43.170  27.532  36.571  1.00  0.00     0.054 A 
BRANCH  91  92
ATOM     92  S   UNL A   1      43.928  26.432  37.778  1.00  0.00     0.124 S 
ATOM     93  O   UNL A   1      45.045  25.862  37.029  1.00  0.00    -0.237 OA
ATOM     94  O   UNL A   1      44.293  27.365  38.840  1.00  0.00    -0.237 OA
ATOM     95  O   UNL A   1      42.861  25.491  38.110  1.00  0.00    -0.744 OA
ENDBRANCH  91  92
ENDBRANCH  65  86
ENDBRANCH  39  40
ENDBRANCH  32  34
ENDBRANCH  31  32
ENDBRANCH  30  31
ENDBRANCH  29  30
ENDBRANCH   1  29
TORSDOF 20
ENDMDL
