MODEL 1
REMARK VINA RESULT:      -9.8      0.000      0.000
REMARK SMILES CCC(CC)(CC)NC(=O)NC[C@@H]1CC[C@H](C(=O)OCCOC(=O)c2ccc(-c3c4nc(c(-c5ccc(S(=O)(=O)[O-])cc5)c5ccc([nH]5)c(-c5ccc(S(=O)(=O)[O-])cc5)c5nc(c(-c6ccc(S(=O)(=O)[O-])cc6)c6ccc3[nH]6)C=C5)C=C4)cc2)O1
REMARK SMILES IDX 20 1 19 2 17 3 18 4 16 5 13 6 14 7 85 8 15 9 12 10 11 11
REMARK SMILES IDX 8 12 9 13 10 15 3 17 2 18 1 19 4 20 5 21 6 22 7 23 21 24
REMARK SMILES IDX 22 25 23 26 24 27 25 28 26 29 84 30 27 31 83 32 28 33 29 34
REMARK SMILES IDX 30 35 77 36 31 37 82 38 76 39 78 40 32 41 81 42 75 43 74 44
REMARK SMILES IDX 33 46 63 47 44 48 62 49 45 50 48 51 61 52 79 53 46 54 47 55
REMARK SMILES IDX 60 57 80 58 49 59 34 60 35 61 43 62 36 63 42 64 37 65 38 66
REMARK SMILES IDX 39 67 40 68 41 69 64 70 65 71 73 72 66 73 72 74 67 75 68 76
REMARK SMILES IDX 69 77 70 78 71 79 50 80 51 81 59 82 52 83 58 84 53 85 54 86
REMARK SMILES IDX 55 87 56 88 57 89
REMARK H PARENT 8 14 11 16 78 45 48 56
REMARK Flexibility Score: inf
ROOT
ATOM      1  C   UNL A   1      31.862  28.104  26.049  1.00  0.00     0.274 C 
ENDROOT
BRANCH   1   2
ATOM      2  O   UNL A   1      31.901  29.035  24.950  1.00  0.00    -0.460 OA
BRANCH   2   3
ATOM      3  C   UNL A   1      31.281  28.618  23.815  1.00  0.00     0.335 C 
ATOM      4  O   UNL A   1      30.062  28.595  23.669  1.00  0.00    -0.249 OA
BRANCH   3   5
ATOM      5  C   UNL A   1      32.258  28.154  22.720  1.00  0.00     0.228 C 
ATOM      6  C   UNL A   1      32.545  25.837  22.630  1.00  0.00     0.138 C 
ATOM      7  C   UNL A   1      33.640  26.413  23.527  1.00  0.00     0.037 C 
ATOM      8  O   UNL A   1      31.810  26.947  22.097  1.00  0.00    -0.361 OA
ATOM      9  C   UNL A   1      33.682  27.876  23.147  1.00  0.00     0.047 C 
BRANCH   6  10
ATOM     10  C   UNL A   1      31.589  24.798  23.267  1.00  0.00     0.149 C 
BRANCH  10  11
ATOM     11  N   UNL A   1      31.636  23.472  22.669  1.00  0.00    -0.336 N 
ATOM     12  N   UNL A   1      33.280  21.958  23.539  1.00  0.00    -0.333 N 
ATOM     13  C   UNL A   1      32.240  22.311  22.813  1.00  0.00     0.315 C 
ATOM     14  H   UNL A   1      33.382  20.988  23.403  1.00  0.00     0.165 HD
ATOM     15  O   UNL A   1      31.744  21.390  22.143  1.00  0.00    -0.249 OA
ATOM     16  H   UNL A   1      31.012  23.429  21.908  1.00  0.00     0.165 HD
BRANCH  12  17
ATOM     17  C   UNL A   1      34.379  22.353  24.478  1.00  0.00     0.041 C 
BRANCH  17  18
ATOM     18  C   UNL A   1      35.213  21.234  25.128  1.00  0.00     0.025 C 
ATOM     19  C   UNL A   1      34.709  19.840  24.829  1.00  0.00     0.006 C 
ENDBRANCH  17  18
BRANCH  17  20
ATOM     20  C   UNL A   1      33.648  23.195  25.589  1.00  0.00     0.025 C 
ATOM     21  C   UNL A   1      34.196  23.109  27.009  1.00  0.00     0.006 C 
ENDBRANCH  17  20
BRANCH  17  22
ATOM     22  C   UNL A   1      35.341  23.312  23.708  1.00  0.00     0.025 C 
ATOM     23  C   UNL A   1      36.759  22.787  23.514  1.00  0.00     0.006 C 
ENDBRANCH  17  22
ENDBRANCH  12  17
ENDBRANCH  10  11
ENDBRANCH   6  10
ENDBRANCH   3   5
ENDBRANCH   2   3
ENDBRANCH   1   2
BRANCH   1  24
ATOM     24  C   UNL A   1      32.334  28.751  27.354  1.00  0.00     0.275 C 
BRANCH  24  25
ATOM     25  O   UNL A   1      33.770  28.805  27.460  1.00  0.00    -0.458 OA
BRANCH  25  26
ATOM     26  C   UNL A   1      34.289  30.032  27.699  1.00  0.00     0.338 C 
ATOM     27  O   UNL A   1      33.698  31.102  27.681  1.00  0.00    -0.246 OA
BRANCH  26  28
ATOM     28  C   UNL A   1      35.690  29.910  28.121  1.00  0.00     0.060 A 
ATOM     29  C   UNL A   1      36.692  30.066  27.160  1.00  0.00     0.016 A 
ATOM     30  C   UNL A   1      36.011  29.539  29.427  1.00  0.00     0.016 A 
ATOM     31  C   UNL A   1      38.021  29.840  27.490  1.00  0.00     0.010 A 
ATOM     32  C   UNL A   1      37.350  29.315  29.761  1.00  0.00     0.010 A 
ATOM     33  C   UNL A   1      38.358  29.451  28.789  1.00  0.00    -0.014 A 
BRANCH  33  34
ATOM     34  C   UNL A   1      39.765  29.128  29.104  1.00  0.00     0.031 A 
ATOM     35  C   UNL A   1      40.632  30.163  29.760  1.00  0.00     0.074 A 
ATOM     36  C   UNL A   1      40.242  27.898  28.838  1.00  0.00     0.049 A 
ATOM     37  N   UNL A   1      41.904  30.106  30.053  1.00  0.00    -0.248 NA
ATOM     38  C   UNL A   1      39.980  31.428  30.137  1.00  0.00     0.031 C 
ATOM     39  C   UNL A   1      39.464  26.796  28.268  1.00  0.00     0.029 A 
ATOM     40  N   UNL A   1      41.494  27.369  29.016  1.00  0.00    -0.354 N 
ATOM     41  C   UNL A   1      42.213  31.332  30.630  1.00  0.00     0.074 A 
ATOM     42  C   UNL A   1      40.997  32.116  30.637  1.00  0.00     0.031 C 
ATOM     43  C   UNL A   1      40.260  25.722  28.140  1.00  0.00     0.029 A 
ATOM     44  C   UNL A   1      41.609  26.073  28.574  1.00  0.00     0.049 A 
ATOM     45  H   UNL A   1      42.239  27.870  29.421  1.00  0.00     0.167 HD
ATOM     46  C   UNL A   1      43.405  31.762  31.105  1.00  0.00     0.031 A 
ATOM     47  C   UNL A   1      42.688  25.272  28.499  1.00  0.00     0.031 A 
ATOM     48  C   UNL A   1      44.608  30.973  31.087  1.00  0.00     0.049 A 
ATOM     49  C   UNL A   1      44.017  25.799  28.968  1.00  0.00     0.074 A 
ATOM     50  C   UNL A   1      45.872  31.316  31.533  1.00  0.00     0.029 A 
ATOM     51  N   UNL A   1      44.695  29.679  30.593  1.00  0.00    -0.354 N 
ATOM     52  N   UNL A   1      44.300  26.969  29.491  1.00  0.00    -0.248 NA
ATOM     53  C   UNL A   1      45.170  24.900  28.834  1.00  0.00     0.031 C 
ATOM     54  C   UNL A   1      46.733  30.245  31.269  1.00  0.00     0.029 A 
ATOM     55  C   UNL A   1      45.995  29.216  30.704  1.00  0.00     0.049 A 
ATOM     56  H   UNL A   1      43.943  29.166  30.218  1.00  0.00     0.167 HD
ATOM     57  C   UNL A   1      45.662  26.943  29.762  1.00  0.00     0.074 A 
ATOM     58  C   UNL A   1      46.142  25.635  29.361  1.00  0.00     0.031 C 
ATOM     59  C   UNL A   1      46.447  27.911  30.293  1.00  0.00     0.031 A 
BRANCH  46  60
ATOM     60  C   UNL A   1      43.472  33.166  31.640  1.00  0.00    -0.014 A 
ATOM     61  C   UNL A   1      43.807  34.250  30.810  1.00  0.00     0.010 A 
ATOM     62  C   UNL A   1      43.170  33.407  32.993  1.00  0.00     0.010 A 
ATOM     63  C   UNL A   1      43.875  35.545  31.331  1.00  0.00     0.020 A 
ATOM     64  C   UNL A   1      43.216  34.703  33.514  1.00  0.00     0.020 A 
ATOM     65  C   UNL A   1      43.585  35.763  32.682  1.00  0.00     0.054 A 
BRANCH  65  66
ATOM     66  S   UNL A   1      43.668  37.454  33.332  1.00  0.00     0.124 S 
ATOM     67  O   UNL A   1      44.925  37.430  34.076  1.00  0.00    -0.237 OA
ATOM     68  O   UNL A   1      43.672  38.267  32.118  1.00  0.00    -0.237 OA
ATOM     69  O   UNL A   1      42.462  37.570  34.150  1.00  0.00    -0.744 OA
ENDBRANCH  65  66
ENDBRANCH  46  60
BRANCH  47  70
ATOM     70  C   UNL A   1      42.561  23.908  27.919  1.00  0.00    -0.014 A 
ATOM     71  C   UNL A   1      42.332  22.795  28.744  1.00  0.00     0.010 A 
ATOM     72  C   UNL A   1      42.656  23.722  26.528  1.00  0.00     0.010 A 
ATOM     73  C   UNL A   1      42.210  21.517  28.189  1.00  0.00     0.020 A 
ATOM     74  C   UNL A   1      42.509  22.451  25.967  1.00  0.00     0.020 A 
ATOM     75  C   UNL A   1      42.299  21.353  26.803  1.00  0.00     0.054 A 
BRANCH  75  76
ATOM     76  S   UNL A   1      42.082  19.696  26.096  1.00  0.00     0.124 S 
ATOM     77  O   UNL A   1      42.462  18.838  27.214  1.00  0.00    -0.237 OA
ATOM     78  O   UNL A   1      40.665  19.683  25.742  1.00  0.00    -0.237 OA
ATOM     79  O   UNL A   1      43.000  19.688  24.959  1.00  0.00    -0.744 OA
ENDBRANCH  75  76
ENDBRANCH  47  70
BRANCH  59  80
ATOM     80  C   UNL A   1      47.901  27.583  30.492  1.00  0.00    -0.014 A 
ATOM     81  C   UNL A   1      48.331  26.847  31.610  1.00  0.00     0.010 A 
ATOM     82  C   UNL A   1      48.840  27.976  29.522  1.00  0.00     0.010 A 
ATOM     83  C   UNL A   1      49.683  26.533  31.769  1.00  0.00     0.020 A 
ATOM     84  C   UNL A   1      50.189  27.644  29.666  1.00  0.00     0.020 A 
ATOM     85  C   UNL A   1      50.604  26.937  30.797  1.00  0.00     0.054 A 
BRANCH  85  86
ATOM     86  S   UNL A   1      52.348  26.481  31.000  1.00  0.00     0.124 S 
ATOM     87  O   UNL A   1      52.911  27.692  31.591  1.00  0.00    -0.237 OA
ATOM     88  O   UNL A   1      52.278  25.322  31.887  1.00  0.00    -0.237 OA
ATOM     89  O   UNL A   1      52.789  26.188  29.638  1.00  0.00    -0.744 OA
ENDBRANCH  85  86
ENDBRANCH  59  80
ENDBRANCH  33  34
ENDBRANCH  26  28
ENDBRANCH  25  26
ENDBRANCH  24  25
ENDBRANCH   1  24
TORSDOF 20
ENDMDL
MODEL 2
REMARK VINA RESULT:      -9.5      3.140      8.647
REMARK SMILES CCC(CC)(CC)NC(=O)NC[C@@H]1CC[C@H](C(=O)OCCOC(=O)c2ccc(-c3c4nc(c(-c5ccc(S(=O)(=O)[O-])cc5)c5ccc([nH]5)c(-c5ccc(S(=O)(=O)[O-])cc5)c5nc(c(-c6ccc(S(=O)(=O)[O-])cc6)c6ccc3[nH]6)C=C5)C=C4)cc2)O1
REMARK SMILES IDX 20 1 19 2 17 3 18 4 16 5 13 6 14 7 85 8 15 9 12 10 11 11
REMARK SMILES IDX 8 12 9 13 10 15 3 17 2 18 1 19 4 20 5 21 6 22 7 23 21 24
REMARK SMILES IDX 22 25 23 26 24 27 25 28 26 29 84 30 27 31 83 32 28 33 29 34
REMARK SMILES IDX 30 35 77 36 31 37 82 38 76 39 78 40 32 41 81 42 75 43 74 44
REMARK SMILES IDX 33 46 63 47 44 48 62 49 45 50 48 51 61 52 79 53 46 54 47 55
REMARK SMILES IDX 60 57 80 58 49 59 34 60 35 61 43 62 36 63 42 64 37 65 38 66
REMARK SMILES IDX 39 67 40 68 41 69 64 70 65 71 73 72 66 73 72 74 67 75 68 76
REMARK SMILES IDX 69 77 70 78 71 79 50 80 51 81 59 82 52 83 58 84 53 85 54 86
REMARK SMILES IDX 55 87 56 88 57 89
REMARK H PARENT 8 14 11 16 78 45 48 56
REMARK Flexibility Score: inf
ROOT
ATOM      1  C   UNL A   1      31.848  29.150  25.663  1.00  0.00     0.274 C 
ENDROOT
BRANCH   1   2
ATOM      2  O   UNL A   1      31.689  29.228  24.234  1.00  0.00    -0.460 OA
BRANCH   2   3
ATOM      3  C   UNL A   1      30.404  29.304  23.798  1.00  0.00     0.335 C 
ATOM      4  O   UNL A   1      29.666  30.263  24.002  1.00  0.00    -0.249 OA
BRANCH   3   5
ATOM      5  C   UNL A   1      29.946  28.053  23.028  1.00  0.00     0.228 C 
ATOM      6  C   UNL A   1      30.241  26.056  24.206  1.00  0.00     0.138 C 
ATOM      7  C   UNL A   1      31.479  26.280  23.339  1.00  0.00     0.037 C 
ATOM      8  O   UNL A   1      29.315  27.106  23.895  1.00  0.00    -0.361 OA
ATOM      9  C   UNL A   1      31.013  27.270  22.296  1.00  0.00     0.047 C 
BRANCH   6  10
ATOM     10  C   UNL A   1      30.462  25.953  25.735  1.00  0.00     0.149 C 
BRANCH  10  11
ATOM     11  N   UNL A   1      29.902  24.763  26.359  1.00  0.00    -0.336 N 
ATOM     12  N   UNL A   1      31.278  22.799  26.355  1.00  0.00    -0.333 N 
ATOM     13  C   UNL A   1      30.235  23.531  26.685  1.00  0.00     0.315 C 
ATOM     14  H   UNL A   1      31.173  21.952  26.847  1.00  0.00     0.165 HD
ATOM     15  O   UNL A   1      29.420  22.961  27.429  1.00  0.00    -0.249 OA
ATOM     16  H   UNL A   1      28.969  24.935  26.622  1.00  0.00     0.165 HD
BRANCH  12  17
ATOM     17  C   UNL A   1      32.550  22.660  25.576  1.00  0.00     0.041 C 
BRANCH  17  18
ATOM     18  C   UNL A   1      33.318  21.329  25.675  1.00  0.00     0.025 C 
ATOM     19  C   UNL A   1      34.503  21.372  26.613  1.00  0.00     0.006 C 
ENDBRANCH  17  18
BRANCH  17  20
ATOM     20  C   UNL A   1      33.450  23.841  26.102  1.00  0.00     0.025 C 
ATOM     21  C   UNL A   1      34.186  24.678  25.062  1.00  0.00     0.006 C 
ENDBRANCH  17  20
BRANCH  17  22
ATOM     22  C   UNL A   1      32.224  22.940  24.076  1.00  0.00     0.025 C 
ATOM     23  C   UNL A   1      32.123  21.701  23.193  1.00  0.00     0.006 C 
ENDBRANCH  17  22
ENDBRANCH  12  17
ENDBRANCH  10  11
ENDBRANCH   6  10
ENDBRANCH   3   5
ENDBRANCH   2   3
ENDBRANCH   1   2
BRANCH   1  24
ATOM     24  C   UNL A   1      32.532  30.401  26.224  1.00  0.00     0.275 C 
BRANCH  24  25
ATOM     25  O   UNL A   1      33.674  30.090  27.045  1.00  0.00    -0.458 OA
BRANCH  25  26
ATOM     26  C   UNL A   1      34.301  31.154  27.597  1.00  0.00     0.338 C 
ATOM     27  O   UNL A   1      33.858  32.286  27.732  1.00  0.00    -0.246 OA
BRANCH  26  28
ATOM     28  C   UNL A   1      35.595  30.741  28.152  1.00  0.00     0.060 A 
ATOM     29  C   UNL A   1      35.623  29.678  29.058  1.00  0.00     0.016 A 
ATOM     30  C   UNL A   1      36.756  31.462  27.870  1.00  0.00     0.016 A 
ATOM     31  C   UNL A   1      36.805  29.332  29.699  1.00  0.00     0.010 A 
ATOM     32  C   UNL A   1      37.948  31.112  28.510  1.00  0.00     0.010 A 
ATOM     33  C   UNL A   1      37.973  30.055  29.439  1.00  0.00    -0.014 A 
BRANCH  33  34
ATOM     34  C   UNL A   1      39.203  29.735  30.192  1.00  0.00     0.031 A 
ATOM     35  C   UNL A   1      40.102  28.636  29.706  1.00  0.00     0.074 A 
ATOM     36  C   UNL A   1      39.525  30.458  31.280  1.00  0.00     0.049 A 
ATOM     37  N   UNL A   1      41.185  28.153  30.256  1.00  0.00    -0.248 NA
ATOM     38  C   UNL A   1      39.736  27.998  28.430  1.00  0.00     0.031 C 
ATOM     39  C   UNL A   1      38.758  31.592  31.798  1.00  0.00     0.029 A 
ATOM     40  N   UNL A   1      40.583  30.345  32.144  1.00  0.00    -0.354 N 
ATOM     41  C   UNL A   1      41.619  27.141  29.408  1.00  0.00     0.074 A 
ATOM     42  C   UNL A   1      40.679  27.074  28.311  1.00  0.00     0.031 C 
ATOM     43  C   UNL A   1      39.371  32.070  32.892  1.00  0.00     0.029 A 
ATOM     44  C   UNL A   1      40.543  31.249  33.179  1.00  0.00     0.049 A 
ATOM     45  H   UNL A   1      41.302  29.682  32.034  1.00  0.00     0.167 HD
ATOM     46  C   UNL A   1      42.702  26.341  29.540  1.00  0.00     0.031 A 
ATOM     47  C   UNL A   1      41.345  31.377  34.253  1.00  0.00     0.031 A 
ATOM     48  C   UNL A   1      43.627  26.415  30.640  1.00  0.00     0.049 A 
ATOM     49  C   UNL A   1      42.502  30.429  34.413  1.00  0.00     0.074 A 
ATOM     50  C   UNL A   1      44.751  25.644  30.876  1.00  0.00     0.029 A 
ATOM     51  N   UNL A   1      43.531  27.316  31.692  1.00  0.00    -0.354 N 
ATOM     52  N   UNL A   1      42.889  29.461  33.615  1.00  0.00    -0.248 NA
ATOM     53  C   UNL A   1      43.326  30.587  35.617  1.00  0.00     0.031 C 
ATOM     54  C   UNL A   1      45.311  26.051  32.092  1.00  0.00     0.029 A 
ATOM     55  C   UNL A   1      44.563  27.108  32.589  1.00  0.00     0.049 A 
ATOM     56  H   UNL A   1      42.830  28.002  31.785  1.00  0.00     0.167 HD
ATOM     57  C   UNL A   1      44.011  28.903  34.214  1.00  0.00     0.074 A 
ATOM     58  C   UNL A   1      44.250  29.652  35.431  1.00  0.00     0.031 C 
ATOM     59  C   UNL A   1      44.775  27.865  33.797  1.00  0.00     0.031 A 
BRANCH  46  60
ATOM     60  C   UNL A   1      42.916  25.285  28.489  1.00  0.00    -0.014 A 
ATOM     61  C   UNL A   1      42.326  24.014  28.600  1.00  0.00     0.010 A 
ATOM     62  C   UNL A   1      43.700  25.581  27.359  1.00  0.00     0.010 A 
ATOM     63  C   UNL A   1      42.548  23.044  27.618  1.00  0.00     0.020 A 
ATOM     64  C   UNL A   1      43.907  24.622  26.364  1.00  0.00     0.020 A 
ATOM     65  C   UNL A   1      43.342  23.353  26.509  1.00  0.00     0.054 A 
BRANCH  65  66
ATOM     66  S   UNL A   1      43.605  22.082  25.241  1.00  0.00     0.124 S 
ATOM     67  O   UNL A   1      42.519  21.146  25.522  1.00  0.00    -0.237 OA
ATOM     68  O   UNL A   1      43.477  22.836  23.997  1.00  0.00    -0.237 OA
ATOM     69  O   UNL A   1      44.948  21.581  25.526  1.00  0.00    -0.744 OA
ENDBRANCH  65  66
ENDBRANCH  46  60
BRANCH  47  70
ATOM     70  C   UNL A   1      41.052  32.415  35.277  1.00  0.00    -0.014 A 
ATOM     71  C   UNL A   1      41.628  33.693  35.190  1.00  0.00     0.010 A 
ATOM     72  C   UNL A   1      40.178  32.129  36.342  1.00  0.00     0.010 A 
ATOM     73  C   UNL A   1      41.344  34.664  36.156  1.00  0.00     0.020 A 
ATOM     74  C   UNL A   1      39.872  33.104  37.294  1.00  0.00     0.020 A 
ATOM     75  C   UNL A   1      40.467  34.363  37.202  1.00  0.00     0.054 A 
BRANCH  75  76
ATOM     76  S   UNL A   1      40.066  35.652  38.414  1.00  0.00     0.124 S 
ATOM     77  O   UNL A   1      39.764  36.793  37.555  1.00  0.00    -0.237 OA
ATOM     78  O   UNL A   1      38.927  35.078  39.127  1.00  0.00    -0.237 OA
ATOM     79  O   UNL A   1      41.289  35.769  39.204  1.00  0.00    -0.744 OA
ENDBRANCH  75  76
ENDBRANCH  47  70
BRANCH  59  80
ATOM     80  C   UNL A   1      45.955  27.494  34.653  1.00  0.00    -0.014 A 
ATOM     81  C   UNL A   1      45.837  26.532  35.671  1.00  0.00     0.010 A 
ATOM     82  C   UNL A   1      47.207  28.083  34.401  1.00  0.00     0.010 A 
ATOM     83  C   UNL A   1      46.948  26.184  36.443  1.00  0.00     0.020 A 
ATOM     84  C   UNL A   1      48.324  27.721  35.156  1.00  0.00     0.020 A 
ATOM     85  C   UNL A   1      48.185  26.784  36.182  1.00  0.00     0.054 A 
BRANCH  85  86
ATOM     86  S   UNL A   1      49.624  26.287  37.168  1.00  0.00     0.124 S 
ATOM     87  O   UNL A   1      49.169  25.029  37.756  1.00  0.00    -0.237 OA
ATOM     88  O   UNL A   1      50.678  26.166  36.164  1.00  0.00    -0.237 OA
ATOM     89  O   UNL A   1      49.795  27.390  38.111  1.00  0.00    -0.744 OA
ENDBRANCH  85  86
ENDBRANCH  59  80
ENDBRANCH  33  34
ENDBRANCH  26  28
ENDBRANCH  25  26
ENDBRANCH  24  25
ENDBRANCH   1  24
TORSDOF 20
ENDMDL
MODEL 3
REMARK VINA RESULT:      -9.1      3.073      4.014
REMARK SMILES CCC(CC)(CC)NC(=O)NC[C@@H]1CC[C@H](C(=O)OCCOC(=O)c2ccc(-c3c4nc(c(-c5ccc(S(=O)(=O)[O-])cc5)c5ccc([nH]5)c(-c5ccc(S(=O)(=O)[O-])cc5)c5nc(c(-c6ccc(S(=O)(=O)[O-])cc6)c6ccc3[nH]6)C=C5)C=C4)cc2)O1
REMARK SMILES IDX 20 1 19 2 17 3 18 4 16 5 13 6 14 7 85 8 15 9 12 10 11 11
REMARK SMILES IDX 8 12 9 13 10 15 3 17 2 18 1 19 4 20 5 21 6 22 7 23 21 24
REMARK SMILES IDX 22 25 23 26 24 27 25 28 26 29 84 30 27 31 83 32 28 33 29 34
REMARK SMILES IDX 30 35 77 36 31 37 82 38 76 39 78 40 32 41 81 42 75 43 74 44
REMARK SMILES IDX 33 46 63 47 44 48 62 49 45 50 48 51 61 52 79 53 46 54 47 55
REMARK SMILES IDX 60 57 80 58 49 59 34 60 35 61 43 62 36 63 42 64 37 65 38 66
REMARK SMILES IDX 39 67 40 68 41 69 64 70 65 71 73 72 66 73 72 74 67 75 68 76
REMARK SMILES IDX 69 77 70 78 71 79 50 80 51 81 59 82 52 83 58 84 53 85 54 86
REMARK SMILES IDX 55 87 56 88 57 89
REMARK H PARENT 8 14 11 16 78 45 48 56
REMARK Flexibility Score: inf
ROOT
ATOM      1  C   UNL A   1      34.114  28.932  26.333  1.00  0.00     0.274 C 
ENDROOT
BRANCH   1   2
ATOM      2  O   UNL A   1      32.803  29.460  26.059  1.00  0.00    -0.460 OA
BRANCH   2   3
ATOM      3  C   UNL A   1      31.802  28.541  26.034  1.00  0.00     0.335 C 
ATOM      4  O   UNL A   1      31.518  27.811  26.980  1.00  0.00    -0.249 OA
BRANCH   3   5
ATOM      5  C   UNL A   1      31.056  28.486  24.689  1.00  0.00     0.228 C 
ATOM      6  C   UNL A   1      31.472  26.544  23.457  1.00  0.00     0.138 C 
ATOM      7  C   UNL A   1      32.461  27.615  22.998  1.00  0.00     0.037 C 
ATOM      8  O   UNL A   1      30.590  27.165  24.403  1.00  0.00    -0.361 OA
ATOM      9  C   UNL A   1      31.830  28.909  23.460  1.00  0.00     0.047 C 
BRANCH   6  10
ATOM     10  C   UNL A   1      32.068  25.237  24.034  1.00  0.00     0.149 C 
BRANCH  10  11
ATOM     11  N   UNL A   1      33.378  24.876  23.512  1.00  0.00    -0.336 N 
ATOM     12  N   UNL A   1      34.312  22.809  24.292  1.00  0.00    -0.333 N 
ATOM     13  C   UNL A   1      34.247  23.887  23.538  1.00  0.00     0.315 C 
ATOM     14  H   UNL A   1      35.088  22.301  23.961  1.00  0.00     0.165 HD
ATOM     15  O   UNL A   1      35.167  23.992  22.711  1.00  0.00    -0.249 OA
ATOM     16  H   UNL A   1      33.728  25.611  22.959  1.00  0.00     0.165 HD
BRANCH  12  17
ATOM     17  C   UNL A   1      33.750  22.001  25.422  1.00  0.00     0.041 C 
BRANCH  17  18
ATOM     18  C   UNL A   1      32.523  21.116  25.139  1.00  0.00     0.025 C 
ATOM     19  C   UNL A   1      32.438  20.622  23.712  1.00  0.00     0.006 C 
ENDBRANCH  17  18
BRANCH  17  20
ATOM     20  C   UNL A   1      33.399  23.073  26.520  1.00  0.00     0.025 C 
ATOM     21  C   UNL A   1      32.949  22.560  27.883  1.00  0.00     0.006 C 
ENDBRANCH  17  20
BRANCH  17  22
ATOM     22  C   UNL A   1      34.897  21.102  25.982  1.00  0.00     0.025 C 
ATOM     23  C   UNL A   1      35.781  20.448  24.925  1.00  0.00     0.006 C 
ENDBRANCH  17  22
ENDBRANCH  12  17
ENDBRANCH  10  11
ENDBRANCH   6  10
ENDBRANCH   3   5
ENDBRANCH   2   3
ENDBRANCH   1   2
BRANCH   1  24
ATOM     24  C   UNL A   1      34.692  29.501  27.633  1.00  0.00     0.275 C 
BRANCH  24  25
ATOM     25  O   UNL A   1      36.116  29.706  27.566  1.00  0.00    -0.458 OA
BRANCH  25  26
ATOM     26  C   UNL A   1      36.801  29.405  28.694  1.00  0.00     0.338 C 
ATOM     27  O   UNL A   1      36.354  29.312  29.828  1.00  0.00    -0.246 OA
BRANCH  26  28
ATOM     28  C   UNL A   1      38.190  29.068  28.362  1.00  0.00     0.060 A 
ATOM     29  C   UNL A   1      39.015  28.569  29.375  1.00  0.00     0.016 A 
ATOM     30  C   UNL A   1      38.708  29.341  27.096  1.00  0.00     0.016 A 
ATOM     31  C   UNL A   1      40.364  28.351  29.136  1.00  0.00     0.010 A 
ATOM     32  C   UNL A   1      40.066  29.118  26.853  1.00  0.00     0.010 A 
ATOM     33  C   UNL A   1      40.902  28.636  27.877  1.00  0.00    -0.014 A 
BRANCH  33  34
ATOM     34  C   UNL A   1      42.356  28.484  27.662  1.00  0.00     0.031 A 
ATOM     35  C   UNL A   1      43.272  29.634  27.964  1.00  0.00     0.074 A 
ATOM     36  C   UNL A   1      42.847  27.304  27.240  1.00  0.00     0.049 A 
ATOM     37  N   UNL A   1      44.563  29.730  27.780  1.00  0.00    -0.248 NA
ATOM     38  C   UNL A   1      42.655  30.834  28.554  1.00  0.00     0.031 C 
ATOM     39  C   UNL A   1      42.052  26.101  26.986  1.00  0.00     0.029 A 
ATOM     40  N   UNL A   1      44.133  26.925  26.954  1.00  0.00    -0.354 N 
ATOM     41  C   UNL A   1      44.911  31.004  28.209  1.00  0.00     0.074 A 
ATOM     42  C   UNL A   1      43.695  31.649  28.655  1.00  0.00     0.031 C 
ATOM     43  C   UNL A   1      42.869  25.117  26.578  1.00  0.00     0.029 A 
ATOM     44  C   UNL A   1      44.233  25.632  26.498  1.00  0.00     0.049 A 
ATOM     45  H   UNL A   1      44.909  27.521  27.065  1.00  0.00     0.167 HD
ATOM     46  C   UNL A   1      46.135  31.582  28.223  1.00  0.00     0.031 A 
ATOM     47  C   UNL A   1      45.300  24.953  26.037  1.00  0.00     0.031 A 
ATOM     48  C   UNL A   1      47.335  30.931  27.771  1.00  0.00     0.049 A 
ATOM     49  C   UNL A   1      46.637  25.642  25.997  1.00  0.00     0.074 A 
ATOM     50  C   UNL A   1      48.625  31.429  27.733  1.00  0.00     0.029 A 
ATOM     51  N   UNL A   1      47.391  29.635  27.276  1.00  0.00    -0.354 N 
ATOM     52  N   UNL A   1      46.949  26.856  26.386  1.00  0.00    -0.248 NA
ATOM     53  C   UNL A   1      47.763  24.871  25.455  1.00  0.00     0.031 C 
ATOM     54  C   UNL A   1      49.455  30.450  27.174  1.00  0.00     0.029 A 
ATOM     55  C   UNL A   1      48.689  29.324  26.911  1.00  0.00     0.049 A 
ATOM     56  H   UNL A   1      46.621  29.028  27.197  1.00  0.00     0.167 HD
ATOM     57  C   UNL A   1      48.311  26.992  26.147  1.00  0.00     0.074 A 
ATOM     58  C   UNL A   1      48.765  25.729  25.598  1.00  0.00     0.031 C 
ATOM     59  C   UNL A   1      49.114  28.061  26.362  1.00  0.00     0.031 A 
BRANCH  46  60
ATOM     60  C   UNL A   1      46.223  33.006  28.701  1.00  0.00    -0.014 A 
ATOM     61  C   UNL A   1      46.518  33.311  30.041  1.00  0.00     0.010 A 
ATOM     62  C   UNL A   1      46.031  34.057  27.785  1.00  0.00     0.010 A 
ATOM     63  C   UNL A   1      46.584  34.641  30.466  1.00  0.00     0.020 A 
ATOM     64  C   UNL A   1      46.116  35.389  28.201  1.00  0.00     0.020 A 
ATOM     65  C   UNL A   1      46.376  35.672  29.544  1.00  0.00     0.054 A 
BRANCH  65  66
ATOM     66  S   UNL A   1      46.478  37.390  30.116  1.00  0.00     0.124 S 
ATOM     67  O   UNL A   1      45.102  37.653  30.528  1.00  0.00    -0.237 OA
ATOM     68  O   UNL A   1      47.454  37.312  31.199  1.00  0.00    -0.237 OA
ATOM     69  O   UNL A   1      46.924  38.123  28.932  1.00  0.00    -0.744 OA
ENDBRANCH  65  66
ENDBRANCH  46  60
BRANCH  47  70
ATOM     70  C   UNL A   1      45.135  23.561  25.539  1.00  0.00    -0.014 A 
ATOM     71  C   UNL A   1      45.099  23.291  24.162  1.00  0.00     0.010 A 
ATOM     72  C   UNL A   1      45.029  22.494  26.450  1.00  0.00     0.010 A 
ATOM     73  C   UNL A   1      44.948  21.978  23.703  1.00  0.00     0.020 A 
ATOM     74  C   UNL A   1      44.904  21.179  25.996  1.00  0.00     0.020 A 
ATOM     75  C   UNL A   1      44.852  20.930  24.623  1.00  0.00     0.054 A 
BRANCH  75  76
ATOM     76  S   UNL A   1      44.713  19.228  24.010  1.00  0.00     0.124 S 
ATOM     77  O   UNL A   1      46.034  18.687  24.316  1.00  0.00    -0.237 OA
ATOM     78  O   UNL A   1      43.610  18.691  24.803  1.00  0.00    -0.237 OA
ATOM     79  O   UNL A   1      44.419  19.401  22.589  1.00  0.00    -0.744 OA
ENDBRANCH  75  76
ENDBRANCH  47  70
BRANCH  59  80
ATOM     80  C   UNL A   1      50.571  27.904  26.023  1.00  0.00    -0.014 A 
ATOM     81  C   UNL A   1      51.047  28.178  24.729  1.00  0.00     0.010 A 
ATOM     82  C   UNL A   1      51.479  27.524  27.027  1.00  0.00     0.010 A 
ATOM     83  C   UNL A   1      52.407  28.047  24.437  1.00  0.00     0.020 A 
ATOM     84  C   UNL A   1      52.843  27.414  26.743  1.00  0.00     0.020 A 
ATOM     85  C   UNL A   1      53.296  27.662  25.446  1.00  0.00     0.054 A 
BRANCH  85  86
ATOM     86  S   UNL A   1      55.063  27.540  25.056  1.00  0.00     0.124 S 
ATOM     87  O   UNL A   1      55.076  26.498  24.032  1.00  0.00    -0.237 OA
ATOM     88  O   UNL A   1      55.385  28.886  24.588  1.00  0.00    -0.237 OA
ATOM     89  O   UNL A   1      55.673  27.169  26.331  1.00  0.00    -0.744 OA
ENDBRANCH  85  86
ENDBRANCH  59  80
ENDBRANCH  33  34
ENDBRANCH  26  28
ENDBRANCH  25  26
ENDBRANCH  24  25
ENDBRANCH   1  24
TORSDOF 20
ENDMDL
