MODEL 1
REMARK VINA RESULT:     -11.9      0.000      0.000
REMARK SMILES CC1(C)CC[C@@]2(C(=O)OCCOC(=O)c3ccc(-c4c5nc(c(-c6ccc(S(=O)(=O)[O-])cc6)c6ccc([nH]6)c(-c6ccc(S(=O)(=O)[O-])cc6)c6nc(c(-c7ccc(S(=O)(=O)[O-])cc7)c7ccc4[nH]7)C=C6)C=C5)cc3)CC[C@@]3(C)C(=CC[C@H]4[C@@]5(C)CC[C@H](O)C(C)(C)[C@@H]5CC[C@]43C)[C@@H]2C1
REMARK SMILES IDX 11 1 10 2 9 3 7 4 8 5 6 6 1 7 2 8 3 9 4 10 98 11 5 12 97 13
REMARK SMILES IDX 79 14 75 15 77 16 80 17 76 18 78 19 95 20 81 21 82 22 94 23
REMARK SMILES IDX 96 24 83 25 93 26 84 27 85 28 92 29 86 30 89 31 87 32 90 33
REMARK SMILES IDX 91 34 88 35 12 37 13 38 14 39 15 40 16 41 74 42 17 43 73 44
REMARK SMILES IDX 18 45 19 46 20 47 67 48 21 49 72 50 66 51 68 52 22 53 71 54
REMARK SMILES IDX 65 55 64 56 23 58 53 59 34 60 52 61 35 62 38 63 51 64 69 65
REMARK SMILES IDX 36 66 37 67 50 69 70 70 39 71 24 72 25 73 33 74 26 75 32 76
REMARK SMILES IDX 27 77 28 78 29 79 30 80 31 81 54 82 55 83 63 84 56 85 62 86
REMARK SMILES IDX 57 87 58 88 59 89 60 90 61 91 40 92 41 93 49 94 42 95 48 96
REMARK SMILES IDX 43 97 44 98 45 99 46 100 47 101
REMARK H PARENT 88 36 68 57 38 68
REMARK Flexibility Score: inf
ROOT
ATOM      1  C   UNL A   1      33.819  30.593  27.844  1.00  0.00     0.275 C 
ENDROOT
BRANCH   1   2
ATOM      2  C   UNL A   1      33.927  29.152  27.440  1.00  0.00     0.274 C 
BRANCH   2   3
ATOM      3  O   UNL A   1      34.025  28.987  26.070  1.00  0.00    -0.462 OA
BRANCH   3   4
ATOM      4  C   UNL A   1      33.395  27.829  25.828  1.00  0.00     0.312 C 
ATOM      5  O   UNL A   1      33.938  26.750  26.041  1.00  0.00    -0.252 OA
BRANCH   4   6
ATOM      6  C   UNL A   1      31.913  27.994  25.464  1.00  0.00     0.075 C 
ATOM      7  C   UNL A   1      31.103  29.329  21.818  1.00  0.00     0.011 C 
ATOM      8  C   UNL A   1      32.195  28.429  22.421  1.00  0.00    -0.035 C 
ATOM      9  C   UNL A   1      33.130  27.976  21.274  1.00  0.00     0.011 C 
ATOM     10  C   UNL A   1      32.930  29.265  23.477  1.00  0.00     0.007 C 
ATOM     11  C   UNL A   1      31.621  27.131  23.011  1.00  0.00     0.015 C 
ATOM     12  C   UNL A   1      32.100  29.407  24.805  1.00  0.00     0.020 C 
ATOM     13  C   UNL A   1      31.071  27.144  24.449  1.00  0.00     0.033 C 
ATOM     14  C   UNL A   1      30.591  25.715  24.831  1.00  0.00    -0.063 C 
ATOM     15  C   UNL A   1      31.148  27.826  26.806  1.00  0.00     0.020 C 
ATOM     16  C   UNL A   1      30.473  25.202  26.269  1.00  0.00    -0.006 C 
ATOM     17  C   UNL A   1      30.126  24.905  23.852  1.00  0.00    -0.027 C 
ATOM     18  C   UNL A   1      31.019  26.306  27.309  1.00  0.00     0.013 C 
ATOM     19  C   UNL A   1      28.931  25.260  26.639  1.00  0.00     0.017 C 
ATOM     20  C   UNL A   1      31.120  23.505  26.198  1.00  0.00    -0.020 C 
ATOM     21  C   UNL A   1      30.866  23.625  23.538  1.00  0.00     0.032 C 
ATOM     22  C   UNL A   1      31.655  22.994  24.701  1.00  0.00     0.006 C 
ATOM     23  C   UNL A   1      32.129  22.934  27.272  1.00  0.00     0.008 C 
ATOM     24  C   UNL A   1      29.824  22.621  26.462  1.00  0.00     0.012 C 
ATOM     25  C   UNL A   1      33.226  22.520  24.301  1.00  0.00    -0.025 C 
ATOM     26  C   UNL A   1      33.324  21.967  26.805  1.00  0.00     0.005 C 
ATOM     27  C   UNL A   1      33.107  21.109  23.668  1.00  0.00     0.012 C 
ATOM     28  C   UNL A   1      33.935  23.364  23.160  1.00  0.00     0.010 C 
ATOM     29  C   UNL A   1      34.128  22.429  25.563  1.00  0.00     0.003 C 
ATOM     30  C   UNL A   1      35.470  23.246  23.050  1.00  0.00     0.033 C 
ATOM     31  C   UNL A   1      35.722  22.181  25.394  1.00  0.00    -0.006 C 
ATOM     32  C   UNL A   1      36.229  23.265  24.374  1.00  0.00     0.120 C 
ATOM     33  C   UNL A   1      36.184  20.790  24.922  1.00  0.00     0.014 C 
ATOM     34  C   UNL A   1      36.515  22.399  26.721  1.00  0.00     0.014 C 
BRANCH  32  35
ATOM     35  O   UNL A   1      37.637  23.194  24.147  1.00  0.00    -0.393 OA
ATOM     36  H   UNL A   1      38.099  23.104  24.994  1.00  0.00     0.210 HD
ENDBRANCH  32  35
ENDBRANCH   4   6
ENDBRANCH   3   4
ENDBRANCH   2   3
ENDBRANCH   1   2
BRANCH   1  37
ATOM     37  O   UNL A   1      35.020  31.293  27.735  1.00  0.00    -0.458 OA
BRANCH  37  38
ATOM     38  C   UNL A   1      35.550  31.378  28.982  1.00  0.00     0.338 C 
ATOM     39  O   UNL A   1      35.496  32.290  29.764  1.00  0.00    -0.246 OA
BRANCH  38  40
ATOM     40  C   UNL A   1      36.586  30.360  28.952  1.00  0.00     0.060 A 
ATOM     41  C   UNL A   1      36.784  29.590  30.097  1.00  0.00     0.016 A 
ATOM     42  C   UNL A   1      37.301  30.180  27.758  1.00  0.00     0.016 A 
ATOM     43  C   UNL A   1      37.846  28.734  30.112  1.00  0.00     0.010 A 
ATOM     44  C   UNL A   1      38.376  29.319  27.771  1.00  0.00     0.010 A 
ATOM     45  C   UNL A   1      38.697  28.725  28.997  1.00  0.00    -0.014 A 
BRANCH  45  46
ATOM     46  C   UNL A   1      40.103  28.555  29.347  1.00  0.00     0.031 A 
ATOM     47  C   UNL A   1      40.733  27.249  28.939  1.00  0.00     0.074 A 
ATOM     48  C   UNL A   1      40.771  29.632  29.769  1.00  0.00     0.049 A 
ATOM     49  N   UNL A   1      41.988  26.905  28.941  1.00  0.00    -0.248 NA
ATOM     50  C   UNL A   1      39.836  26.195  28.417  1.00  0.00     0.031 C 
ATOM     51  C   UNL A   1      40.177  30.946  30.031  1.00  0.00     0.029 A 
ATOM     52  N   UNL A   1      42.099  29.801  29.991  1.00  0.00    -0.354 N 
ATOM     53  C   UNL A   1      42.020  25.617  28.416  1.00  0.00     0.074 A 
ATOM     54  C   UNL A   1      40.672  25.215  28.130  1.00  0.00     0.031 C 
ATOM     55  C   UNL A   1      41.155  31.798  30.375  1.00  0.00     0.029 A 
ATOM     56  C   UNL A   1      42.420  31.071  30.386  1.00  0.00     0.049 A 
ATOM     57  H   UNL A   1      42.763  29.082  29.881  1.00  0.00     0.167 HD
ATOM     58  C   UNL A   1      43.099  24.837  28.194  1.00  0.00     0.031 A 
ATOM     59  C   UNL A   1      43.622  31.558  30.731  1.00  0.00     0.031 A 
ATOM     60  C   UNL A   1      44.417  25.270  28.548  1.00  0.00     0.049 A 
ATOM     61  C   UNL A   1      44.792  30.621  30.609  1.00  0.00     0.074 A 
ATOM     62  C   UNL A   1      45.606  24.579  28.474  1.00  0.00     0.029 A 
ATOM     63  N   UNL A   1      44.700  26.528  29.068  1.00  0.00    -0.354 N 
ATOM     64  N   UNL A   1      44.816  29.388  30.151  1.00  0.00    -0.248 NA
ATOM     65  C   UNL A   1      46.092  31.137  31.038  1.00  0.00     0.031 C 
ATOM     66  C   UNL A   1      46.601  25.397  29.018  1.00  0.00     0.029 A 
ATOM     67  C   UNL A   1      46.044  26.627  29.352  1.00  0.00     0.049 A 
ATOM     68  H   UNL A   1      44.038  27.243  29.211  1.00  0.00     0.167 HD
ATOM     69  C   UNL A   1      46.142  28.982  30.216  1.00  0.00     0.074 A 
ATOM     70  C   UNL A   1      46.885  30.117  30.738  1.00  0.00     0.031 C 
ATOM     71  C   UNL A   1      46.707  27.794  29.882  1.00  0.00     0.031 A 
BRANCH  58  72
ATOM     72  C   UNL A   1      42.859  23.454  27.652  1.00  0.00    -0.014 A 
ATOM     73  C   UNL A   1      42.406  22.402  28.473  1.00  0.00     0.010 A 
ATOM     74  C   UNL A   1      43.129  23.192  26.298  1.00  0.00     0.010 A 
ATOM     75  C   UNL A   1      42.251  21.113  27.952  1.00  0.00     0.020 A 
ATOM     76  C   UNL A   1      42.948  21.911  25.767  1.00  0.00     0.020 A 
ATOM     77  C   UNL A   1      42.520  20.877  26.600  1.00  0.00     0.054 A 
BRANCH  77  78
ATOM     78  S   UNL A   1      42.268  19.207  25.938  1.00  0.00     0.124 S 
ATOM     79  O   UNL A   1      42.775  18.369  27.021  1.00  0.00    -0.237 OA
ATOM     80  O   UNL A   1      40.824  19.161  25.731  1.00  0.00    -0.237 OA
ATOM     81  O   UNL A   1      43.069  19.193  24.716  1.00  0.00    -0.744 OA
ENDBRANCH  77  78
ENDBRANCH  58  72
BRANCH  59  82
ATOM     82  C   UNL A   1      43.737  32.945  31.246  1.00  0.00    -0.014 A 
ATOM     83  C   UNL A   1      43.960  34.030  30.383  1.00  0.00     0.010 A 
ATOM     84  C   UNL A   1      43.592  33.189  32.626  1.00  0.00     0.010 A 
ATOM     85  C   UNL A   1      44.059  35.329  30.893  1.00  0.00     0.020 A 
ATOM     86  C   UNL A   1      43.658  34.486  33.136  1.00  0.00     0.020 A 
ATOM     87  C   UNL A   1      43.906  35.548  32.267  1.00  0.00     0.054 A 
BRANCH  87  88
ATOM     88  S   UNL A   1      44.011  37.243  32.901  1.00  0.00     0.124 S 
ATOM     89  O   UNL A   1      43.766  38.032  31.698  1.00  0.00    -0.237 OA
ATOM     90  O   UNL A   1      42.950  37.269  33.904  1.00  0.00    -0.237 OA
ATOM     91  O   UNL A   1      45.369  37.325  33.437  1.00  0.00    -0.744 OA
ENDBRANCH  87  88
ENDBRANCH  59  82
BRANCH  71  92
ATOM     92  C   UNL A   1      48.194  27.692  30.047  1.00  0.00    -0.014 A 
ATOM     93  C   UNL A   1      48.759  27.150  31.213  1.00  0.00     0.010 A 
ATOM     94  C   UNL A   1      49.026  28.087  28.985  1.00  0.00     0.010 A 
ATOM     95  C   UNL A   1      50.143  27.045  31.330  1.00  0.00     0.020 A 
ATOM     96  C   UNL A   1      50.407  27.945  29.083  1.00  0.00     0.020 A 
ATOM     97  C   UNL A   1      50.957  27.441  30.263  1.00  0.00     0.054 A 
BRANCH  97  98
ATOM     98  S   UNL A   1      52.750  27.258  30.429  1.00  0.00     0.124 S 
ATOM     99  O   UNL A   1      53.080  26.452  29.258  1.00  0.00    -0.237 OA
ATOM    100  O   UNL A   1      53.215  28.643  30.392  1.00  0.00    -0.237 OA
ATOM    101  O   UNL A   1      52.913  26.586  31.716  1.00  0.00    -0.744 OA
ENDBRANCH  97  98
ENDBRANCH  71  92
ENDBRANCH  45  46
ENDBRANCH  38  40
ENDBRANCH  37  38
ENDBRANCH   1  37
TORSDOF 15
ENDMDL
MODEL 2
REMARK VINA RESULT:     -11.9      4.057      8.997
REMARK SMILES CC1(C)CC[C@@]2(C(=O)OCCOC(=O)c3ccc(-c4c5nc(c(-c6ccc(S(=O)(=O)[O-])cc6)c6ccc([nH]6)c(-c6ccc(S(=O)(=O)[O-])cc6)c6nc(c(-c7ccc(S(=O)(=O)[O-])cc7)c7ccc4[nH]7)C=C6)C=C5)cc3)CC[C@@]3(C)C(=CC[C@H]4[C@@]5(C)CC[C@H](O)C(C)(C)[C@@H]5CC[C@]43C)[C@@H]2C1
REMARK SMILES IDX 11 1 10 2 9 3 7 4 8 5 6 6 1 7 2 8 3 9 4 10 98 11 5 12 97 13
REMARK SMILES IDX 79 14 75 15 77 16 80 17 76 18 78 19 95 20 81 21 82 22 94 23
REMARK SMILES IDX 96 24 83 25 93 26 84 27 85 28 92 29 86 30 89 31 87 32 90 33
REMARK SMILES IDX 91 34 88 35 12 37 13 38 14 39 15 40 16 41 74 42 17 43 73 44
REMARK SMILES IDX 18 45 19 46 20 47 67 48 21 49 72 50 66 51 68 52 22 53 71 54
REMARK SMILES IDX 65 55 64 56 23 58 53 59 34 60 52 61 35 62 38 63 51 64 69 65
REMARK SMILES IDX 36 66 37 67 50 69 70 70 39 71 24 72 25 73 33 74 26 75 32 76
REMARK SMILES IDX 27 77 28 78 29 79 30 80 31 81 54 82 55 83 63 84 56 85 62 86
REMARK SMILES IDX 57 87 58 88 59 89 60 90 61 91 40 92 41 93 49 94 42 95 48 96
REMARK SMILES IDX 43 97 44 98 45 99 46 100 47 101
REMARK H PARENT 88 36 68 57 38 68
REMARK Flexibility Score: inf
ROOT
ATOM      1  C   UNL A   1      33.856  30.749  27.623  1.00  0.00     0.275 C 
ENDROOT
BRANCH   1   2
ATOM      2  C   UNL A   1      34.423  29.499  27.018  1.00  0.00     0.274 C 
BRANCH   2   3
ATOM      3  O   UNL A   1      33.640  28.385  27.261  1.00  0.00    -0.462 OA
BRANCH   3   4
ATOM      4  C   UNL A   1      33.363  27.901  26.042  1.00  0.00     0.312 C 
ATOM      5  O   UNL A   1      34.201  27.278  25.398  1.00  0.00    -0.252 OA
BRANCH   4   6
ATOM      6  C   UNL A   1      31.886  28.030  25.644  1.00  0.00     0.075 C 
ATOM      7  C   UNL A   1      31.127  29.406  22.003  1.00  0.00     0.011 C 
ATOM      8  C   UNL A   1      32.229  28.527  22.618  1.00  0.00    -0.035 C 
ATOM      9  C   UNL A   1      33.204  28.120  21.486  1.00  0.00     0.011 C 
ATOM     10  C   UNL A   1      32.914  29.364  23.705  1.00  0.00     0.007 C 
ATOM     11  C   UNL A   1      31.678  27.202  23.171  1.00  0.00     0.015 C 
ATOM     12  C   UNL A   1      32.048  29.459  25.014  1.00  0.00     0.020 C 
ATOM     13  C   UNL A   1      31.094  27.174  24.595  1.00  0.00     0.033 C 
ATOM     14  C   UNL A   1      30.645  25.726  24.940  1.00  0.00    -0.063 C 
ATOM     15  C   UNL A   1      31.094  27.816  26.965  1.00  0.00     0.020 C 
ATOM     16  C   UNL A   1      30.508  25.184  26.367  1.00  0.00    -0.006 C 
ATOM     17  C   UNL A   1      30.228  24.921  23.937  1.00  0.00    -0.027 C 
ATOM     18  C   UNL A   1      30.997  26.285  27.438  1.00  0.00     0.013 C 
ATOM     19  C   UNL A   1      28.956  25.192  26.699  1.00  0.00     0.017 C 
ATOM     20  C   UNL A   1      31.204  23.508  26.282  1.00  0.00    -0.020 C 
ATOM     21  C   UNL A   1      31.013  23.668  23.619  1.00  0.00     0.032 C 
ATOM     22  C   UNL A   1      31.791  23.038  24.791  1.00  0.00     0.006 C 
ATOM     23  C   UNL A   1      32.203  22.947  27.371  1.00  0.00     0.008 C 
ATOM     24  C   UNL A   1      29.929  22.583  26.500  1.00  0.00     0.012 C 
ATOM     25  C   UNL A   1      33.384  22.617  24.422  1.00  0.00    -0.025 C 
ATOM     26  C   UNL A   1      33.436  22.022  26.918  1.00  0.00     0.005 C 
ATOM     27  C   UNL A   1      33.321  21.214  23.763  1.00  0.00     0.012 C 
ATOM     28  C   UNL A   1      34.095  23.500  23.313  1.00  0.00     0.010 C 
ATOM     29  C   UNL A   1      34.257  22.529  25.705  1.00  0.00     0.003 C 
ATOM     30  C   UNL A   1      35.635  23.428  23.239  1.00  0.00     0.033 C 
ATOM     31  C   UNL A   1      35.862  22.330  25.571  1.00  0.00    -0.006 C 
ATOM     32  C   UNL A   1      36.361  23.445  24.582  1.00  0.00     0.120 C 
ATOM     33  C   UNL A   1      36.374  20.961  25.086  1.00  0.00     0.014 C 
ATOM     34  C   UNL A   1      36.615  22.546  26.921  1.00  0.00     0.014 C 
BRANCH  32  35
ATOM     35  O   UNL A   1      37.776  23.418  24.388  1.00  0.00    -0.393 OA
ATOM     36  H   UNL A   1      38.216  23.808  25.158  1.00  0.00     0.210 HD
ENDBRANCH  32  35
ENDBRANCH   4   6
ENDBRANCH   3   4
ENDBRANCH   2   3
ENDBRANCH   1   2
BRANCH   1  37
ATOM     37  O   UNL A   1      34.698  31.856  27.505  1.00  0.00    -0.458 OA
BRANCH  37  38
ATOM     38  C   UNL A   1      34.124  32.872  28.199  1.00  0.00     0.338 C 
ATOM     39  O   UNL A   1      33.280  33.649  27.840  1.00  0.00    -0.246 OA
BRANCH  38  40
ATOM     40  C   UNL A   1      35.092  33.116  29.255  1.00  0.00     0.060 A 
ATOM     41  C   UNL A   1      36.270  33.782  28.925  1.00  0.00     0.016 A 
ATOM     42  C   UNL A   1      34.767  32.704  30.556  1.00  0.00     0.016 A 
ATOM     43  C   UNL A   1      37.233  33.886  29.886  1.00  0.00     0.010 A 
ATOM     44  C   UNL A   1      35.738  32.804  31.528  1.00  0.00     0.010 A 
ATOM     45  C   UNL A   1      36.994  33.268  31.122  1.00  0.00    -0.014 A 
BRANCH  45  46
ATOM     46  C   UNL A   1      38.187  32.661  31.703  1.00  0.00     0.031 A 
ATOM     47  C   UNL A   1      38.611  33.191  33.047  1.00  0.00     0.074 A 
ATOM     48  C   UNL A   1      38.657  31.548  31.132  1.00  0.00     0.049 A 
ATOM     49  N   UNL A   1      39.497  32.718  33.876  1.00  0.00    -0.248 NA
ATOM     50  C   UNL A   1      37.917  34.395  33.553  1.00  0.00     0.031 C 
ATOM     51  C   UNL A   1      38.148  30.955  29.893  1.00  0.00     0.029 A 
ATOM     52  N   UNL A   1      39.624  30.695  31.554  1.00  0.00    -0.354 N 
ATOM     53  C   UNL A   1      39.450  33.556  34.987  1.00  0.00     0.074 A 
ATOM     54  C   UNL A   1      38.480  34.584  34.732  1.00  0.00     0.031 C 
ATOM     55  C   UNL A   1      38.813  29.813  29.660  1.00  0.00     0.029 A 
ATOM     56  C   UNL A   1      39.805  29.631  30.713  1.00  0.00     0.049 A 
ATOM     57  H   UNL A   1      40.143  30.830  32.380  1.00  0.00     0.167 HD
ATOM     58  C   UNL A   1      40.167  33.465  36.126  1.00  0.00     0.031 A 
ATOM     59  C   UNL A   1      40.703  28.639  30.807  1.00  0.00     0.031 A 
ATOM     60  C   UNL A   1      41.158  32.448  36.303  1.00  0.00     0.049 A 
ATOM     61  C   UNL A   1      41.589  28.639  32.022  1.00  0.00     0.074 A 
ATOM     62  C   UNL A   1      42.032  32.261  37.353  1.00  0.00     0.029 A 
ATOM     63  N   UNL A   1      41.409  31.447  35.372  1.00  0.00    -0.354 N 
ATOM     64  N   UNL A   1      41.573  29.457  33.053  1.00  0.00    -0.248 NA
ATOM     65  C   UNL A   1      42.604  27.589  32.094  1.00  0.00     0.031 C 
ATOM     66  C   UNL A   1      42.861  31.186  37.021  1.00  0.00     0.029 A 
ATOM     67  C   UNL A   1      42.449  30.653  35.804  1.00  0.00     0.049 A 
ATOM     68  H   UNL A   1      40.917  31.323  34.528  1.00  0.00     0.167 HD
ATOM     69  C   UNL A   1      42.564  29.006  33.914  1.00  0.00     0.074 A 
ATOM     70  C   UNL A   1      43.141  27.830  33.283  1.00  0.00     0.031 C 
ATOM     71  C   UNL A   1      42.973  29.502  35.110  1.00  0.00     0.031 A 
BRANCH  58  72
ATOM     72  C   UNL A   1      39.957  34.531  37.167  1.00  0.00    -0.014 A 
ATOM     73  C   UNL A   1      39.096  34.339  38.266  1.00  0.00     0.010 A 
ATOM     74  C   UNL A   1      40.609  35.767  37.023  1.00  0.00     0.010 A 
ATOM     75  C   UNL A   1      38.876  35.371  39.184  1.00  0.00     0.020 A 
ATOM     76  C   UNL A   1      40.414  36.792  37.954  1.00  0.00     0.020 A 
ATOM     77  C   UNL A   1      39.541  36.591  39.023  1.00  0.00     0.054 A 
BRANCH  77  78
ATOM     78  S   UNL A   1      39.274  37.899  40.251  1.00  0.00     0.124 S 
ATOM     79  O   UNL A   1      40.577  38.559  40.284  1.00  0.00    -0.237 OA
ATOM     80  O   UNL A   1      38.191  38.677  39.657  1.00  0.00    -0.237 OA
ATOM     81  O   UNL A   1      38.917  37.169  41.466  1.00  0.00    -0.744 OA
ENDBRANCH  77  78
ENDBRANCH  58  72
BRANCH  59  82
ATOM     82  C   UNL A   1      40.812  27.636  29.718  1.00  0.00    -0.014 A 
ATOM     83  C   UNL A   1      39.792  26.703  29.478  1.00  0.00     0.010 A 
ATOM     84  C   UNL A   1      41.949  27.634  28.886  1.00  0.00     0.010 A 
ATOM     85  C   UNL A   1      39.916  25.771  28.441  1.00  0.00     0.020 A 
ATOM     86  C   UNL A   1      42.064  26.728  27.831  1.00  0.00     0.020 A 
ATOM     87  C   UNL A   1      41.052  25.791  27.624  1.00  0.00     0.054 A 
BRANCH  87  88
ATOM     88  S   UNL A   1      41.178  24.592  26.270  1.00  0.00     0.124 S 
ATOM     89  O   UNL A   1      42.453  23.943  26.558  1.00  0.00    -0.237 OA
ATOM     90  O   UNL A   1      39.988  23.771  26.467  1.00  0.00    -0.237 OA
ATOM     91  O   UNL A   1      41.159  25.427  25.070  1.00  0.00    -0.744 OA
ENDBRANCH  87  88
ENDBRANCH  59  82
BRANCH  71  92
ATOM     92  C   UNL A   1      44.065  28.749  35.807  1.00  0.00    -0.014 A 
ATOM     93  C   UNL A   1      45.414  29.098  35.631  1.00  0.00     0.010 A 
ATOM     94  C   UNL A   1      43.720  27.720  36.701  1.00  0.00     0.010 A 
ATOM     95  C   UNL A   1      46.407  28.396  36.310  1.00  0.00     0.020 A 
ATOM     96  C   UNL A   1      44.708  27.045  37.412  1.00  0.00     0.020 A 
ATOM     97  C   UNL A   1      46.047  27.377  37.197  1.00  0.00     0.054 A 
BRANCH  97  98
ATOM     98  S   UNL A   1      47.357  26.508  38.094  1.00  0.00     0.124 S 
ATOM     99  O   UNL A   1      47.761  25.492  37.127  1.00  0.00    -0.237 OA
ATOM    100  O   UNL A   1      48.331  27.568  38.340  1.00  0.00    -0.237 OA
ATOM    101  O   UNL A   1      46.683  26.000  39.288  1.00  0.00    -0.744 OA
ENDBRANCH  97  98
ENDBRANCH  71  92
ENDBRANCH  45  46
ENDBRANCH  38  40
ENDBRANCH  37  38
ENDBRANCH   1  37
TORSDOF 15
ENDMDL
MODEL 3
REMARK VINA RESULT:     -11.8      4.471     10.286
REMARK SMILES CC1(C)CC[C@@]2(C(=O)OCCOC(=O)c3ccc(-c4c5nc(c(-c6ccc(S(=O)(=O)[O-])cc6)c6ccc([nH]6)c(-c6ccc(S(=O)(=O)[O-])cc6)c6nc(c(-c7ccc(S(=O)(=O)[O-])cc7)c7ccc4[nH]7)C=C6)C=C5)cc3)CC[C@@]3(C)C(=CC[C@H]4[C@@]5(C)CC[C@H](O)C(C)(C)[C@@H]5CC[C@]43C)[C@@H]2C1
REMARK SMILES IDX 11 1 10 2 9 3 7 4 8 5 6 6 1 7 2 8 3 9 4 10 98 11 5 12 97 13
REMARK SMILES IDX 79 14 75 15 77 16 80 17 76 18 78 19 95 20 81 21 82 22 94 23
REMARK SMILES IDX 96 24 83 25 93 26 84 27 85 28 92 29 86 30 89 31 87 32 90 33
REMARK SMILES IDX 91 34 88 35 12 37 13 38 14 39 15 40 16 41 74 42 17 43 73 44
REMARK SMILES IDX 18 45 19 46 20 47 67 48 21 49 72 50 66 51 68 52 22 53 71 54
REMARK SMILES IDX 65 55 64 56 23 58 53 59 34 60 52 61 35 62 38 63 51 64 69 65
REMARK SMILES IDX 36 66 37 67 50 69 70 70 39 71 24 72 25 73 33 74 26 75 32 76
REMARK SMILES IDX 27 77 28 78 29 79 30 80 31 81 54 82 55 83 63 84 56 85 62 86
REMARK SMILES IDX 57 87 58 88 59 89 60 90 61 91 40 92 41 93 49 94 42 95 48 96
REMARK SMILES IDX 43 97 44 98 45 99 46 100 47 101
REMARK H PARENT 88 36 68 57 38 68
REMARK Flexibility Score: inf
ROOT
ATOM      1  C   UNL A   1      38.976  24.104  26.632  1.00  0.00     0.275 C 
ENDROOT
BRANCH   1   2
ATOM      2  C   UNL A   1      37.484  24.077  26.489  1.00  0.00     0.274 C 
BRANCH   2   3
ATOM      3  O   UNL A   1      37.073  23.652  25.239  1.00  0.00    -0.462 OA
BRANCH   3   4
ATOM      4  C   UNL A   1      35.735  23.643  25.313  1.00  0.00     0.312 C 
ATOM      5  O   UNL A   1      35.120  24.550  25.865  1.00  0.00    -0.252 OA
BRANCH   4   6
ATOM      6  C   UNL A   1      35.076  22.526  24.492  1.00  0.00     0.075 C 
ATOM      7  C   UNL A   1      32.975  19.828  26.501  1.00  0.00     0.011 C 
ATOM      8  C   UNL A   1      33.232  21.336  26.662  1.00  0.00    -0.035 C 
ATOM      9  C   UNL A   1      32.441  21.827  27.898  1.00  0.00     0.011 C 
ATOM     10  C   UNL A   1      34.747  21.515  26.830  1.00  0.00     0.007 C 
ATOM     11  C   UNL A   1      32.682  22.151  25.481  1.00  0.00     0.015 C 
ATOM     12  C   UNL A   1      35.515  21.375  25.465  1.00  0.00     0.020 C 
ATOM     13  C   UNL A   1      33.547  22.308  24.216  1.00  0.00     0.033 C 
ATOM     14  C   UNL A   1      32.799  23.203  23.188  1.00  0.00    -0.063 C 
ATOM     15  C   UNL A   1      35.690  22.657  23.070  1.00  0.00     0.020 C 
ATOM     16  C   UNL A   1      33.490  24.001  22.077  1.00  0.00    -0.006 C 
ATOM     17  C   UNL A   1      31.446  23.190  23.182  1.00  0.00    -0.027 C 
ATOM     18  C   UNL A   1      35.092  23.867  22.199  1.00  0.00     0.013 C 
ATOM     19  C   UNL A   1      33.277  23.176  20.738  1.00  0.00     0.017 C 
ATOM     20  C   UNL A   1      32.629  25.601  22.068  1.00  0.00    -0.020 C 
ATOM     21  C   UNL A   1      30.693  24.457  23.516  1.00  0.00     0.032 C 
ATOM     22  C   UNL A   1      31.416  25.781  23.202  1.00  0.00     0.006 C 
ATOM     23  C   UNL A   1      33.398  26.980  21.988  1.00  0.00     0.008 C 
ATOM     24  C   UNL A   1      31.853  25.577  20.679  1.00  0.00     0.012 C 
ATOM     25  C   UNL A   1      31.366  26.916  24.451  1.00  0.00    -0.025 C 
ATOM     26  C   UNL A   1      32.875  28.233  22.846  1.00  0.00     0.005 C 
ATOM     27  C   UNL A   1      30.015  27.665  24.303  1.00  0.00     0.012 C 
ATOM     28  C   UNL A   1      31.287  26.326  25.921  1.00  0.00     0.010 C 
ATOM     29  C   UNL A   1      32.525  27.944  24.328  1.00  0.00     0.003 C 
ATOM     30  C   UNL A   1      31.649  27.277  27.081  1.00  0.00     0.033 C 
ATOM     31  C   UNL A   1      32.786  29.006  25.527  1.00  0.00    -0.006 C 
ATOM     32  C   UNL A   1      32.872  28.162  26.850  1.00  0.00     0.120 C 
ATOM     33  C   UNL A   1      31.757  30.136  25.716  1.00  0.00     0.014 C 
ATOM     34  C   UNL A   1      34.142  29.765  25.381  1.00  0.00     0.014 C 
BRANCH  32  35
ATOM     35  O   UNL A   1      33.135  28.964  28.001  1.00  0.00    -0.393 OA
ATOM     36  H   UNL A   1      33.055  29.902  27.768  1.00  0.00     0.210 HD
ENDBRANCH  32  35
ENDBRANCH   4   6
ENDBRANCH   3   4
ENDBRANCH   2   3
ENDBRANCH   1   2
BRANCH   1  37
ATOM     37  O   UNL A   1      39.501  25.391  26.752  1.00  0.00    -0.458 OA
BRANCH  37  38
ATOM     38  C   UNL A   1      40.354  25.379  27.808  1.00  0.00     0.338 C 
ATOM     39  O   UNL A   1      41.003  24.466  28.244  1.00  0.00    -0.246 OA
BRANCH  38  40
ATOM     40  C   UNL A   1      39.925  26.540  28.570  1.00  0.00     0.060 A 
ATOM     41  C   UNL A   1      40.422  27.789  28.200  1.00  0.00     0.016 A 
ATOM     42  C   UNL A   1      39.002  26.344  29.607  1.00  0.00     0.016 A 
ATOM     43  C   UNL A   1      40.128  28.853  29.001  1.00  0.00     0.010 A 
ATOM     44  C   UNL A   1      38.705  27.417  30.420  1.00  0.00     0.010 A 
ATOM     45  C   UNL A   1      39.390  28.610  30.170  1.00  0.00    -0.014 A 
BRANCH  45  46
ATOM     46  C   UNL A   1      39.822  29.422  31.302  1.00  0.00     0.031 A 
ATOM     47  C   UNL A   1      38.873  30.506  31.739  1.00  0.00     0.074 A 
ATOM     48  C   UNL A   1      40.880  28.999  32.001  1.00  0.00     0.049 A 
ATOM     49  N   UNL A   1      38.899  31.238  32.814  1.00  0.00    -0.248 NA
ATOM     50  C   UNL A   1      37.707  30.780  30.870  1.00  0.00     0.031 C 
ATOM     51  C   UNL A   1      41.722  27.853  31.647  1.00  0.00     0.029 A 
ATOM     52  N   UNL A   1      41.383  29.451  33.176  1.00  0.00    -0.354 N 
ATOM     53  C   UNL A   1      37.760  32.036  32.748  1.00  0.00     0.074 A 
ATOM     54  C   UNL A   1      37.072  31.734  31.524  1.00  0.00     0.031 C 
ATOM     55  C   UNL A   1      42.644  27.687  32.608  1.00  0.00     0.029 A 
ATOM     56  C   UNL A   1      42.466  28.734  33.607  1.00  0.00     0.049 A 
ATOM     57  H   UNL A   1      41.008  30.216  33.669  1.00  0.00     0.167 HD
ATOM     58  C   UNL A   1      37.332  32.948  33.645  1.00  0.00     0.031 A 
ATOM     59  C   UNL A   1      43.224  28.942  34.694  1.00  0.00     0.031 A 
ATOM     60  C   UNL A   1      38.088  33.246  34.823  1.00  0.00     0.049 A 
ATOM     61  C   UNL A   1      42.805  30.061  35.608  1.00  0.00     0.074 A 
ATOM     62  C   UNL A   1      37.847  34.198  35.791  1.00  0.00     0.029 A 
ATOM     63  N   UNL A   1      39.259  32.585  35.175  1.00  0.00    -0.354 N 
ATOM     64  N   UNL A   1      41.751  30.843  35.523  1.00  0.00    -0.248 NA
ATOM     65  C   UNL A   1      43.665  30.321  36.762  1.00  0.00     0.031 C 
ATOM     66  C   UNL A   1      38.916  34.158  36.691  1.00  0.00     0.029 A 
ATOM     67  C   UNL A   1      39.776  33.127  36.330  1.00  0.00     0.049 A 
ATOM     68  H   UNL A   1      39.659  31.838  34.672  1.00  0.00     0.167 HD
ATOM     69  C   UNL A   1      41.806  31.681  36.628  1.00  0.00     0.074 A 
ATOM     70  C   UNL A   1      42.990  31.286  37.373  1.00  0.00     0.031 C 
ATOM     71  C   UNL A   1      40.971  32.682  37.006  1.00  0.00     0.031 A 
BRANCH  58  72
ATOM     72  C   UNL A   1      36.081  33.716  33.314  1.00  0.00    -0.014 A 
ATOM     73  C   UNL A   1      34.799  33.213  33.614  1.00  0.00     0.010 A 
ATOM     74  C   UNL A   1      36.188  34.952  32.655  1.00  0.00     0.010 A 
ATOM     75  C   UNL A   1      33.653  33.922  33.239  1.00  0.00     0.020 A 
ATOM     76  C   UNL A   1      35.046  35.678  32.304  1.00  0.00     0.020 A 
ATOM     77  C   UNL A   1      33.785  35.154  32.590  1.00  0.00     0.054 A 
BRANCH  77  78
ATOM     78  S   UNL A   1      32.285  36.077  32.154  1.00  0.00     0.124 S 
ATOM     79  O   UNL A   1      31.230  35.128  32.501  1.00  0.00    -0.237 OA
ATOM     80  O   UNL A   1      32.377  37.255  33.010  1.00  0.00    -0.237 OA
ATOM     81  O   UNL A   1      32.439  36.337  30.724  1.00  0.00    -0.744 OA
ENDBRANCH  77  78
ENDBRANCH  58  72
BRANCH  59  82
ATOM     82  C   UNL A   1      44.435  28.114  34.921  1.00  0.00    -0.014 A 
ATOM     83  C   UNL A   1      45.685  28.488  34.405  1.00  0.00     0.010 A 
ATOM     84  C   UNL A   1      44.339  26.940  35.695  1.00  0.00     0.010 A 
ATOM     85  C   UNL A   1      46.812  27.693  34.638  1.00  0.00     0.020 A 
ATOM     86  C   UNL A   1      45.466  26.160  35.957  1.00  0.00     0.020 A 
ATOM     87  C   UNL A   1      46.695  26.534  35.414  1.00  0.00     0.054 A 
BRANCH  87  88
ATOM     88  S   UNL A   1      48.175  25.534  35.726  1.00  0.00     0.124 S 
ATOM     89  O   UNL A   1      49.108  26.057  34.732  1.00  0.00    -0.237 OA
ATOM     90  O   UNL A   1      48.483  25.856  37.116  1.00  0.00    -0.237 OA
ATOM     91  O   UNL A   1      47.718  24.165  35.496  1.00  0.00    -0.744 OA
ENDBRANCH  87  88
ENDBRANCH  59  82
BRANCH  71  92
ATOM     92  C   UNL A   1      41.304  33.380  38.290  1.00  0.00    -0.014 A 
ATOM     93  C   UNL A   1      42.134  34.514  38.305  1.00  0.00     0.010 A 
ATOM     94  C   UNL A   1      40.718  32.927  39.485  1.00  0.00     0.010 A 
ATOM     95  C   UNL A   1      42.408  35.158  39.509  1.00  0.00     0.020 A 
ATOM     96  C   UNL A   1      40.957  33.594  40.682  1.00  0.00     0.020 A 
ATOM     97  C   UNL A   1      41.816  34.695  40.689  1.00  0.00     0.054 A 
BRANCH  97  98
ATOM     98  S   UNL A   1      42.160  35.574  42.232  1.00  0.00     0.124 S 
ATOM     99  O   UNL A   1      42.574  34.487  43.113  1.00  0.00    -0.237 OA
ATOM    100  O   UNL A   1      43.217  36.504  41.839  1.00  0.00    -0.237 OA
ATOM    101  O   UNL A   1      40.882  36.198  42.569  1.00  0.00    -0.744 OA
ENDBRANCH  97  98
ENDBRANCH  71  92
ENDBRANCH  45  46
ENDBRANCH  38  40
ENDBRANCH  37  38
ENDBRANCH   1  37
TORSDOF 15
ENDMDL
