MODEL 1
REMARK VINA RESULT:      -9.5      0.000      0.000
REMARK SMILES C[C@@H]1[C@H](C(=O)OCCOC(=O)c2ccc(-c3c4nc(c(-c5ccc(S(=O)(=O)[O-])cc5)c5ccc([nH]5)c(-c5ccc(S(=O)(=O)[O-])cc5)c5nc(c(-c6ccc(S(=O)(=O)[O-])cc6)c6ccc3[nH]6)C=C5)C=C4)cc2)CCN1S(=O)(=O)c1cc(F)cc(F)c1
REMARK SMILES IDX 8 1 7 2 6 3 4 4 5 5 3 6 1 7 2 8 74 9 72 10 73 11 75 12 76 13
REMARK SMILES IDX 77 14 78 15 79 16 85 17 80 18 83 19 81 20 82 21 84 22 9 23
REMARK SMILES IDX 10 24 11 25 12 26 13 27 71 28 14 29 70 30 15 31 16 32 17 33
REMARK SMILES IDX 64 34 18 35 69 36 63 37 65 38 19 39 68 40 62 41 61 42 20 44
REMARK SMILES IDX 50 45 31 46 49 47 32 48 35 49 48 50 66 51 33 52 34 53 47 55
REMARK SMILES IDX 67 56 36 57 21 58 22 59 30 60 23 61 29 62 24 63 25 64 26 65
REMARK SMILES IDX 27 66 28 67 51 68 52 69 60 70 53 71 59 72 54 73 55 74 56 75
REMARK SMILES IDX 57 76 58 77 37 78 38 79 46 80 39 81 45 82 40 83 41 84 42 85
REMARK SMILES IDX 43 86 44 87
REMARK H PARENT 65 43 35 54
REMARK Flexibility Score: inf
ROOT
ATOM      1  C   UNL A   1      34.488  32.620  27.759  1.00  0.00     0.275 C 
ENDROOT
BRANCH   1   2
ATOM      2  C   UNL A   1      34.444  33.775  28.764  1.00  0.00     0.274 C 
BRANCH   2   3
ATOM      3  O   UNL A   1      34.669  33.266  30.092  1.00  0.00    -0.462 OA
BRANCH   3   4
ATOM      4  C   UNL A   1      34.434  34.086  31.136  1.00  0.00     0.310 C 
ATOM      5  O   UNL A   1      33.855  35.164  31.052  1.00  0.00    -0.252 OA
BRANCH   4   6
ATOM      6  C   UNL A   1      34.910  33.536  32.460  1.00  0.00     0.118 C 
ATOM      7  C   UNL A   1      37.421  33.264  31.832  1.00  0.00     0.027 C 
ATOM      8  C   UNL A   1      36.208  32.715  32.579  1.00  0.00     0.084 C 
ATOM      9  N   UNL A   1      36.409  32.646  34.071  1.00  0.00    -0.194 NA
ATOM     10  C   UNL A   1      35.082  34.593  33.527  1.00  0.00     0.034 C 
ATOM     11  C   UNL A   1      35.631  33.775  34.688  1.00  0.00     0.104 C 
BRANCH   9  12
ATOM     12  S   UNL A   1      37.873  32.334  34.858  1.00  0.00     0.243 S 
ATOM     13  O   UNL A   1      38.773  33.441  34.605  1.00  0.00    -0.207 OA
ATOM     14  O   UNL A   1      37.520  31.997  36.225  1.00  0.00    -0.207 OA
BRANCH  12  15
ATOM     15  C   UNL A   1      38.644  30.877  34.193  1.00  0.00     0.088 A 
ATOM     16  C   UNL A   1      40.046  30.839  34.237  1.00  0.00     0.061 A 
ATOM     17  C   UNL A   1      37.952  29.832  33.584  1.00  0.00     0.061 A 
ATOM     18  C   UNL A   1      40.730  29.781  33.647  1.00  0.00     0.127 A 
ATOM     19  C   UNL A   1      38.664  28.787  32.997  1.00  0.00     0.127 A 
ATOM     20  F   UNL A   1      42.068  29.772  33.666  1.00  0.00    -0.207 F 
ATOM     21  C   UNL A   1      40.050  28.752  33.016  1.00  0.00     0.078 A 
ATOM     22  F   UNL A   1      37.993  27.810  32.375  1.00  0.00    -0.207 F 
ENDBRANCH  12  15
ENDBRANCH   9  12
ENDBRANCH   4   6
ENDBRANCH   3   4
ENDBRANCH   2   3
ENDBRANCH   1   2
BRANCH   1  23
ATOM     23  O   UNL A   1      33.902  31.425  28.311  1.00  0.00    -0.458 OA
BRANCH  23  24
ATOM     24  C   UNL A   1      34.316  30.261  27.755  1.00  0.00     0.338 C 
ATOM     25  O   UNL A   1      33.715  29.580  26.942  1.00  0.00    -0.246 OA
BRANCH  24  26
ATOM     26  C   UNL A   1      35.708  29.995  28.156  1.00  0.00     0.060 A 
ATOM     27  C   UNL A   1      36.693  30.039  27.167  1.00  0.00     0.016 A 
ATOM     28  C   UNL A   1      36.038  29.662  29.470  1.00  0.00     0.016 A 
ATOM     29  C   UNL A   1      38.017  29.755  27.483  1.00  0.00     0.010 A 
ATOM     30  C   UNL A   1      37.370  29.379  29.789  1.00  0.00     0.010 A 
ATOM     31  C   UNL A   1      38.365  29.420  28.796  1.00  0.00    -0.014 A 
BRANCH  31  32
ATOM     32  C   UNL A   1      39.773  29.086  29.114  1.00  0.00     0.031 A 
ATOM     33  C   UNL A   1      40.643  30.098  29.800  1.00  0.00     0.074 A 
ATOM     34  C   UNL A   1      40.250  27.862  28.819  1.00  0.00     0.049 A 
ATOM     35  N   UNL A   1      41.912  30.022  30.103  1.00  0.00    -0.248 NA
ATOM     36  C   UNL A   1      40.000  31.361  30.201  1.00  0.00     0.031 C 
ATOM     37  C   UNL A   1      39.478  26.777  28.211  1.00  0.00     0.029 A 
ATOM     38  N   UNL A   1      41.499  27.324  28.998  1.00  0.00    -0.354 N 
ATOM     39  C   UNL A   1      42.227  31.228  30.717  1.00  0.00     0.074 A 
ATOM     40  C   UNL A   1      41.019  32.026  30.727  1.00  0.00     0.031 C 
ATOM     41  C   UNL A   1      40.269  25.700  28.075  1.00  0.00     0.029 A 
ATOM     42  C   UNL A   1      41.612  26.033  28.540  1.00  0.00     0.049 A 
ATOM     43  H   UNL A   1      42.243  27.816  29.414  1.00  0.00     0.167 HD
ATOM     44  C   UNL A   1      43.416  31.633  31.224  1.00  0.00     0.031 A 
ATOM     45  C   UNL A   1      42.684  25.221  28.477  1.00  0.00     0.031 A 
ATOM     46  C   UNL A   1      44.614  30.837  31.203  1.00  0.00     0.049 A 
ATOM     47  C   UNL A   1      44.011  25.724  28.975  1.00  0.00     0.074 A 
ATOM     48  C   UNL A   1      45.875  31.163  31.673  1.00  0.00     0.029 A 
ATOM     49  N   UNL A   1      44.701  29.553  30.685  1.00  0.00    -0.354 N 
ATOM     50  N   UNL A   1      44.300  26.880  29.525  1.00  0.00    -0.248 NA
ATOM     51  C   UNL A   1      45.158  24.815  28.838  1.00  0.00     0.031 C 
ATOM     52  C   UNL A   1      46.733  30.091  31.403  1.00  0.00     0.029 A 
ATOM     53  C   UNL A   1      45.996  29.079  30.809  1.00  0.00     0.049 A 
ATOM     54  H   UNL A   1      43.952  29.053  30.288  1.00  0.00     0.167 HD
ATOM     55  C   UNL A   1      45.657  26.830  29.818  1.00  0.00     0.074 A 
ATOM     56  C   UNL A   1      46.129  25.526  29.397  1.00  0.00     0.031 C 
ATOM     57  C   UNL A   1      46.444  27.778  30.383  1.00  0.00     0.031 A 
BRANCH  44  58
ATOM     58  C   UNL A   1      43.483  33.016  31.811  1.00  0.00    -0.014 A 
ATOM     59  C   UNL A   1      43.427  33.220  33.201  1.00  0.00     0.010 A 
ATOM     60  C   UNL A   1      43.632  34.126  30.961  1.00  0.00     0.010 A 
ATOM     61  C   UNL A   1      43.483  34.513  33.729  1.00  0.00     0.020 A 
ATOM     62  C   UNL A   1      43.710  35.420  31.485  1.00  0.00     0.020 A 
ATOM     63  C   UNL A   1      43.617  35.605  32.866  1.00  0.00     0.054 A 
BRANCH  63  64
ATOM     64  S   UNL A   1      43.699  37.274  33.574  1.00  0.00     0.124 S 
ATOM     65  O   UNL A   1      42.369  37.414  34.163  1.00  0.00    -0.237 OA
ATOM     66  O   UNL A   1      44.799  37.165  34.529  1.00  0.00    -0.237 OA
ATOM     67  O   UNL A   1      43.963  38.129  32.420  1.00  0.00    -0.744 OA
ENDBRANCH  63  64
ENDBRANCH  44  58
BRANCH  45  68
ATOM     68  C   UNL A   1      42.554  23.860  27.889  1.00  0.00    -0.014 A 
ATOM     69  C   UNL A   1      42.222  22.759  28.698  1.00  0.00     0.010 A 
ATOM     70  C   UNL A   1      42.764  23.660  26.513  1.00  0.00     0.010 A 
ATOM     71  C   UNL A   1      42.119  21.480  28.142  1.00  0.00     0.020 A 
ATOM     72  C   UNL A   1      42.636  22.388  25.950  1.00  0.00     0.020 A 
ATOM     73  C   UNL A   1      42.327  21.303  26.771  1.00  0.00     0.054 A 
BRANCH  73  74
ATOM     74  S   UNL A   1      42.144  19.643  26.060  1.00  0.00     0.124 S 
ATOM     75  O   UNL A   1      43.058  19.700  24.923  1.00  0.00    -0.237 OA
ATOM     76  O   UNL A   1      42.558  18.778  27.162  1.00  0.00    -0.237 OA
ATOM     77  O   UNL A   1      40.725  19.572  25.722  1.00  0.00    -0.744 OA
ENDBRANCH  73  74
ENDBRANCH  45  68
BRANCH  57  78
ATOM     78  C   UNL A   1      47.890  27.427  30.609  1.00  0.00    -0.014 A 
ATOM     79  C   UNL A   1      48.280  26.626  31.695  1.00  0.00     0.010 A 
ATOM     80  C   UNL A   1      48.862  27.865  29.691  1.00  0.00     0.010 A 
ATOM     81  C   UNL A   1      49.624  26.291  31.877  1.00  0.00     0.020 A 
ATOM     82  C   UNL A   1      50.202  27.512  29.856  1.00  0.00     0.020 A 
ATOM     83  C   UNL A   1      50.578  26.738  30.956  1.00  0.00     0.054 A 
BRANCH  83  84
ATOM     84  S   UNL A   1      52.310  26.254  31.185  1.00  0.00     0.124 S 
ATOM     85  O   UNL A   1      52.782  26.152  29.807  1.00  0.00    -0.237 OA
ATOM     86  O   UNL A   1      52.857  27.369  31.955  1.00  0.00    -0.237 OA
ATOM     87  O   UNL A   1      52.223  24.989  31.911  1.00  0.00    -0.744 OA
ENDBRANCH  83  84
ENDBRANCH  57  78
ENDBRANCH  31  32
ENDBRANCH  24  26
ENDBRANCH  23  24
ENDBRANCH   1  23
TORSDOF 16
ENDMDL
MODEL 2
REMARK VINA RESULT:      -9.4      3.408      5.964
REMARK SMILES C[C@@H]1[C@H](C(=O)OCCOC(=O)c2ccc(-c3c4nc(c(-c5ccc(S(=O)(=O)[O-])cc5)c5ccc([nH]5)c(-c5ccc(S(=O)(=O)[O-])cc5)c5nc(c(-c6ccc(S(=O)(=O)[O-])cc6)c6ccc3[nH]6)C=C5)C=C4)cc2)CCN1S(=O)(=O)c1cc(F)cc(F)c1
REMARK SMILES IDX 8 1 7 2 6 3 4 4 5 5 3 6 1 7 2 8 74 9 72 10 73 11 75 12 76 13
REMARK SMILES IDX 77 14 78 15 79 16 85 17 80 18 83 19 81 20 82 21 84 22 9 23
REMARK SMILES IDX 10 24 11 25 12 26 13 27 71 28 14 29 70 30 15 31 16 32 17 33
REMARK SMILES IDX 64 34 18 35 69 36 63 37 65 38 19 39 68 40 62 41 61 42 20 44
REMARK SMILES IDX 50 45 31 46 49 47 32 48 35 49 48 50 66 51 33 52 34 53 47 55
REMARK SMILES IDX 67 56 36 57 21 58 22 59 30 60 23 61 29 62 24 63 25 64 26 65
REMARK SMILES IDX 27 66 28 67 51 68 52 69 60 70 53 71 59 72 54 73 55 74 56 75
REMARK SMILES IDX 57 76 58 77 37 78 38 79 46 80 39 81 45 82 40 83 41 84 42 85
REMARK SMILES IDX 43 86 44 87
REMARK H PARENT 65 43 35 54
REMARK Flexibility Score: inf
ROOT
ATOM      1  C   UNL A   1      32.472  29.359  26.948  1.00  0.00     0.275 C 
ENDROOT
BRANCH   1   2
ATOM      2  C   UNL A   1      32.190  29.845  25.523  1.00  0.00     0.274 C 
BRANCH   2   3
ATOM      3  O   UNL A   1      31.238  28.966  24.895  1.00  0.00    -0.462 OA
BRANCH   3   4
ATOM      4  C   UNL A   1      31.640  28.258  23.820  1.00  0.00     0.310 C 
ATOM      5  O   UNL A   1      32.116  28.754  22.804  1.00  0.00    -0.252 OA
BRANCH   4   6
ATOM      6  C   UNL A   1      31.496  26.763  23.988  1.00  0.00     0.118 C 
ATOM      7  C   UNL A   1      33.710  26.356  25.294  1.00  0.00     0.027 C 
ATOM      8  C   UNL A   1      32.713  25.856  24.252  1.00  0.00     0.084 C 
ATOM      9  N   UNL A   1      32.063  24.549  24.629  1.00  0.00    -0.194 NA
ATOM     10  C   UNL A   1      30.538  26.369  25.089  1.00  0.00     0.034 C 
ATOM     11  C   UNL A   1      30.659  24.851  25.076  1.00  0.00     0.104 C 
BRANCH   9  12
ATOM     12  S   UNL A   1      32.790  23.300  25.508  1.00  0.00     0.243 S 
ATOM     13  O   UNL A   1      32.712  23.627  26.916  1.00  0.00    -0.207 OA
ATOM     14  O   UNL A   1      32.184  22.074  25.022  1.00  0.00    -0.207 OA
BRANCH  12  15
ATOM     15  C   UNL A   1      34.516  23.171  25.100  1.00  0.00     0.088 A 
ATOM     16  C   UNL A   1      35.422  23.484  26.125  1.00  0.00     0.061 A 
ATOM     17  C   UNL A   1      35.002  22.852  23.834  1.00  0.00     0.061 A 
ATOM     18  C   UNL A   1      36.788  23.505  25.860  1.00  0.00     0.127 A 
ATOM     19  C   UNL A   1      36.375  22.886  23.596  1.00  0.00     0.127 A 
ATOM     20  F   UNL A   1      37.641  23.838  26.836  1.00  0.00    -0.207 F 
ATOM     21  C   UNL A   1      37.276  23.216  24.597  1.00  0.00     0.078 A 
ATOM     22  F   UNL A   1      36.830  22.622  22.365  1.00  0.00    -0.207 F 
ENDBRANCH  12  15
ENDBRANCH   9  12
ENDBRANCH   4   6
ENDBRANCH   3   4
ENDBRANCH   2   3
ENDBRANCH   1   2
BRANCH   1  23
ATOM     23  O   UNL A   1      33.888  29.272  27.200  1.00  0.00    -0.458 OA
BRANCH  23  24
ATOM     24  C   UNL A   1      34.442  30.354  27.796  1.00  0.00     0.338 C 
ATOM     25  O   UNL A   1      33.893  31.409  28.062  1.00  0.00    -0.246 OA
BRANCH  24  26
ATOM     26  C   UNL A   1      35.806  30.022  28.242  1.00  0.00     0.060 A 
ATOM     27  C   UNL A   1      36.839  30.101  27.305  1.00  0.00     0.016 A 
ATOM     28  C   UNL A   1      36.065  29.598  29.546  1.00  0.00     0.016 A 
ATOM     29  C   UNL A   1      38.138  29.758  27.662  1.00  0.00     0.010 A 
ATOM     30  C   UNL A   1      37.372  29.255  29.906  1.00  0.00     0.010 A 
ATOM     31  C   UNL A   1      38.414  29.330  28.965  1.00  0.00    -0.014 A 
BRANCH  31  32
ATOM     32  C   UNL A   1      39.795  28.936  29.326  1.00  0.00     0.031 A 
ATOM     33  C   UNL A   1      40.672  29.892  30.082  1.00  0.00     0.074 A 
ATOM     34  C   UNL A   1      40.243  27.708  29.005  1.00  0.00     0.049 A 
ATOM     35  N   UNL A   1      41.924  29.761  30.431  1.00  0.00    -0.248 NA
ATOM     36  C   UNL A   1      40.056  31.162  30.502  1.00  0.00     0.031 C 
ATOM     37  C   UNL A   1      39.459  26.672  28.329  1.00  0.00     0.029 A 
ATOM     38  N   UNL A   1      41.464  27.120  29.213  1.00  0.00    -0.354 N 
ATOM     39  C   UNL A   1      42.255  30.933  31.100  1.00  0.00     0.074 A 
ATOM     40  C   UNL A   1      41.075  31.772  31.092  1.00  0.00     0.031 C 
ATOM     41  C   UNL A   1      40.218  25.573  28.185  1.00  0.00     0.029 A 
ATOM     42  C   UNL A   1      41.551  25.842  28.714  1.00  0.00     0.049 A 
ATOM     43  H   UNL A   1      42.207  27.570  29.676  1.00  0.00     0.167 HD
ATOM     44  C   UNL A   1      43.435  31.277  31.667  1.00  0.00     0.031 A 
ATOM     45  C   UNL A   1      42.597  24.996  28.663  1.00  0.00     0.031 A 
ATOM     46  C   UNL A   1      44.606  30.441  31.664  1.00  0.00     0.049 A 
ATOM     47  C   UNL A   1      43.919  25.434  29.230  1.00  0.00     0.074 A 
ATOM     48  C   UNL A   1      45.857  30.706  32.194  1.00  0.00     0.029 A 
ATOM     49  N   UNL A   1      44.669  29.174  31.103  1.00  0.00    -0.354 N 
ATOM     50  N   UNL A   1      44.225  26.558  29.832  1.00  0.00    -0.248 NA
ATOM     51  C   UNL A   1      45.039  24.490  29.105  1.00  0.00     0.031 C 
ATOM     52  C   UNL A   1      46.688  29.614  31.919  1.00  0.00     0.029 A 
ATOM     53  C   UNL A   1      45.942  28.650  31.260  1.00  0.00     0.049 A 
ATOM     54  H   UNL A   1      43.921  28.714  30.660  1.00  0.00     0.167 HD
ATOM     55  C   UNL A   1      45.567  26.450  30.176  1.00  0.00     0.074 A 
ATOM     56  C   UNL A   1      46.011  25.146  29.726  1.00  0.00     0.031 C 
ATOM     57  C   UNL A   1      46.363  27.350  30.805  1.00  0.00     0.031 A 
BRANCH  44  58
ATOM     58  C   UNL A   1      43.525  32.636  32.306  1.00  0.00    -0.014 A 
ATOM     59  C   UNL A   1      43.868  33.773  31.553  1.00  0.00     0.010 A 
ATOM     60  C   UNL A   1      43.234  32.782  33.675  1.00  0.00     0.010 A 
ATOM     61  C   UNL A   1      43.954  35.026  32.166  1.00  0.00     0.020 A 
ATOM     62  C   UNL A   1      43.298  34.037  34.286  1.00  0.00     0.020 A 
ATOM     63  C   UNL A   1      43.675  35.149  33.530  1.00  0.00     0.054 A 
BRANCH  63  64
ATOM     64  S   UNL A   1      43.783  36.788  34.300  1.00  0.00     0.124 S 
ATOM     65  O   UNL A   1      45.102  37.239  33.862  1.00  0.00    -0.237 OA
ATOM     66  O   UNL A   1      42.650  37.497  33.711  1.00  0.00    -0.237 OA
ATOM     67  O   UNL A   1      43.663  36.509  35.729  1.00  0.00    -0.744 OA
ENDBRANCH  63  64
ENDBRANCH  44  58
BRANCH  45  68
ATOM     68  C   UNL A   1      42.445  23.661  28.021  1.00  0.00    -0.014 A 
ATOM     69  C   UNL A   1      42.714  23.489  26.652  1.00  0.00     0.010 A 
ATOM     70  C   UNL A   1      42.028  22.553  28.781  1.00  0.00     0.010 A 
ATOM     71  C   UNL A   1      42.553  22.237  26.052  1.00  0.00     0.020 A 
ATOM     72  C   UNL A   1      41.891  21.295  28.191  1.00  0.00     0.020 A 
ATOM     73  C   UNL A   1      42.142  21.147  26.825  1.00  0.00     0.054 A 
BRANCH  73  74
ATOM     74  S   UNL A   1      41.980  19.520  26.039  1.00  0.00     0.124 S 
ATOM     75  O   UNL A   1      40.543  19.443  25.796  1.00  0.00    -0.237 OA
ATOM     76  O   UNL A   1      42.817  19.657  24.849  1.00  0.00    -0.237 OA
ATOM     77  O   UNL A   1      42.497  18.601  27.051  1.00  0.00    -0.744 OA
ENDBRANCH  73  74
ENDBRANCH  45  68
BRANCH  57  78
ATOM     78  C   UNL A   1      47.785  26.940  31.075  1.00  0.00    -0.014 A 
ATOM     79  C   UNL A   1      48.804  27.205  30.144  1.00  0.00     0.010 A 
ATOM     80  C   UNL A   1      48.110  26.327  32.299  1.00  0.00     0.010 A 
ATOM     81  C   UNL A   1      50.123  26.838  30.421  1.00  0.00     0.020 A 
ATOM     82  C   UNL A   1      49.431  25.981  32.588  1.00  0.00     0.020 A 
ATOM     83  C   UNL A   1      50.429  26.226  31.641  1.00  0.00     0.054 A 
BRANCH  83  84
ATOM     84  S   UNL A   1      52.154  25.799  32.000  1.00  0.00     0.124 S 
ATOM     85  O   UNL A   1      52.852  26.357  30.844  1.00  0.00    -0.237 OA
ATOM     86  O   UNL A   1      52.398  26.479  33.269  1.00  0.00    -0.237 OA
ATOM     87  O   UNL A   1      52.140  24.340  32.076  1.00  0.00    -0.744 OA
ENDBRANCH  83  84
ENDBRANCH  57  78
ENDBRANCH  31  32
ENDBRANCH  24  26
ENDBRANCH  23  24
ENDBRANCH   1  23
TORSDOF 16
ENDMDL
MODEL 3
REMARK VINA RESULT:      -9.3      4.745     11.685
REMARK SMILES C[C@@H]1[C@H](C(=O)OCCOC(=O)c2ccc(-c3c4nc(c(-c5ccc(S(=O)(=O)[O-])cc5)c5ccc([nH]5)c(-c5ccc(S(=O)(=O)[O-])cc5)c5nc(c(-c6ccc(S(=O)(=O)[O-])cc6)c6ccc3[nH]6)C=C5)C=C4)cc2)CCN1S(=O)(=O)c1cc(F)cc(F)c1
REMARK SMILES IDX 8 1 7 2 6 3 4 4 5 5 3 6 1 7 2 8 74 9 72 10 73 11 75 12 76 13
REMARK SMILES IDX 77 14 78 15 79 16 85 17 80 18 83 19 81 20 82 21 84 22 9 23
REMARK SMILES IDX 10 24 11 25 12 26 13 27 71 28 14 29 70 30 15 31 16 32 17 33
REMARK SMILES IDX 64 34 18 35 69 36 63 37 65 38 19 39 68 40 62 41 61 42 20 44
REMARK SMILES IDX 50 45 31 46 49 47 32 48 35 49 48 50 66 51 33 52 34 53 47 55
REMARK SMILES IDX 67 56 36 57 21 58 22 59 30 60 23 61 29 62 24 63 25 64 26 65
REMARK SMILES IDX 27 66 28 67 51 68 52 69 60 70 53 71 59 72 54 73 55 74 56 75
REMARK SMILES IDX 57 76 58 77 37 78 38 79 46 80 39 81 45 82 40 83 41 84 42 85
REMARK SMILES IDX 43 86 44 87
REMARK H PARENT 65 43 35 54
REMARK Flexibility Score: inf
ROOT
ATOM      1  C   UNL A   1      39.466  22.427  26.296  1.00  0.00     0.275 C 
ENDROOT
BRANCH   1   2
ATOM      2  C   UNL A   1      38.046  22.732  25.809  1.00  0.00     0.274 C 
BRANCH   2   3
ATOM      3  O   UNL A   1      37.392  21.504  25.436  1.00  0.00    -0.462 OA
BRANCH   3   4
ATOM      4  C   UNL A   1      36.061  21.531  25.225  1.00  0.00     0.310 C 
ATOM      5  O   UNL A   1      35.394  20.558  24.892  1.00  0.00    -0.252 OA
BRANCH   4   6
ATOM      6  C   UNL A   1      35.432  22.880  25.484  1.00  0.00     0.118 C 
ATOM      7  C   UNL A   1      34.430  23.249  23.111  1.00  0.00     0.027 C 
ATOM      8  C   UNL A   1      35.104  23.856  24.339  1.00  0.00     0.084 C 
ATOM      9  N   UNL A   1      34.255  24.891  25.033  1.00  0.00    -0.194 NA
ATOM     10  C   UNL A   1      34.127  22.803  26.244  1.00  0.00     0.034 C 
ATOM     11  C   UNL A   1      33.704  24.264  26.284  1.00  0.00     0.104 C 
BRANCH   9  12
ATOM     12  S   UNL A   1      33.168  25.946  24.279  1.00  0.00     0.243 S 
ATOM     13  O   UNL A   1      33.718  26.328  22.995  1.00  0.00    -0.207 OA
ATOM     14  O   UNL A   1      31.876  25.288  24.339  1.00  0.00    -0.207 OA
BRANCH  12  15
ATOM     15  C   UNL A   1      32.985  27.438  25.229  1.00  0.00     0.088 A 
ATOM     16  C   UNL A   1      31.979  28.322  24.811  1.00  0.00     0.061 A 
ATOM     17  C   UNL A   1      33.810  27.798  26.292  1.00  0.00     0.061 A 
ATOM     18  C   UNL A   1      31.836  29.557  25.437  1.00  0.00     0.127 A 
ATOM     19  C   UNL A   1      33.647  29.043  26.898  1.00  0.00     0.127 A 
ATOM     20  F   UNL A   1      30.894  30.405  25.008  1.00  0.00    -0.207 F 
ATOM     21  C   UNL A   1      32.669  29.932  26.477  1.00  0.00     0.078 A 
ATOM     22  F   UNL A   1      34.473  29.399  27.889  1.00  0.00    -0.207 F 
ENDBRANCH  12  15
ENDBRANCH   9  12
ENDBRANCH   4   6
ENDBRANCH   3   4
ENDBRANCH   2   3
ENDBRANCH   1   2
BRANCH   1  23
ATOM     23  O   UNL A   1      39.846  23.299  27.378  1.00  0.00    -0.458 OA
BRANCH  23  24
ATOM     24  C   UNL A   1      40.673  24.318  27.045  1.00  0.00     0.338 C 
ATOM     25  O   UNL A   1      41.345  24.418  26.033  1.00  0.00    -0.246 OA
BRANCH  24  26
ATOM     26  C   UNL A   1      40.529  25.407  28.026  1.00  0.00     0.060 A 
ATOM     27  C   UNL A   1      41.629  26.239  28.247  1.00  0.00     0.016 A 
ATOM     28  C   UNL A   1      39.352  25.583  28.754  1.00  0.00     0.016 A 
ATOM     29  C   UNL A   1      41.561  27.255  29.192  1.00  0.00     0.010 A 
ATOM     30  C   UNL A   1      39.282  26.607  29.704  1.00  0.00     0.010 A 
ATOM     31  C   UNL A   1      40.388  27.446  29.930  1.00  0.00    -0.014 A 
BRANCH  31  32
ATOM     32  C   UNL A   1      40.338  28.510  30.959  1.00  0.00     0.031 A 
ATOM     33  C   UNL A   1      41.279  28.464  32.127  1.00  0.00     0.074 A 
ATOM     34  C   UNL A   1      39.474  29.533  30.818  1.00  0.00     0.049 A 
ATOM     35  N   UNL A   1      41.348  29.261  33.161  1.00  0.00    -0.248 NA
ATOM     36  C   UNL A   1      42.276  27.381  32.131  1.00  0.00     0.031 C 
ATOM     37  C   UNL A   1      38.556  29.716  29.691  1.00  0.00     0.029 A 
ATOM     38  N   UNL A   1      39.231  30.615  31.625  1.00  0.00    -0.354 N 
ATOM     39  C   UNL A   1      42.383  28.771  33.947  1.00  0.00     0.074 A 
ATOM     40  C   UNL A   1      42.903  27.597  33.279  1.00  0.00     0.031 C 
ATOM     41  C   UNL A   1      37.857  30.847  29.876  1.00  0.00     0.029 A 
ATOM     42  C   UNL A   1      38.240  31.442  31.153  1.00  0.00     0.049 A 
ATOM     43  H   UNL A   1      39.719  30.782  32.463  1.00  0.00     0.167 HD
ATOM     44  C   UNL A   1      42.855  29.257  35.120  1.00  0.00     0.031 A 
ATOM     45  C   UNL A   1      37.685  32.539  31.702  1.00  0.00     0.031 A 
ATOM     46  C   UNL A   1      42.328  30.420  35.782  1.00  0.00     0.049 A 
ATOM     47  C   UNL A   1      38.174  33.012  33.043  1.00  0.00     0.074 A 
ATOM     48  C   UNL A   1      42.723  30.983  36.983  1.00  0.00     0.029 A 
ATOM     49  N   UNL A   1      41.291  31.202  35.296  1.00  0.00    -0.354 N 
ATOM     50  N   UNL A   1      39.134  32.519  33.789  1.00  0.00    -0.248 NA
ATOM     51  C   UNL A   1      37.501  34.184  33.618  1.00  0.00     0.031 C 
ATOM     52  C   UNL A   1      41.898  32.082  37.243  1.00  0.00     0.029 A 
ATOM     53  C   UNL A   1      41.021  32.233  36.181  1.00  0.00     0.049 A 
ATOM     54  H   UNL A   1      40.816  31.048  34.448  1.00  0.00     0.167 HD
ATOM     55  C   UNL A   1      39.194  33.333  34.914  1.00  0.00     0.074 A 
ATOM     56  C   UNL A   1      38.183  34.358  34.743  1.00  0.00     0.031 C 
ATOM     57  C   UNL A   1      40.010  33.242  35.992  1.00  0.00     0.031 A 
BRANCH  44  58
ATOM     58  C   UNL A   1      43.978  28.503  35.779  1.00  0.00    -0.014 A 
ATOM     59  C   UNL A   1      45.322  28.825  35.518  1.00  0.00     0.010 A 
ATOM     60  C   UNL A   1      43.684  27.477  36.694  1.00  0.00     0.010 A 
ATOM     61  C   UNL A   1      46.352  28.108  36.134  1.00  0.00     0.020 A 
ATOM     62  C   UNL A   1      44.711  26.772  37.329  1.00  0.00     0.020 A 
ATOM     63  C   UNL A   1      46.039  27.081  37.030  1.00  0.00     0.054 A 
BRANCH  63  64
ATOM     64  S   UNL A   1      47.393  26.173  37.825  1.00  0.00     0.124 S 
ATOM     65  O   UNL A   1      46.769  25.736  39.072  1.00  0.00    -0.237 OA
ATOM     66  O   UNL A   1      47.680  25.113  36.862  1.00  0.00    -0.237 OA
ATOM     67  O   UNL A   1      48.445  27.176  37.973  1.00  0.00    -0.744 OA
ENDBRANCH  63  64
ENDBRANCH  44  58
BRANCH  45  68
ATOM     68  C   UNL A   1      36.580  33.246  30.999  1.00  0.00    -0.014 A 
ATOM     69  C   UNL A   1      35.285  33.275  31.546  1.00  0.00     0.010 A 
ATOM     70  C   UNL A   1      36.820  33.895  29.774  1.00  0.00     0.010 A 
ATOM     71  C   UNL A   1      34.248  33.926  30.872  1.00  0.00     0.020 A 
ATOM     72  C   UNL A   1      35.791  34.568  29.111  1.00  0.00     0.020 A 
ATOM     73  C   UNL A   1      34.507  34.568  29.658  1.00  0.00     0.054 A 
BRANCH  73  74
ATOM     74  S   UNL A   1      33.159  35.446  28.820  1.00  0.00     0.124 S 
ATOM     75  O   UNL A   1      33.887  36.436  28.031  1.00  0.00    -0.237 OA
ATOM     76  O   UNL A   1      32.511  34.381  28.058  1.00  0.00    -0.237 OA
ATOM     77  O   UNL A   1      32.364  35.982  29.922  1.00  0.00    -0.744 OA
ENDBRANCH  73  74
ENDBRANCH  45  68
BRANCH  57  78
ATOM     78  C   UNL A   1      39.866  34.297  37.055  1.00  0.00    -0.014 A 
ATOM     79  C   UNL A   1      40.441  35.569  36.897  1.00  0.00     0.010 A 
ATOM     80  C   UNL A   1      39.102  34.023  38.204  1.00  0.00     0.010 A 
ATOM     81  C   UNL A   1      40.277  36.544  37.885  1.00  0.00     0.020 A 
ATOM     82  C   UNL A   1      38.917  35.002  39.182  1.00  0.00     0.020 A 
ATOM     83  C   UNL A   1      39.518  36.253  39.023  1.00  0.00     0.054 A 
BRANCH  83  84
ATOM     84  S   UNL A   1      39.280  37.547  40.271  1.00  0.00     0.124 S 
ATOM     85  O   UNL A   1      38.279  38.401  39.637  1.00  0.00    -0.237 OA
ATOM     86  O   UNL A   1      38.817  36.793  41.433  1.00  0.00    -0.237 OA
ATOM     87  O   UNL A   1      40.608  38.140  40.411  1.00  0.00    -0.744 OA
ENDBRANCH  83  84
ENDBRANCH  57  78
ENDBRANCH  31  32
ENDBRANCH  24  26
ENDBRANCH  23  24
ENDBRANCH   1  23
TORSDOF 16
ENDMDL
