MODEL 1
REMARK VINA RESULT:     -13.2      0.000      0.000
REMARK SMILES O=C(OCCOC(=O)c1ccc(-n2cc(CSc3nc4ccccc4c(=O)n3-c3ccccc3)nn2)cc1)c1ccc(-c2c3nc(c(-c4ccc(S(=O)(=O)[O-])cc4)c4ccc([nH]4)c(-c4ccc(S(=O)(=O)[O-])cc4)c4nc(c(-c5ccc(S(=O)(=O)[O-])cc5)c5ccc2[nH]5)C=C4)C=C3)cc1
REMARK SMILES IDX 5 1 4 2 3 3 2 4 1 5 39 6 40 7 98 8 41 9 97 10 42 11 43 12
REMARK SMILES IDX 44 13 91 14 45 15 96 16 90 17 92 18 46 19 95 20 89 21 88 22
REMARK SMILES IDX 47 24 77 25 58 26 76 27 59 28 62 29 75 30 93 31 60 32 61 33
REMARK SMILES IDX 74 35 94 36 63 37 48 38 49 39 57 40 50 41 56 42 51 43 52 44
REMARK SMILES IDX 53 45 54 46 55 47 78 48 79 49 87 50 80 51 86 52 81 53 82 54
REMARK SMILES IDX 83 55 84 56 85 57 64 58 65 59 73 60 66 61 72 62 67 63 68 64
REMARK SMILES IDX 69 65 70 66 71 67 6 68 7 69 8 70 9 71 10 72 38 73 11 74
REMARK SMILES IDX 37 75 12 76 13 77 14 78 36 79 15 80 35 81 16 82 17 83 18 84
REMARK SMILES IDX 19 85 28 86 20 87 26 88 21 89 25 90 27 91 22 92 24 93 23 94
REMARK SMILES IDX 29 95 30 96 34 97 31 98 33 99 32 100
REMARK H PARENT 92 23 62 34
REMARK Flexibility Score: inf
ROOT
ATOM      1  C   UNL A   1      41.035  20.225  26.626  1.00  0.00     0.275 C 
ENDROOT
BRANCH   1   2
ATOM      2  C   UNL A   1      42.430  20.152  26.005  1.00  0.00     0.275 C 
BRANCH   2   3
ATOM      3  O   UNL A   1      43.355  21.211  26.329  1.00  0.00    -0.458 OA
BRANCH   3   4
ATOM      4  C   UNL A   1      43.393  22.302  25.536  1.00  0.00     0.338 C 
ATOM      5  O   UNL A   1      43.552  22.263  24.325  1.00  0.00    -0.246 OA
BRANCH   4   6
ATOM      6  C   UNL A   1      43.065  23.544  26.275  1.00  0.00     0.060 A 
ATOM      7  C   UNL A   1      42.364  24.601  25.683  1.00  0.00     0.016 A 
ATOM      8  C   UNL A   1      43.456  23.626  27.616  1.00  0.00     0.016 A 
ATOM      9  C   UNL A   1      42.109  25.754  26.410  1.00  0.00     0.010 A 
ATOM     10  C   UNL A   1      43.170  24.764  28.354  1.00  0.00     0.010 A 
ATOM     11  C   UNL A   1      42.549  25.848  27.732  1.00  0.00    -0.014 A 
BRANCH  11  12
ATOM     12  C   UNL A   1      42.353  27.114  28.429  1.00  0.00     0.031 A 
ATOM     13  C   UNL A   1      43.456  28.107  28.333  1.00  0.00     0.074 A 
ATOM     14  C   UNL A   1      41.193  27.424  29.039  1.00  0.00     0.049 A 
ATOM     15  N   UNL A   1      44.244  28.530  29.269  1.00  0.00    -0.248 NA
ATOM     16  C   UNL A   1      43.780  28.629  27.001  1.00  0.00     0.031 C 
ATOM     17  C   UNL A   1      39.922  26.692  28.988  1.00  0.00     0.029 A 
ATOM     18  N   UNL A   1      40.874  28.543  29.745  1.00  0.00    -0.354 N 
ATOM     19  C   UNL A   1      45.027  29.530  28.691  1.00  0.00     0.074 A 
ATOM     20  C   UNL A   1      44.810  29.431  27.268  1.00  0.00     0.031 C 
ATOM     21  C   UNL A   1      38.927  27.500  29.410  1.00  0.00     0.029 A 
ATOM     22  C   UNL A   1      39.509  28.732  29.912  1.00  0.00     0.049 A 
ATOM     23  H   UNL A   1      41.549  29.161  30.105  1.00  0.00     0.167 HD
ATOM     24  C   UNL A   1      45.615  30.513  29.432  1.00  0.00     0.031 A 
ATOM     25  C   UNL A   1      38.896  29.849  30.372  1.00  0.00     0.031 A 
ATOM     26  C   UNL A   1      45.617  30.201  30.839  1.00  0.00     0.049 A 
ATOM     27  C   UNL A   1      39.899  30.620  31.141  1.00  0.00     0.074 A 
ATOM     28  C   UNL A   1      46.135  29.189  31.622  1.00  0.00     0.029 A 
ATOM     29  N   UNL A   1      44.686  30.842  31.622  1.00  0.00    -0.354 N 
ATOM     30  N   UNL A   1      40.426  30.197  32.257  1.00  0.00    -0.248 NA
ATOM     31  C   UNL A   1      40.643  31.669  30.463  1.00  0.00     0.031 C 
ATOM     32  C   UNL A   1      45.155  28.972  32.636  1.00  0.00     0.029 A 
ATOM     33  C   UNL A   1      44.127  29.899  32.444  1.00  0.00     0.049 A 
ATOM     34  H   UNL A   1      44.462  31.800  31.596  1.00  0.00     0.167 HD
ATOM     35  C   UNL A   1      41.752  30.600  32.202  1.00  0.00     0.074 A 
ATOM     36  C   UNL A   1      41.797  31.598  31.135  1.00  0.00     0.031 C 
ATOM     37  C   UNL A   1      42.734  29.892  32.837  1.00  0.00     0.031 A 
BRANCH  24  38
ATOM     38  C   UNL A   1      45.821  31.935  28.948  1.00  0.00    -0.014 A 
ATOM     39  C   UNL A   1      44.685  32.719  28.648  1.00  0.00     0.010 A 
ATOM     40  C   UNL A   1      47.063  32.418  28.489  1.00  0.00     0.010 A 
ATOM     41  C   UNL A   1      44.776  33.857  27.834  1.00  0.00     0.020 A 
ATOM     42  C   UNL A   1      47.171  33.577  27.716  1.00  0.00     0.020 A 
ATOM     43  C   UNL A   1      46.020  34.261  27.352  1.00  0.00     0.054 A 
BRANCH  43  44
ATOM     44  S   UNL A   1      46.111  35.631  26.173  1.00  0.00     0.124 S 
ATOM     45  O   UNL A   1      46.172  34.923  24.898  1.00  0.00    -0.237 OA
ATOM     46  O   UNL A   1      44.869  36.353  26.438  1.00  0.00    -0.237 OA
ATOM     47  O   UNL A   1      47.329  36.337  26.561  1.00  0.00    -0.744 OA
ENDBRANCH  43  44
ENDBRANCH  24  38
BRANCH  25  48
ATOM     48  C   UNL A   1      37.610  30.416  29.904  1.00  0.00    -0.014 A 
ATOM     49  C   UNL A   1      36.699  30.998  30.803  1.00  0.00     0.010 A 
ATOM     50  C   UNL A   1      37.396  30.626  28.525  1.00  0.00     0.010 A 
ATOM     51  C   UNL A   1      35.645  31.806  30.341  1.00  0.00     0.020 A 
ATOM     52  C   UNL A   1      36.344  31.421  28.056  1.00  0.00     0.020 A 
ATOM     53  C   UNL A   1      35.487  32.027  28.969  1.00  0.00     0.054 A 
BRANCH  53  54
ATOM     54  S   UNL A   1      34.231  33.207  28.392  1.00  0.00     0.124 S 
ATOM     55  O   UNL A   1      35.013  34.105  27.548  1.00  0.00    -0.237 OA
ATOM     56  O   UNL A   1      33.284  32.347  27.690  1.00  0.00    -0.237 OA
ATOM     57  O   UNL A   1      33.724  33.804  29.627  1.00  0.00    -0.744 OA
ENDBRANCH  53  54
ENDBRANCH  25  48
BRANCH  37  58
ATOM     58  C   UNL A   1      42.329  28.835  33.837  1.00  0.00    -0.014 A 
ATOM     59  C   UNL A   1      42.407  27.451  33.581  1.00  0.00     0.010 A 
ATOM     60  C   UNL A   1      42.011  29.256  35.140  1.00  0.00     0.010 A 
ATOM     61  C   UNL A   1      42.147  26.518  34.595  1.00  0.00     0.020 A 
ATOM     62  C   UNL A   1      41.769  28.332  36.160  1.00  0.00     0.020 A 
ATOM     63  C   UNL A   1      41.831  26.966  35.880  1.00  0.00     0.054 A 
BRANCH  63  64
ATOM     64  S   UNL A   1      41.551  25.755  37.203  1.00  0.00     0.124 S 
ATOM     65  O   UNL A   1      41.635  24.482  36.494  1.00  0.00    -0.237 OA
ATOM     66  O   UNL A   1      42.643  26.031  38.134  1.00  0.00    -0.237 OA
ATOM     67  O   UNL A   1      40.221  26.093  37.709  1.00  0.00    -0.744 OA
ENDBRANCH  63  64
ENDBRANCH  37  58
ENDBRANCH  11  12
ENDBRANCH   4   6
ENDBRANCH   3   4
ENDBRANCH   2   3
ENDBRANCH   1   2
BRANCH   1  68
ATOM     68  O   UNL A   1      40.200  21.115  25.863  1.00  0.00    -0.458 OA
BRANCH  68  69
ATOM     69  C   UNL A   1      39.604  22.102  26.566  1.00  0.00     0.338 C 
ATOM     70  O   UNL A   1      40.047  22.711  27.537  1.00  0.00    -0.246 OA
BRANCH  69  71
ATOM     71  C   UNL A   1      38.297  22.372  25.961  1.00  0.00     0.060 A 
ATOM     72  C   UNL A   1      37.669  21.370  25.216  1.00  0.00     0.018 A 
ATOM     73  C   UNL A   1      37.711  23.634  26.103  1.00  0.00     0.018 A 
ATOM     74  C   UNL A   1      36.410  21.594  24.665  1.00  0.00     0.029 A 
ATOM     75  C   UNL A   1      36.495  23.896  25.469  1.00  0.00     0.029 A 
ATOM     76  C   UNL A   1      35.845  22.866  24.769  1.00  0.00     0.066 A 
BRANCH  76  77
ATOM     77  N   UNL A   1      34.717  23.147  23.981  1.00  0.00    -0.220 N 
ATOM     78  C   UNL A   1      33.452  23.331  24.466  1.00  0.00     0.141 A 
ATOM     79  N   UNL A   1      34.765  23.496  22.683  1.00  0.00    -0.062 NA
ATOM     80  C   UNL A   1      32.730  23.851  23.417  1.00  0.00     0.093 A 
ATOM     81  N   UNL A   1      33.540  23.858  22.310  1.00  0.00    -0.134 NA
BRANCH  80  82
ATOM     82  C   UNL A   1      31.280  24.139  23.329  1.00  0.00     0.138 C 
BRANCH  82  83
ATOM     83  S   UNL A   1      30.386  25.155  24.507  1.00  0.00    -0.081 SA
BRANCH  83  84
ATOM     84  C   UNL A   1      30.252  26.829  24.037  1.00  0.00     0.176 A 
ATOM     85  N   UNL A   1      29.077  27.112  23.551  1.00  0.00    -0.223 NA
ATOM     86  N   UNL A   1      31.233  27.799  24.168  1.00  0.00    -0.255 N 
ATOM     87  C   UNL A   1      28.856  28.395  23.035  1.00  0.00     0.079 A 
ATOM     88  C   UNL A   1      31.251  28.731  23.123  1.00  0.00     0.266 A 
ATOM     89  C   UNL A   1      27.566  28.872  22.802  1.00  0.00     0.029 A 
ATOM     90  C   UNL A   1      29.933  29.180  22.654  1.00  0.00     0.066 A 
ATOM     91  O   UNL A   1      32.252  29.198  22.583  1.00  0.00    -0.268 OA
ATOM     92  C   UNL A   1      27.372  30.094  22.146  1.00  0.00     0.002 A 
ATOM     93  C   UNL A   1      29.761  30.376  21.950  1.00  0.00     0.016 A 
ATOM     94  C   UNL A   1      28.469  30.830  21.690  1.00  0.00     0.001 A 
BRANCH  86  95
ATOM     95  C   UNL A   1      32.202  27.939  25.237  1.00  0.00     0.051 A 
ATOM     96  C   UNL A   1      31.837  28.574  26.443  1.00  0.00     0.027 A 
ATOM     97  C   UNL A   1      33.518  27.461  25.183  1.00  0.00     0.027 A 
ATOM     98  C   UNL A   1      32.772  28.915  27.424  1.00  0.00     0.002 A 
ATOM     99  C   UNL A   1      34.476  27.846  26.133  1.00  0.00     0.002 A 
ATOM    100  C   UNL A   1      34.109  28.605  27.237  1.00  0.00     0.000 A 
ENDBRANCH  86  95
ENDBRANCH  83  84
ENDBRANCH  82  83
ENDBRANCH  80  82
ENDBRANCH  76  77
ENDBRANCH  69  71
ENDBRANCH  68  69
ENDBRANCH   1  68
TORSDOF 19
ENDMDL
MODEL 2
REMARK VINA RESULT:     -12.1      4.769     12.961
REMARK SMILES O=C(OCCOC(=O)c1ccc(-n2cc(CSc3nc4ccccc4c(=O)n3-c3ccccc3)nn2)cc1)c1ccc(-c2c3nc(c(-c4ccc(S(=O)(=O)[O-])cc4)c4ccc([nH]4)c(-c4ccc(S(=O)(=O)[O-])cc4)c4nc(c(-c5ccc(S(=O)(=O)[O-])cc5)c5ccc2[nH]5)C=C4)C=C3)cc1
REMARK SMILES IDX 5 1 4 2 3 3 2 4 1 5 39 6 40 7 98 8 41 9 97 10 42 11 43 12
REMARK SMILES IDX 44 13 91 14 45 15 96 16 90 17 92 18 46 19 95 20 89 21 88 22
REMARK SMILES IDX 47 24 77 25 58 26 76 27 59 28 62 29 75 30 93 31 60 32 61 33
REMARK SMILES IDX 74 35 94 36 63 37 48 38 49 39 57 40 50 41 56 42 51 43 52 44
REMARK SMILES IDX 53 45 54 46 55 47 78 48 79 49 87 50 80 51 86 52 81 53 82 54
REMARK SMILES IDX 83 55 84 56 85 57 64 58 65 59 73 60 66 61 72 62 67 63 68 64
REMARK SMILES IDX 69 65 70 66 71 67 6 68 7 69 8 70 9 71 10 72 38 73 11 74
REMARK SMILES IDX 37 75 12 76 13 77 14 78 36 79 15 80 35 81 16 82 17 83 18 84
REMARK SMILES IDX 19 85 28 86 20 87 26 88 21 89 25 90 27 91 22 92 24 93 23 94
REMARK SMILES IDX 29 95 30 96 34 97 31 98 33 99 32 100
REMARK H PARENT 92 23 62 34
REMARK Flexibility Score: inf
ROOT
ATOM      1  C   UNL A   1      33.043  35.070  28.519  1.00  0.00     0.275 C 
ENDROOT
BRANCH   1   2
ATOM      2  C   UNL A   1      33.175  33.689  27.877  1.00  0.00     0.275 C 
BRANCH   2   3
ATOM      3  O   UNL A   1      34.470  33.055  27.933  1.00  0.00    -0.458 OA
BRANCH   3   4
ATOM      4  C   UNL A   1      34.537  31.711  27.827  1.00  0.00     0.338 C 
ATOM      5  O   UNL A   1      33.662  31.019  27.327  1.00  0.00    -0.246 OA
BRANCH   4   6
ATOM      6  C   UNL A   1      35.857  31.181  28.242  1.00  0.00     0.060 A 
ATOM      7  C   UNL A   1      36.883  32.012  28.705  1.00  0.00     0.016 A 
ATOM      8  C   UNL A   1      36.049  29.795  28.186  1.00  0.00     0.016 A 
ATOM      9  C   UNL A   1      38.111  31.468  29.052  1.00  0.00     0.010 A 
ATOM     10  C   UNL A   1      37.264  29.247  28.567  1.00  0.00     0.010 A 
ATOM     11  C   UNL A   1      38.310  30.090  28.943  1.00  0.00    -0.014 A 
BRANCH  11  12
ATOM     12  C   UNL A   1      39.644  29.570  29.218  1.00  0.00     0.031 A 
ATOM     13  C   UNL A   1      40.055  29.503  30.646  1.00  0.00     0.074 A 
ATOM     14  C   UNL A   1      40.432  29.069  28.247  1.00  0.00     0.049 A 
ATOM     15  N   UNL A   1      40.970  30.187  31.255  1.00  0.00    -0.248 NA
ATOM     16  C   UNL A   1      39.281  28.625  31.530  1.00  0.00     0.031 C 
ATOM     17  C   UNL A   1      40.079  28.798  26.849  1.00  0.00     0.029 A 
ATOM     18  N   UNL A   1      41.697  28.577  28.346  1.00  0.00    -0.354 N 
ATOM     19  C   UNL A   1      41.035  29.675  32.552  1.00  0.00     0.074 A 
ATOM     20  C   UNL A   1      39.872  28.837  32.706  1.00  0.00     0.031 C 
ATOM     21  C   UNL A   1      41.002  27.972  26.311  1.00  0.00     0.029 A 
ATOM     22  C   UNL A   1      42.081  27.796  27.265  1.00  0.00     0.049 A 
ATOM     23  H   UNL A   1      42.286  28.760  29.112  1.00  0.00     0.167 HD
ATOM     24  C   UNL A   1      42.155  29.790  33.324  1.00  0.00     0.031 A 
ATOM     25  C   UNL A   1      43.181  27.008  27.185  1.00  0.00     0.031 A 
ATOM     26  C   UNL A   1      43.080  30.758  32.792  1.00  0.00     0.049 A 
ATOM     27  C   UNL A   1      44.153  27.500  28.188  1.00  0.00     0.074 A 
ATOM     28  C   UNL A   1      43.038  32.108  32.511  1.00  0.00     0.029 A 
ATOM     29  N   UNL A   1      44.181  30.270  32.128  1.00  0.00    -0.354 N 
ATOM     30  N   UNL A   1      44.728  28.669  28.115  1.00  0.00    -0.248 NA
ATOM     31  C   UNL A   1      44.172  26.881  29.503  1.00  0.00     0.031 C 
ATOM     32  C   UNL A   1      43.810  32.259  31.321  1.00  0.00     0.029 A 
ATOM     33  C   UNL A   1      44.321  31.004  30.979  1.00  0.00     0.049 A 
ATOM     34  H   UNL A   1      44.760  29.531  32.422  1.00  0.00     0.167 HD
ATOM     35  C   UNL A   1      44.792  29.119  29.426  1.00  0.00     0.074 A 
ATOM     36  C   UNL A   1      44.544  27.932  30.242  1.00  0.00     0.031 C 
ATOM     37  C   UNL A   1      44.769  30.454  29.718  1.00  0.00     0.031 A 
BRANCH  24  38
ATOM     38  C   UNL A   1      42.607  28.745  34.325  1.00  0.00    -0.014 A 
ATOM     39  C   UNL A   1      43.352  27.639  33.861  1.00  0.00     0.010 A 
ATOM     40  C   UNL A   1      42.074  28.649  35.627  1.00  0.00     0.010 A 
ATOM     41  C   UNL A   1      43.455  26.460  34.612  1.00  0.00     0.020 A 
ATOM     42  C   UNL A   1      42.212  27.495  36.403  1.00  0.00     0.020 A 
ATOM     43  C   UNL A   1      42.859  26.389  35.870  1.00  0.00     0.054 A 
BRANCH  43  44
ATOM     44  S   UNL A   1      42.857  24.815  36.763  1.00  0.00     0.124 S 
ATOM     45  O   UNL A   1      41.435  24.485  36.780  1.00  0.00    -0.237 OA
ATOM     46  O   UNL A   1      43.694  23.974  35.912  1.00  0.00    -0.237 OA
ATOM     47  O   UNL A   1      43.440  25.156  38.058  1.00  0.00    -0.744 OA
ENDBRANCH  43  44
ENDBRANCH  24  38
BRANCH  25  48
ATOM     48  C   UNL A   1      43.283  25.684  26.527  1.00  0.00    -0.014 A 
ATOM     49  C   UNL A   1      44.060  25.503  25.370  1.00  0.00     0.010 A 
ATOM     50  C   UNL A   1      42.824  24.531  27.197  1.00  0.00     0.010 A 
ATOM     51  C   UNL A   1      44.412  24.215  24.931  1.00  0.00     0.020 A 
ATOM     52  C   UNL A   1      43.162  23.244  26.763  1.00  0.00     0.020 A 
ATOM     53  C   UNL A   1      43.975  23.093  25.643  1.00  0.00     0.054 A 
BRANCH  53  54
ATOM     54  S   UNL A   1      44.574  21.444  25.170  1.00  0.00     0.124 S 
ATOM     55  O   UNL A   1      43.592  20.565  25.800  1.00  0.00    -0.237 OA
ATOM     56  O   UNL A   1      44.532  21.495  23.712  1.00  0.00    -0.237 OA
ATOM     57  O   UNL A   1      45.916  21.385  25.747  1.00  0.00    -0.744 OA
ENDBRANCH  53  54
ENDBRANCH  25  48
BRANCH  37  58
ATOM     58  C   UNL A   1      44.965  31.442  28.592  1.00  0.00    -0.014 A 
ATOM     59  C   UNL A   1      43.975  31.736  27.633  1.00  0.00     0.010 A 
ATOM     60  C   UNL A   1      46.137  32.220  28.602  1.00  0.00     0.010 A 
ATOM     61  C   UNL A   1      44.166  32.761  26.696  1.00  0.00     0.020 A 
ATOM     62  C   UNL A   1      46.325  33.255  27.683  1.00  0.00     0.020 A 
ATOM     63  C   UNL A   1      45.341  33.516  26.728  1.00  0.00     0.054 A 
BRANCH  63  64
ATOM     64  S   UNL A   1      45.559  34.878  25.548  1.00  0.00     0.124 S 
ATOM     65  O   UNL A   1      44.919  34.361  24.342  1.00  0.00    -0.237 OA
ATOM     66  O   UNL A   1      44.869  35.988  26.202  1.00  0.00    -0.237 OA
ATOM     67  O   UNL A   1      47.011  35.033  25.459  1.00  0.00    -0.744 OA
ENDBRANCH  63  64
ENDBRANCH  37  58
ENDBRANCH  11  12
ENDBRANCH   4   6
ENDBRANCH   3   4
ENDBRANCH   2   3
ENDBRANCH   1   2
BRANCH   1  68
ATOM     68  O   UNL A   1      32.526  34.947  29.856  1.00  0.00    -0.458 OA
BRANCH  68  69
ATOM     69  C   UNL A   1      32.926  35.899  30.727  1.00  0.00     0.338 C 
ATOM     70  O   UNL A   1      32.575  37.076  30.771  1.00  0.00    -0.246 OA
BRANCH  69  71
ATOM     71  C   UNL A   1      33.867  35.292  31.672  1.00  0.00     0.060 A 
ATOM     72  C   UNL A   1      34.607  34.175  31.276  1.00  0.00     0.018 A 
ATOM     73  C   UNL A   1      33.987  35.810  32.965  1.00  0.00     0.018 A 
ATOM     74  C   UNL A   1      35.534  33.606  32.146  1.00  0.00     0.029 A 
ATOM     75  C   UNL A   1      34.841  35.183  33.874  1.00  0.00     0.029 A 
ATOM     76  C   UNL A   1      35.623  34.096  33.450  1.00  0.00     0.066 A 
BRANCH  76  77
ATOM     77  N   UNL A   1      36.353  33.343  34.383  1.00  0.00    -0.220 N 
ATOM     78  C   UNL A   1      37.451  32.584  34.086  1.00  0.00     0.141 A 
ATOM     79  N   UNL A   1      36.214  33.443  35.717  1.00  0.00    -0.062 NA
ATOM     80  C   UNL A   1      38.009  32.256  35.300  1.00  0.00     0.093 A 
ATOM     81  N   UNL A   1      37.177  32.722  36.286  1.00  0.00    -0.134 NA
BRANCH  80  82
ATOM     82  C   UNL A   1      39.146  31.355  35.596  1.00  0.00     0.138 C 
BRANCH  82  83
ATOM     83  S   UNL A   1      40.671  31.890  36.377  1.00  0.00    -0.081 SA
BRANCH  83  84
ATOM     84  C   UNL A   1      40.600  33.503  37.035  1.00  0.00     0.176 A 
ATOM     85  N   UNL A   1      40.236  33.511  38.286  1.00  0.00    -0.223 NA
ATOM     86  N   UNL A   1      40.912  34.676  36.366  1.00  0.00    -0.255 N 
ATOM     87  C   UNL A   1      40.035  34.743  38.917  1.00  0.00     0.079 A 
ATOM     88  C   UNL A   1      40.107  35.764  36.725  1.00  0.00     0.266 A 
ATOM     89  C   UNL A   1      39.965  34.844  40.308  1.00  0.00     0.029 A 
ATOM     90  C   UNL A   1      39.803  35.879  38.158  1.00  0.00     0.066 A 
ATOM     91  O   UNL A   1      39.650  36.614  35.962  1.00  0.00    -0.268 OA
ATOM     92  C   UNL A   1      39.612  36.058  40.912  1.00  0.00     0.002 A 
ATOM     93  C   UNL A   1      39.397  37.085  38.738  1.00  0.00     0.016 A 
ATOM     94  C   UNL A   1      39.296  37.169  40.126  1.00  0.00     0.001 A 
BRANCH  86  95
ATOM     95  C   UNL A   1      41.947  34.880  35.372  1.00  0.00     0.051 A 
ATOM     96  C   UNL A   1      43.301  34.658  35.706  1.00  0.00     0.027 A 
ATOM     97  C   UNL A   1      41.711  35.273  34.048  1.00  0.00     0.027 A 
ATOM     98  C   UNL A   1      44.352  35.026  34.861  1.00  0.00     0.002 A 
ATOM     99  C   UNL A   1      42.756  35.698  33.213  1.00  0.00     0.002 A 
ATOM    100  C   UNL A   1      44.076  35.607  33.635  1.00  0.00     0.000 A 
ENDBRANCH  86  95
ENDBRANCH  83  84
ENDBRANCH  82  83
ENDBRANCH  80  82
ENDBRANCH  76  77
ENDBRANCH  69  71
ENDBRANCH  68  69
ENDBRANCH   1  68
TORSDOF 19
ENDMDL
MODEL 3
REMARK VINA RESULT:     -12.0      4.823     12.563
REMARK SMILES O=C(OCCOC(=O)c1ccc(-n2cc(CSc3nc4ccccc4c(=O)n3-c3ccccc3)nn2)cc1)c1ccc(-c2c3nc(c(-c4ccc(S(=O)(=O)[O-])cc4)c4ccc([nH]4)c(-c4ccc(S(=O)(=O)[O-])cc4)c4nc(c(-c5ccc(S(=O)(=O)[O-])cc5)c5ccc2[nH]5)C=C4)C=C3)cc1
REMARK SMILES IDX 5 1 4 2 3 3 2 4 1 5 39 6 40 7 98 8 41 9 97 10 42 11 43 12
REMARK SMILES IDX 44 13 91 14 45 15 96 16 90 17 92 18 46 19 95 20 89 21 88 22
REMARK SMILES IDX 47 24 77 25 58 26 76 27 59 28 62 29 75 30 93 31 60 32 61 33
REMARK SMILES IDX 74 35 94 36 63 37 48 38 49 39 57 40 50 41 56 42 51 43 52 44
REMARK SMILES IDX 53 45 54 46 55 47 78 48 79 49 87 50 80 51 86 52 81 53 82 54
REMARK SMILES IDX 83 55 84 56 85 57 64 58 65 59 73 60 66 61 72 62 67 63 68 64
REMARK SMILES IDX 69 65 70 66 71 67 6 68 7 69 8 70 9 71 10 72 38 73 11 74
REMARK SMILES IDX 37 75 12 76 13 77 14 78 36 79 15 80 35 81 16 82 17 83 18 84
REMARK SMILES IDX 19 85 28 86 20 87 26 88 21 89 25 90 27 91 22 92 24 93 23 94
REMARK SMILES IDX 29 95 30 96 34 97 31 98 33 99 32 100
REMARK H PARENT 92 23 62 34
REMARK Flexibility Score: inf
ROOT
ATOM      1  C   UNL A   1      33.123  34.890  28.514  1.00  0.00     0.275 C 
ENDROOT
BRANCH   1   2
ATOM      2  C   UNL A   1      33.320  33.514  27.878  1.00  0.00     0.275 C 
BRANCH   2   3
ATOM      3  O   UNL A   1      34.560  32.830  28.154  1.00  0.00    -0.458 OA
BRANCH   3   4
ATOM      4  C   UNL A   1      34.590  31.484  28.060  1.00  0.00     0.338 C 
ATOM      5  O   UNL A   1      33.633  30.799  27.729  1.00  0.00    -0.246 OA
BRANCH   4   6
ATOM      6  C   UNL A   1      35.954  30.938  28.251  1.00  0.00     0.060 A 
ATOM      7  C   UNL A   1      36.304  29.643  27.851  1.00  0.00     0.016 A 
ATOM      8  C   UNL A   1      36.916  31.777  28.828  1.00  0.00     0.016 A 
ATOM      9  C   UNL A   1      37.587  29.170  28.081  1.00  0.00     0.010 A 
ATOM     10  C   UNL A   1      38.208  31.317  29.026  1.00  0.00     0.010 A 
ATOM     11  C   UNL A   1      38.524  29.996  28.705  1.00  0.00    -0.014 A 
BRANCH  11  12
ATOM     12  C   UNL A   1      39.830  29.429  29.022  1.00  0.00     0.031 A 
ATOM     13  C   UNL A   1      40.106  29.149  30.457  1.00  0.00     0.074 A 
ATOM     14  C   UNL A   1      40.707  29.071  28.065  1.00  0.00     0.049 A 
ATOM     15  N   UNL A   1      40.958  29.726  31.242  1.00  0.00    -0.248 NA
ATOM     16  C   UNL A   1      39.258  28.155  31.125  1.00  0.00     0.031 C 
ATOM     17  C   UNL A   1      40.488  29.013  26.616  1.00  0.00     0.029 A 
ATOM     18  N   UNL A   1      41.960  28.559  28.207  1.00  0.00    -0.354 N 
ATOM     19  C   UNL A   1      40.905  29.027  32.449  1.00  0.00     0.074 A 
ATOM     20  C   UNL A   1      39.736  28.186  32.369  1.00  0.00     0.031 C 
ATOM     21  C   UNL A   1      41.460  28.268  26.049  1.00  0.00     0.029 A 
ATOM     22  C   UNL A   1      42.447  27.943  27.063  1.00  0.00     0.049 A 
ATOM     23  H   UNL A   1      42.474  28.621  29.043  1.00  0.00     0.167 HD
ATOM     24  C   UNL A   1      41.947  29.017  33.330  1.00  0.00     0.031 A 
ATOM     25  C   UNL A   1      43.554  27.166  26.969  1.00  0.00     0.031 A 
ATOM     26  C   UNL A   1      42.912  30.045  33.036  1.00  0.00     0.049 A 
ATOM     27  C   UNL A   1      44.425  27.496  28.120  1.00  0.00     0.074 A 
ATOM     28  C   UNL A   1      42.890  31.423  32.955  1.00  0.00     0.029 A 
ATOM     29  N   UNL A   1      44.073  29.651  32.412  1.00  0.00    -0.354 N 
ATOM     30  N   UNL A   1      44.999  28.657  28.274  1.00  0.00    -0.248 NA
ATOM     31  C   UNL A   1      44.326  26.689  29.325  1.00  0.00     0.031 C 
ATOM     32  C   UNL A   1      43.768  31.741  31.877  1.00  0.00     0.029 A 
ATOM     33  C   UNL A   1      44.315  30.546  31.403  1.00  0.00     0.049 A 
ATOM     34  H   UNL A   1      44.626  28.872  32.646  1.00  0.00     0.167 HD
ATOM     35  C   UNL A   1      44.939  28.908  29.637  1.00  0.00     0.074 A 
ATOM     36  C   UNL A   1      44.622  27.615  30.242  1.00  0.00     0.031 C 
ATOM     37  C   UNL A   1      44.882  30.185  30.121  1.00  0.00     0.031 A 
BRANCH  24  38
ATOM     38  C   UNL A   1      42.309  27.832  34.203  1.00  0.00    -0.014 A 
ATOM     39  C   UNL A   1      42.407  28.024  35.599  1.00  0.00     0.010 A 
ATOM     40  C   UNL A   1      42.849  26.636  33.688  1.00  0.00     0.010 A 
ATOM     41  C   UNL A   1      43.111  27.125  36.413  1.00  0.00     0.020 A 
ATOM     42  C   UNL A   1      43.512  25.710  34.499  1.00  0.00     0.020 A 
ATOM     43  C   UNL A   1      43.682  25.986  35.848  1.00  0.00     0.054 A 
BRANCH  43  44
ATOM     44  S   UNL A   1      44.724  24.917  36.870  1.00  0.00     0.124 S 
ATOM     45  O   UNL A   1      46.035  25.540  36.713  1.00  0.00    -0.237 OA
ATOM     46  O   UNL A   1      44.111  25.053  38.189  1.00  0.00    -0.237 OA
ATOM     47  O   UNL A   1      44.575  23.601  36.254  1.00  0.00    -0.744 OA
ENDBRANCH  43  44
ENDBRANCH  24  38
BRANCH  25  48
ATOM     48  C   UNL A   1      43.723  25.953  26.134  1.00  0.00    -0.014 A 
ATOM     49  C   UNL A   1      44.942  25.675  25.492  1.00  0.00     0.010 A 
ATOM     50  C   UNL A   1      42.758  24.925  26.187  1.00  0.00     0.010 A 
ATOM     51  C   UNL A   1      45.207  24.396  24.971  1.00  0.00     0.020 A 
ATOM     52  C   UNL A   1      43.011  23.652  25.664  1.00  0.00     0.020 A 
ATOM     53  C   UNL A   1      44.245  23.387  25.078  1.00  0.00     0.054 A 
BRANCH  53  54
ATOM     54  S   UNL A   1      44.660  21.697  24.557  1.00  0.00     0.124 S 
ATOM     55  O   UNL A   1      46.024  21.543  25.056  1.00  0.00    -0.237 OA
ATOM     56  O   UNL A   1      43.646  20.896  25.236  1.00  0.00    -0.237 OA
ATOM     57  O   UNL A   1      44.536  21.743  23.101  1.00  0.00    -0.744 OA
ENDBRANCH  53  54
ENDBRANCH  25  48
BRANCH  37  58
ATOM     58  C   UNL A   1      45.177  31.327  29.177  1.00  0.00    -0.014 A 
ATOM     59  C   UNL A   1      46.463  31.872  28.993  1.00  0.00     0.010 A 
ATOM     60  C   UNL A   1      44.142  31.756  28.327  1.00  0.00     0.010 A 
ATOM     61  C   UNL A   1      46.698  32.838  28.004  1.00  0.00     0.020 A 
ATOM     62  C   UNL A   1      44.374  32.704  27.327  1.00  0.00     0.020 A 
ATOM     63  C   UNL A   1      45.650  33.247  27.175  1.00  0.00     0.054 A 
BRANCH  63  64
ATOM     64  S   UNL A   1      45.972  34.455  25.860  1.00  0.00     0.124 S 
ATOM     65  O   UNL A   1      44.997  34.084  24.839  1.00  0.00    -0.237 OA
ATOM     66  O   UNL A   1      45.731  35.734  26.526  1.00  0.00    -0.237 OA
ATOM     67  O   UNL A   1      47.368  34.213  25.497  1.00  0.00    -0.744 OA
ENDBRANCH  63  64
ENDBRANCH  37  58
ENDBRANCH  11  12
ENDBRANCH   4   6
ENDBRANCH   3   4
ENDBRANCH   2   3
ENDBRANCH   1   2
BRANCH   1  68
ATOM     68  O   UNL A   1      32.574  34.750  29.836  1.00  0.00    -0.458 OA
BRANCH  68  69
ATOM     69  C   UNL A   1      32.911  35.719  30.715  1.00  0.00     0.338 C 
ATOM     70  O   UNL A   1      32.504  36.878  30.753  1.00  0.00    -0.246 OA
BRANCH  69  71
ATOM     71  C   UNL A   1      33.862  35.157  31.677  1.00  0.00     0.060 A 
ATOM     72  C   UNL A   1      34.158  35.872  32.841  1.00  0.00     0.018 A 
ATOM     73  C   UNL A   1      34.489  33.938  31.406  1.00  0.00     0.018 A 
ATOM     74  C   UNL A   1      35.030  35.338  33.787  1.00  0.00     0.029 A 
ATOM     75  C   UNL A   1      35.439  33.445  32.303  1.00  0.00     0.029 A 
ATOM     76  C   UNL A   1      35.689  34.142  33.497  1.00  0.00     0.066 A 
BRANCH  76  77
ATOM     77  N   UNL A   1      36.757  33.766  34.326  1.00  0.00    -0.220 N 
ATOM     78  C   UNL A   1      37.817  34.568  34.646  1.00  0.00     0.141 A 
ATOM     79  N   UNL A   1      36.771  32.662  35.094  1.00  0.00    -0.062 NA
ATOM     80  C   UNL A   1      38.464  33.927  35.678  1.00  0.00     0.093 A 
ATOM     81  N   UNL A   1      37.850  32.715  35.871  1.00  0.00    -0.134 NA
BRANCH  80  82
ATOM     82  C   UNL A   1      39.739  34.273  36.344  1.00  0.00     0.138 C 
BRANCH  82  83
ATOM     83  S   UNL A   1      41.358  33.880  35.678  1.00  0.00    -0.081 SA
BRANCH  83  84
ATOM     84  C   UNL A   1      41.645  34.533  34.087  1.00  0.00     0.176 A 
ATOM     85  N   UNL A   1      40.771  34.116  33.216  1.00  0.00    -0.223 NA
ATOM     86  N   UNL A   1      42.650  35.421  33.734  1.00  0.00    -0.255 N 
ATOM     87  C   UNL A   1      40.937  34.476  31.874  1.00  0.00     0.079 A 
ATOM     88  C   UNL A   1      43.171  35.205  32.452  1.00  0.00     0.266 A 
ATOM     89  C   UNL A   1      39.895  34.349  30.954  1.00  0.00     0.029 A 
ATOM     90  C   UNL A   1      42.182  34.876  31.415  1.00  0.00     0.066 A 
ATOM     91  O   UNL A   1      44.355  35.274  32.127  1.00  0.00    -0.268 OA
ATOM     92  C   UNL A   1      40.127  34.569  29.590  1.00  0.00     0.002 A 
ATOM     93  C   UNL A   1      42.446  35.049  30.053  1.00  0.00     0.016 A 
ATOM     94  C   UNL A   1      41.410  34.887  29.136  1.00  0.00     0.001 A 
BRANCH  86  95
ATOM     95  C   UNL A   1      43.193  36.505  34.528  1.00  0.00     0.051 A 
ATOM     96  C   UNL A   1      43.005  37.843  34.119  1.00  0.00     0.027 A 
ATOM     97  C   UNL A   1      43.898  36.336  35.726  1.00  0.00     0.027 A 
ATOM     98  C   UNL A   1      43.668  38.913  34.726  1.00  0.00     0.002 A 
ATOM     99  C   UNL A   1      44.613  37.393  36.310  1.00  0.00     0.002 A 
ATOM    100  C   UNL A   1      44.525  38.677  35.788  1.00  0.00     0.000 A 
ENDBRANCH  86  95
ENDBRANCH  83  84
ENDBRANCH  82  83
ENDBRANCH  80  82
ENDBRANCH  76  77
ENDBRANCH  69  71
ENDBRANCH  68  69
ENDBRANCH   1  68
TORSDOF 19
ENDMDL
