MODEL 1
REMARK VINA RESULT:      -9.2      0.000      0.000
REMARK SMILES O=C(Cc1cccn(C(F)F)c1=O)OCCOC(=O)c1ccc(-c2c3nc(c(-c4ccc(S(=O)(=O)[O-])cc4)c4ccc([nH]4)c(-c4ccc(S(=O)(=O)[O-])cc4)c4nc(c(-c5ccc(S(=O)(=O)[O-])cc5)c5ccc2[nH]5)C=C4)C=C3)cc1
REMARK SMILES IDX 16 1 15 2 14 3 2 4 1 5 3 6 4 7 5 8 12 9 6 10 8 11 13 12 7 13
REMARK SMILES IDX 9 14 10 15 11 16 17 17 18 18 19 19 20 20 21 21 79 22 22 23
REMARK SMILES IDX 78 24 23 25 24 26 25 27 72 28 26 29 77 30 71 31 73 32 27 33
REMARK SMILES IDX 76 34 70 35 69 36 28 38 58 39 39 40 57 41 40 42 43 43 56 44
REMARK SMILES IDX 74 45 41 46 42 47 55 49 75 50 44 51 29 52 30 53 38 54 31 55
REMARK SMILES IDX 37 56 32 57 33 58 34 59 35 60 36 61 59 62 60 63 68 64 61 65
REMARK SMILES IDX 67 66 62 67 63 68 64 69 65 70 66 71 45 72 46 73 54 74 47 75
REMARK SMILES IDX 53 76 48 77 49 78 50 79 51 80 52 81
REMARK H PARENT 73 37 43 48
REMARK Flexibility Score: inf
ROOT
ATOM      1  C   UNL A   1      33.642  33.003  28.121  1.00  0.00     0.275 C 
ENDROOT
BRANCH   1   2
ATOM      2  C   UNL A   1      34.306  34.353  28.391  1.00  0.00     0.274 C 
BRANCH   2   3
ATOM      3  O   UNL A   1      34.617  34.502  29.791  1.00  0.00    -0.462 OA
BRANCH   3   4
ATOM      4  C   UNL A   1      34.938  33.510  30.652  1.00  0.00     0.310 C 
ATOM      5  O   UNL A   1      34.122  33.146  31.499  1.00  0.00    -0.252 OA
BRANCH   4   6
ATOM      6  C   UNL A   1      36.332  32.903  30.617  1.00  0.00     0.164 C 
BRANCH   6   7
ATOM      7  C   UNL A   1      37.267  33.129  31.762  1.00  0.00     0.029 A 
ATOM      8  C   UNL A   1      37.955  34.279  31.888  1.00  0.00     0.011 A 
ATOM      9  C   UNL A   1      37.430  32.071  32.808  1.00  0.00     0.258 A 
ATOM     10  C   UNL A   1      38.814  34.520  33.015  1.00  0.00     0.019 A 
ATOM     11  N   UNL A   1      38.280  32.377  33.856  1.00  0.00    -0.258 N 
ATOM     12  O   UNL A   1      36.848  30.997  32.701  1.00  0.00    -0.269 OA
ATOM     13  C   UNL A   1      38.947  33.582  33.958  1.00  0.00     0.095 A 
BRANCH  11  14
ATOM     14  C   UNL A   1      38.445  31.385  34.886  1.00  0.00     0.451 C 
ATOM     15  F   UNL A   1      39.391  30.486  34.500  1.00  0.00    -0.185 F 
ATOM     16  F   UNL A   1      38.921  31.972  36.015  1.00  0.00    -0.185 F 
ENDBRANCH  11  14
ENDBRANCH   6   7
ENDBRANCH   4   6
ENDBRANCH   3   4
ENDBRANCH   2   3
ENDBRANCH   1   2
BRANCH   1  17
ATOM     17  O   UNL A   1      34.584  32.141  27.461  1.00  0.00    -0.458 OA
BRANCH  17  18
ATOM     18  C   UNL A   1      34.460  30.811  27.697  1.00  0.00     0.338 C 
ATOM     19  O   UNL A   1      33.488  30.115  27.461  1.00  0.00    -0.246 OA
BRANCH  18  20
ATOM     20  C   UNL A   1      35.796  30.291  28.077  1.00  0.00     0.060 A 
ATOM     21  C   UNL A   1      36.865  30.305  27.173  1.00  0.00     0.016 A 
ATOM     22  C   UNL A   1      35.944  29.687  29.332  1.00  0.00     0.016 A 
ATOM     23  C   UNL A   1      38.082  29.723  27.533  1.00  0.00     0.010 A 
ATOM     24  C   UNL A   1      37.166  29.113  29.693  1.00  0.00     0.010 A 
ATOM     25  C   UNL A   1      38.248  29.141  28.802  1.00  0.00    -0.014 A 
BRANCH  25  26
ATOM     26  C   UNL A   1      39.609  28.762  29.252  1.00  0.00     0.031 A 
ATOM     27  C   UNL A   1      40.436  29.629  30.149  1.00  0.00     0.074 A 
ATOM     28  C   UNL A   1      40.084  27.571  28.840  1.00  0.00     0.049 A 
ATOM     29  N   UNL A   1      41.576  29.345  30.727  1.00  0.00    -0.248 NA
ATOM     30  C   UNL A   1      39.932  30.978  30.438  1.00  0.00     0.031 C 
ATOM     31  C   UNL A   1      39.372  26.656  27.945  1.00  0.00     0.029 A 
ATOM     32  N   UNL A   1      41.255  26.921  29.127  1.00  0.00    -0.354 N 
ATOM     33  C   UNL A   1      41.915  30.463  31.476  1.00  0.00     0.074 A 
ATOM     34  C   UNL A   1      40.880  31.451  31.240  1.00  0.00     0.031 C 
ATOM     35  C   UNL A   1      40.107  25.547  27.781  1.00  0.00     0.029 A 
ATOM     36  C   UNL A   1      41.349  25.683  28.538  1.00  0.00     0.049 A 
ATOM     37  H   UNL A   1      41.960  27.303  29.699  1.00  0.00     0.167 HD
ATOM     38  C   UNL A   1      42.981  30.636  32.295  1.00  0.00     0.031 A 
ATOM     39  C   UNL A   1      42.315  24.747  28.605  1.00  0.00     0.031 A 
ATOM     40  C   UNL A   1      44.029  29.662  32.486  1.00  0.00     0.049 A 
ATOM     41  C   UNL A   1      43.506  24.978  29.484  1.00  0.00     0.074 A 
ATOM     42  C   UNL A   1      45.131  29.742  33.322  1.00  0.00     0.029 A 
ATOM     43  N   UNL A   1      44.122  28.443  31.829  1.00  0.00    -0.354 N 
ATOM     44  N   UNL A   1      43.773  26.013  30.245  1.00  0.00    -0.248 NA
ATOM     45  C   UNL A   1      44.515  23.913  29.532  1.00  0.00     0.031 C 
ATOM     46  C   UNL A   1      45.920  28.605  33.122  1.00  0.00     0.029 A 
ATOM     47  C   UNL A   1      45.278  27.780  32.215  1.00  0.00     0.049 A 
ATOM     48  H   UNL A   1      43.463  28.099  31.182  1.00  0.00     0.167 HD
ATOM     49  C   UNL A   1      44.980  25.722  30.867  1.00  0.00     0.074 A 
ATOM     50  C   UNL A   1      45.377  24.403  30.414  1.00  0.00     0.031 C 
ATOM     51  C   UNL A   1      45.692  26.483  31.734  1.00  0.00     0.031 A 
BRANCH  38  52
ATOM     52  C   UNL A   1      43.075  31.920  33.080  1.00  0.00    -0.014 A 
ATOM     53  C   UNL A   1      42.427  32.040  34.324  1.00  0.00     0.010 A 
ATOM     54  C   UNL A   1      43.690  33.054  32.519  1.00  0.00     0.010 A 
ATOM     55  C   UNL A   1      42.369  33.275  34.978  1.00  0.00     0.020 A 
ATOM     56  C   UNL A   1      43.655  34.285  33.181  1.00  0.00     0.020 A 
ATOM     57  C   UNL A   1      42.974  34.392  34.396  1.00  0.00     0.054 A 
BRANCH  57  58
ATOM     58  S   UNL A   1      42.867  35.994  35.243  1.00  0.00     0.124 S 
ATOM     59  O   UNL A   1      43.784  36.817  34.461  1.00  0.00    -0.237 OA
ATOM     60  O   UNL A   1      41.451  36.329  35.118  1.00  0.00    -0.237 OA
ATOM     61  O   UNL A   1      43.307  35.688  36.604  1.00  0.00    -0.744 OA
ENDBRANCH  57  58
ENDBRANCH  38  52
BRANCH  39  62
ATOM     62  C   UNL A   1      42.128  23.485  27.844  1.00  0.00    -0.014 A 
ATOM     63  C   UNL A   1      41.344  22.446  28.380  1.00  0.00     0.010 A 
ATOM     64  C   UNL A   1      42.840  23.266  26.652  1.00  0.00     0.010 A 
ATOM     65  C   UNL A   1      41.329  21.188  27.775  1.00  0.00     0.020 A 
ATOM     66  C   UNL A   1      42.805  22.016  26.030  1.00  0.00     0.020 A 
ATOM     67  C   UNL A   1      42.077  20.975  26.615  1.00  0.00     0.054 A 
BRANCH  67  68
ATOM     68  S   UNL A   1      42.115  19.313  25.893  1.00  0.00     0.124 S 
ATOM     69  O   UNL A   1      40.700  19.080  25.609  1.00  0.00    -0.237 OA
ATOM     70  O   UNL A   1      42.971  19.489  24.724  1.00  0.00    -0.237 OA
ATOM     71  O   UNL A   1      42.681  18.491  26.960  1.00  0.00    -0.744 OA
ENDBRANCH  67  68
ENDBRANCH  39  62
BRANCH  51  72
ATOM     72  C   UNL A   1      47.000  25.931  32.238  1.00  0.00    -0.014 A 
ATOM     73  C   UNL A   1      48.172  26.083  31.473  1.00  0.00     0.010 A 
ATOM     74  C   UNL A   1      47.059  25.195  33.436  1.00  0.00     0.010 A 
ATOM     75  C   UNL A   1      49.372  25.496  31.886  1.00  0.00     0.020 A 
ATOM     76  C   UNL A   1      48.263  24.631  33.867  1.00  0.00     0.020 A 
ATOM     77  C   UNL A   1      49.408  24.770  33.079  1.00  0.00     0.054 A 
BRANCH  77  78
ATOM     78  S   UNL A   1      50.976  24.025  33.608  1.00  0.00     0.124 S 
ATOM     79  O   UNL A   1      51.885  25.168  33.578  1.00  0.00    -0.237 OA
ATOM     80  O   UNL A   1      50.658  23.509  34.939  1.00  0.00    -0.237 OA
ATOM     81  O   UNL A   1      51.226  23.000  32.598  1.00  0.00    -0.744 OA
ENDBRANCH  77  78
ENDBRANCH  51  72
ENDBRANCH  25  26
ENDBRANCH  18  20
ENDBRANCH  17  18
ENDBRANCH   1  17
TORSDOF 16
ENDMDL
MODEL 2
REMARK VINA RESULT:      -8.9      4.292     11.622
REMARK SMILES O=C(Cc1cccn(C(F)F)c1=O)OCCOC(=O)c1ccc(-c2c3nc(c(-c4ccc(S(=O)(=O)[O-])cc4)c4ccc([nH]4)c(-c4ccc(S(=O)(=O)[O-])cc4)c4nc(c(-c5ccc(S(=O)(=O)[O-])cc5)c5ccc2[nH]5)C=C4)C=C3)cc1
REMARK SMILES IDX 16 1 15 2 14 3 2 4 1 5 3 6 4 7 5 8 12 9 6 10 8 11 13 12 7 13
REMARK SMILES IDX 9 14 10 15 11 16 17 17 18 18 19 19 20 20 21 21 79 22 22 23
REMARK SMILES IDX 78 24 23 25 24 26 25 27 72 28 26 29 77 30 71 31 73 32 27 33
REMARK SMILES IDX 76 34 70 35 69 36 28 38 58 39 39 40 57 41 40 42 43 43 56 44
REMARK SMILES IDX 74 45 41 46 42 47 55 49 75 50 44 51 29 52 30 53 38 54 31 55
REMARK SMILES IDX 37 56 32 57 33 58 34 59 35 60 36 61 59 62 60 63 68 64 61 65
REMARK SMILES IDX 67 66 62 67 63 68 64 69 65 70 66 71 45 72 46 73 54 74 47 75
REMARK SMILES IDX 53 76 48 77 49 78 50 79 51 80 52 81
REMARK H PARENT 73 37 43 48
REMARK Flexibility Score: inf
ROOT
ATOM      1  C   UNL A   1      43.306  23.288  25.176  1.00  0.00     0.275 C 
ENDROOT
BRANCH   1   2
ATOM      2  C   UNL A   1      43.316  21.990  25.983  1.00  0.00     0.274 C 
BRANCH   2   3
ATOM      3  O   UNL A   1      42.459  21.002  25.377  1.00  0.00    -0.462 OA
BRANCH   3   4
ATOM      4  C   UNL A   1      41.716  20.076  26.027  1.00  0.00     0.310 C 
ATOM      5  O   UNL A   1      41.888  18.880  25.794  1.00  0.00    -0.252 OA
BRANCH   4   6
ATOM      6  C   UNL A   1      40.622  20.525  26.984  1.00  0.00     0.164 C 
BRANCH   6   7
ATOM      7  C   UNL A   1      39.698  21.629  26.586  1.00  0.00     0.029 A 
ATOM      8  C   UNL A   1      39.841  22.875  27.076  1.00  0.00     0.011 A 
ATOM      9  C   UNL A   1      38.600  21.363  25.603  1.00  0.00     0.258 A 
ATOM     10  C   UNL A   1      38.986  23.952  26.656  1.00  0.00     0.019 A 
ATOM     11  N   UNL A   1      37.817  22.449  25.256  1.00  0.00    -0.258 N 
ATOM     12  O   UNL A   1      38.419  20.231  25.168  1.00  0.00    -0.269 OA
ATOM     13  C   UNL A   1      38.017  23.717  25.766  1.00  0.00     0.095 A 
BRANCH  11  14
ATOM     14  C   UNL A   1      36.764  22.227  24.300  1.00  0.00     0.451 C 
ATOM     15  F   UNL A   1      35.575  22.613  24.840  1.00  0.00    -0.185 F 
ATOM     16  F   UNL A   1      36.958  23.016  23.212  1.00  0.00    -0.185 F 
ENDBRANCH  11  14
ENDBRANCH   6   7
ENDBRANCH   4   6
ENDBRANCH   3   4
ENDBRANCH   2   3
ENDBRANCH   1   2
BRANCH   1  17
ATOM     17  O   UNL A   1      42.700  24.326  25.966  1.00  0.00    -0.458 OA
BRANCH  17  18
ATOM     18  C   UNL A   1      43.297  25.544  25.930  1.00  0.00     0.338 C 
ATOM     19  O   UNL A   1      43.954  26.009  25.016  1.00  0.00    -0.246 OA
BRANCH  18  20
ATOM     20  C   UNL A   1      42.819  26.317  27.102  1.00  0.00     0.060 A 
ATOM     21  C   UNL A   1      41.935  25.756  28.031  1.00  0.00     0.016 A 
ATOM     22  C   UNL A   1      43.189  27.664  27.208  1.00  0.00     0.016 A 
ATOM     23  C   UNL A   1      41.433  26.542  29.070  1.00  0.00     0.010 A 
ATOM     24  C   UNL A   1      42.692  28.447  28.254  1.00  0.00     0.010 A 
ATOM     25  C   UNL A   1      41.822  27.887  29.200  1.00  0.00    -0.014 A 
BRANCH  25  26
ATOM     26  C   UNL A   1      41.482  28.621  30.443  1.00  0.00     0.031 A 
ATOM     27  C   UNL A   1      42.289  28.508  31.698  1.00  0.00     0.074 A 
ATOM     28  C   UNL A   1      40.410  29.436  30.402  1.00  0.00     0.049 A 
ATOM     29  N   UNL A   1      42.179  29.207  32.799  1.00  0.00    -0.248 NA
ATOM     30  C   UNL A   1      43.349  27.492  31.731  1.00  0.00     0.031 C 
ATOM     31  C   UNL A   1      39.537  29.604  29.238  1.00  0.00     0.029 A 
ATOM     32  N   UNL A   1      39.883  30.279  31.344  1.00  0.00    -0.354 N 
ATOM     33  C   UNL A   1      43.174  28.743  33.649  1.00  0.00     0.074 A 
ATOM     34  C   UNL A   1      43.848  27.666  32.950  1.00  0.00     0.031 C 
ATOM     35  C   UNL A   1      38.602  30.521  29.524  1.00  0.00     0.029 A 
ATOM     36  C   UNL A   1      38.794  30.986  30.895  1.00  0.00     0.049 A 
ATOM     37  H   UNL A   1      40.250  30.370  32.253  1.00  0.00     0.167 HD
ATOM     38  C   UNL A   1      43.501  29.189  34.887  1.00  0.00     0.031 A 
ATOM     39  C   UNL A   1      38.036  31.918  31.504  1.00  0.00     0.031 A 
ATOM     40  C   UNL A   1      42.791  30.231  35.591  1.00  0.00     0.049 A 
ATOM     41  C   UNL A   1      38.389  32.364  32.890  1.00  0.00     0.074 A 
ATOM     42  C   UNL A   1      43.073  30.768  36.836  1.00  0.00     0.029 A 
ATOM     43  N   UNL A   1      41.658  30.884  35.129  1.00  0.00    -0.354 N 
ATOM     44  N   UNL A   1      39.382  31.967  33.649  1.00  0.00    -0.248 NA
ATOM     45  C   UNL A   1      37.539  33.397  33.493  1.00  0.00     0.031 C 
ATOM     46  C   UNL A   1      42.076  31.694  37.154  1.00  0.00     0.029 A 
ATOM     47  C   UNL A   1      41.209  31.791  36.078  1.00  0.00     0.049 A 
ATOM     48  H   UNL A   1      41.232  30.726  34.254  1.00  0.00     0.167 HD
ATOM     49  C   UNL A   1      39.278  32.704  34.822  1.00  0.00     0.074 A 
ATOM     50  C   UNL A   1      38.142  33.591  34.659  1.00  0.00     0.031 C 
ATOM     51  C   UNL A   1      40.055  32.647  35.931  1.00  0.00     0.031 A 
BRANCH  38  52
ATOM     52  C   UNL A   1      44.695  28.577  35.572  1.00  0.00    -0.014 A 
ATOM     53  C   UNL A   1      44.529  27.493  36.455  1.00  0.00     0.010 A 
ATOM     54  C   UNL A   1      45.966  29.167  35.448  1.00  0.00     0.010 A 
ATOM     55  C   UNL A   1      45.604  27.028  37.219  1.00  0.00     0.020 A 
ATOM     56  C   UNL A   1      47.049  28.691  36.194  1.00  0.00     0.020 A 
ATOM     57  C   UNL A   1      46.855  27.639  37.092  1.00  0.00     0.054 A 
BRANCH  57  58
ATOM     58  S   UNL A   1      48.233  27.043  38.111  1.00  0.00     0.124 S 
ATOM     59  O   UNL A   1      48.463  25.708  37.568  1.00  0.00    -0.237 OA
ATOM     60  O   UNL A   1      49.280  28.026  37.841  1.00  0.00    -0.237 OA
ATOM     61  O   UNL A   1      47.692  27.081  39.469  1.00  0.00    -0.744 OA
ENDBRANCH  57  58
ENDBRANCH  38  52
BRANCH  39  62
ATOM     62  C   UNL A   1      36.905  32.513  30.746  1.00  0.00    -0.014 A 
ATOM     63  C   UNL A   1      37.131  33.593  29.872  1.00  0.00     0.010 A 
ATOM     64  C   UNL A   1      35.588  32.095  30.997  1.00  0.00     0.010 A 
ATOM     65  C   UNL A   1      36.057  34.289  29.316  1.00  0.00     0.020 A 
ATOM     66  C   UNL A   1      34.511  32.772  30.421  1.00  0.00     0.020 A 
ATOM     67  C   UNL A   1      34.752  33.886  29.611  1.00  0.00     0.054 A 
BRANCH  67  68
ATOM     68  S   UNL A   1      33.369  34.855  28.951  1.00  0.00     0.124 S 
ATOM     69  O   UNL A   1      34.060  36.014  28.390  1.00  0.00    -0.237 OA
ATOM     70  O   UNL A   1      32.775  33.944  27.977  1.00  0.00    -0.237 OA
ATOM     71  O   UNL A   1      32.550  35.126  30.130  1.00  0.00    -0.744 OA
ENDBRANCH  67  68
ENDBRANCH  39  62
BRANCH  51  72
ATOM     72  C   UNL A   1      39.696  33.548  37.084  1.00  0.00    -0.014 A 
ATOM     73  C   UNL A   1      40.331  34.795  37.229  1.00  0.00     0.010 A 
ATOM     74  C   UNL A   1      38.783  33.130  38.069  1.00  0.00     0.010 A 
ATOM     75  C   UNL A   1      40.073  35.600  38.342  1.00  0.00     0.020 A 
ATOM     76  C   UNL A   1      38.500  33.944  39.170  1.00  0.00     0.020 A 
ATOM     77  C   UNL A   1      39.162  35.166  39.309  1.00  0.00     0.054 A 
BRANCH  77  78
ATOM     78  S   UNL A   1      38.829  36.227  40.743  1.00  0.00     0.124 S 
ATOM     79  O   UNL A   1      38.425  37.480  40.111  1.00  0.00    -0.237 OA
ATOM     80  O   UNL A   1      37.767  35.504  41.442  1.00  0.00    -0.237 OA
ATOM     81  O   UNL A   1      40.109  36.265  41.445  1.00  0.00    -0.744 OA
ENDBRANCH  77  78
ENDBRANCH  51  72
ENDBRANCH  25  26
ENDBRANCH  18  20
ENDBRANCH  17  18
ENDBRANCH   1  17
TORSDOF 16
ENDMDL
MODEL 3
REMARK VINA RESULT:      -8.8      4.485      5.451
REMARK SMILES O=C(Cc1cccn(C(F)F)c1=O)OCCOC(=O)c1ccc(-c2c3nc(c(-c4ccc(S(=O)(=O)[O-])cc4)c4ccc([nH]4)c(-c4ccc(S(=O)(=O)[O-])cc4)c4nc(c(-c5ccc(S(=O)(=O)[O-])cc5)c5ccc2[nH]5)C=C4)C=C3)cc1
REMARK SMILES IDX 16 1 15 2 14 3 2 4 1 5 3 6 4 7 5 8 12 9 6 10 8 11 13 12 7 13
REMARK SMILES IDX 9 14 10 15 11 16 17 17 18 18 19 19 20 20 21 21 79 22 22 23
REMARK SMILES IDX 78 24 23 25 24 26 25 27 72 28 26 29 77 30 71 31 73 32 27 33
REMARK SMILES IDX 76 34 70 35 69 36 28 38 58 39 39 40 57 41 40 42 43 43 56 44
REMARK SMILES IDX 74 45 41 46 42 47 55 49 75 50 44 51 29 52 30 53 38 54 31 55
REMARK SMILES IDX 37 56 32 57 33 58 34 59 35 60 36 61 59 62 60 63 68 64 61 65
REMARK SMILES IDX 67 66 62 67 63 68 64 69 65 70 66 71 45 72 46 73 54 74 47 75
REMARK SMILES IDX 53 76 48 77 49 78 50 79 51 80 52 81
REMARK H PARENT 73 37 43 48
REMARK Flexibility Score: inf
ROOT
ATOM      1  C   UNL A   1      37.876  33.418  31.519  1.00  0.00     0.275 C 
ENDROOT
BRANCH   1   2
ATOM      2  C   UNL A   1      38.011  33.601  33.031  1.00  0.00     0.274 C 
BRANCH   2   3
ATOM      3  O   UNL A   1      36.927  34.398  33.551  1.00  0.00    -0.462 OA
BRANCH   3   4
ATOM      4  C   UNL A   1      35.872  33.948  34.267  1.00  0.00     0.310 C 
ATOM      5  O   UNL A   1      36.045  33.510  35.404  1.00  0.00    -0.252 OA
BRANCH   4   6
ATOM      6  C   UNL A   1      34.489  33.915  33.632  1.00  0.00     0.164 C 
BRANCH   6   7
ATOM      7  C   UNL A   1      34.058  35.033  32.740  1.00  0.00     0.029 A 
ATOM      8  C   UNL A   1      33.885  36.282  33.213  1.00  0.00     0.011 A 
ATOM      9  C   UNL A   1      33.834  34.777  31.282  1.00  0.00     0.258 A 
ATOM     10  C   UNL A   1      33.521  37.370  32.348  1.00  0.00     0.019 A 
ATOM     11  N   UNL A   1      33.479  35.875  30.518  1.00  0.00    -0.258 N 
ATOM     12  O   UNL A   1      33.945  33.644  30.827  1.00  0.00    -0.269 OA
ATOM     13  C   UNL A   1      33.338  37.144  31.043  1.00  0.00     0.095 A 
BRANCH  11  14
ATOM     14  C   UNL A   1      33.273  35.663  29.109  1.00  0.00     0.451 C 
ATOM     15  F   UNL A   1      32.606  36.728  28.585  1.00  0.00    -0.185 F 
ATOM     16  F   UNL A   1      34.472  35.617  28.472  1.00  0.00    -0.185 F 
ENDBRANCH  11  14
ENDBRANCH   6   7
ENDBRANCH   4   6
ENDBRANCH   3   4
ENDBRANCH   2   3
ENDBRANCH   1   2
BRANCH   1  17
ATOM     17  O   UNL A   1      36.825  32.474  31.255  1.00  0.00    -0.458 OA
BRANCH  17  18
ATOM     18  C   UNL A   1      37.035  31.198  31.666  1.00  0.00     0.338 C 
ATOM     19  O   UNL A   1      36.268  30.500  32.303  1.00  0.00    -0.246 OA
BRANCH  18  20
ATOM     20  C   UNL A   1      38.270  30.708  31.007  1.00  0.00     0.060 A 
ATOM     21  C   UNL A   1      38.393  30.693  29.612  1.00  0.00     0.016 A 
ATOM     22  C   UNL A   1      39.281  30.159  31.808  1.00  0.00     0.016 A 
ATOM     23  C   UNL A   1      39.532  30.139  29.024  1.00  0.00     0.010 A 
ATOM     24  C   UNL A   1      40.424  29.613  31.217  1.00  0.00     0.010 A 
ATOM     25  C   UNL A   1      40.563  29.613  29.822  1.00  0.00    -0.014 A 
BRANCH  25  26
ATOM     26  C   UNL A   1      41.860  29.267  29.191  1.00  0.00     0.031 A 
ATOM     27  C   UNL A   1      43.003  30.230  29.108  1.00  0.00     0.074 A 
ATOM     28  C   UNL A   1      41.994  28.018  28.704  1.00  0.00     0.049 A 
ATOM     29  N   UNL A   1      44.231  30.000  28.715  1.00  0.00    -0.248 NA
ATOM     30  C   UNL A   1      42.748  31.618  29.515  1.00  0.00     0.031 C 
ATOM     31  C   UNL A   1      40.936  27.006  28.710  1.00  0.00     0.029 A 
ATOM     32  N   UNL A   1      43.064  27.385  28.130  1.00  0.00    -0.354 N 
ATOM     33  C   UNL A   1      44.908  31.203  28.854  1.00  0.00     0.074 A 
ATOM     34  C   UNL A   1      43.940  32.174  29.325  1.00  0.00     0.031 C 
ATOM     35  C   UNL A   1      41.420  25.867  28.196  1.00  0.00     0.029 A 
ATOM     36  C   UNL A   1      42.811  26.075  27.802  1.00  0.00     0.049 A 
ATOM     37  H   UNL A   1      43.930  27.826  27.969  1.00  0.00     0.167 HD
ATOM     38  C   UNL A   1      46.220  31.462  28.626  1.00  0.00     0.031 A 
ATOM     39  C   UNL A   1      43.606  25.134  27.259  1.00  0.00     0.031 A 
ATOM     40  C   UNL A   1      47.164  30.498  28.112  1.00  0.00     0.049 A 
ATOM     41  C   UNL A   1      45.042  25.456  26.974  1.00  0.00     0.074 A 
ATOM     42  C   UNL A   1      48.519  30.666  27.880  1.00  0.00     0.029 A 
ATOM     43  N   UNL A   1      46.859  29.198  27.736  1.00  0.00    -0.354 N 
ATOM     44  N   UNL A   1      45.685  26.579  27.183  1.00  0.00    -0.248 NA
ATOM     45  C   UNL A   1      45.863  24.383  26.402  1.00  0.00     0.031 C 
ATOM     46  C   UNL A   1      49.017  29.494  27.304  1.00  0.00     0.029 A 
ATOM     47  C   UNL A   1      47.991  28.566  27.242  1.00  0.00     0.049 A 
ATOM     48  H   UNL A   1      45.968  28.783  27.808  1.00  0.00     0.167 HD
ATOM     49  C   UNL A   1      46.991  26.348  26.771  1.00  0.00     0.074 A 
ATOM     50  C   UNL A   1      47.052  24.969  26.327  1.00  0.00     0.031 C 
ATOM     51  C   UNL A   1      48.042  27.205  26.763  1.00  0.00     0.031 A 
BRANCH  38  52
ATOM     52  C   UNL A   1      46.740  32.840  28.947  1.00  0.00    -0.014 A 
ATOM     53  C   UNL A   1      47.154  33.155  30.255  1.00  0.00     0.010 A 
ATOM     54  C   UNL A   1      46.687  33.863  27.983  1.00  0.00     0.010 A 
ATOM     55  C   UNL A   1      47.479  34.471  30.599  1.00  0.00     0.020 A 
ATOM     56  C   UNL A   1      47.034  35.176  28.318  1.00  0.00     0.020 A 
ATOM     57  C   UNL A   1      47.405  35.475  29.630  1.00  0.00     0.054 A 
BRANCH  57  58
ATOM     58  S   UNL A   1      47.803  37.183  30.099  1.00  0.00     0.124 S 
ATOM     59  O   UNL A   1      47.532  37.180  31.533  1.00  0.00    -0.237 OA
ATOM     60  O   UNL A   1      49.210  37.300  29.721  1.00  0.00    -0.237 OA
ATOM     61  O   UNL A   1      46.882  37.980  29.290  1.00  0.00    -0.744 OA
ENDBRANCH  57  58
ENDBRANCH  38  52
BRANCH  39  62
ATOM     62  C   UNL A   1      43.036  23.783  27.018  1.00  0.00    -0.014 A 
ATOM     63  C   UNL A   1      42.975  22.845  28.066  1.00  0.00     0.010 A 
ATOM     64  C   UNL A   1      42.683  23.386  25.718  1.00  0.00     0.010 A 
ATOM     65  C   UNL A   1      42.636  21.516  27.806  1.00  0.00     0.020 A 
ATOM     66  C   UNL A   1      42.317  22.063  25.459  1.00  0.00     0.020 A 
ATOM     67  C   UNL A   1      42.330  21.129  26.499  1.00  0.00     0.054 A 
BRANCH  67  68
ATOM     68  S   UNL A   1      41.977  19.382  26.166  1.00  0.00     0.124 S 
ATOM     69  O   UNL A   1      40.544  19.417  25.886  1.00  0.00    -0.237 OA
ATOM     70  O   UNL A   1      42.836  19.094  25.021  1.00  0.00    -0.237 OA
ATOM     71  O   UNL A   1      42.356  18.716  27.410  1.00  0.00    -0.744 OA
ENDBRANCH  67  68
ENDBRANCH  39  62
BRANCH  51  72
ATOM     72  C   UNL A   1      49.355  26.695  26.228  1.00  0.00    -0.014 A 
ATOM     73  C   UNL A   1      50.219  25.960  27.062  1.00  0.00     0.010 A 
ATOM     74  C   UNL A   1      49.772  27.006  24.921  1.00  0.00     0.010 A 
ATOM     75  C   UNL A   1      51.478  25.561  26.606  1.00  0.00     0.020 A 
ATOM     76  C   UNL A   1      51.018  26.584  24.451  1.00  0.00     0.020 A 
ATOM     77  C   UNL A   1      51.872  25.880  25.304  1.00  0.00     0.054 A 
BRANCH  77  78
ATOM     78  S   UNL A   1      53.505  25.344  24.722  1.00  0.00     0.124 S 
ATOM     79  O   UNL A   1      54.404  26.166  25.527  1.00  0.00    -0.237 OA
ATOM     80  O   UNL A   1      53.508  23.916  25.035  1.00  0.00    -0.237 OA
ATOM     81  O   UNL A   1      53.480  25.658  23.295  1.00  0.00    -0.744 OA
ENDBRANCH  77  78
ENDBRANCH  51  72
ENDBRANCH  25  26
ENDBRANCH  18  20
ENDBRANCH  17  18
ENDBRANCH   1  17
TORSDOF 16
ENDMDL
