MODEL 1
REMARK VINA RESULT:     -12.4      0.000      0.000
REMARK SMILES O=C(OCCOC(=O)[C@H]1Cc2[nH]cnc2CN1C(=O)c1ccncc1Cl)c1ccc(-c2c3nc(c(-c4ccc(S(=O)(=O)[O-])cc4)c4ccc([nH]4)c(-c4ccc(S(=O)(=O)[O-])cc4)c4nc(c(-c5ccc(S(=O)(=O)[O-])cc5)c5ccc2[nH]5)C=C4)C=C3)cc1
REMARK SMILES IDX 4 1 3 2 2 3 1 4 27 5 28 6 86 7 29 8 85 9 30 10 31 11 32 12
REMARK SMILES IDX 79 13 33 14 84 15 78 16 80 17 34 18 83 19 77 20 76 21 35 23
REMARK SMILES IDX 65 24 46 25 64 26 47 27 50 28 63 29 81 30 48 31 49 32 62 34
REMARK SMILES IDX 82 35 51 36 36 37 37 38 45 39 38 40 44 41 39 42 40 43 41 44
REMARK SMILES IDX 42 45 43 46 66 47 67 48 75 49 68 50 74 51 69 52 70 53 71 54
REMARK SMILES IDX 72 55 73 56 52 57 53 58 61 59 54 60 60 61 55 62 56 63 57 64
REMARK SMILES IDX 58 65 59 66 5 67 6 68 7 69 8 70 9 71 10 72 17 73 11 74 16 75
REMARK SMILES IDX 12 76 15 77 13 78 14 80 18 81 19 82 20 83 21 84 25 85 22 86
REMARK SMILES IDX 24 87 26 88 23 89
REMARK H PARENT 80 22 50 33 12 79
REMARK Flexibility Score: inf
ROOT
ATOM      1  C   UNL A   1      32.566  31.153  26.917  1.00  0.00     0.275 C 
ENDROOT
BRANCH   1   2
ATOM      2  O   UNL A   1      33.973  31.032  27.131  1.00  0.00    -0.458 OA
BRANCH   2   3
ATOM      3  C   UNL A   1      34.605  31.885  27.956  1.00  0.00     0.338 C 
ATOM      4  O   UNL A   1      34.243  32.989  28.274  1.00  0.00    -0.246 OA
BRANCH   3   5
ATOM      5  C   UNL A   1      35.893  31.292  28.338  1.00  0.00     0.060 A 
ATOM      6  C   UNL A   1      36.931  32.092  28.820  1.00  0.00     0.016 A 
ATOM      7  C   UNL A   1      36.047  29.912  28.207  1.00  0.00     0.016 A 
ATOM      8  C   UNL A   1      38.171  31.529  28.991  1.00  0.00     0.010 A 
ATOM      9  C   UNL A   1      37.289  29.347  28.338  1.00  0.00     0.010 A 
ATOM     10  C   UNL A   1      38.346  30.177  28.678  1.00  0.00    -0.014 A 
BRANCH  10  11
ATOM     11  C   UNL A   1      39.629  29.583  28.945  1.00  0.00     0.031 A 
ATOM     12  C   UNL A   1      39.887  29.510  30.400  1.00  0.00     0.074 A 
ATOM     13  C   UNL A   1      40.413  29.083  27.977  1.00  0.00     0.049 A 
ATOM     14  N   UNL A   1      40.541  30.373  31.106  1.00  0.00    -0.248 NA
ATOM     15  C   UNL A   1      39.097  28.562  31.207  1.00  0.00     0.031 C 
ATOM     16  C   UNL A   1      40.101  28.862  26.564  1.00  0.00     0.029 A 
ATOM     17  N   UNL A   1      41.662  28.577  28.091  1.00  0.00    -0.354 N 
ATOM     18  C   UNL A   1      40.514  29.874  32.400  1.00  0.00     0.074 A 
ATOM     19  C   UNL A   1      39.403  28.960  32.444  1.00  0.00     0.031 C 
ATOM     20  C   UNL A   1      41.042  28.049  26.023  1.00  0.00     0.029 A 
ATOM     21  C   UNL A   1      42.089  27.823  27.007  1.00  0.00     0.049 A 
ATOM     22  H   UNL A   1      42.226  28.733  28.883  1.00  0.00     0.167 HD
ATOM     23  C   UNL A   1      41.624  29.965  33.187  1.00  0.00     0.031 A 
ATOM     24  C   UNL A   1      43.194  27.032  26.970  1.00  0.00     0.031 A 
ATOM     25  C   UNL A   1      42.572  30.909  32.635  1.00  0.00     0.049 A 
ATOM     26  C   UNL A   1      44.096  27.509  28.055  1.00  0.00     0.074 A 
ATOM     27  C   UNL A   1      42.529  32.244  32.282  1.00  0.00     0.029 A 
ATOM     28  N   UNL A   1      43.644  30.370  31.960  1.00  0.00    -0.354 N 
ATOM     29  N   UNL A   1      44.651  28.692  28.044  1.00  0.00    -0.248 NA
ATOM     30  C   UNL A   1      43.960  26.903  29.372  1.00  0.00     0.031 C 
ATOM     31  C   UNL A   1      43.281  32.330  31.072  1.00  0.00     0.029 A 
ATOM     32  C   UNL A   1      43.825  31.073  30.799  1.00  0.00     0.049 A 
ATOM     33  H   UNL A   1      44.191  29.609  32.262  1.00  0.00     0.167 HD
ATOM     34  C   UNL A   1      44.514  29.163  29.343  1.00  0.00     0.074 A 
ATOM     35  C   UNL A   1      44.160  27.982  30.136  1.00  0.00     0.031 C 
ATOM     36  C   UNL A   1      44.402  30.502  29.599  1.00  0.00     0.031 A 
BRANCH  23  37
ATOM     37  C   UNL A   1      42.075  28.842  34.099  1.00  0.00    -0.014 A 
ATOM     38  C   UNL A   1      42.396  27.603  33.504  1.00  0.00     0.010 A 
ATOM     39  C   UNL A   1      41.893  28.845  35.498  1.00  0.00     0.010 A 
ATOM     40  C   UNL A   1      42.387  26.418  34.246  1.00  0.00     0.020 A 
ATOM     41  C   UNL A   1      41.924  27.674  36.255  1.00  0.00     0.020 A 
ATOM     42  C   UNL A   1      42.129  26.461  35.615  1.00  0.00     0.054 A 
BRANCH  42  43
ATOM     43  S   UNL A   1      42.011  24.915  36.540  1.00  0.00     0.124 S 
ATOM     44  O   UNL A   1      43.246  24.937  37.315  1.00  0.00    -0.237 OA
ATOM     45  O   UNL A   1      40.778  25.110  37.299  1.00  0.00    -0.237 OA
ATOM     46  O   UNL A   1      41.939  23.898  35.494  1.00  0.00    -0.744 OA
ENDBRANCH  42  43
ENDBRANCH  23  37
BRANCH  24  47
ATOM     47  C   UNL A   1      43.336  25.694  26.332  1.00  0.00    -0.014 A 
ATOM     48  C   UNL A   1      44.266  25.467  25.300  1.00  0.00     0.010 A 
ATOM     49  C   UNL A   1      42.753  24.562  26.938  1.00  0.00     0.010 A 
ATOM     50  C   UNL A   1      44.644  24.161  24.931  1.00  0.00     0.020 A 
ATOM     51  C   UNL A   1      43.119  23.258  26.575  1.00  0.00     0.020 A 
ATOM     52  C   UNL A   1      44.082  23.063  25.589  1.00  0.00     0.054 A 
BRANCH  52  53
ATOM     53  S   UNL A   1      44.699  21.387  25.238  1.00  0.00     0.124 S 
ATOM     54  O   UNL A   1      43.779  20.549  26.001  1.00  0.00    -0.237 OA
ATOM     55  O   UNL A   1      44.576  21.298  23.786  1.00  0.00    -0.237 OA
ATOM     56  O   UNL A   1      46.072  21.412  25.739  1.00  0.00    -0.744 OA
ENDBRANCH  52  53
ENDBRANCH  24  47
BRANCH  36  57
ATOM     57  C   UNL A   1      44.732  31.479  28.494  1.00  0.00    -0.014 A 
ATOM     58  C   UNL A   1      43.781  32.062  27.631  1.00  0.00     0.010 A 
ATOM     59  C   UNL A   1      46.060  31.933  28.430  1.00  0.00     0.010 A 
ATOM     60  C   UNL A   1      44.164  33.048  26.708  1.00  0.00     0.020 A 
ATOM     61  C   UNL A   1      46.443  32.926  27.528  1.00  0.00     0.020 A 
ATOM     62  C   UNL A   1      45.497  33.471  26.661  1.00  0.00     0.054 A 
BRANCH  62  63
ATOM     63  S   UNL A   1      45.996  34.756  25.481  1.00  0.00     0.124 S 
ATOM     64  O   UNL A   1      45.214  34.422  24.295  1.00  0.00    -0.237 OA
ATOM     65  O   UNL A   1      45.612  35.990  26.164  1.00  0.00    -0.237 OA
ATOM     66  O   UNL A   1      47.440  34.562  25.343  1.00  0.00    -0.744 OA
ENDBRANCH  62  63
ENDBRANCH  36  57
ENDBRANCH  10  11
ENDBRANCH   3   5
ENDBRANCH   2   3
ENDBRANCH   1   2
BRANCH   1  67
ATOM     67  C   UNL A   1      31.855  30.055  26.108  1.00  0.00     0.274 C 
BRANCH  67  68
ATOM     68  O   UNL A   1      32.572  28.807  26.161  1.00  0.00    -0.461 OA
BRANCH  68  69
ATOM     69  C   UNL A   1      33.043  28.357  24.946  1.00  0.00     0.329 C 
ATOM     70  O   UNL A   1      33.674  29.052  24.162  1.00  0.00    -0.250 OA
BRANCH  69  71
ATOM     71  C   UNL A   1      32.496  26.941  24.670  1.00  0.00     0.201 C 
ATOM     72  C   UNL A   1      32.358  26.423  26.151  1.00  0.00     0.093 C 
ATOM     73  N   UNL A   1      31.259  26.580  23.834  1.00  0.00    -0.318 N 
ATOM     74  C   UNL A   1      31.797  25.065  26.170  1.00  0.00     0.042 A 
ATOM     75  C   UNL A   1      30.944  25.115  23.796  1.00  0.00     0.179 C 
ATOM     76  N   UNL A   1      31.770  24.164  27.193  1.00  0.00    -0.348 N 
ATOM     77  C   UNL A   1      31.144  24.476  25.122  1.00  0.00     0.081 A 
ATOM     78  C   UNL A   1      31.121  23.055  26.716  1.00  0.00     0.197 A 
ATOM     79  H   UNL A   1      32.143  24.285  28.095  1.00  0.00     0.167 HD
ATOM     80  N   UNL A   1      30.733  23.216  25.468  1.00  0.00    -0.240 NA
BRANCH  73  81
ATOM     81  C   UNL A   1      30.755  27.227  22.676  1.00  0.00     0.256 C 
ATOM     82  O   UNL A   1      31.085  26.877  21.541  1.00  0.00    -0.269 OA
BRANCH  81  83
ATOM     83  C   UNL A   1      29.724  28.280  22.726  1.00  0.00     0.061 A 
ATOM     84  C   UNL A   1      30.115  29.591  22.468  1.00  0.00     0.035 A 
ATOM     85  C   UNL A   1      28.410  28.046  23.152  1.00  0.00     0.072 A 
ATOM     86  C   UNL A   1      29.139  30.574  22.439  1.00  0.00     0.112 A 
ATOM     87  C   UNL A   1      27.497  29.082  23.011  1.00  0.00     0.132 A 
ATOM     88  Cl  UNL A   1      27.822  26.592  23.868  1.00  0.00    -0.082 Cl
ATOM     89  N   UNL A   1      27.827  30.344  22.655  1.00  0.00    -0.263 NA
ENDBRANCH  81  83
ENDBRANCH  73  81
ENDBRANCH  69  71
ENDBRANCH  68  69
ENDBRANCH  67  68
ENDBRANCH   1  67
TORSDOF 16
ENDMDL
MODEL 2
REMARK VINA RESULT:     -12.1      3.384      9.597
REMARK SMILES O=C(OCCOC(=O)[C@H]1Cc2[nH]cnc2CN1C(=O)c1ccncc1Cl)c1ccc(-c2c3nc(c(-c4ccc(S(=O)(=O)[O-])cc4)c4ccc([nH]4)c(-c4ccc(S(=O)(=O)[O-])cc4)c4nc(c(-c5ccc(S(=O)(=O)[O-])cc5)c5ccc2[nH]5)C=C4)C=C3)cc1
REMARK SMILES IDX 4 1 3 2 2 3 1 4 27 5 28 6 86 7 29 8 85 9 30 10 31 11 32 12
REMARK SMILES IDX 79 13 33 14 84 15 78 16 80 17 34 18 83 19 77 20 76 21 35 23
REMARK SMILES IDX 65 24 46 25 64 26 47 27 50 28 63 29 81 30 48 31 49 32 62 34
REMARK SMILES IDX 82 35 51 36 36 37 37 38 45 39 38 40 44 41 39 42 40 43 41 44
REMARK SMILES IDX 42 45 43 46 66 47 67 48 75 49 68 50 74 51 69 52 70 53 71 54
REMARK SMILES IDX 72 55 73 56 52 57 53 58 61 59 54 60 60 61 55 62 56 63 57 64
REMARK SMILES IDX 58 65 59 66 5 67 6 68 7 69 8 70 9 71 10 72 17 73 11 74 16 75
REMARK SMILES IDX 12 76 15 77 13 78 14 80 18 81 19 82 20 83 21 84 25 85 22 86
REMARK SMILES IDX 24 87 26 88 23 89
REMARK H PARENT 80 22 50 33 12 79
REMARK Flexibility Score: inf
ROOT
ATOM      1  C   UNL A   1      37.849  21.268  25.385  1.00  0.00     0.275 C 
ENDROOT
BRANCH   1   2
ATOM      2  O   UNL A   1      39.007  22.086  25.562  1.00  0.00    -0.458 OA
BRANCH   2   3
ATOM      3  C   UNL A   1      39.775  21.939  26.656  1.00  0.00     0.338 C 
ATOM      4  O   UNL A   1      40.184  20.907  27.122  1.00  0.00    -0.246 OA
BRANCH   3   5
ATOM      5  C   UNL A   1      39.956  23.258  27.276  1.00  0.00     0.060 A 
ATOM      6  C   UNL A   1      39.018  24.273  27.083  1.00  0.00     0.016 A 
ATOM      7  C   UNL A   1      41.089  23.464  28.064  1.00  0.00     0.016 A 
ATOM      8  C   UNL A   1      39.314  25.537  27.525  1.00  0.00     0.010 A 
ATOM      9  C   UNL A   1      41.414  24.730  28.477  1.00  0.00     0.010 A 
ATOM     10  C   UNL A   1      40.543  25.760  28.154  1.00  0.00    -0.014 A 
BRANCH  10  11
ATOM     11  C   UNL A   1      40.801  27.071  28.689  1.00  0.00     0.031 A 
ATOM     12  C   UNL A   1      41.929  27.719  27.984  1.00  0.00     0.074 A 
ATOM     13  C   UNL A   1      40.031  27.634  29.633  1.00  0.00     0.049 A 
ATOM     14  N   UNL A   1      43.166  27.718  28.357  1.00  0.00    -0.248 NA
ATOM     15  C   UNL A   1      41.731  28.148  26.587  1.00  0.00     0.031 C 
ATOM     16  C   UNL A   1      38.745  27.177  30.164  1.00  0.00     0.029 A 
ATOM     17  N   UNL A   1      40.213  28.815  30.267  1.00  0.00    -0.354 N 
ATOM     18  C   UNL A   1      43.836  28.445  27.385  1.00  0.00     0.074 A 
ATOM     19  C   UNL A   1      42.986  28.421  26.223  1.00  0.00     0.031 C 
ATOM     20  C   UNL A   1      38.162  28.190  30.850  1.00  0.00     0.029 A 
ATOM     21  C   UNL A   1      39.096  29.302  30.930  1.00  0.00     0.049 A 
ATOM     22  H   UNL A   1      41.075  29.291  30.259  1.00  0.00     0.167 HD
ATOM     23  C   UNL A   1      44.828  29.310  27.744  1.00  0.00     0.031 A 
ATOM     24  C   UNL A   1      38.954  30.553  31.444  1.00  0.00     0.031 A 
ATOM     25  C   UNL A   1      45.263  29.058  29.102  1.00  0.00     0.049 A 
ATOM     26  C   UNL A   1      40.328  31.097  31.624  1.00  0.00     0.074 A 
ATOM     27  C   UNL A   1      45.764  27.964  29.781  1.00  0.00     0.029 A 
ATOM     28  N   UNL A   1      44.780  29.917  30.064  1.00  0.00    -0.354 N 
ATOM     29  N   UNL A   1      41.185  30.590  32.471  1.00  0.00    -0.248 NA
ATOM     30  C   UNL A   1      40.919  31.841  30.520  1.00  0.00     0.031 C 
ATOM     31  C   UNL A   1      45.144  28.013  31.066  1.00  0.00     0.029 A 
ATOM     32  C   UNL A   1      44.377  29.178  31.143  1.00  0.00     0.049 A 
ATOM     33  H   UNL A   1      44.734  30.898  29.990  1.00  0.00     0.167 HD
ATOM     34  C   UNL A   1      42.390  30.552  31.780  1.00  0.00     0.074 A 
ATOM     35  C   UNL A   1      42.183  31.417  30.615  1.00  0.00     0.031 C 
ATOM     36  C   UNL A   1      43.327  29.593  32.051  1.00  0.00     0.031 A 
BRANCH  23  37
ATOM     37  C   UNL A   1      44.997  30.673  27.105  1.00  0.00    -0.014 A 
ATOM     38  C   UNL A   1      46.307  31.086  26.778  1.00  0.00     0.010 A 
ATOM     39  C   UNL A   1      44.000  31.672  27.109  1.00  0.00     0.010 A 
ATOM     40  C   UNL A   1      46.621  32.438  26.612  1.00  0.00     0.020 A 
ATOM     41  C   UNL A   1      44.295  33.019  26.902  1.00  0.00     0.020 A 
ATOM     42  C   UNL A   1      45.613  33.398  26.697  1.00  0.00     0.054 A 
BRANCH  42  43
ATOM     43  S   UNL A   1      46.050  35.147  26.591  1.00  0.00     0.124 S 
ATOM     44  O   UNL A   1      44.736  35.778  26.537  1.00  0.00    -0.237 OA
ATOM     45  O   UNL A   1      46.802  35.345  27.827  1.00  0.00    -0.237 OA
ATOM     46  O   UNL A   1      46.840  35.227  25.366  1.00  0.00    -0.744 OA
ENDBRANCH  42  43
ENDBRANCH  23  37
BRANCH  24  47
ATOM     47  C   UNL A   1      37.741  31.415  31.420  1.00  0.00    -0.014 A 
ATOM     48  C   UNL A   1      36.647  31.168  32.272  1.00  0.00     0.010 A 
ATOM     49  C   UNL A   1      37.776  32.659  30.757  1.00  0.00     0.010 A 
ATOM     50  C   UNL A   1      35.662  32.149  32.499  1.00  0.00     0.020 A 
ATOM     51  C   UNL A   1      36.798  33.640  30.973  1.00  0.00     0.020 A 
ATOM     52  C   UNL A   1      35.757  33.390  31.863  1.00  0.00     0.054 A 
BRANCH  52  53
ATOM     53  S   UNL A   1      34.587  34.717  32.293  1.00  0.00     0.124 S 
ATOM     54  O   UNL A   1      35.411  35.610  33.101  1.00  0.00    -0.237 OA
ATOM     55  O   UNL A   1      34.195  35.233  30.984  1.00  0.00    -0.237 OA
ATOM     56  O   UNL A   1      33.529  34.022  33.023  1.00  0.00    -0.744 OA
ENDBRANCH  52  53
ENDBRANCH  24  47
BRANCH  36  57
ATOM     57  C   UNL A   1      43.172  28.766  33.307  1.00  0.00    -0.014 A 
ATOM     58  C   UNL A   1      43.846  29.020  34.520  1.00  0.00     0.010 A 
ATOM     59  C   UNL A   1      42.181  27.771  33.288  1.00  0.00     0.010 A 
ATOM     60  C   UNL A   1      43.552  28.269  35.670  1.00  0.00     0.020 A 
ATOM     61  C   UNL A   1      41.872  27.035  34.432  1.00  0.00     0.020 A 
ATOM     62  C   UNL A   1      42.568  27.277  35.616  1.00  0.00     0.054 A 
BRANCH  62  63
ATOM     63  S   UNL A   1      42.173  26.313  37.102  1.00  0.00     0.124 S 
ATOM     64  O   UNL A   1      40.809  26.735  37.402  1.00  0.00    -0.237 OA
ATOM     65  O   UNL A   1      42.321  24.933  36.644  1.00  0.00    -0.237 OA
ATOM     66  O   UNL A   1      43.179  26.742  38.074  1.00  0.00    -0.744 OA
ENDBRANCH  62  63
ENDBRANCH  36  57
ENDBRANCH  10  11
ENDBRANCH   3   5
ENDBRANCH   2   3
ENDBRANCH   1   2
BRANCH   1  67
ATOM     67  C   UNL A   1      36.471  21.881  25.683  1.00  0.00     0.274 C 
BRANCH  67  68
ATOM     68  O   UNL A   1      35.493  21.490  24.701  1.00  0.00    -0.461 OA
BRANCH  68  69
ATOM     69  C   UNL A   1      34.834  22.536  24.090  1.00  0.00     0.329 C 
ATOM     70  O   UNL A   1      35.019  22.871  22.929  1.00  0.00    -0.250 OA
BRANCH  69  71
ATOM     71  C   UNL A   1      33.996  23.302  25.135  1.00  0.00     0.201 C 
ATOM     72  C   UNL A   1      34.290  24.778  24.672  1.00  0.00     0.093 C 
ATOM     73  N   UNL A   1      32.505  23.100  25.444  1.00  0.00    -0.318 N 
ATOM     74  C   UNL A   1      33.550  25.736  25.504  1.00  0.00     0.042 A 
ATOM     75  C   UNL A   1      31.954  24.040  26.474  1.00  0.00     0.179 C 
ATOM     76  N   UNL A   1      33.725  27.083  25.622  1.00  0.00    -0.348 N 
ATOM     77  C   UNL A   1      32.487  25.416  26.304  1.00  0.00     0.081 A 
ATOM     78  C   UNL A   1      32.775  27.522  26.506  1.00  0.00     0.197 A 
ATOM     79  H   UNL A   1      34.400  27.631  25.163  1.00  0.00     0.167 HD
ATOM     80  N   UNL A   1      32.015  26.536  26.935  1.00  0.00    -0.240 NA
BRANCH  73  81
ATOM     81  C   UNL A   1      31.749  21.900  25.411  1.00  0.00     0.256 C 
ATOM     82  O   UNL A   1      30.585  21.854  25.814  1.00  0.00    -0.269 OA
BRANCH  81  83
ATOM     83  C   UNL A   1      32.244  20.653  24.800  1.00  0.00     0.061 A 
ATOM     84  C   UNL A   1      32.867  19.721  25.626  1.00  0.00     0.035 A 
ATOM     85  C   UNL A   1      32.241  20.424  23.418  1.00  0.00     0.072 A 
ATOM     86  C   UNL A   1      33.267  18.515  25.073  1.00  0.00     0.112 A 
ATOM     87  C   UNL A   1      32.592  19.155  22.979  1.00  0.00     0.132 A 
ATOM     88  Cl  UNL A   1      31.867  21.586  22.200  1.00  0.00    -0.082 Cl
ATOM     89  N   UNL A   1      33.099  18.187  23.775  1.00  0.00    -0.263 NA
ENDBRANCH  81  83
ENDBRANCH  73  81
ENDBRANCH  69  71
ENDBRANCH  68  69
ENDBRANCH  67  68
ENDBRANCH   1  67
TORSDOF 16
ENDMDL
MODEL 3
REMARK VINA RESULT:     -12.0      1.318      3.191
REMARK SMILES O=C(OCCOC(=O)[C@H]1Cc2[nH]cnc2CN1C(=O)c1ccncc1Cl)c1ccc(-c2c3nc(c(-c4ccc(S(=O)(=O)[O-])cc4)c4ccc([nH]4)c(-c4ccc(S(=O)(=O)[O-])cc4)c4nc(c(-c5ccc(S(=O)(=O)[O-])cc5)c5ccc2[nH]5)C=C4)C=C3)cc1
REMARK SMILES IDX 4 1 3 2 2 3 1 4 27 5 28 6 86 7 29 8 85 9 30 10 31 11 32 12
REMARK SMILES IDX 79 13 33 14 84 15 78 16 80 17 34 18 83 19 77 20 76 21 35 23
REMARK SMILES IDX 65 24 46 25 64 26 47 27 50 28 63 29 81 30 48 31 49 32 62 34
REMARK SMILES IDX 82 35 51 36 36 37 37 38 45 39 38 40 44 41 39 42 40 43 41 44
REMARK SMILES IDX 42 45 43 46 66 47 67 48 75 49 68 50 74 51 69 52 70 53 71 54
REMARK SMILES IDX 72 55 73 56 52 57 53 58 61 59 54 60 60 61 55 62 56 63 57 64
REMARK SMILES IDX 58 65 59 66 5 67 6 68 7 69 8 70 9 71 10 72 17 73 11 74 16 75
REMARK SMILES IDX 12 76 15 77 13 78 14 80 18 81 19 82 20 83 21 84 25 85 22 86
REMARK SMILES IDX 24 87 26 88 23 89
REMARK H PARENT 80 22 50 33 12 79
REMARK Flexibility Score: inf
ROOT
ATOM      1  C   UNL A   1      33.017  30.622  27.213  1.00  0.00     0.275 C 
ENDROOT
BRANCH   1   2
ATOM      2  O   UNL A   1      34.280  31.288  27.252  1.00  0.00    -0.458 OA
BRANCH   2   3
ATOM      3  C   UNL A   1      34.832  31.619  28.433  1.00  0.00     0.338 C 
ATOM      4  O   UNL A   1      34.380  32.369  29.260  1.00  0.00    -0.246 OA
BRANCH   3   5
ATOM      5  C   UNL A   1      36.157  30.992  28.518  1.00  0.00     0.060 A 
ATOM      6  C   UNL A   1      36.312  29.621  28.309  1.00  0.00     0.016 A 
ATOM      7  C   UNL A   1      37.251  31.805  28.812  1.00  0.00     0.016 A 
ATOM      8  C   UNL A   1      37.530  29.047  28.577  1.00  0.00     0.010 A 
ATOM      9  C   UNL A   1      38.461  31.238  29.119  1.00  0.00     0.010 A 
ATOM     10  C   UNL A   1      38.567  29.858  29.048  1.00  0.00    -0.014 A 
BRANCH  10  11
ATOM     11  C   UNL A   1      39.860  29.256  29.240  1.00  0.00     0.031 A 
ATOM     12  C   UNL A   1      40.115  28.995  30.675  1.00  0.00     0.074 A 
ATOM     13  C   UNL A   1      40.656  28.902  28.219  1.00  0.00     0.049 A 
ATOM     14  N   UNL A   1      40.752  29.768  31.492  1.00  0.00    -0.248 NA
ATOM     15  C   UNL A   1      39.340  27.935  31.344  1.00  0.00     0.031 C 
ATOM     16  C   UNL A   1      40.352  28.864  26.787  1.00  0.00     0.029 A 
ATOM     17  N   UNL A   1      41.913  28.407  28.271  1.00  0.00    -0.354 N 
ATOM     18  C   UNL A   1      40.730  29.103  32.708  1.00  0.00     0.074 A 
ATOM     19  C   UNL A   1      39.635  28.171  32.625  1.00  0.00     0.031 C 
ATOM     20  C   UNL A   1      41.308  28.147  26.149  1.00  0.00     0.029 A 
ATOM     21  C   UNL A   1      42.356  27.810  27.099  1.00  0.00     0.049 A 
ATOM     22  H   UNL A   1      42.472  28.466  29.080  1.00  0.00     0.167 HD
ATOM     23  C   UNL A   1      41.836  29.107  33.506  1.00  0.00     0.031 A 
ATOM     24  C   UNL A   1      43.476  27.050  26.963  1.00  0.00     0.031 A 
ATOM     25  C   UNL A   1      42.768  30.133  33.088  1.00  0.00     0.049 A 
ATOM     26  C   UNL A   1      44.366  27.395  28.107  1.00  0.00     0.074 A 
ATOM     27  C   UNL A   1      42.703  31.502  32.914  1.00  0.00     0.029 A 
ATOM     28  N   UNL A   1      43.852  29.706  32.353  1.00  0.00    -0.354 N 
ATOM     29  N   UNL A   1      44.900  28.578  28.255  1.00  0.00    -0.248 NA
ATOM     30  C   UNL A   1      44.237  26.618  29.331  1.00  0.00     0.031 C 
ATOM     31  C   UNL A   1      43.456  31.760  31.730  1.00  0.00     0.029 A 
ATOM     32  C   UNL A   1      44.023  30.559  31.297  1.00  0.00     0.049 A 
ATOM     33  H   UNL A   1      44.411  28.922  32.555  1.00  0.00     0.167 HD
ATOM     34  C   UNL A   1      44.751  28.871  29.604  1.00  0.00     0.074 A 
ATOM     35  C   UNL A   1      44.415  27.590  30.232  1.00  0.00     0.031 C 
ATOM     36  C   UNL A   1      44.614  30.162  30.035  1.00  0.00     0.031 A 
BRANCH  23  37
ATOM     37  C   UNL A   1      42.305  27.882  34.264  1.00  0.00    -0.014 A 
ATOM     38  C   UNL A   1      42.364  27.964  35.671  1.00  0.00     0.010 A 
ATOM     39  C   UNL A   1      42.978  26.798  33.663  1.00  0.00     0.010 A 
ATOM     40  C   UNL A   1      43.171  27.097  36.415  1.00  0.00     0.020 A 
ATOM     41  C   UNL A   1      43.752  25.901  34.399  1.00  0.00     0.020 A 
ATOM     42  C   UNL A   1      43.877  26.084  35.768  1.00  0.00     0.054 A 
BRANCH  42  43
ATOM     43  S   UNL A   1      45.002  25.044  36.724  1.00  0.00     0.124 S 
ATOM     44  O   UNL A   1      44.484  25.214  38.077  1.00  0.00    -0.237 OA
ATOM     45  O   UNL A   1      44.789  23.732  36.120  1.00  0.00    -0.237 OA
ATOM     46  O   UNL A   1      46.313  25.637  36.470  1.00  0.00    -0.744 OA
ENDBRANCH  42  43
ENDBRANCH  23  37
BRANCH  24  47
ATOM     47  C   UNL A   1      43.642  25.811  26.155  1.00  0.00    -0.014 A 
ATOM     48  C   UNL A   1      44.844  25.534  25.475  1.00  0.00     0.010 A 
ATOM     49  C   UNL A   1      42.716  24.756  26.288  1.00  0.00     0.010 A 
ATOM     50  C   UNL A   1      45.132  24.240  25.000  1.00  0.00     0.020 A 
ATOM     51  C   UNL A   1      42.993  23.466  25.815  1.00  0.00     0.020 A 
ATOM     52  C   UNL A   1      44.212  23.207  25.194  1.00  0.00     0.054 A 
BRANCH  52  53
ATOM     53  S   UNL A   1      44.659  21.501  24.742  1.00  0.00     0.124 S 
ATOM     54  O   UNL A   1      45.969  21.346  25.366  1.00  0.00    -0.237 OA
ATOM     55  O   UNL A   1      43.580  20.718  25.339  1.00  0.00    -0.237 OA
ATOM     56  O   UNL A   1      44.668  21.522  23.281  1.00  0.00    -0.744 OA
ENDBRANCH  52  53
ENDBRANCH  24  47
BRANCH  36  57
ATOM     57  C   UNL A   1      44.929  31.282  29.070  1.00  0.00    -0.014 A 
ATOM     58  C   UNL A   1      46.226  31.767  28.803  1.00  0.00     0.010 A 
ATOM     59  C   UNL A   1      43.863  31.762  28.291  1.00  0.00     0.010 A 
ATOM     60  C   UNL A   1      46.437  32.732  27.804  1.00  0.00     0.020 A 
ATOM     61  C   UNL A   1      44.068  32.706  27.285  1.00  0.00     0.020 A 
ATOM     62  C   UNL A   1      45.352  33.199  27.054  1.00  0.00     0.054 A 
BRANCH  62  63
ATOM     63  S   UNL A   1      45.619  34.434  25.751  1.00  0.00     0.124 S 
ATOM     64  O   UNL A   1      45.089  35.653  26.355  1.00  0.00    -0.237 OA
ATOM     65  O   UNL A   1      47.068  34.400  25.564  1.00  0.00    -0.237 OA
ATOM     66  O   UNL A   1      44.847  33.920  24.620  1.00  0.00    -0.744 OA
ENDBRANCH  62  63
ENDBRANCH  36  57
ENDBRANCH  10  11
ENDBRANCH   3   5
ENDBRANCH   2   3
ENDBRANCH   1   2
BRANCH   1  67
ATOM     67  C   UNL A   1      32.998  29.111  26.929  1.00  0.00     0.274 C 
BRANCH  67  68
ATOM     68  O   UNL A   1      33.843  28.770  25.814  1.00  0.00    -0.461 OA
BRANCH  68  69
ATOM     69  C   UNL A   1      33.370  27.748  25.019  1.00  0.00     0.329 C 
ATOM     70  O   UNL A   1      34.066  26.834  24.599  1.00  0.00    -0.250 OA
BRANCH  69  71
ATOM     71  C   UNL A   1      31.912  28.045  24.606  1.00  0.00     0.201 C 
ATOM     72  C   UNL A   1      32.177  28.833  23.268  1.00  0.00     0.093 C 
ATOM     73  N   UNL A   1      30.779  27.021  24.437  1.00  0.00    -0.318 N 
ATOM     74  C   UNL A   1      30.906  29.204  22.631  1.00  0.00     0.042 A 
ATOM     75  C   UNL A   1      29.482  27.607  23.967  1.00  0.00     0.179 C 
ATOM     76  N   UNL A   1      30.680  30.105  21.633  1.00  0.00    -0.348 N 
ATOM     77  C   UNL A   1      29.692  28.646  22.926  1.00  0.00     0.081 A 
ATOM     78  C   UNL A   1      29.334  30.073  21.379  1.00  0.00     0.197 A 
ATOM     79  H   UNL A   1      31.350  30.668  21.184  1.00  0.00     0.167 HD
ATOM     80  N   UNL A   1      28.713  29.202  22.146  1.00  0.00    -0.240 NA
BRANCH  73  81
ATOM     81  C   UNL A   1      30.550  25.827  25.168  1.00  0.00     0.256 C 
ATOM     82  O   UNL A   1      29.507  25.643  25.800  1.00  0.00    -0.269 OA
BRANCH  81  83
ATOM     83  C   UNL A   1      31.472  24.677  25.142  1.00  0.00     0.061 A 
ATOM     84  C   UNL A   1      31.930  24.179  26.359  1.00  0.00     0.035 A 
ATOM     85  C   UNL A   1      32.011  24.154  23.960  1.00  0.00     0.072 A 
ATOM     86  C   UNL A   1      32.737  23.052  26.345  1.00  0.00     0.112 A 
ATOM     87  C   UNL A   1      32.745  22.980  24.055  1.00  0.00     0.132 A 
ATOM     88  Cl  UNL A   1      31.873  24.852  22.389  1.00  0.00    -0.082 Cl
ATOM     89  N   UNL A   1      33.115  22.407  25.223  1.00  0.00    -0.263 NA
ENDBRANCH  81  83
ENDBRANCH  73  81
ENDBRANCH  69  71
ENDBRANCH  68  69
ENDBRANCH  67  68
ENDBRANCH   1  67
TORSDOF 16
ENDMDL
