MODEL 1
REMARK VINA RESULT:     -11.6      0.000      0.000
REMARK SMILES CCc1ccc2[nH]c(C(=O)c3cc(C)ccn3)c(CC(=O)OCCOC(=O)c3ccc(-c4c5nc(c(-c6ccc(S(=O)(=O)[O-])cc6)c6ccc([nH]6)c(-c6ccc(S(=O)(=O)[O-])cc6)c6nc(c(-c7ccc(S(=O)(=O)[O-])cc7)c7ccc4[nH]7)C=C6)C=C5)cc3)c2c1
REMARK SMILES IDX 23 1 22 2 20 3 21 4 19 5 18 6 3 7 4 8 89 9 5 10 88 11 6 12
REMARK SMILES IDX 7 13 8 14 2 16 1 17 9 18 10 19 11 20 12 21 17 22 13 23 16 24
REMARK SMILES IDX 14 25 15 26 24 27 25 28 26 29 27 30 28 31 29 32 87 33 30 34
REMARK SMILES IDX 86 35 31 36 32 37 33 38 80 39 34 40 85 41 79 42 81 43 35 44
REMARK SMILES IDX 84 45 78 46 77 47 36 49 66 50 47 51 65 52 48 53 51 54 64 55
REMARK SMILES IDX 82 56 49 57 50 58 63 60 83 61 52 62 37 63 38 64 46 65 39 66
REMARK SMILES IDX 45 67 40 68 41 69 42 70 43 71 44 72 67 73 68 74 76 75 69 76
REMARK SMILES IDX 75 77 70 78 71 79 72 80 73 81 74 82 53 83 54 84 62 85 55 86
REMARK SMILES IDX 61 87 56 88 57 89 58 90 59 91 60 92
REMARK H PARENT 7 15 81 48 51 59
REMARK Flexibility Score: inf
ROOT
ATOM      1  C   UNL A   1      33.219  30.140  27.303  1.00  0.00     0.274 C 
ENDROOT
BRANCH   1   2
ATOM      2  O   UNL A   1      33.070  30.288  25.876  1.00  0.00    -0.462 OA
BRANCH   2   3
ATOM      3  C   UNL A   1      33.476  29.225  25.129  1.00  0.00     0.310 C 
ATOM      4  O   UNL A   1      34.161  28.301  25.566  1.00  0.00    -0.252 OA
BRANCH   3   5
ATOM      5  C   UNL A   1      32.975  29.221  23.701  1.00  0.00     0.161 C 
BRANCH   5   6
ATOM      6  C   UNL A   1      31.755  28.396  23.421  1.00  0.00     0.000 A 
ATOM      7  C   UNL A   1      28.496  30.404  23.420  1.00  0.00    -0.048 A 
ATOM      8  C   UNL A   1      27.687  29.335  23.015  1.00  0.00     0.006 A 
ATOM      9  C   UNL A   1      29.860  30.175  23.664  1.00  0.00     0.014 A 
ATOM     10  C   UNL A   1      28.200  28.040  22.859  1.00  0.00     0.027 A 
ATOM     11  C   UNL A   1      30.414  28.897  23.443  1.00  0.00     0.004 A 
ATOM     12  C   UNL A   1      29.572  27.862  23.058  1.00  0.00     0.046 A 
ATOM     13  N   UNL A   1      30.359  26.746  22.902  1.00  0.00    -0.352 N 
ATOM     14  C   UNL A   1      31.691  27.101  22.902  1.00  0.00     0.093 A 
ATOM     15  H   UNL A   1      30.020  25.826  22.806  1.00  0.00     0.167 HD
BRANCH   7  16
ATOM     16  C   UNL A   1      27.971  31.819  23.483  1.00  0.00     0.032 C 
ATOM     17  C   UNL A   1      28.695  32.799  22.573  1.00  0.00     0.009 C 
ENDBRANCH   7  16
BRANCH  14  18
ATOM     18  C   UNL A   1      32.755  26.281  22.344  1.00  0.00     0.227 C 
ATOM     19  O   UNL A   1      33.271  26.505  21.252  1.00  0.00    -0.285 OA
BRANCH  18  20
ATOM     20  C   UNL A   1      33.141  25.031  23.041  1.00  0.00     0.113 A 
ATOM     21  C   UNL A   1      33.053  24.972  24.427  1.00  0.00     0.036 A 
ATOM     22  N   UNL A   1      33.566  24.011  22.260  1.00  0.00    -0.253 NA
ATOM     23  C   UNL A   1      33.407  23.777  25.058  1.00  0.00    -0.047 A 
ATOM     24  C   UNL A   1      33.815  22.844  22.886  1.00  0.00     0.112 A 
ATOM     25  C   UNL A   1      33.392  23.649  26.551  1.00  0.00     0.044 C 
ATOM     26  C   UNL A   1      33.761  22.683  24.263  1.00  0.00     0.023 A 
ENDBRANCH  18  20
ENDBRANCH  14  18
ENDBRANCH   5   6
ENDBRANCH   3   5
ENDBRANCH   2   3
ENDBRANCH   1   2
BRANCH   1  27
ATOM     27  C   UNL A   1      34.267  31.114  27.832  1.00  0.00     0.275 C 
BRANCH  27  28
ATOM     28  O   UNL A   1      35.510  30.422  28.027  1.00  0.00    -0.458 OA
BRANCH  28  29
ATOM     29  C   UNL A   1      36.136  30.677  29.200  1.00  0.00     0.338 C 
ATOM     30  O   UNL A   1      35.652  31.235  30.176  1.00  0.00    -0.246 OA
BRANCH  29  31
ATOM     31  C   UNL A   1      37.546  30.251  29.130  1.00  0.00     0.060 A 
ATOM     32  C   UNL A   1      38.358  30.214  30.266  1.00  0.00     0.016 A 
ATOM     33  C   UNL A   1      38.083  29.941  27.880  1.00  0.00     0.016 A 
ATOM     34  C   UNL A   1      39.719  29.935  30.140  1.00  0.00     0.010 A 
ATOM     35  C   UNL A   1      39.421  29.557  27.773  1.00  0.00     0.010 A 
ATOM     36  C   UNL A   1      40.258  29.560  28.900  1.00  0.00    -0.014 A 
BRANCH  36  37
ATOM     37  C   UNL A   1      41.668  29.096  28.783  1.00  0.00     0.031 A 
ATOM     38  C   UNL A   1      42.813  30.069  28.870  1.00  0.00     0.074 A 
ATOM     39  C   UNL A   1      41.911  27.797  28.514  1.00  0.00     0.049 A 
ATOM     40  N   UNL A   1      44.075  29.882  28.577  1.00  0.00    -0.248 NA
ATOM     41  C   UNL A   1      42.503  31.433  29.332  1.00  0.00     0.031 C 
ATOM     42  C   UNL A   1      40.895  26.745  28.409  1.00  0.00     0.029 A 
ATOM     43  N   UNL A   1      43.090  27.139  28.258  1.00  0.00    -0.354 N 
ATOM     44  C   UNL A   1      44.700  31.110  28.765  1.00  0.00     0.074 A 
ATOM     45  C   UNL A   1      43.679  32.037  29.206  1.00  0.00     0.031 C 
ATOM     46  C   UNL A   1      41.491  25.579  28.124  1.00  0.00     0.029 A 
ATOM     47  C   UNL A   1      42.918  25.812  27.942  1.00  0.00     0.049 A 
ATOM     48  H   UNL A   1      43.972  27.575  28.297  1.00  0.00     0.167 HD
ATOM     49  C   UNL A   1      46.003  31.432  28.579  1.00  0.00     0.031 A 
ATOM     50  C   UNL A   1      43.792  24.889  27.497  1.00  0.00     0.031 A 
ATOM     51  C   UNL A   1      47.022  30.494  28.182  1.00  0.00     0.049 A 
ATOM     52  C   UNL A   1      45.220  25.283  27.266  1.00  0.00     0.074 A 
ATOM     53  C   UNL A   1      48.382  30.714  28.040  1.00  0.00     0.029 A 
ATOM     54  N   UNL A   1      46.797  29.165  27.863  1.00  0.00    -0.354 N 
ATOM     55  N   UNL A   1      45.793  26.445  27.462  1.00  0.00    -0.248 NA
ATOM     56  C   UNL A   1      46.115  24.246  26.734  1.00  0.00     0.031 C 
ATOM     57  C   UNL A   1      48.973  29.530  27.588  1.00  0.00     0.029 A 
ATOM     58  C   UNL A   1      47.987  28.561  27.489  1.00  0.00     0.049 A 
ATOM     59  H   UNL A   1      45.922  28.715  27.896  1.00  0.00     0.167 HD
ATOM     60  C   UNL A   1      47.117  26.279  27.078  1.00  0.00     0.074 A 
ATOM     61  C   UNL A   1      47.266  24.899  26.661  1.00  0.00     0.031 C 
ATOM     62  C   UNL A   1      48.119  27.191  27.067  1.00  0.00     0.031 A 
BRANCH  49  63
ATOM     63  C   UNL A   1      46.414  32.867  28.770  1.00  0.00    -0.014 A 
ATOM     64  C   UNL A   1      46.902  33.331  30.003  1.00  0.00     0.010 A 
ATOM     65  C   UNL A   1      46.405  33.737  27.663  1.00  0.00     0.010 A 
ATOM     66  C   UNL A   1      47.355  34.649  30.131  1.00  0.00     0.020 A 
ATOM     67  C   UNL A   1      46.873  35.049  27.783  1.00  0.00     0.020 A 
ATOM     68  C   UNL A   1      47.336  35.500  29.020  1.00  0.00     0.054 A 
BRANCH  68  69
ATOM     69  S   UNL A   1      47.971  37.190  29.202  1.00  0.00     0.124 S 
ATOM     70  O   UNL A   1      49.303  37.075  28.611  1.00  0.00    -0.237 OA
ATOM     71  O   UNL A   1      47.013  37.981  28.434  1.00  0.00    -0.237 OA
ATOM     72  O   UNL A   1      47.947  37.417  30.644  1.00  0.00    -0.744 OA
ENDBRANCH  68  69
ENDBRANCH  49  63
BRANCH  50  73
ATOM     73  C   UNL A   1      43.313  23.521  27.166  1.00  0.00    -0.014 A 
ATOM     74  C   UNL A   1      43.056  23.154  25.835  1.00  0.00     0.010 A 
ATOM     75  C   UNL A   1      43.130  22.571  28.189  1.00  0.00     0.010 A 
ATOM     76  C   UNL A   1      42.611  21.864  25.533  1.00  0.00     0.020 A 
ATOM     77  C   UNL A   1      42.712  21.274  27.889  1.00  0.00     0.020 A 
ATOM     78  C   UNL A   1      42.440  20.932  26.562  1.00  0.00     0.054 A 
BRANCH  78  79
ATOM     79  S   UNL A   1      41.910  19.247  26.152  1.00  0.00     0.124 S 
ATOM     80  O   UNL A   1      42.701  18.964  24.960  1.00  0.00    -0.237 OA
ATOM     81  O   UNL A   1      42.278  18.493  27.349  1.00  0.00    -0.237 OA
ATOM     82  O   UNL A   1      40.472  19.388  25.934  1.00  0.00    -0.744 OA
ENDBRANCH  78  79
ENDBRANCH  50  73
BRANCH  62  83
ATOM     83  C   UNL A   1      49.465  26.722  26.595  1.00  0.00    -0.014 A 
ATOM     84  C   UNL A   1      50.347  26.070  27.474  1.00  0.00     0.010 A 
ATOM     85  C   UNL A   1      49.836  26.899  25.251  1.00  0.00     0.010 A 
ATOM     86  C   UNL A   1      51.590  25.623  27.021  1.00  0.00     0.020 A 
ATOM     87  C   UNL A   1      51.069  26.435  24.789  1.00  0.00     0.020 A 
ATOM     88  C   UNL A   1      51.944  25.810  25.681  1.00  0.00     0.054 A 
BRANCH  88  89
ATOM     89  S   UNL A   1      53.544  25.179  25.101  1.00  0.00     0.124 S 
ATOM     90  O   UNL A   1      53.571  25.646  23.718  1.00  0.00    -0.237 OA
ATOM     91  O   UNL A   1      54.494  25.828  26.002  1.00  0.00    -0.237 OA
ATOM     92  O   UNL A   1      53.425  23.733  25.270  1.00  0.00    -0.744 OA
ENDBRANCH  88  89
ENDBRANCH  62  83
ENDBRANCH  36  37
ENDBRANCH  29  31
ENDBRANCH  28  29
ENDBRANCH  27  28
ENDBRANCH   1  27
TORSDOF 18
ENDMDL
MODEL 2
REMARK VINA RESULT:     -11.4      0.970      3.629
REMARK SMILES CCc1ccc2[nH]c(C(=O)c3cc(C)ccn3)c(CC(=O)OCCOC(=O)c3ccc(-c4c5nc(c(-c6ccc(S(=O)(=O)[O-])cc6)c6ccc([nH]6)c(-c6ccc(S(=O)(=O)[O-])cc6)c6nc(c(-c7ccc(S(=O)(=O)[O-])cc7)c7ccc4[nH]7)C=C6)C=C5)cc3)c2c1
REMARK SMILES IDX 23 1 22 2 20 3 21 4 19 5 18 6 3 7 4 8 89 9 5 10 88 11 6 12
REMARK SMILES IDX 7 13 8 14 2 16 1 17 9 18 10 19 11 20 12 21 17 22 13 23 16 24
REMARK SMILES IDX 14 25 15 26 24 27 25 28 26 29 27 30 28 31 29 32 87 33 30 34
REMARK SMILES IDX 86 35 31 36 32 37 33 38 80 39 34 40 85 41 79 42 81 43 35 44
REMARK SMILES IDX 84 45 78 46 77 47 36 49 66 50 47 51 65 52 48 53 51 54 64 55
REMARK SMILES IDX 82 56 49 57 50 58 63 60 83 61 52 62 37 63 38 64 46 65 39 66
REMARK SMILES IDX 45 67 40 68 41 69 42 70 43 71 44 72 67 73 68 74 76 75 69 76
REMARK SMILES IDX 75 77 70 78 71 79 72 80 73 81 74 82 53 83 54 84 62 85 55 86
REMARK SMILES IDX 61 87 56 88 57 89 58 90 59 91 60 92
REMARK H PARENT 7 15 81 48 51 59
REMARK Flexibility Score: inf
ROOT
ATOM      1  C   UNL A   1      33.156  29.759  27.007  1.00  0.00     0.274 C 
ENDROOT
BRANCH   1   2
ATOM      2  O   UNL A   1      33.256  28.399  27.479  1.00  0.00    -0.462 OA
BRANCH   2   3
ATOM      3  C   UNL A   1      33.034  27.435  26.545  1.00  0.00     0.310 C 
ATOM      4  O   UNL A   1      32.012  26.753  26.493  1.00  0.00    -0.252 OA
BRANCH   3   5
ATOM      5  C   UNL A   1      34.129  27.286  25.511  1.00  0.00     0.161 C 
BRANCH   5   6
ATOM      6  C   UNL A   1      33.777  26.526  24.267  1.00  0.00     0.000 A 
ATOM      7  C   UNL A   1      34.464  22.768  24.504  1.00  0.00    -0.048 A 
ATOM      8  C   UNL A   1      33.907  22.457  23.257  1.00  0.00     0.006 A 
ATOM      9  C   UNL A   1      34.544  24.113  24.901  1.00  0.00     0.014 A 
ATOM     10  C   UNL A   1      33.438  23.453  22.390  1.00  0.00     0.027 A 
ATOM     11  C   UNL A   1      34.012  25.127  24.078  1.00  0.00     0.004 A 
ATOM     12  C   UNL A   1      33.485  24.774  22.843  1.00  0.00     0.046 A 
ATOM     13  N   UNL A   1      33.032  25.934  22.259  1.00  0.00    -0.352 N 
ATOM     14  C   UNL A   1      33.001  26.952  23.187  1.00  0.00     0.093 A 
ATOM     15  H   UNL A   1      32.769  26.024  21.314  1.00  0.00     0.167 HD
BRANCH   7  16
ATOM     16  C   UNL A   1      34.869  21.692  25.485  1.00  0.00     0.032 C 
ATOM     17  C   UNL A   1      34.695  20.273  24.967  1.00  0.00     0.009 C 
ENDBRANCH   7  16
BRANCH  14  18
ATOM     18  C   UNL A   1      32.197  28.158  23.052  1.00  0.00     0.227 C 
ATOM     19  O   UNL A   1      32.685  29.280  22.948  1.00  0.00    -0.285 OA
BRANCH  18  20
ATOM     20  C   UNL A   1      30.725  28.060  23.198  1.00  0.00     0.113 A 
ATOM     21  C   UNL A   1      29.933  29.139  22.819  1.00  0.00     0.036 A 
ATOM     22  N   UNL A   1      30.244  26.902  23.705  1.00  0.00    -0.253 NA
ATOM     23  C   UNL A   1      28.548  29.015  22.951  1.00  0.00    -0.047 A 
ATOM     24  C   UNL A   1      28.902  26.777  23.737  1.00  0.00     0.112 A 
ATOM     25  C   UNL A   1      27.628  30.150  22.616  1.00  0.00     0.044 C 
ATOM     26  C   UNL A   1      28.027  27.794  23.387  1.00  0.00     0.023 A 
ENDBRANCH  18  20
ENDBRANCH  14  18
ENDBRANCH   5   6
ENDBRANCH   3   5
ENDBRANCH   2   3
ENDBRANCH   1   2
BRANCH   1  27
ATOM     27  C   UNL A   1      34.346  30.580  27.496  1.00  0.00     0.275 C 
BRANCH  27  28
ATOM     28  O   UNL A   1      35.354  29.700  28.017  1.00  0.00    -0.458 OA
BRANCH  28  29
ATOM     29  C   UNL A   1      36.096  30.205  29.030  1.00  0.00     0.338 C 
ATOM     30  O   UNL A   1      35.696  30.932  29.932  1.00  0.00    -0.246 OA
BRANCH  29  31
ATOM     31  C   UNL A   1      37.509  29.820  28.871  1.00  0.00     0.060 A 
ATOM     32  C   UNL A   1      38.112  29.743  27.613  1.00  0.00     0.016 A 
ATOM     33  C   UNL A   1      38.232  29.464  30.011  1.00  0.00     0.016 A 
ATOM     34  C   UNL A   1      39.410  29.247  27.492  1.00  0.00     0.010 A 
ATOM     35  C   UNL A   1      39.566  29.071  29.896  1.00  0.00     0.010 A 
ATOM     36  C   UNL A   1      40.168  28.947  28.633  1.00  0.00    -0.014 A 
BRANCH  36  37
ATOM     37  C   UNL A   1      41.607  28.581  28.527  1.00  0.00     0.031 A 
ATOM     38  C   UNL A   1      42.682  29.634  28.593  1.00  0.00     0.074 A 
ATOM     39  C   UNL A   1      41.941  27.296  28.286  1.00  0.00     0.049 A 
ATOM     40  N   UNL A   1      43.955  29.529  28.304  1.00  0.00    -0.248 NA
ATOM     41  C   UNL A   1      42.276  30.982  29.025  1.00  0.00     0.031 C 
ATOM     42  C   UNL A   1      41.001  26.174  28.204  1.00  0.00     0.029 A 
ATOM     43  N   UNL A   1      43.164  26.718  28.045  1.00  0.00    -0.354 N 
ATOM     44  C   UNL A   1      44.491  30.801  28.466  1.00  0.00     0.074 A 
ATOM     45  C   UNL A   1      43.407  31.664  28.886  1.00  0.00     0.031 C 
ATOM     46  C   UNL A   1      41.678  25.047  27.945  1.00  0.00     0.029 A 
ATOM     47  C   UNL A   1      43.086  25.375  27.759  1.00  0.00     0.049 A 
ATOM     48  H   UNL A   1      44.013  27.215  28.075  1.00  0.00     0.167 HD
ATOM     49  C   UNL A   1      45.769  31.209  28.274  1.00  0.00     0.031 A 
ATOM     50  C   UNL A   1      44.023  24.506  27.334  1.00  0.00     0.031 A 
ATOM     51  C   UNL A   1      46.852  30.336  27.897  1.00  0.00     0.049 A 
ATOM     52  C   UNL A   1      45.420  24.993  27.095  1.00  0.00     0.074 A 
ATOM     53  C   UNL A   1      48.193  30.648  27.751  1.00  0.00     0.029 A 
ATOM     54  N   UNL A   1      46.721  28.988  27.607  1.00  0.00    -0.354 N 
ATOM     55  N   UNL A   1      45.910  26.196  27.266  1.00  0.00    -0.248 NA
ATOM     56  C   UNL A   1      46.386  24.010  26.586  1.00  0.00     0.031 C 
ATOM     57  C   UNL A   1      48.866  29.498  27.326  1.00  0.00     0.029 A 
ATOM     58  C   UNL A   1      47.951  28.462  27.248  1.00  0.00     0.049 A 
ATOM     59  H   UNL A   1      45.880  28.479  27.650  1.00  0.00     0.167 HD
ATOM     60  C   UNL A   1      47.243  26.116  26.886  1.00  0.00     0.074 A 
ATOM     61  C   UNL A   1      47.490  24.741  26.499  1.00  0.00     0.031 C 
ATOM     62  C   UNL A   1      48.179  27.095  26.855  1.00  0.00     0.031 A 
BRANCH  49  63
ATOM     63  C   UNL A   1      46.079  32.673  28.434  1.00  0.00    -0.014 A 
ATOM     64  C   UNL A   1      46.529  33.198  29.656  1.00  0.00     0.010 A 
ATOM     65  C   UNL A   1      46.013  33.516  27.307  1.00  0.00     0.010 A 
ATOM     66  C   UNL A   1      46.888  34.546  29.756  1.00  0.00     0.020 A 
ATOM     67  C   UNL A   1      46.388  34.859  27.398  1.00  0.00     0.020 A 
ATOM     68  C   UNL A   1      46.814  35.369  28.626  1.00  0.00     0.054 A 
BRANCH  68  69
ATOM     69  S   UNL A   1      47.329  37.103  28.772  1.00  0.00     0.124 S 
ATOM     70  O   UNL A   1      46.181  37.806  28.204  1.00  0.00    -0.237 OA
ATOM     71  O   UNL A   1      47.514  37.267  30.212  1.00  0.00    -0.237 OA
ATOM     72  O   UNL A   1      48.554  37.169  27.980  1.00  0.00    -0.744 OA
ENDBRANCH  68  69
ENDBRANCH  49  63
BRANCH  50  73
ATOM     73  C   UNL A   1      43.641  23.100  27.033  1.00  0.00    -0.014 A 
ATOM     74  C   UNL A   1      42.967  22.322  27.987  1.00  0.00     0.010 A 
ATOM     75  C   UNL A   1      43.938  22.543  25.775  1.00  0.00     0.010 A 
ATOM     76  C   UNL A   1      42.607  21.003  27.694  1.00  0.00     0.020 A 
ATOM     77  C   UNL A   1      43.556  21.236  25.468  1.00  0.00     0.020 A 
ATOM     78  C   UNL A   1      42.905  20.468  26.436  1.00  0.00     0.054 A 
BRANCH  78  79
ATOM     79  S   UNL A   1      42.389  18.773  26.050  1.00  0.00     0.124 S 
ATOM     80  O   UNL A   1      40.985  18.957  25.701  1.00  0.00    -0.237 OA
ATOM     81  O   UNL A   1      43.274  18.411  24.945  1.00  0.00    -0.237 OA
ATOM     82  O   UNL A   1      42.638  18.050  27.296  1.00  0.00    -0.744 OA
ENDBRANCH  78  79
ENDBRANCH  50  73
BRANCH  62  83
ATOM     83  C   UNL A   1      49.556  26.711  26.395  1.00  0.00    -0.014 A 
ATOM     84  C   UNL A   1      50.376  25.890  27.187  1.00  0.00     0.010 A 
ATOM     85  C   UNL A   1      50.019  27.143  25.140  1.00  0.00     0.010 A 
ATOM     86  C   UNL A   1      51.647  25.524  26.742  1.00  0.00     0.020 A 
ATOM     87  C   UNL A   1      51.282  26.763  24.682  1.00  0.00     0.020 A 
ATOM     88  C   UNL A   1      52.094  25.965  25.492  1.00  0.00     0.054 A 
BRANCH  88  89
ATOM     89  S   UNL A   1      53.731  25.441  24.911  1.00  0.00     0.124 S 
ATOM     90  O   UNL A   1      53.513  25.301  23.474  1.00  0.00    -0.237 OA
ATOM     91  O   UNL A   1      54.589  26.555  25.310  1.00  0.00    -0.237 OA
ATOM     92  O   UNL A   1      53.969  24.193  25.632  1.00  0.00    -0.744 OA
ENDBRANCH  88  89
ENDBRANCH  62  83
ENDBRANCH  36  37
ENDBRANCH  29  31
ENDBRANCH  28  29
ENDBRANCH  27  28
ENDBRANCH   1  27
TORSDOF 18
ENDMDL
MODEL 3
REMARK VINA RESULT:     -11.3      2.177      4.414
REMARK SMILES CCc1ccc2[nH]c(C(=O)c3cc(C)ccn3)c(CC(=O)OCCOC(=O)c3ccc(-c4c5nc(c(-c6ccc(S(=O)(=O)[O-])cc6)c6ccc([nH]6)c(-c6ccc(S(=O)(=O)[O-])cc6)c6nc(c(-c7ccc(S(=O)(=O)[O-])cc7)c7ccc4[nH]7)C=C6)C=C5)cc3)c2c1
REMARK SMILES IDX 23 1 22 2 20 3 21 4 19 5 18 6 3 7 4 8 89 9 5 10 88 11 6 12
REMARK SMILES IDX 7 13 8 14 2 16 1 17 9 18 10 19 11 20 12 21 17 22 13 23 16 24
REMARK SMILES IDX 14 25 15 26 24 27 25 28 26 29 27 30 28 31 29 32 87 33 30 34
REMARK SMILES IDX 86 35 31 36 32 37 33 38 80 39 34 40 85 41 79 42 81 43 35 44
REMARK SMILES IDX 84 45 78 46 77 47 36 49 66 50 47 51 65 52 48 53 51 54 64 55
REMARK SMILES IDX 82 56 49 57 50 58 63 60 83 61 52 62 37 63 38 64 46 65 39 66
REMARK SMILES IDX 45 67 40 68 41 69 42 70 43 71 44 72 67 73 68 74 76 75 69 76
REMARK SMILES IDX 75 77 70 78 71 79 72 80 73 81 74 82 53 83 54 84 62 85 55 86
REMARK SMILES IDX 61 87 56 88 57 89 58 90 59 91 60 92
REMARK H PARENT 7 15 81 48 51 59
REMARK Flexibility Score: inf
ROOT
ATOM      1  C   UNL A   1      31.989  29.356  26.221  1.00  0.00     0.274 C 
ENDROOT
BRANCH   1   2
ATOM      2  O   UNL A   1      31.870  28.245  27.135  1.00  0.00    -0.462 OA
BRANCH   2   3
ATOM      3  C   UNL A   1      32.248  27.035  26.642  1.00  0.00     0.310 C 
ATOM      4  O   UNL A   1      31.585  26.006  26.766  1.00  0.00    -0.252 OA
BRANCH   3   5
ATOM      5  C   UNL A   1      33.544  27.042  25.861  1.00  0.00     0.161 C 
BRANCH   5   6
ATOM      6  C   UNL A   1      33.578  26.215  24.611  1.00  0.00     0.000 A 
ATOM      7  C   UNL A   1      34.308  22.508  25.229  1.00  0.00    -0.048 A 
ATOM      8  C   UNL A   1      34.129  22.118  23.896  1.00  0.00     0.006 A 
ATOM      9  C   UNL A   1      34.226  23.870  25.560  1.00  0.00     0.014 A 
ATOM     10  C   UNL A   1      33.883  23.053  22.881  1.00  0.00     0.027 A 
ATOM     11  C   UNL A   1      33.906  24.822  24.569  1.00  0.00     0.004 A 
ATOM     12  C   UNL A   1      33.755  24.393  23.257  1.00  0.00     0.046 A 
ATOM     13  N   UNL A   1      33.440  25.503  22.510  1.00  0.00    -0.352 N 
ATOM     14  C   UNL A   1      33.117  26.556  23.338  1.00  0.00     0.093 A 
ATOM     15  H   UNL A   1      33.446  25.540  21.526  1.00  0.00     0.167 HD
BRANCH   7  16
ATOM     16  C   UNL A   1      34.464  21.496  26.340  1.00  0.00     0.032 C 
ATOM     17  C   UNL A   1      34.075  22.010  27.717  1.00  0.00     0.009 C 
ENDBRANCH   7  16
BRANCH  14  18
ATOM     18  C   UNL A   1      32.339  27.714  22.923  1.00  0.00     0.227 C 
ATOM     19  O   UNL A   1      32.851  28.757  22.525  1.00  0.00    -0.285 OA
BRANCH  18  20
ATOM     20  C   UNL A   1      30.871  27.704  23.126  1.00  0.00     0.113 A 
ATOM     21  C   UNL A   1      30.129  28.827  22.775  1.00  0.00     0.036 A 
ATOM     22  N   UNL A   1      30.342  26.577  23.656  1.00  0.00    -0.253 NA
ATOM     23  C   UNL A   1      28.746  28.786  22.962  1.00  0.00    -0.047 A 
ATOM     24  C   UNL A   1      28.998  26.531  23.741  1.00  0.00     0.112 A 
ATOM     25  C   UNL A   1      27.882  29.973  22.659  1.00  0.00     0.044 C 
ATOM     26  C   UNL A   1      28.170  27.598  23.422  1.00  0.00     0.023 A 
ENDBRANCH  18  20
ENDBRANCH  14  18
ENDBRANCH   5   6
ENDBRANCH   3   5
ENDBRANCH   2   3
ENDBRANCH   1   2
BRANCH   1  27
ATOM     27  C   UNL A   1      32.647  30.546  26.914  1.00  0.00     0.275 C 
BRANCH  27  28
ATOM     28  O   UNL A   1      33.788  30.094  27.660  1.00  0.00    -0.458 OA
BRANCH  28  29
ATOM     29  C   UNL A   1      34.404  31.043  28.405  1.00  0.00     0.338 C 
ATOM     30  O   UNL A   1      33.908  32.089  28.805  1.00  0.00    -0.246 OA
BRANCH  29  31
ATOM     31  C   UNL A   1      35.817  30.686  28.621  1.00  0.00     0.060 A 
ATOM     32  C   UNL A   1      36.713  30.560  27.557  1.00  0.00     0.016 A 
ATOM     33  C   UNL A   1      36.238  30.406  29.922  1.00  0.00     0.016 A 
ATOM     34  C   UNL A   1      38.007  30.091  27.787  1.00  0.00     0.010 A 
ATOM     35  C   UNL A   1      37.564  30.040  30.161  1.00  0.00     0.010 A 
ATOM     36  C   UNL A   1      38.462  29.868  29.095  1.00  0.00    -0.014 A 
BRANCH  36  37
ATOM     37  C   UNL A   1      39.886  29.532  29.367  1.00  0.00     0.031 A 
ATOM     38  C   UNL A   1      40.856  30.588  29.830  1.00  0.00     0.074 A 
ATOM     39  C   UNL A   1      40.326  28.282  29.117  1.00  0.00     0.049 A 
ATOM     40  N   UNL A   1      42.162  30.528  29.905  1.00  0.00    -0.248 NA
ATOM     41  C   UNL A   1      40.292  31.882  30.248  1.00  0.00     0.031 C 
ATOM     42  C   UNL A   1      39.492  27.161  28.671  1.00  0.00     0.029 A 
ATOM     43  N   UNL A   1      41.589  27.746  29.181  1.00  0.00    -0.354 N 
ATOM     44  C   UNL A   1      42.580  31.785  30.326  1.00  0.00     0.074 A 
ATOM     45  C   UNL A   1      41.388  32.589  30.498  1.00  0.00     0.031 C 
ATOM     46  C   UNL A   1      40.259  26.073  28.514  1.00  0.00     0.029 A 
ATOM     47  C   UNL A   1      41.648  26.436  28.764  1.00  0.00     0.049 A 
ATOM     48  H   UNL A   1      42.375  28.249  29.494  1.00  0.00     0.167 HD
ATOM     49  C   UNL A   1      43.843  32.227  30.540  1.00  0.00     0.031 A 
ATOM     50  C   UNL A   1      42.701  25.625  28.545  1.00  0.00     0.031 A 
ATOM     51  C   UNL A   1      45.023  31.409  30.409  1.00  0.00     0.049 A 
ATOM     52  C   UNL A   1      44.088  26.151  28.757  1.00  0.00     0.074 A 
ATOM     53  C   UNL A   1      46.337  31.751  30.677  1.00  0.00     0.029 A 
ATOM     54  N   UNL A   1      45.033  30.094  29.973  1.00  0.00    -0.354 N 
ATOM     55  N   UNL A   1      44.462  27.339  29.167  1.00  0.00    -0.248 NA
ATOM     56  C   UNL A   1      45.197  25.236  28.455  1.00  0.00     0.031 C 
ATOM     57  C   UNL A   1      47.148  30.657  30.358  1.00  0.00     0.029 A 
ATOM     58  C   UNL A   1      46.334  29.621  29.930  1.00  0.00     0.049 A 
ATOM     59  H   UNL A   1      44.234  29.572  29.730  1.00  0.00     0.167 HD
ATOM     60  C   UNL A   1      45.850  27.313  29.174  1.00  0.00     0.074 A 
ATOM     61  C   UNL A   1      46.250  25.986  28.750  1.00  0.00     0.031 C 
ATOM     62  C   UNL A   1      46.717  28.303  29.497  1.00  0.00     0.031 A 
BRANCH  49  63
ATOM     63  C   UNL A   1      44.037  33.672  30.913  1.00  0.00    -0.014 A 
ATOM     64  C   UNL A   1      44.082  34.680  29.936  1.00  0.00     0.010 A 
ATOM     65  C   UNL A   1      44.074  34.031  32.273  1.00  0.00     0.010 A 
ATOM     66  C   UNL A   1      44.180  36.024  30.314  1.00  0.00     0.020 A 
ATOM     67  C   UNL A   1      44.154  35.374  32.655  1.00  0.00     0.020 A 
ATOM     68  C   UNL A   1      44.218  36.362  31.671  1.00  0.00     0.054 A 
BRANCH  68  69
ATOM     69  S   UNL A   1      44.300  38.115  32.134  1.00  0.00     0.124 S 
ATOM     70  O   UNL A   1      43.317  38.187  33.212  1.00  0.00    -0.237 OA
ATOM     71  O   UNL A   1      45.692  38.277  32.545  1.00  0.00    -0.237 OA
ATOM     72  O   UNL A   1      43.931  38.816  30.907  1.00  0.00    -0.744 OA
ENDBRANCH  68  69
ENDBRANCH  49  63
BRANCH  50  73
ATOM     73  C   UNL A   1      42.475  24.251  28.023  1.00  0.00    -0.014 A 
ATOM     74  C   UNL A   1      42.501  23.144  28.887  1.00  0.00     0.010 A 
ATOM     75  C   UNL A   1      42.214  24.051  26.655  1.00  0.00     0.010 A 
ATOM     76  C   UNL A   1      42.283  21.856  28.388  1.00  0.00     0.020 A 
ATOM     77  C   UNL A   1      41.969  22.770  26.158  1.00  0.00     0.020 A 
ATOM     78  C   UNL A   1      42.019  21.677  27.026  1.00  0.00     0.054 A 
BRANCH  78  79
ATOM     79  S   UNL A   1      41.689  20.007  26.401  1.00  0.00     0.124 S 
ATOM     80  O   UNL A   1      42.674  19.885  25.333  1.00  0.00    -0.237 OA
ATOM     81  O   UNL A   1      41.922  19.171  27.576  1.00  0.00    -0.237 OA
ATOM     82  O   UNL A   1      40.295  20.078  25.966  1.00  0.00    -0.744 OA
ENDBRANCH  78  79
ENDBRANCH  50  73
BRANCH  62  83
ATOM     83  C   UNL A   1      48.182  27.983  29.413  1.00  0.00    -0.014 A 
ATOM     84  C   UNL A   1      48.910  28.250  28.240  1.00  0.00     0.010 A 
ATOM     85  C   UNL A   1      48.847  27.448  30.530  1.00  0.00     0.010 A 
ATOM     86  C   UNL A   1      50.275  27.966  28.178  1.00  0.00     0.020 A 
ATOM     87  C   UNL A   1      50.216  27.181  30.478  1.00  0.00     0.020 A 
ATOM     88  C   UNL A   1      50.920  27.430  29.297  1.00  0.00     0.054 A 
BRANCH  88  89
ATOM     89  S   UNL A   1      52.704  27.111  29.211  1.00  0.00     0.124 S 
ATOM     90  O   UNL A   1      52.818  26.359  27.965  1.00  0.00    -0.237 OA
ATOM     91  O   UNL A   1      53.273  28.457  29.187  1.00  0.00    -0.237 OA
ATOM     92  O   UNL A   1      52.977  26.350  30.428  1.00  0.00    -0.744 OA
ENDBRANCH  88  89
ENDBRANCH  62  83
ENDBRANCH  36  37
ENDBRANCH  29  31
ENDBRANCH  28  29
ENDBRANCH  27  28
ENDBRANCH   1  27
TORSDOF 18
ENDMDL
