MODEL 1
REMARK VINA RESULT:     -10.0      0.000      0.000
REMARK SMILES CN(CCc1cccs1)C(=O)c1cccn1CC(=O)OCCOC(=O)c1ccc(-c2c3nc(c(-c4ccc(S(=O)(=O)[O-])cc4)c4ccc([nH]4)c(-c4ccc(S(=O)(=O)[O-])cc4)c4nc(c(-c5ccc(S(=O)(=O)[O-])cc5)c5ccc2[nH]5)C=C4)C=C3)cc1
REMARK SMILES IDX 20 1 18 2 19 3 17 4 16 5 12 6 13 7 14 8 15 9 10 10 11 11
REMARK SMILES IDX 2 12 1 13 3 14 4 15 5 16 6 17 9 18 7 19 8 20 21 21 22 22
REMARK SMILES IDX 23 23 24 24 25 25 26 26 27 27 85 28 28 29 84 30 29 31 30 32
REMARK SMILES IDX 31 33 78 34 32 35 83 36 77 37 79 38 33 39 82 40 76 41 75 42
REMARK SMILES IDX 34 44 64 45 45 46 63 47 46 48 49 49 62 50 80 51 47 52 48 53
REMARK SMILES IDX 61 55 81 56 50 57 35 58 36 59 44 60 37 61 43 62 38 63 39 64
REMARK SMILES IDX 40 65 41 66 42 67 65 68 66 69 74 70 67 71 73 72 68 73 69 74
REMARK SMILES IDX 70 75 71 76 72 77 51 78 52 79 60 80 53 81 59 82 54 83 55 84
REMARK SMILES IDX 56 85 57 86 58 87
REMARK H PARENT 79 43 49 54
REMARK Flexibility Score: inf
ROOT
ATOM      1  O   UNL A   1      34.878  23.617  25.938  1.00  0.00    -0.461 OA
ENDROOT
BRANCH   1   2
ATOM      2  C   UNL A   1      33.659  24.198  26.120  1.00  0.00     0.326 C 
ATOM      3  O   UNL A   1      32.637  23.569  26.390  1.00  0.00    -0.250 OA
BRANCH   2   4
ATOM      4  C   UNL A   1      33.631  25.688  25.849  1.00  0.00     0.244 C 
BRANCH   4   5
ATOM      5  N   UNL A   1      32.479  26.135  25.082  1.00  0.00    -0.332 N 
ATOM      6  C   UNL A   1      32.245  26.000  23.713  1.00  0.00     0.107 A 
ATOM      7  C   UNL A   1      31.432  27.095  23.444  1.00  0.00     0.033 A 
ATOM      8  C   UNL A   1      30.844  27.533  24.657  1.00  0.00     0.020 A 
ATOM      9  C   UNL A   1      31.420  26.794  25.655  1.00  0.00     0.087 A 
BRANCH   6  10
ATOM     10  C   UNL A   1      32.790  24.904  22.915  1.00  0.00     0.270 C 
ATOM     11  O   UNL A   1      33.849  25.076  22.300  1.00  0.00    -0.267 OA
BRANCH  10  12
ATOM     12  N   UNL A   1      32.233  23.613  22.890  1.00  0.00    -0.340 N 
ATOM     13  C   UNL A   1      30.823  23.520  23.254  1.00  0.00     0.147 C 
BRANCH  12  14
ATOM     14  C   UNL A   1      32.866  22.354  22.481  1.00  0.00     0.125 C 
BRANCH  14  15
ATOM     15  C   UNL A   1      31.904  21.166  22.292  1.00  0.00     0.068 C 
BRANCH  15  16
ATOM     16  C   UNL A   1      32.262  19.939  23.078  1.00  0.00     0.006 A 
ATOM     17  C   UNL A   1      32.346  18.631  22.644  1.00  0.00     0.015 A 
ATOM     18  S   UNL A   1      32.618  20.063  24.755  1.00  0.00    -0.149 S 
ATOM     19  C   UNL A   1      32.809  17.749  23.665  1.00  0.00     0.012 A 
ATOM     20  C   UNL A   1      33.026  18.406  24.855  1.00  0.00     0.065 A 
ENDBRANCH  15  16
ENDBRANCH  14  15
ENDBRANCH  12  14
ENDBRANCH  10  12
ENDBRANCH   6  10
ENDBRANCH   4   5
ENDBRANCH   2   4
ENDBRANCH   1   2
BRANCH   1  21
ATOM     21  C   UNL A   1      35.056  22.305  26.505  1.00  0.00     0.274 C 
BRANCH  21  22
ATOM     22  C   UNL A   1      35.908  21.355  25.657  1.00  0.00     0.275 C 
BRANCH  22  23
ATOM     23  O   UNL A   1      37.010  21.985  24.991  1.00  0.00    -0.458 OA
BRANCH  23  24
ATOM     24  C   UNL A   1      38.194  21.568  25.473  1.00  0.00     0.338 C 
ATOM     25  O   UNL A   1      38.673  20.435  25.349  1.00  0.00    -0.246 OA
BRANCH  24  26
ATOM     26  C   UNL A   1      38.861  22.563  26.300  1.00  0.00     0.060 A 
ATOM     27  C   UNL A   1      38.598  23.910  26.047  1.00  0.00     0.016 A 
ATOM     28  C   UNL A   1      39.966  22.172  27.059  1.00  0.00     0.016 A 
ATOM     29  C   UNL A   1      39.500  24.876  26.454  1.00  0.00     0.010 A 
ATOM     30  C   UNL A   1      40.868  23.143  27.484  1.00  0.00     0.010 A 
ATOM     31  C   UNL A   1      40.652  24.487  27.146  1.00  0.00    -0.014 A 
BRANCH  31  32
ATOM     32  C   UNL A   1      41.554  25.550  27.633  1.00  0.00     0.031 A 
ATOM     33  C   UNL A   1      40.848  26.521  28.580  1.00  0.00     0.074 A 
ATOM     34  C   UNL A   1      42.830  25.558  27.149  1.00  0.00     0.049 A 
ATOM     35  N   UNL A   1      41.169  27.731  28.920  1.00  0.00    -0.248 NA
ATOM     36  C   UNL A   1      39.548  26.109  29.179  1.00  0.00     0.031 C 
ATOM     37  C   UNL A   1      43.371  24.573  26.186  1.00  0.00     0.029 A 
ATOM     38  N   UNL A   1      43.919  26.380  27.348  1.00  0.00    -0.354 N 
ATOM     39  C   UNL A   1      40.218  28.161  29.867  1.00  0.00     0.074 A 
ATOM     40  C   UNL A   1      39.195  27.161  29.915  1.00  0.00     0.031 C 
ATOM     41  C   UNL A   1      44.645  24.878  25.854  1.00  0.00     0.029 A 
ATOM     42  C   UNL A   1      45.063  26.066  26.574  1.00  0.00     0.049 A 
ATOM     43  H   UNL A   1      43.903  27.132  27.983  1.00  0.00     0.167 HD
ATOM     44  C   UNL A   1      40.359  29.270  30.645  1.00  0.00     0.031 A 
ATOM     45  C   UNL A   1      46.254  26.730  26.491  1.00  0.00     0.031 A 
ATOM     46  C   UNL A   1      41.531  30.000  30.305  1.00  0.00     0.049 A 
ATOM     47  C   UNL A   1      46.197  27.821  27.483  1.00  0.00     0.074 A 
ATOM     48  C   UNL A   1      41.855  30.843  29.275  1.00  0.00     0.029 A 
ATOM     49  N   UNL A   1      42.682  29.668  30.977  1.00  0.00    -0.354 N 
ATOM     50  N   UNL A   1      46.252  27.671  28.770  1.00  0.00    -0.248 NA
ATOM     51  C   UNL A   1      46.029  29.200  27.004  1.00  0.00     0.031 C 
ATOM     52  C   UNL A   1      43.248  30.674  29.102  1.00  0.00     0.029 A 
ATOM     53  C   UNL A   1      43.716  29.787  30.077  1.00  0.00     0.049 A 
ATOM     54  H   UNL A   1      42.754  29.398  31.921  1.00  0.00     0.167 HD
ATOM     55  C   UNL A   1      45.764  28.866  29.241  1.00  0.00     0.074 A 
ATOM     56  C   UNL A   1      45.931  29.826  28.174  1.00  0.00     0.031 C 
ATOM     57  C   UNL A   1      44.830  28.876  30.224  1.00  0.00     0.031 A 
BRANCH  44  58
ATOM     58  C   UNL A   1      39.594  29.679  31.871  1.00  0.00    -0.014 A 
ATOM     59  C   UNL A   1      38.492  30.550  31.697  1.00  0.00     0.010 A 
ATOM     60  C   UNL A   1      40.070  29.488  33.178  1.00  0.00     0.010 A 
ATOM     61  C   UNL A   1      37.953  31.273  32.762  1.00  0.00     0.020 A 
ATOM     62  C   UNL A   1      39.512  30.185  34.260  1.00  0.00     0.020 A 
ATOM     63  C   UNL A   1      38.488  31.107  34.037  1.00  0.00     0.054 A 
BRANCH  63  64
ATOM     64  S   UNL A   1      37.876  32.170  35.372  1.00  0.00     0.124 S 
ATOM     65  O   UNL A   1      36.630  32.684  34.810  1.00  0.00    -0.237 OA
ATOM     66  O   UNL A   1      37.721  31.228  36.480  1.00  0.00    -0.237 OA
ATOM     67  O   UNL A   1      38.943  33.153  35.547  1.00  0.00    -0.744 OA
ENDBRANCH  63  64
ENDBRANCH  44  58
BRANCH  45  68
ATOM     68  C   UNL A   1      47.487  26.698  25.616  1.00  0.00    -0.014 A 
ATOM     69  C   UNL A   1      47.549  27.068  24.266  1.00  0.00     0.010 A 
ATOM     70  C   UNL A   1      48.737  26.401  26.231  1.00  0.00     0.010 A 
ATOM     71  C   UNL A   1      48.790  27.269  23.618  1.00  0.00     0.020 A 
ATOM     72  C   UNL A   1      49.969  26.644  25.619  1.00  0.00     0.020 A 
ATOM     73  C   UNL A   1      49.991  27.105  24.314  1.00  0.00     0.054 A 
BRANCH  73  74
ATOM     74  S   UNL A   1      51.573  27.626  23.594  1.00  0.00     0.124 S 
ATOM     75  O   UNL A   1      51.503  27.070  22.247  1.00  0.00    -0.237 OA
ATOM     76  O   UNL A   1      51.510  29.084  23.679  1.00  0.00    -0.237 OA
ATOM     77  O   UNL A   1      52.561  27.008  24.478  1.00  0.00    -0.744 OA
ENDBRANCH  73  74
ENDBRANCH  45  68
BRANCH  57  78
ATOM     78  C   UNL A   1      44.807  27.635  31.099  1.00  0.00    -0.014 A 
ATOM     79  C   UNL A   1      44.172  26.466  30.649  1.00  0.00     0.010 A 
ATOM     80  C   UNL A   1      45.348  27.626  32.401  1.00  0.00     0.010 A 
ATOM     81  C   UNL A   1      44.093  25.326  31.464  1.00  0.00     0.020 A 
ATOM     82  C   UNL A   1      45.279  26.491  33.221  1.00  0.00     0.020 A 
ATOM     83  C   UNL A   1      44.651  25.342  32.744  1.00  0.00     0.054 A 
BRANCH  83  84
ATOM     84  S   UNL A   1      44.530  23.852  33.776  1.00  0.00     0.124 S 
ATOM     85  O   UNL A   1      43.853  24.343  34.973  1.00  0.00    -0.237 OA
ATOM     86  O   UNL A   1      43.741  22.953  32.937  1.00  0.00    -0.237 OA
ATOM     87  O   UNL A   1      45.922  23.449  33.979  1.00  0.00    -0.744 OA
ENDBRANCH  83  84
ENDBRANCH  57  78
ENDBRANCH  31  32
ENDBRANCH  24  26
ENDBRANCH  23  24
ENDBRANCH  22  23
ENDBRANCH  21  22
ENDBRANCH   1  21
TORSDOF 20
ENDMDL
MODEL 2
REMARK VINA RESULT:      -9.9      4.080      9.210
REMARK SMILES CN(CCc1cccs1)C(=O)c1cccn1CC(=O)OCCOC(=O)c1ccc(-c2c3nc(c(-c4ccc(S(=O)(=O)[O-])cc4)c4ccc([nH]4)c(-c4ccc(S(=O)(=O)[O-])cc4)c4nc(c(-c5ccc(S(=O)(=O)[O-])cc5)c5ccc2[nH]5)C=C4)C=C3)cc1
REMARK SMILES IDX 20 1 18 2 19 3 17 4 16 5 12 6 13 7 14 8 15 9 10 10 11 11
REMARK SMILES IDX 2 12 1 13 3 14 4 15 5 16 6 17 9 18 7 19 8 20 21 21 22 22
REMARK SMILES IDX 23 23 24 24 25 25 26 26 27 27 85 28 28 29 84 30 29 31 30 32
REMARK SMILES IDX 31 33 78 34 32 35 83 36 77 37 79 38 33 39 82 40 76 41 75 42
REMARK SMILES IDX 34 44 64 45 45 46 63 47 46 48 49 49 62 50 80 51 47 52 48 53
REMARK SMILES IDX 61 55 81 56 50 57 35 58 36 59 44 60 37 61 43 62 38 63 39 64
REMARK SMILES IDX 40 65 41 66 42 67 65 68 66 69 74 70 67 71 73 72 68 73 69 74
REMARK SMILES IDX 70 75 71 76 72 77 51 78 52 79 60 80 53 81 59 82 54 83 55 84
REMARK SMILES IDX 56 85 57 86 58 87
REMARK H PARENT 79 43 49 54
REMARK Flexibility Score: inf
ROOT
ATOM      1  O   UNL A   1      36.999  21.841  25.995  1.00  0.00    -0.461 OA
ENDROOT
BRANCH   1   2
ATOM      2  C   UNL A   1      36.326  22.859  25.390  1.00  0.00     0.326 C 
ATOM      3  O   UNL A   1      36.791  23.537  24.476  1.00  0.00    -0.250 OA
BRANCH   2   4
ATOM      4  C   UNL A   1      34.982  23.175  26.013  1.00  0.00     0.244 C 
BRANCH   4   5
ATOM      5  N   UNL A   1      33.851  22.542  25.352  1.00  0.00    -0.332 N 
ATOM      6  C   UNL A   1      32.509  22.552  25.733  1.00  0.00     0.107 A 
ATOM      7  C   UNL A   1      32.044  21.353  25.206  1.00  0.00     0.033 A 
ATOM      8  C   UNL A   1      32.928  20.935  24.180  1.00  0.00     0.020 A 
ATOM      9  C   UNL A   1      33.984  21.805  24.202  1.00  0.00     0.087 A 
BRANCH   6  10
ATOM     10  C   UNL A   1      31.902  23.645  26.489  1.00  0.00     0.270 C 
ATOM     11  O   UNL A   1      31.511  23.435  27.643  1.00  0.00    -0.267 OA
BRANCH  10  12
ATOM     12  N   UNL A   1      31.834  24.969  26.018  1.00  0.00    -0.340 N 
ATOM     13  C   UNL A   1      30.621  25.323  25.288  1.00  0.00     0.147 C 
BRANCH  12  14
ATOM     14  C   UNL A   1      32.792  26.060  26.222  1.00  0.00     0.125 C 
BRANCH  14  15
ATOM     15  C   UNL A   1      32.328  27.443  25.728  1.00  0.00     0.068 C 
BRANCH  15  16
ATOM     16  C   UNL A   1      32.975  28.606  26.422  1.00  0.00     0.006 A 
ATOM     17  C   UNL A   1      34.289  28.750  26.820  1.00  0.00     0.015 A 
ATOM     18  S   UNL A   1      32.043  29.990  26.836  1.00  0.00    -0.149 S 
ATOM     19  C   UNL A   1      34.552  30.040  27.367  1.00  0.00     0.012 A 
ATOM     20  C   UNL A   1      33.421  30.826  27.404  1.00  0.00     0.065 A 
ENDBRANCH  15  16
ENDBRANCH  14  15
ENDBRANCH  12  14
ENDBRANCH  10  12
ENDBRANCH   6  10
ENDBRANCH   4   5
ENDBRANCH   2   4
ENDBRANCH   1   2
BRANCH   1  21
ATOM     21  C   UNL A   1      38.022  21.193  25.213  1.00  0.00     0.274 C 
BRANCH  21  22
ATOM     22  C   UNL A   1      39.423  21.241  25.834  1.00  0.00     0.275 C 
BRANCH  22  23
ATOM     23  O   UNL A   1      39.786  22.517  26.375  1.00  0.00    -0.458 OA
BRANCH  23  24
ATOM     24  C   UNL A   1      41.091  22.787  26.195  1.00  0.00     0.338 C 
ATOM     25  O   UNL A   1      41.901  22.089  25.575  1.00  0.00    -0.246 OA
BRANCH  24  26
ATOM     26  C   UNL A   1      41.540  23.967  26.920  1.00  0.00     0.060 A 
ATOM     27  C   UNL A   1      41.423  23.967  28.311  1.00  0.00     0.016 A 
ATOM     28  C   UNL A   1      41.740  25.154  26.212  1.00  0.00     0.016 A 
ATOM     29  C   UNL A   1      41.390  25.165  29.000  1.00  0.00     0.010 A 
ATOM     30  C   UNL A   1      41.725  26.361  26.904  1.00  0.00     0.010 A 
ATOM     31  C   UNL A   1      41.510  26.364  28.291  1.00  0.00    -0.014 A 
BRANCH  31  32
ATOM     32  C   UNL A   1      41.550  27.621  29.064  1.00  0.00     0.031 A 
ATOM     33  C   UNL A   1      42.782  27.708  29.967  1.00  0.00     0.074 A 
ATOM     34  C   UNL A   1      40.498  28.478  28.921  1.00  0.00     0.049 A 
ATOM     35  N   UNL A   1      42.992  28.439  31.018  1.00  0.00    -0.248 NA
ATOM     36  C   UNL A   1      43.920  26.785  29.704  1.00  0.00     0.031 C 
ATOM     37  C   UNL A   1      39.334  28.241  28.038  1.00  0.00     0.029 A 
ATOM     38  N   UNL A   1      40.180  29.699  29.479  1.00  0.00    -0.354 N 
ATOM     39  C   UNL A   1      44.312  28.184  31.443  1.00  0.00     0.074 A 
ATOM     40  C   UNL A   1      44.799  27.091  30.657  1.00  0.00     0.031 C 
ATOM     41  C   UNL A   1      38.433  29.241  28.156  1.00  0.00     0.029 A 
ATOM     42  C   UNL A   1      38.923  30.227  29.100  1.00  0.00     0.049 A 
ATOM     43  H   UNL A   1      40.785  30.169  30.097  1.00  0.00     0.167 HD
ATOM     44  C   UNL A   1      44.984  28.944  32.351  1.00  0.00     0.031 A 
ATOM     45  C   UNL A   1      38.300  31.362  29.536  1.00  0.00     0.031 A 
ATOM     46  C   UNL A   1      44.153  29.959  32.900  1.00  0.00     0.049 A 
ATOM     47  C   UNL A   1      39.255  32.051  30.426  1.00  0.00     0.074 A 
ATOM     48  C   UNL A   1      43.154  29.959  33.836  1.00  0.00     0.029 A 
ATOM     49  N   UNL A   1      44.142  31.167  32.247  1.00  0.00    -0.354 N 
ATOM     50  N   UNL A   1      40.333  32.663  30.044  1.00  0.00    -0.248 NA
ATOM     51  C   UNL A   1      39.011  32.026  31.874  1.00  0.00     0.031 C 
ATOM     52  C   UNL A   1      42.301  31.018  33.444  1.00  0.00     0.029 A 
ATOM     53  C   UNL A   1      42.856  31.651  32.329  1.00  0.00     0.049 A 
ATOM     54  H   UNL A   1      44.907  31.603  31.805  1.00  0.00     0.167 HD
ATOM     55  C   UNL A   1      41.058  32.767  31.206  1.00  0.00     0.074 A 
ATOM     56  C   UNL A   1      40.111  32.647  32.292  1.00  0.00     0.031 C 
ATOM     57  C   UNL A   1      42.374  32.438  31.215  1.00  0.00     0.031 A 
BRANCH  44  58
ATOM     58  C   UNL A   1      46.451  28.970  32.672  1.00  0.00    -0.014 A 
ATOM     59  C   UNL A   1      47.014  27.818  33.269  1.00  0.00     0.010 A 
ATOM     60  C   UNL A   1      47.217  30.148  32.684  1.00  0.00     0.010 A 
ATOM     61  C   UNL A   1      48.241  27.861  33.934  1.00  0.00     0.020 A 
ATOM     62  C   UNL A   1      48.467  30.191  33.320  1.00  0.00     0.020 A 
ATOM     63  C   UNL A   1      48.948  29.059  33.980  1.00  0.00     0.054 A 
BRANCH  63  64
ATOM     64  S   UNL A   1      50.460  29.128  34.979  1.00  0.00     0.124 S 
ATOM     65  O   UNL A   1      50.560  30.551  35.287  1.00  0.00    -0.237 OA
ATOM     66  O   UNL A   1      50.131  28.264  36.111  1.00  0.00    -0.237 OA
ATOM     67  O   UNL A   1      51.488  28.602  34.084  1.00  0.00    -0.744 OA
ENDBRANCH  63  64
ENDBRANCH  44  58
BRANCH  45  68
ATOM     68  C   UNL A   1      36.928  31.990  29.431  1.00  0.00    -0.014 A 
ATOM     69  C   UNL A   1      35.900  31.885  30.377  1.00  0.00     0.010 A 
ATOM     70  C   UNL A   1      36.682  32.885  28.351  1.00  0.00     0.010 A 
ATOM     71  C   UNL A   1      34.765  32.728  30.323  1.00  0.00     0.020 A 
ATOM     72  C   UNL A   1      35.592  33.758  28.312  1.00  0.00     0.020 A 
ATOM     73  C   UNL A   1      34.645  33.694  29.319  1.00  0.00     0.054 A 
BRANCH  73  74
ATOM     74  S   UNL A   1      33.351  34.965  29.389  1.00  0.00     0.124 S 
ATOM     75  O   UNL A   1      32.921  34.898  30.782  1.00  0.00    -0.237 OA
ATOM     76  O   UNL A   1      34.064  36.182  29.007  1.00  0.00    -0.237 OA
ATOM     77  O   UNL A   1      32.373  34.500  28.407  1.00  0.00    -0.744 OA
ENDBRANCH  73  74
ENDBRANCH  45  68
BRANCH  57  78
ATOM     78  C   UNL A   1      43.065  32.521  29.866  1.00  0.00    -0.014 A 
ATOM     79  C   UNL A   1      43.183  31.375  29.062  1.00  0.00     0.010 A 
ATOM     80  C   UNL A   1      43.666  33.709  29.404  1.00  0.00     0.010 A 
ATOM     81  C   UNL A   1      43.865  31.418  27.836  1.00  0.00     0.020 A 
ATOM     82  C   UNL A   1      44.345  33.765  28.178  1.00  0.00     0.020 A 
ATOM     83  C   UNL A   1      44.439  32.615  27.398  1.00  0.00     0.054 A 
BRANCH  83  84
ATOM     84  S   UNL A   1      45.317  32.638  25.808  1.00  0.00     0.124 S 
ATOM     85  O   UNL A   1      46.001  31.348  25.799  1.00  0.00    -0.237 OA
ATOM     86  O   UNL A   1      44.224  32.771  24.848  1.00  0.00    -0.237 OA
ATOM     87  O   UNL A   1      46.198  33.800  25.909  1.00  0.00    -0.744 OA
ENDBRANCH  83  84
ENDBRANCH  57  78
ENDBRANCH  31  32
ENDBRANCH  24  26
ENDBRANCH  23  24
ENDBRANCH  22  23
ENDBRANCH  21  22
ENDBRANCH   1  21
TORSDOF 20
ENDMDL
MODEL 3
REMARK VINA RESULT:      -9.9      2.022      3.720
REMARK SMILES CN(CCc1cccs1)C(=O)c1cccn1CC(=O)OCCOC(=O)c1ccc(-c2c3nc(c(-c4ccc(S(=O)(=O)[O-])cc4)c4ccc([nH]4)c(-c4ccc(S(=O)(=O)[O-])cc4)c4nc(c(-c5ccc(S(=O)(=O)[O-])cc5)c5ccc2[nH]5)C=C4)C=C3)cc1
REMARK SMILES IDX 20 1 18 2 19 3 17 4 16 5 12 6 13 7 14 8 15 9 10 10 11 11
REMARK SMILES IDX 2 12 1 13 3 14 4 15 5 16 6 17 9 18 7 19 8 20 21 21 22 22
REMARK SMILES IDX 23 23 24 24 25 25 26 26 27 27 85 28 28 29 84 30 29 31 30 32
REMARK SMILES IDX 31 33 78 34 32 35 83 36 77 37 79 38 33 39 82 40 76 41 75 42
REMARK SMILES IDX 34 44 64 45 45 46 63 47 46 48 49 49 62 50 80 51 47 52 48 53
REMARK SMILES IDX 61 55 81 56 50 57 35 58 36 59 44 60 37 61 43 62 38 63 39 64
REMARK SMILES IDX 40 65 41 66 42 67 65 68 66 69 74 70 67 71 73 72 68 73 69 74
REMARK SMILES IDX 70 75 71 76 72 77 51 78 52 79 60 80 53 81 59 82 54 83 55 84
REMARK SMILES IDX 56 85 57 86 58 87
REMARK H PARENT 79 43 49 54
REMARK Flexibility Score: inf
ROOT
ATOM      1  O   UNL A   1      35.065  23.516  25.708  1.00  0.00    -0.461 OA
ENDROOT
BRANCH   1   2
ATOM      2  C   UNL A   1      33.846  24.087  25.502  1.00  0.00     0.326 C 
ATOM      3  O   UNL A   1      32.786  23.466  25.541  1.00  0.00    -0.250 OA
BRANCH   2   4
ATOM      4  C   UNL A   1      33.900  25.547  25.101  1.00  0.00     0.244 C 
BRANCH   4   5
ATOM      5  N   UNL A   1      32.845  25.957  24.188  1.00  0.00    -0.332 N 
ATOM      6  C   UNL A   1      31.580  26.458  24.497  1.00  0.00     0.107 A 
ATOM      7  C   UNL A   1      30.830  26.061  23.397  1.00  0.00     0.033 A 
ATOM      8  C   UNL A   1      31.710  25.790  22.320  1.00  0.00     0.020 A 
ATOM      9  C   UNL A   1      32.978  25.887  22.824  1.00  0.00     0.087 A 
BRANCH   6  10
ATOM     10  C   UNL A   1      31.295  27.209  25.718  1.00  0.00     0.270 C 
ATOM     11  O   UNL A   1      30.757  26.631  26.669  1.00  0.00    -0.267 OA
BRANCH  10  12
ATOM     12  N   UNL A   1      31.700  28.541  25.921  1.00  0.00    -0.340 N 
ATOM     13  C   UNL A   1      31.643  29.410  24.750  1.00  0.00     0.147 C 
BRANCH  12  14
ATOM     14  C   UNL A   1      32.109  29.190  27.171  1.00  0.00     0.125 C 
BRANCH  14  15
ATOM     15  C   UNL A   1      32.856  30.526  27.004  1.00  0.00     0.068 C 
BRANCH  15  16
ATOM     16  C   UNL A   1      34.274  30.517  27.496  1.00  0.00     0.006 A 
ATOM     17  C   UNL A   1      35.158  29.458  27.558  1.00  0.00     0.015 A 
ATOM     18  S   UNL A   1      34.987  31.959  28.100  1.00  0.00    -0.149 S 
ATOM     19  C   UNL A   1      36.454  29.858  27.999  1.00  0.00     0.012 A 
ATOM     20  C   UNL A   1      36.506  31.201  28.297  1.00  0.00     0.065 A 
ENDBRANCH  15  16
ENDBRANCH  14  15
ENDBRANCH  12  14
ENDBRANCH  10  12
ENDBRANCH   6  10
ENDBRANCH   4   5
ENDBRANCH   2   4
ENDBRANCH   1   2
BRANCH   1  21
ATOM     21  C   UNL A   1      35.070  22.219  26.336  1.00  0.00     0.274 C 
BRANCH  21  22
ATOM     22  C   UNL A   1      36.010  21.199  25.684  1.00  0.00     0.275 C 
BRANCH  22  23
ATOM     23  O   UNL A   1      37.116  21.780  24.981  1.00  0.00    -0.458 OA
BRANCH  23  24
ATOM     24  C   UNL A   1      38.297  21.356  25.463  1.00  0.00     0.338 C 
ATOM     25  O   UNL A   1      38.778  20.226  25.323  1.00  0.00    -0.246 OA
BRANCH  24  26
ATOM     26  C   UNL A   1      38.958  22.337  26.312  1.00  0.00     0.060 A 
ATOM     27  C   UNL A   1      38.702  23.688  26.075  1.00  0.00     0.016 A 
ATOM     28  C   UNL A   1      40.054  21.933  27.077  1.00  0.00     0.016 A 
ATOM     29  C   UNL A   1      39.602  24.646  26.504  1.00  0.00     0.010 A 
ATOM     30  C   UNL A   1      40.953  22.894  27.525  1.00  0.00     0.010 A 
ATOM     31  C   UNL A   1      40.745  24.244  27.204  1.00  0.00    -0.014 A 
BRANCH  31  32
ATOM     32  C   UNL A   1      41.645  25.297  27.716  1.00  0.00     0.031 A 
ATOM     33  C   UNL A   1      40.902  26.339  28.553  1.00  0.00     0.074 A 
ATOM     34  C   UNL A   1      42.956  25.235  27.342  1.00  0.00     0.049 A 
ATOM     35  N   UNL A   1      41.241  27.553  28.861  1.00  0.00    -0.248 NA
ATOM     36  C   UNL A   1      39.541  26.004  29.057  1.00  0.00     0.031 C 
ATOM     37  C   UNL A   1      43.536  24.184  26.476  1.00  0.00     0.029 A 
ATOM     38  N   UNL A   1      44.057  26.027  27.594  1.00  0.00    -0.354 N 
ATOM     39  C   UNL A   1      40.232  28.063  29.703  1.00  0.00     0.074 A 
ATOM     40  C   UNL A   1      39.170  27.104  29.710  1.00  0.00     0.031 C 
ATOM     41  C   UNL A   1      44.844  24.427  26.240  1.00  0.00     0.029 A 
ATOM     42  C   UNL A   1      45.247  25.634  26.936  1.00  0.00     0.049 A 
ATOM     43  H   UNL A   1      44.018  26.810  28.190  1.00  0.00     0.167 HD
ATOM     44  C   UNL A   1      40.352  29.203  30.437  1.00  0.00     0.031 A 
ATOM     45  C   UNL A   1      46.466  26.250  26.924  1.00  0.00     0.031 A 
ATOM     46  C   UNL A   1      41.577  29.874  30.164  1.00  0.00     0.049 A 
ATOM     47  C   UNL A   1      46.371  27.391  27.855  1.00  0.00     0.074 A 
ATOM     48  C   UNL A   1      42.018  30.652  29.127  1.00  0.00     0.029 A 
ATOM     49  N   UNL A   1      42.653  29.535  30.946  1.00  0.00    -0.354 N 
ATOM     50  N   UNL A   1      46.312  27.304  29.147  1.00  0.00    -0.248 NA
ATOM     51  C   UNL A   1      46.298  28.749  27.300  1.00  0.00     0.031 C 
ATOM     52  C   UNL A   1      43.413  30.424  29.081  1.00  0.00     0.029 A 
ATOM     53  C   UNL A   1      43.763  29.572  30.133  1.00  0.00     0.049 A 
ATOM     54  H   UNL A   1      42.635  29.310  31.905  1.00  0.00     0.167 HD
ATOM     55  C   UNL A   1      45.834  28.537  29.519  1.00  0.00     0.074 A 
ATOM     56  C   UNL A   1      46.128  29.437  28.426  1.00  0.00     0.031 C 
ATOM     57  C   UNL A   1      44.823  28.630  30.417  1.00  0.00     0.031 A 
BRANCH  44  58
ATOM     58  C   UNL A   1      39.504  29.701  31.573  1.00  0.00    -0.014 A 
ATOM     59  C   UNL A   1      38.684  30.830  31.335  1.00  0.00     0.010 A 
ATOM     60  C   UNL A   1      39.689  29.302  32.906  1.00  0.00     0.010 A 
ATOM     61  C   UNL A   1      38.154  31.585  32.382  1.00  0.00     0.020 A 
ATOM     62  C   UNL A   1      39.131  30.036  33.965  1.00  0.00     0.020 A 
ATOM     63  C   UNL A   1      38.407  31.198  33.696  1.00  0.00     0.054 A 
BRANCH  63  64
ATOM     64  S   UNL A   1      37.840  32.280  35.036  1.00  0.00     0.124 S 
ATOM     65  O   UNL A   1      38.879  33.304  35.065  1.00  0.00    -0.237 OA
ATOM     66  O   UNL A   1      36.535  32.726  34.551  1.00  0.00    -0.237 OA
ATOM     67  O   UNL A   1      37.792  31.394  36.197  1.00  0.00    -0.744 OA
ENDBRANCH  63  64
ENDBRANCH  44  58
BRANCH  45  68
ATOM     68  C   UNL A   1      47.766  26.131  26.159  1.00  0.00    -0.014 A 
ATOM     69  C   UNL A   1      47.968  26.479  24.817  1.00  0.00     0.010 A 
ATOM     70  C   UNL A   1      48.937  25.764  26.883  1.00  0.00     0.010 A 
ATOM     71  C   UNL A   1      49.270  26.594  24.278  1.00  0.00     0.020 A 
ATOM     72  C   UNL A   1      50.231  25.922  26.379  1.00  0.00     0.020 A 
ATOM     73  C   UNL A   1      50.394  26.365  25.077  1.00  0.00     0.054 A 
BRANCH  73  74
ATOM     74  S   UNL A   1      52.062  26.777  24.493  1.00  0.00     0.124 S 
ATOM     75  O   UNL A   1      51.828  27.122  23.095  1.00  0.00    -0.237 OA
ATOM     76  O   UNL A   1      52.450  27.887  25.362  1.00  0.00    -0.237 OA
ATOM     77  O   UNL A   1      52.809  25.540  24.718  1.00  0.00    -0.744 OA
ENDBRANCH  73  74
ENDBRANCH  45  68
BRANCH  57  78
ATOM     78  C   UNL A   1      44.678  27.436  31.344  1.00  0.00    -0.014 A 
ATOM     79  C   UNL A   1      44.034  26.270  30.898  1.00  0.00     0.010 A 
ATOM     80  C   UNL A   1      45.110  27.472  32.686  1.00  0.00     0.010 A 
ATOM     81  C   UNL A   1      43.842  25.176  31.756  1.00  0.00     0.020 A 
ATOM     82  C   UNL A   1      44.929  26.383  33.549  1.00  0.00     0.020 A 
ATOM     83  C   UNL A   1      44.295  25.236  33.077  1.00  0.00     0.054 A 
BRANCH  83  84
ATOM     84  S   UNL A   1      44.029  23.805  34.163  1.00  0.00     0.124 S 
ATOM     85  O   UNL A   1      42.952  24.260  35.037  1.00  0.00    -0.237 OA
ATOM     86  O   UNL A   1      43.663  22.755  33.215  1.00  0.00    -0.237 OA
ATOM     87  O   UNL A   1      45.321  23.619  34.824  1.00  0.00    -0.744 OA
ENDBRANCH  83  84
ENDBRANCH  57  78
ENDBRANCH  31  32
ENDBRANCH  24  26
ENDBRANCH  23  24
ENDBRANCH  22  23
ENDBRANCH  21  22
ENDBRANCH   1  21
TORSDOF 20
ENDMDL
