MODEL 1
REMARK VINA RESULT:     -11.5      0.000      0.000
REMARK SMILES Cc1nccn1CCC[NH+]1CCC2(CC1)[C@@H](C(=O)OCCOC(=O)c1ccc(-c3c4nc(c(-c5ccc(S(=O)(=O)[O-])cc5)c5ccc([nH]5)c(-c5ccc(S(=O)(=O)[O-])cc5)c5nc(c(-c6ccc(S(=O)(=O)[O-])cc6)c6ccc3[nH]6)C=C5)C=C4)cc1)CC(=O)N2C
REMARK SMILES IDX 20 1 19 2 17 3 18 4 16 5 10 6 11 7 15 8 12 10 14 11 13 12
REMARK SMILES IDX 88 13 85 14 86 15 89 16 87 17 9 18 8 19 7 20 6 21 1 22 2 23
REMARK SMILES IDX 3 24 4 25 5 26 21 27 22 28 23 29 24 30 25 31 26 32 84 33
REMARK SMILES IDX 27 34 83 35 28 36 29 37 30 38 77 39 31 40 82 41 76 42 78 43
REMARK SMILES IDX 32 44 81 45 75 46 74 47 33 49 63 50 44 51 62 52 45 53 48 54
REMARK SMILES IDX 61 55 79 56 46 57 47 58 60 60 80 61 49 62 34 63 35 64 43 65
REMARK SMILES IDX 36 66 42 67 37 68 38 69 39 70 40 71 41 72 64 73 65 74 73 75
REMARK SMILES IDX 66 76 72 77 67 78 68 79 69 80 70 81 71 82 50 83 51 84 59 85
REMARK SMILES IDX 52 86 58 87 53 88 54 89 55 90 56 91 57 92
REMARK H PARENT 10 9 78 48 48 59
REMARK Flexibility Score: inf
ROOT
ATOM      1  C   UNL A   1      31.791  30.141  26.533  1.00  0.00     0.274 C 
ENDROOT
BRANCH   1   2
ATOM      2  O   UNL A   1      31.574  28.978  25.711  1.00  0.00    -0.462 OA
BRANCH   2   3
ATOM      3  C   UNL A   1      31.267  27.809  26.355  1.00  0.00     0.311 C 
ATOM      4  O   UNL A   1      31.259  27.680  27.569  1.00  0.00    -0.252 OA
BRANCH   3   5
ATOM      5  C   UNL A   1      30.917  26.737  25.326  1.00  0.00     0.134 C 
ATOM      6  N   UNL A   1      34.154  23.793  24.577  1.00  0.00    -0.335 N 
ATOM      7  C   UNL A   1      32.868  23.648  23.879  1.00  0.00     0.264 C 
ATOM      8  C   UNL A   1      34.546  25.206  24.636  1.00  0.00     0.264 C 
ATOM      9  H   UNL A   1      34.869  23.310  24.033  1.00  0.00     0.348 HD
ATOM     10  C   UNL A   1      31.738  24.514  24.446  1.00  0.00     0.091 C 
ATOM     11  C   UNL A   1      33.471  26.178  25.150  1.00  0.00     0.091 C 
ATOM     12  C   UNL A   1      32.069  26.035  24.517  1.00  0.00     0.067 C 
ATOM     13  N   UNL A   1      31.912  26.662  23.187  1.00  0.00    -0.339 N 
ATOM     14  C   UNL A   1      29.958  27.341  24.301  1.00  0.00     0.118 C 
ATOM     15  C   UNL A   1      30.717  27.340  23.017  1.00  0.00     0.223 C 
ATOM     16  C   UNL A   1      32.867  26.634  22.100  1.00  0.00     0.147 C 
ATOM     17  O   UNL A   1      30.324  27.867  21.987  1.00  0.00    -0.275 OA
BRANCH   6  18
ATOM     18  C   UNL A   1      34.170  23.115  25.884  1.00  0.00     0.264 C 
BRANCH  18  19
ATOM     19  C   UNL A   1      35.580  22.756  26.390  1.00  0.00     0.083 C 
BRANCH  19  20
ATOM     20  C   UNL A   1      36.785  23.514  25.819  1.00  0.00     0.129 C 
BRANCH  20  21
ATOM     21  N   UNL A   1      38.109  22.960  26.048  1.00  0.00    -0.335 N 
ATOM     22  C   UNL A   1      39.115  24.825  27.496  1.00  0.00     0.087 C 
ATOM     23  C   UNL A   1      39.112  23.486  26.847  1.00  0.00     0.105 A 
ATOM     24  N   UNL A   1      40.101  22.621  26.981  1.00  0.00    -0.242 NA
ATOM     25  C   UNL A   1      39.755  21.528  26.248  1.00  0.00     0.131 A 
ATOM     26  C   UNL A   1      38.541  21.724  25.644  1.00  0.00     0.107 A 
ENDBRANCH  20  21
ENDBRANCH  19  20
ENDBRANCH  18  19
ENDBRANCH   6  18
ENDBRANCH   3   5
ENDBRANCH   2   3
ENDBRANCH   1   2
BRANCH   1  27
ATOM     27  C   UNL A   1      33.227  30.645  26.409  1.00  0.00     0.275 C 
BRANCH  27  28
ATOM     28  O   UNL A   1      34.031  30.286  27.536  1.00  0.00    -0.458 OA
BRANCH  28  29
ATOM     29  C   UNL A   1      34.938  31.227  27.879  1.00  0.00     0.338 C 
ATOM     30  O   UNL A   1      34.879  32.421  27.642  1.00  0.00    -0.246 OA
BRANCH  29  31
ATOM     31  C   UNL A   1      36.141  30.617  28.445  1.00  0.00     0.060 A 
ATOM     32  C   UNL A   1      36.999  31.473  29.146  1.00  0.00     0.016 A 
ATOM     33  C   UNL A   1      36.523  29.317  28.093  1.00  0.00     0.016 A 
ATOM     34  C   UNL A   1      38.290  31.070  29.399  1.00  0.00     0.010 A 
ATOM     35  C   UNL A   1      37.822  28.919  28.332  1.00  0.00     0.010 A 
ATOM     36  C   UNL A   1      38.702  29.821  28.932  1.00  0.00    -0.014 A 
BRANCH  36  37
ATOM     37  C   UNL A   1      40.093  29.469  29.140  1.00  0.00     0.031 A 
ATOM     38  C   UNL A   1      40.481  29.292  30.567  1.00  0.00     0.074 A 
ATOM     39  C   UNL A   1      40.896  29.206  28.091  1.00  0.00     0.049 A 
ATOM     40  N   UNL A   1      41.455  29.837  31.221  1.00  0.00    -0.248 NA
ATOM     41  C   UNL A   1      39.593  28.462  31.401  1.00  0.00     0.031 C 
ATOM     42  C   UNL A   1      40.520  29.056  26.680  1.00  0.00     0.029 A 
ATOM     43  N   UNL A   1      42.210  28.866  28.091  1.00  0.00    -0.354 N 
ATOM     44  C   UNL A   1      41.418  29.276  32.497  1.00  0.00     0.074 A 
ATOM     45  C   UNL A   1      40.191  28.534  32.586  1.00  0.00     0.031 C 
ATOM     46  C   UNL A   1      41.505  28.397  26.031  1.00  0.00     0.029 A 
ATOM     47  C   UNL A   1      42.614  28.190  26.947  1.00  0.00     0.049 A 
ATOM     48  H   UNL A   1      42.819  29.077  28.834  1.00  0.00     0.167 HD
ATOM     49  C   UNL A   1      42.482  29.290  33.346  1.00  0.00     0.031 A 
ATOM     50  C   UNL A   1      43.720  27.408  26.824  1.00  0.00     0.031 A 
ATOM     51  C   UNL A   1      43.434  30.310  33.013  1.00  0.00     0.049 A 
ATOM     52  C   UNL A   1      44.627  27.754  27.952  1.00  0.00     0.074 A 
ATOM     53  C   UNL A   1      43.368  31.687  32.936  1.00  0.00     0.029 A 
ATOM     54  N   UNL A   1      44.552  29.949  32.302  1.00  0.00    -0.354 N 
ATOM     55  N   UNL A   1      45.192  28.923  28.090  1.00  0.00    -0.248 NA
ATOM     56  C   UNL A   1      44.507  26.972  29.174  1.00  0.00     0.031 C 
ATOM     57  C   UNL A   1      44.108  32.016  31.764  1.00  0.00     0.029 A 
ATOM     58  C   UNL A   1      44.645  30.833  31.254  1.00  0.00     0.049 A 
ATOM     59  H   UNL A   1      45.165  29.205  32.503  1.00  0.00     0.167 HD
ATOM     60  C   UNL A   1      45.130  29.196  29.450  1.00  0.00     0.074 A 
ATOM     61  C   UNL A   1      44.753  27.929  30.075  1.00  0.00     0.031 C 
ATOM     62  C   UNL A   1      45.113  30.475  29.932  1.00  0.00     0.031 A 
BRANCH  49  63
ATOM     63  C   UNL A   1      42.797  28.137  34.265  1.00  0.00    -0.014 A 
ATOM     64  C   UNL A   1      42.923  28.361  35.648  1.00  0.00     0.010 A 
ATOM     65  C   UNL A   1      43.237  26.889  33.773  1.00  0.00     0.010 A 
ATOM     66  C   UNL A   1      43.507  27.399  36.487  1.00  0.00     0.020 A 
ATOM     67  C   UNL A   1      43.780  25.909  34.604  1.00  0.00     0.020 A 
ATOM     68  C   UNL A   1      43.943  26.184  35.953  1.00  0.00     0.054 A 
BRANCH  68  69
ATOM     69  S   UNL A   1      44.794  24.996  37.019  1.00  0.00     0.124 S 
ATOM     70  O   UNL A   1      44.380  23.722  36.441  1.00  0.00    -0.237 OA
ATOM     71  O   UNL A   1      46.196  25.355  36.823  1.00  0.00    -0.237 OA
ATOM     72  O   UNL A   1      44.263  25.284  38.349  1.00  0.00    -0.744 OA
ENDBRANCH  68  69
ENDBRANCH  49  63
BRANCH  50  73
ATOM     73  C   UNL A   1      43.812  26.131  26.065  1.00  0.00    -0.014 A 
ATOM     74  C   UNL A   1      44.966  25.786  25.335  1.00  0.00     0.010 A 
ATOM     75  C   UNL A   1      42.847  25.120  26.264  1.00  0.00     0.010 A 
ATOM     76  C   UNL A   1      45.158  24.474  24.859  1.00  0.00     0.020 A 
ATOM     77  C   UNL A   1      43.025  23.818  25.785  1.00  0.00     0.020 A 
ATOM     78  C   UNL A   1      44.190  23.495  25.099  1.00  0.00     0.054 A 
BRANCH  78  79
ATOM     79  S   UNL A   1      44.506  21.771  24.616  1.00  0.00     0.124 S 
ATOM     80  O   UNL A   1      44.508  21.851  23.159  1.00  0.00    -0.237 OA
ATOM     81  O   UNL A   1      45.798  21.498  25.237  1.00  0.00    -0.237 OA
ATOM     82  O   UNL A   1      43.378  21.039  25.193  1.00  0.00    -0.744 OA
ENDBRANCH  78  79
ENDBRANCH  50  73
BRANCH  62  83
ATOM     83  C   UNL A   1      45.358  31.628  28.983  1.00  0.00    -0.014 A 
ATOM     84  C   UNL A   1      46.621  32.226  28.789  1.00  0.00     0.010 A 
ATOM     85  C   UNL A   1      44.313  31.984  28.114  1.00  0.00     0.010 A 
ATOM     86  C   UNL A   1      46.818  33.168  27.765  1.00  0.00     0.020 A 
ATOM     87  C   UNL A   1      44.507  32.905  27.082  1.00  0.00     0.020 A 
ATOM     88  C   UNL A   1      45.758  33.500  26.917  1.00  0.00     0.054 A 
BRANCH  88  89
ATOM     89  S   UNL A   1      46.026  34.678  25.561  1.00  0.00     0.124 S 
ATOM     90  O   UNL A   1      45.698  35.957  26.185  1.00  0.00    -0.237 OA
ATOM     91  O   UNL A   1      47.437  34.480  25.233  1.00  0.00    -0.237 OA
ATOM     92  O   UNL A   1      45.092  34.236  24.527  1.00  0.00    -0.744 OA
ENDBRANCH  88  89
ENDBRANCH  62  83
ENDBRANCH  36  37
ENDBRANCH  29  31
ENDBRANCH  28  29
ENDBRANCH  27  28
ENDBRANCH   1  27
TORSDOF 18
ENDMDL
MODEL 2
REMARK VINA RESULT:     -11.5      1.868      2.647
REMARK SMILES Cc1nccn1CCC[NH+]1CCC2(CC1)[C@@H](C(=O)OCCOC(=O)c1ccc(-c3c4nc(c(-c5ccc(S(=O)(=O)[O-])cc5)c5ccc([nH]5)c(-c5ccc(S(=O)(=O)[O-])cc5)c5nc(c(-c6ccc(S(=O)(=O)[O-])cc6)c6ccc3[nH]6)C=C5)C=C4)cc1)CC(=O)N2C
REMARK SMILES IDX 20 1 19 2 17 3 18 4 16 5 10 6 11 7 15 8 12 10 14 11 13 12
REMARK SMILES IDX 88 13 85 14 86 15 89 16 87 17 9 18 8 19 7 20 6 21 1 22 2 23
REMARK SMILES IDX 3 24 4 25 5 26 21 27 22 28 23 29 24 30 25 31 26 32 84 33
REMARK SMILES IDX 27 34 83 35 28 36 29 37 30 38 77 39 31 40 82 41 76 42 78 43
REMARK SMILES IDX 32 44 81 45 75 46 74 47 33 49 63 50 44 51 62 52 45 53 48 54
REMARK SMILES IDX 61 55 79 56 46 57 47 58 60 60 80 61 49 62 34 63 35 64 43 65
REMARK SMILES IDX 36 66 42 67 37 68 38 69 39 70 40 71 41 72 64 73 65 74 73 75
REMARK SMILES IDX 66 76 72 77 67 78 68 79 69 80 70 81 71 82 50 83 51 84 59 85
REMARK SMILES IDX 52 86 58 87 53 88 54 89 55 90 56 91 57 92
REMARK H PARENT 10 9 78 48 48 59
REMARK Flexibility Score: inf
ROOT
ATOM      1  C   UNL A   1      32.789  28.902  25.625  1.00  0.00     0.274 C 
ENDROOT
BRANCH   1   2
ATOM      2  O   UNL A   1      31.431  28.424  25.677  1.00  0.00    -0.462 OA
BRANCH   2   3
ATOM      3  C   UNL A   1      31.237  27.147  26.132  1.00  0.00     0.311 C 
ATOM      4  O   UNL A   1      31.439  26.794  27.283  1.00  0.00    -0.252 OA
BRANCH   3   5
ATOM      5  C   UNL A   1      30.711  26.276  24.994  1.00  0.00     0.134 C 
ATOM      6  N   UNL A   1      33.362  22.883  23.913  1.00  0.00    -0.335 N 
ATOM      7  C   UNL A   1      32.082  23.054  23.210  1.00  0.00     0.264 C 
ATOM      8  C   UNL A   1      34.006  24.184  24.123  1.00  0.00     0.264 C 
ATOM      9  H   UNL A   1      33.984  22.337  23.316  1.00  0.00     0.348 HD
ATOM     10  C   UNL A   1      31.122  24.048  23.872  1.00  0.00     0.091 C 
ATOM     11  C   UNL A   1      33.121  25.277  24.745  1.00  0.00     0.091 C 
ATOM     12  C   UNL A   1      31.726  25.464  24.108  1.00  0.00     0.067 C 
ATOM     13  N   UNL A   1      31.708  26.249  22.855  1.00  0.00    -0.339 N 
ATOM     14  C   UNL A   1      29.895  27.154  24.046  1.00  0.00     0.118 C 
ATOM     15  C   UNL A   1      30.661  27.151  22.765  1.00  0.00     0.223 C 
ATOM     16  C   UNL A   1      32.658  26.163  21.766  1.00  0.00     0.147 C 
ATOM     17  O   UNL A   1      30.387  27.850  21.801  1.00  0.00    -0.275 OA
BRANCH   6  18
ATOM     18  C   UNL A   1      33.232  22.076  25.138  1.00  0.00     0.264 C 
BRANCH  18  19
ATOM     19  C   UNL A   1      33.641  20.601  24.967  1.00  0.00     0.083 C 
BRANCH  19  20
ATOM     20  C   UNL A   1      32.541  19.542  24.825  1.00  0.00     0.129 C 
BRANCH  20  21
ATOM     21  N   UNL A   1      32.922  18.225  24.340  1.00  0.00    -0.335 N 
ATOM     22  C   UNL A   1      32.340  18.494  21.855  1.00  0.00     0.087 C 
ATOM     23  C   UNL A   1      32.914  17.780  23.027  1.00  0.00     0.105 A 
ATOM     24  N   UNL A   1      33.510  16.606  22.932  1.00  0.00    -0.242 NA
ATOM     25  C   UNL A   1      33.893  16.267  24.193  1.00  0.00     0.131 A 
ATOM     26  C   UNL A   1      33.519  17.240  25.082  1.00  0.00     0.107 A 
ENDBRANCH  20  21
ENDBRANCH  19  20
ENDBRANCH  18  19
ENDBRANCH   6  18
ENDBRANCH   3   5
ENDBRANCH   2   3
ENDBRANCH   1   2
BRANCH   1  27
ATOM     27  C   UNL A   1      33.021  30.022  26.637  1.00  0.00     0.275 C 
BRANCH  27  28
ATOM     28  O   UNL A   1      34.374  30.487  26.635  1.00  0.00    -0.458 OA
BRANCH  28  29
ATOM     29  C   UNL A   1      34.685  31.257  27.701  1.00  0.00     0.338 C 
ATOM     30  O   UNL A   1      34.163  32.313  28.018  1.00  0.00    -0.246 OA
BRANCH  29  31
ATOM     31  C   UNL A   1      35.883  30.761  28.377  1.00  0.00     0.060 A 
ATOM     32  C   UNL A   1      36.832  31.723  28.743  1.00  0.00     0.016 A 
ATOM     33  C   UNL A   1      36.166  29.391  28.426  1.00  0.00     0.016 A 
ATOM     34  C   UNL A   1      38.111  31.321  29.053  1.00  0.00     0.010 A 
ATOM     35  C   UNL A   1      37.452  28.989  28.723  1.00  0.00     0.010 A 
ATOM     36  C   UNL A   1      38.419  29.963  28.978  1.00  0.00    -0.014 A 
BRANCH  36  37
ATOM     37  C   UNL A   1      39.798  29.587  29.225  1.00  0.00     0.031 A 
ATOM     38  C   UNL A   1      40.193  29.593  30.662  1.00  0.00     0.074 A 
ATOM     39  C   UNL A   1      40.580  29.151  28.219  1.00  0.00     0.049 A 
ATOM     40  N   UNL A   1      41.193  30.184  31.231  1.00  0.00    -0.248 NA
ATOM     41  C   UNL A   1      39.281  28.921  31.606  1.00  0.00     0.031 C 
ATOM     42  C   UNL A   1      40.184  28.824  26.844  1.00  0.00     0.029 A 
ATOM     43  N   UNL A   1      41.879  28.763  28.260  1.00  0.00    -0.354 N 
ATOM     44  C   UNL A   1      41.148  29.806  32.571  1.00  0.00     0.074 A 
ATOM     45  C   UNL A   1      39.894  29.131  32.768  1.00  0.00     0.031 C 
ATOM     46  C   UNL A   1      41.136  28.044  26.288  1.00  0.00     0.029 A 
ATOM     47  C   UNL A   1      42.246  27.920  27.219  1.00  0.00     0.049 A 
ATOM     48  H   UNL A   1      42.504  29.050  28.965  1.00  0.00     0.167 HD
ATOM     49  C   UNL A   1      42.219  29.893  33.406  1.00  0.00     0.031 A 
ATOM     50  C   UNL A   1      43.319  27.087  27.200  1.00  0.00     0.031 A 
ATOM     51  C   UNL A   1      43.206  30.820  32.932  1.00  0.00     0.049 A 
ATOM     52  C   UNL A   1      44.250  27.548  28.265  1.00  0.00     0.074 A 
ATOM     53  C   UNL A   1      43.193  32.175  32.666  1.00  0.00     0.029 A 
ATOM     54  N   UNL A   1      44.303  30.320  32.272  1.00  0.00    -0.354 N 
ATOM     55  N   UNL A   1      44.861  28.701  28.239  1.00  0.00    -0.248 NA
ATOM     56  C   UNL A   1      44.112  26.946  29.584  1.00  0.00     0.031 C 
ATOM     57  C   UNL A   1      43.933  32.310  31.457  1.00  0.00     0.029 A 
ATOM     58  C   UNL A   1      44.419  31.048  31.112  1.00  0.00     0.049 A 
ATOM     59  H   UNL A   1      44.888  29.587  32.571  1.00  0.00     0.167 HD
ATOM     60  C   UNL A   1      44.823  29.161  29.549  1.00  0.00     0.074 A 
ATOM     61  C   UNL A   1      44.404  28.007  30.344  1.00  0.00     0.031 C 
ATOM     62  C   UNL A   1      44.861  30.494  29.850  1.00  0.00     0.031 A 
BRANCH  49  63
ATOM     63  C   UNL A   1      42.499  28.866  34.473  1.00  0.00    -0.014 A 
ATOM     64  C   UNL A   1      42.571  29.262  35.822  1.00  0.00     0.010 A 
ATOM     65  C   UNL A   1      42.957  27.569  34.159  1.00  0.00     0.010 A 
ATOM     66  C   UNL A   1      43.122  28.416  36.796  1.00  0.00     0.020 A 
ATOM     67  C   UNL A   1      43.467  26.703  35.126  1.00  0.00     0.020 A 
ATOM     68  C   UNL A   1      43.578  27.146  36.435  1.00  0.00     0.054 A 
BRANCH  68  69
ATOM     69  S   UNL A   1      44.388  26.105  37.674  1.00  0.00     0.124 S 
ATOM     70  O   UNL A   1      43.831  24.790  37.372  1.00  0.00    -0.237 OA
ATOM     71  O   UNL A   1      45.801  26.284  37.351  1.00  0.00    -0.237 OA
ATOM     72  O   UNL A   1      43.965  26.689  38.944  1.00  0.00    -0.744 OA
ENDBRANCH  68  69
ENDBRANCH  49  63
BRANCH  50  73
ATOM     73  C   UNL A   1      43.355  25.714  26.623  1.00  0.00    -0.014 A 
ATOM     74  C   UNL A   1      43.543  25.495  25.245  1.00  0.00     0.010 A 
ATOM     75  C   UNL A   1      43.456  24.593  27.476  1.00  0.00     0.010 A 
ATOM     76  C   UNL A   1      43.855  24.214  24.750  1.00  0.00     0.020 A 
ATOM     77  C   UNL A   1      43.755  23.316  26.990  1.00  0.00     0.020 A 
ATOM     78  C   UNL A   1      43.972  23.134  25.629  1.00  0.00     0.054 A 
BRANCH  78  79
ATOM     79  S   UNL A   1      44.521  21.516  25.009  1.00  0.00     0.124 S 
ATOM     80  O   UNL A   1      45.798  21.337  25.693  1.00  0.00    -0.237 OA
ATOM     81  O   UNL A   1      43.443  20.629  25.437  1.00  0.00    -0.237 OA
ATOM     82  O   UNL A   1      44.617  21.716  23.563  1.00  0.00    -0.744 OA
ENDBRANCH  78  79
ENDBRANCH  50  73
BRANCH  62  83
ATOM     83  C   UNL A   1      45.141  31.494  28.750  1.00  0.00    -0.014 A 
ATOM     84  C   UNL A   1      44.138  32.072  27.944  1.00  0.00     0.010 A 
ATOM     85  C   UNL A   1      46.443  32.015  28.665  1.00  0.00     0.010 A 
ATOM     86  C   UNL A   1      44.441  33.125  27.065  1.00  0.00     0.020 A 
ATOM     87  C   UNL A   1      46.748  33.076  27.809  1.00  0.00     0.020 A 
ATOM     88  C   UNL A   1      45.747  33.621  27.005  1.00  0.00     0.054 A 
BRANCH  88  89
ATOM     89  S   UNL A   1      46.128  35.017  25.909  1.00  0.00     0.124 S 
ATOM     90  O   UNL A   1      45.671  34.532  24.609  1.00  0.00    -0.237 OA
ATOM     91  O   UNL A   1      45.345  36.107  26.486  1.00  0.00    -0.237 OA
ATOM     92  O   UNL A   1      47.576  35.173  26.035  1.00  0.00    -0.744 OA
ENDBRANCH  88  89
ENDBRANCH  62  83
ENDBRANCH  36  37
ENDBRANCH  29  31
ENDBRANCH  28  29
ENDBRANCH  27  28
ENDBRANCH   1  27
TORSDOF 18
ENDMDL
MODEL 3
REMARK VINA RESULT:     -11.2      2.843      9.056
REMARK SMILES Cc1nccn1CCC[NH+]1CCC2(CC1)[C@@H](C(=O)OCCOC(=O)c1ccc(-c3c4nc(c(-c5ccc(S(=O)(=O)[O-])cc5)c5ccc([nH]5)c(-c5ccc(S(=O)(=O)[O-])cc5)c5nc(c(-c6ccc(S(=O)(=O)[O-])cc6)c6ccc3[nH]6)C=C5)C=C4)cc1)CC(=O)N2C
REMARK SMILES IDX 20 1 19 2 17 3 18 4 16 5 10 6 11 7 15 8 12 10 14 11 13 12
REMARK SMILES IDX 88 13 85 14 86 15 89 16 87 17 9 18 8 19 7 20 6 21 1 22 2 23
REMARK SMILES IDX 3 24 4 25 5 26 21 27 22 28 23 29 24 30 25 31 26 32 84 33
REMARK SMILES IDX 27 34 83 35 28 36 29 37 30 38 77 39 31 40 82 41 76 42 78 43
REMARK SMILES IDX 32 44 81 45 75 46 74 47 33 49 63 50 44 51 62 52 45 53 48 54
REMARK SMILES IDX 61 55 79 56 46 57 47 58 60 60 80 61 49 62 34 63 35 64 43 65
REMARK SMILES IDX 36 66 42 67 37 68 38 69 39 70 40 71 41 72 64 73 65 74 73 75
REMARK SMILES IDX 66 76 72 77 67 78 68 79 69 80 70 81 71 82 50 83 51 84 59 85
REMARK SMILES IDX 52 86 58 87 53 88 54 89 55 90 56 91 57 92
REMARK H PARENT 10 9 78 48 48 59
REMARK Flexibility Score: inf
ROOT
ATOM      1  C   UNL A   1      37.101  22.367  24.124  1.00  0.00     0.274 C 
ENDROOT
BRANCH   1   2
ATOM      2  O   UNL A   1      36.430  23.350  24.937  1.00  0.00    -0.462 OA
BRANCH   2   3
ATOM      3  C   UNL A   1      35.302  22.944  25.599  1.00  0.00     0.311 C 
ATOM      4  O   UNL A   1      35.201  22.906  26.816  1.00  0.00    -0.252 OA
BRANCH   3   5
ATOM      5  C   UNL A   1      34.217  22.588  24.587  1.00  0.00     0.134 C 
ATOM      6  N   UNL A   1      31.336  25.864  23.763  1.00  0.00    -0.335 N 
ATOM      7  C   UNL A   1      31.207  24.588  23.043  1.00  0.00     0.264 C 
ATOM      8  C   UNL A   1      31.680  25.624  25.169  1.00  0.00     0.264 C 
ATOM      9  H   UNL A   1      30.428  26.329  23.755  1.00  0.00     0.348 HD
ATOM     10  C   UNL A   1      32.423  23.664  23.167  1.00  0.00     0.091 C 
ATOM     11  C   UNL A   1      32.863  24.673  25.416  1.00  0.00     0.091 C 
ATOM     12  C   UNL A   1      32.836  23.340  24.634  1.00  0.00     0.067 C 
ATOM     13  N   UNL A   1      31.958  22.296  25.201  1.00  0.00    -0.339 N 
ATOM     14  C   UNL A   1      33.915  21.095  24.702  1.00  0.00     0.118 C 
ATOM     15  C   UNL A   1      32.507  21.025  25.191  1.00  0.00     0.223 C 
ATOM     16  C   UNL A   1      30.632  22.485  25.750  1.00  0.00     0.147 C 
ATOM     17  O   UNL A   1      31.949  19.992  25.528  1.00  0.00    -0.275 OA
BRANCH   6  18
ATOM     18  C   UNL A   1      32.236  26.811  23.082  1.00  0.00     0.264 C 
BRANCH  18  19
ATOM     19  C   UNL A   1      31.858  28.291  23.279  1.00  0.00     0.083 C 
BRANCH  19  20
ATOM     20  C   UNL A   1      32.916  29.257  23.825  1.00  0.00     0.129 C 
BRANCH  20  21
ATOM     21  N   UNL A   1      33.090  29.333  25.266  1.00  0.00    -0.335 N 
ATOM     22  C   UNL A   1      31.314  31.099  25.826  1.00  0.00     0.087 C 
ATOM     23  C   UNL A   1      32.341  30.076  26.165  1.00  0.00     0.105 A 
ATOM     24  N   UNL A   1      32.648  29.750  27.407  1.00  0.00    -0.242 NA
ATOM     25  C   UNL A   1      33.620  28.803  27.324  1.00  0.00     0.131 A 
ATOM     26  C   UNL A   1      33.927  28.546  26.014  1.00  0.00     0.107 A 
ENDBRANCH  20  21
ENDBRANCH  19  20
ENDBRANCH  18  19
ENDBRANCH   6  18
ENDBRANCH   3   5
ENDBRANCH   2   3
ENDBRANCH   1   2
BRANCH   1  27
ATOM     27  C   UNL A   1      37.889  21.382  24.984  1.00  0.00     0.275 C 
BRANCH  27  28
ATOM     28  O   UNL A   1      38.391  21.984  26.181  1.00  0.00    -0.458 OA
BRANCH  28  29
ATOM     29  C   UNL A   1      39.723  21.829  26.349  1.00  0.00     0.338 C 
ATOM     30  O   UNL A   1      40.336  20.777  26.406  1.00  0.00    -0.246 OA
BRANCH  29  31
ATOM     31  C   UNL A   1      40.368  23.110  26.639  1.00  0.00     0.060 A 
ATOM     32  C   UNL A   1      41.329  23.103  27.657  1.00  0.00     0.016 A 
ATOM     33  C   UNL A   1      39.874  24.303  26.099  1.00  0.00     0.016 A 
ATOM     34  C   UNL A   1      41.717  24.297  28.222  1.00  0.00     0.010 A 
ATOM     35  C   UNL A   1      40.252  25.498  26.676  1.00  0.00     0.010 A 
ATOM     36  C   UNL A   1      41.125  25.474  27.764  1.00  0.00    -0.014 A 
BRANCH  36  37
ATOM     37  C   UNL A   1      41.494  26.701  28.443  1.00  0.00     0.031 A 
ATOM     38  C   UNL A   1      42.861  27.199  28.124  1.00  0.00     0.074 A 
ATOM     39  C   UNL A   1      40.592  27.369  29.188  1.00  0.00     0.049 A 
ATOM     40  N   UNL A   1      43.820  27.523  28.930  1.00  0.00    -0.248 NA
ATOM     41  C   UNL A   1      43.237  27.246  26.699  1.00  0.00     0.031 C 
ATOM     42  C   UNL A   1      39.150  27.116  29.303  1.00  0.00     0.029 A 
ATOM     43  N   UNL A   1      40.754  28.518  29.890  1.00  0.00    -0.354 N 
ATOM     44  C   UNL A   1      44.854  27.994  28.122  1.00  0.00     0.074 A 
ATOM     45  C   UNL A   1      44.489  27.691  26.766  1.00  0.00     0.031 C 
ATOM     46  C   UNL A   1      38.549  28.223  29.790  1.00  0.00     0.029 A 
ATOM     47  C   UNL A   1      39.569  29.203  30.127  1.00  0.00     0.049 A 
ATOM     48  H   UNL A   1      41.631  28.839  30.200  1.00  0.00     0.167 HD
ATOM     49  C   UNL A   1      45.864  28.778  28.589  1.00  0.00     0.031 A 
ATOM     50  C   UNL A   1      39.451  30.519  30.445  1.00  0.00     0.031 A 
ATOM     51  C   UNL A   1      46.024  28.673  30.011  1.00  0.00     0.049 A 
ATOM     52  C   UNL A   1      40.785  30.975  30.920  1.00  0.00     0.074 A 
ATOM     53  C   UNL A   1      46.325  27.628  30.862  1.00  0.00     0.029 A 
ATOM     54  N   UNL A   1      45.473  29.653  30.801  1.00  0.00    -0.354 N 
ATOM     55  N   UNL A   1      41.354  30.531  32.008  1.00  0.00    -0.248 NA
ATOM     56  C   UNL A   1      41.691  31.545  29.932  1.00  0.00     0.031 C 
ATOM     57  C   UNL A   1      45.462  27.817  31.979  1.00  0.00     0.029 A 
ATOM     58  C   UNL A   1      44.755  29.003  31.776  1.00  0.00     0.049 A 
ATOM     59  H   UNL A   1      45.574  30.626  30.690  1.00  0.00     0.167 HD
ATOM     60  C   UNL A   1      42.696  30.389  31.682  1.00  0.00     0.074 A 
ATOM     61  C   UNL A   1      42.854  31.089  30.408  1.00  0.00     0.031 C 
ATOM     62  C   UNL A   1      43.505  29.489  32.319  1.00  0.00     0.031 A 
BRANCH  49  63
ATOM     63  C   UNL A   1      46.465  29.892  27.772  1.00  0.00    -0.014 A 
ATOM     64  C   UNL A   1      47.856  30.106  27.798  1.00  0.00     0.010 A 
ATOM     65  C   UNL A   1      45.671  30.904  27.189  1.00  0.00     0.010 A 
ATOM     66  C   UNL A   1      48.415  31.296  27.309  1.00  0.00     0.020 A 
ATOM     67  C   UNL A   1      46.219  32.072  26.662  1.00  0.00     0.020 A 
ATOM     68  C   UNL A   1      47.588  32.276  26.755  1.00  0.00     0.054 A 
BRANCH  68  69
ATOM     69  S   UNL A   1      48.303  33.853  26.229  1.00  0.00     0.124 S 
ATOM     70  O   UNL A   1      48.535  34.519  27.506  1.00  0.00    -0.237 OA
ATOM     71  O   UNL A   1      49.500  33.424  25.510  1.00  0.00    -0.237 OA
ATOM     72  O   UNL A   1      47.259  34.443  25.395  1.00  0.00    -0.744 OA
ENDBRANCH  68  69
ENDBRANCH  49  63
BRANCH  50  73
ATOM     73  C   UNL A   1      38.397  31.450  29.956  1.00  0.00    -0.014 A 
ATOM     74  C   UNL A   1      37.564  31.119  28.870  1.00  0.00     0.010 A 
ATOM     75  C   UNL A   1      38.038  32.578  30.726  1.00  0.00     0.010 A 
ATOM     76  C   UNL A   1      36.402  31.866  28.593  1.00  0.00     0.020 A 
ATOM     77  C   UNL A   1      36.892  33.331  30.451  1.00  0.00     0.020 A 
ATOM     78  C   UNL A   1      36.067  32.960  29.396  1.00  0.00     0.054 A 
BRANCH  78  79
ATOM     79  S   UNL A   1      34.492  33.830  29.131  1.00  0.00     0.124 S 
ATOM     80  O   UNL A   1      33.824  32.974  28.156  1.00  0.00    -0.237 OA
ATOM     81  O   UNL A   1      33.908  33.844  30.468  1.00  0.00    -0.237 OA
ATOM     82  O   UNL A   1      34.904  35.139  28.624  1.00  0.00    -0.744 OA
ENDBRANCH  78  79
ENDBRANCH  50  73
BRANCH  62  83
ATOM     83  C   UNL A   1      42.985  28.758  33.537  1.00  0.00    -0.014 A 
ATOM     84  C   UNL A   1      41.995  27.754  33.484  1.00  0.00     0.010 A 
ATOM     85  C   UNL A   1      43.665  28.957  34.751  1.00  0.00     0.010 A 
ATOM     86  C   UNL A   1      41.686  26.990  34.622  1.00  0.00     0.020 A 
ATOM     87  C   UNL A   1      43.377  28.188  35.880  1.00  0.00     0.020 A 
ATOM     88  C   UNL A   1      42.382  27.213  35.814  1.00  0.00     0.054 A 
BRANCH  88  89
ATOM     89  S   UNL A   1      42.021  26.190  37.270  1.00  0.00     0.124 S 
ATOM     90  O   UNL A   1      42.111  24.834  36.734  1.00  0.00    -0.237 OA
ATOM     91  O   UNL A   1      43.078  26.570  38.205  1.00  0.00    -0.237 OA
ATOM     92  O   UNL A   1      40.677  26.609  37.665  1.00  0.00    -0.744 OA
ENDBRANCH  88  89
ENDBRANCH  62  83
ENDBRANCH  36  37
ENDBRANCH  29  31
ENDBRANCH  28  29
ENDBRANCH  27  28
ENDBRANCH   1  27
TORSDOF 18
ENDMDL
