MODEL 1
REMARK VINA RESULT:     -11.0      0.000      0.000
REMARK SMILES Cc1[nH]c2ccccc2c1[C@@H](C(=O)OCCOC(=O)c1ccc(-c2c3nc(c(-c4ccc(S(=O)(=O)[O-])cc4)c4ccc([nH]4)c(-c4ccc(S(=O)(=O)[O-])cc4)c4nc(c(-c5ccc(S(=O)(=O)[O-])cc5)c5ccc2[nH]5)C=C4)C=C3)cc1)[NH+]1CCCC1
REMARK SMILES IDX 16 1 15 2 14 3 12 4 13 5 11 6 10 7 1 8 2 9 3 10 4 11 9 13
REMARK SMILES IDX 5 14 8 15 6 16 7 17 80 18 81 19 84 20 82 22 83 23 17 24
REMARK SMILES IDX 18 25 19 26 20 27 21 28 79 29 22 30 78 31 23 32 24 33 25 34
REMARK SMILES IDX 72 35 26 36 77 37 71 38 73 39 27 40 76 41 70 42 69 43 28 45
REMARK SMILES IDX 58 46 39 47 57 48 40 49 43 50 56 51 74 52 41 53 42 54 55 56
REMARK SMILES IDX 75 57 44 58 29 59 30 60 38 61 31 62 37 63 32 64 33 65 34 66
REMARK SMILES IDX 35 67 36 68 59 69 60 70 68 71 61 72 67 73 62 74 63 75 64 76
REMARK SMILES IDX 65 77 66 78 45 79 46 80 54 81 47 82 53 83 48 84 49 85 50 86
REMARK SMILES IDX 51 87 52 88
REMARK H PARENT 3 12 80 21 73 44 43 55
REMARK Flexibility Score: inf
ROOT
ATOM      1  C   UNL A   1      31.881  30.157  26.884  1.00  0.00     0.275 C 
ENDROOT
BRANCH   1   2
ATOM      2  C   UNL A   1      31.514  28.754  27.364  1.00  0.00     0.274 C 
BRANCH   2   3
ATOM      3  O   UNL A   1      32.299  27.740  26.703  1.00  0.00    -0.457 OA
BRANCH   3   4
ATOM      4  C   UNL A   1      31.585  26.846  25.955  1.00  0.00     0.370 C 
ATOM      5  O   UNL A   1      30.816  26.025  26.455  1.00  0.00    -0.245 OA
BRANCH   4   6
ATOM      6  C   UNL A   1      31.980  26.819  24.469  1.00  0.00     0.328 C 
BRANCH   6   7
ATOM      7  C   UNL A   1      31.577  27.994  23.601  1.00  0.00     0.049 A 
ATOM      8  C   UNL A   1      33.967  28.864  22.933  1.00  0.00     0.065 C 
ATOM      9  C   UNL A   1      32.481  28.820  22.931  1.00  0.00     0.022 A 
ATOM     10  N   UNL A   1      31.766  29.663  22.122  1.00  0.00    -0.358 N 
ATOM     11  C   UNL A   1      30.421  29.455  22.272  1.00  0.00     0.046 A 
ATOM     12  H   UNL A   1      32.166  30.327  21.516  1.00  0.00     0.166 HD
ATOM     13  C   UNL A   1      30.259  28.483  23.260  1.00  0.00     0.009 A 
ATOM     14  C   UNL A   1      29.350  30.054  21.596  1.00  0.00     0.027 A 
ATOM     15  C   UNL A   1      28.936  28.167  23.645  1.00  0.00     0.011 A 
ATOM     16  C   UNL A   1      28.058  29.666  21.950  1.00  0.00     0.002 A 
ATOM     17  C   UNL A   1      27.851  28.747  22.973  1.00  0.00     0.001 A 
ENDBRANCH   6   7
BRANCH   6  18
ATOM     18  N   UNL A   1      31.781  25.478  23.856  1.00  0.00    -0.319 N 
ATOM     19  C   UNL A   1      32.867  24.526  24.080  1.00  0.00     0.263 C 
ATOM     20  C   UNL A   1      31.484  25.393  22.433  1.00  0.00     0.263 C 
ATOM     21  H   UNL A   1      30.936  25.240  24.374  1.00  0.00     0.349 HD
ATOM     22  C   UNL A   1      33.710  24.540  22.816  1.00  0.00     0.067 C 
ATOM     23  C   UNL A   1      32.769  25.006  21.717  1.00  0.00     0.067 C 
ENDBRANCH   6  18
ENDBRANCH   4   6
ENDBRANCH   3   4
ENDBRANCH   2   3
ENDBRANCH   1   2
BRANCH   1  24
ATOM     24  O   UNL A   1      33.307  30.266  26.757  1.00  0.00    -0.458 OA
BRANCH  24  25
ATOM     25  C   UNL A   1      33.890  31.293  27.420  1.00  0.00     0.338 C 
ATOM     26  O   UNL A   1      33.391  32.384  27.641  1.00  0.00    -0.246 OA
BRANCH  25  27
ATOM     27  C   UNL A   1      35.233  30.901  27.918  1.00  0.00     0.060 A 
ATOM     28  C   UNL A   1      35.507  29.602  28.342  1.00  0.00     0.016 A 
ATOM     29  C   UNL A   1      36.214  31.884  28.073  1.00  0.00     0.016 A 
ATOM     30  C   UNL A   1      36.696  29.318  29.014  1.00  0.00     0.010 A 
ATOM     31  C   UNL A   1      37.445  31.568  28.666  1.00  0.00     0.010 A 
ATOM     32  C   UNL A   1      37.689  30.290  29.193  1.00  0.00    -0.014 A 
BRANCH  32  33
ATOM     33  C   UNL A   1      38.939  29.987  29.962  1.00  0.00     0.031 A 
ATOM     34  C   UNL A   1      39.934  28.967  29.450  1.00  0.00     0.074 A 
ATOM     35  C   UNL A   1      39.223  30.632  31.114  1.00  0.00     0.049 A 
ATOM     36  N   UNL A   1      40.944  28.411  30.075  1.00  0.00    -0.248 NA
ATOM     37  C   UNL A   1      39.761  28.494  28.066  1.00  0.00     0.031 C 
ATOM     38  C   UNL A   1      38.406  31.680  31.732  1.00  0.00     0.029 A 
ATOM     39  N   UNL A   1      40.297  30.515  31.965  1.00  0.00    -0.354 N 
ATOM     40  C   UNL A   1      41.465  27.464  29.198  1.00  0.00     0.074 A 
ATOM     41  C   UNL A   1      40.673  27.533  27.989  1.00  0.00     0.031 C 
ATOM     42  C   UNL A   1      39.044  32.161  32.809  1.00  0.00     0.029 A 
ATOM     43  C   UNL A   1      40.253  31.380  33.034  1.00  0.00     0.049 A 
ATOM     44  H   UNL A   1      41.029  29.872  31.823  1.00  0.00     0.167 HD
ATOM     45  C   UNL A   1      42.497  26.605  29.388  1.00  0.00     0.031 A 
ATOM     46  C   UNL A   1      41.058  31.510  34.106  1.00  0.00     0.031 A 
ATOM     47  C   UNL A   1      43.342  26.589  30.556  1.00  0.00     0.049 A 
ATOM     48  C   UNL A   1      42.208  30.567  34.288  1.00  0.00     0.074 A 
ATOM     49  C   UNL A   1      44.415  25.757  30.831  1.00  0.00     0.029 A 
ATOM     50  N   UNL A   1      43.234  27.462  31.625  1.00  0.00    -0.354 N 
ATOM     51  N   UNL A   1      42.604  29.591  33.507  1.00  0.00    -0.248 NA
ATOM     52  C   UNL A   1      43.002  30.722  35.515  1.00  0.00     0.031 C 
ATOM     53  C   UNL A   1      44.941  26.112  32.079  1.00  0.00     0.029 A 
ATOM     54  C   UNL A   1      44.221  27.192  32.560  1.00  0.00     0.049 A 
ATOM     55  H   UNL A   1      42.556  28.172  31.710  1.00  0.00     0.167 HD
ATOM     56  C   UNL A   1      43.683  29.006  34.155  1.00  0.00     0.074 A 
ATOM     57  C   UNL A   1      43.903  29.760  35.373  1.00  0.00     0.031 C 
ATOM     58  C   UNL A   1      44.418  27.929  33.781  1.00  0.00     0.031 A 
BRANCH  45  59
ATOM     59  C   UNL A   1      42.753  25.567  28.327  1.00  0.00    -0.014 A 
ATOM     60  C   UNL A   1      43.644  25.796  27.264  1.00  0.00     0.010 A 
ATOM     61  C   UNL A   1      42.133  24.308  28.441  1.00  0.00     0.010 A 
ATOM     62  C   UNL A   1      43.890  24.792  26.321  1.00  0.00     0.020 A 
ATOM     63  C   UNL A   1      42.394  23.295  27.514  1.00  0.00     0.020 A 
ATOM     64  C   UNL A   1      43.261  23.548  26.450  1.00  0.00     0.054 A 
BRANCH  64  65
ATOM     65  S   UNL A   1      43.628  22.247  25.239  1.00  0.00     0.124 S 
ATOM     66  O   UNL A   1      42.554  21.290  25.494  1.00  0.00    -0.237 OA
ATOM     67  O   UNL A   1      43.547  22.956  23.966  1.00  0.00    -0.237 OA
ATOM     68  O   UNL A   1      44.967  21.795  25.613  1.00  0.00    -0.744 OA
ENDBRANCH  64  65
ENDBRANCH  45  59
BRANCH  46  69
ATOM     69  C   UNL A   1      40.753  32.549  35.127  1.00  0.00    -0.014 A 
ATOM     70  C   UNL A   1      39.909  32.257  36.212  1.00  0.00     0.010 A 
ATOM     71  C   UNL A   1      41.352  33.819  35.044  1.00  0.00     0.010 A 
ATOM     72  C   UNL A   1      39.680  33.214  37.204  1.00  0.00     0.020 A 
ATOM     73  C   UNL A   1      41.151  34.766  36.050  1.00  0.00     0.020 A 
ATOM     74  C   UNL A   1      40.311  34.459  37.122  1.00  0.00     0.054 A 
BRANCH  74  75
ATOM     75  S   UNL A   1      40.097  35.653  38.473  1.00  0.00     0.124 S 
ATOM     76  O   UNL A   1      41.412  35.633  39.106  1.00  0.00    -0.237 OA
ATOM     77  O   UNL A   1      39.754  36.884  37.764  1.00  0.00    -0.237 OA
ATOM     78  O   UNL A   1      39.010  35.077  39.262  1.00  0.00    -0.744 OA
ENDBRANCH  74  75
ENDBRANCH  46  69
BRANCH  58  79
ATOM     79  C   UNL A   1      45.531  27.515  34.702  1.00  0.00    -0.014 A 
ATOM     80  C   UNL A   1      46.826  28.039  34.549  1.00  0.00     0.010 A 
ATOM     81  C   UNL A   1      45.281  26.586  35.727  1.00  0.00     0.010 A 
ATOM     82  C   UNL A   1      47.867  27.600  35.372  1.00  0.00     0.020 A 
ATOM     83  C   UNL A   1      46.314  26.161  36.566  1.00  0.00     0.020 A 
ATOM     84  C   UNL A   1      47.606  26.654  36.367  1.00  0.00     0.054 A 
BRANCH  84  85
ATOM     85  S   UNL A   1      48.971  26.086  37.419  1.00  0.00     0.124 S 
ATOM     86  O   UNL A   1      48.369  26.136  38.749  1.00  0.00    -0.237 OA
ATOM     87  O   UNL A   1      49.245  24.748  36.903  1.00  0.00    -0.237 OA
ATOM     88  O   UNL A   1      50.025  27.068  37.175  1.00  0.00    -0.744 OA
ENDBRANCH  84  85
ENDBRANCH  58  79
ENDBRANCH  32  33
ENDBRANCH  25  27
ENDBRANCH  24  25
ENDBRANCH   1  24
TORSDOF 16
ENDMDL
MODEL 2
REMARK VINA RESULT:     -10.7      3.671      8.726
REMARK SMILES Cc1[nH]c2ccccc2c1[C@@H](C(=O)OCCOC(=O)c1ccc(-c2c3nc(c(-c4ccc(S(=O)(=O)[O-])cc4)c4ccc([nH]4)c(-c4ccc(S(=O)(=O)[O-])cc4)c4nc(c(-c5ccc(S(=O)(=O)[O-])cc5)c5ccc2[nH]5)C=C4)C=C3)cc1)[NH+]1CCCC1
REMARK SMILES IDX 16 1 15 2 14 3 12 4 13 5 11 6 10 7 1 8 2 9 3 10 4 11 9 13
REMARK SMILES IDX 5 14 8 15 6 16 7 17 80 18 81 19 84 20 82 22 83 23 17 24
REMARK SMILES IDX 18 25 19 26 20 27 21 28 79 29 22 30 78 31 23 32 24 33 25 34
REMARK SMILES IDX 72 35 26 36 77 37 71 38 73 39 27 40 76 41 70 42 69 43 28 45
REMARK SMILES IDX 58 46 39 47 57 48 40 49 43 50 56 51 74 52 41 53 42 54 55 56
REMARK SMILES IDX 75 57 44 58 29 59 30 60 38 61 31 62 37 63 32 64 33 65 34 66
REMARK SMILES IDX 35 67 36 68 59 69 60 70 68 71 61 72 67 73 62 74 63 75 64 76
REMARK SMILES IDX 65 77 66 78 45 79 46 80 54 81 47 82 53 83 48 84 49 85 50 86
REMARK SMILES IDX 51 87 52 88
REMARK H PARENT 3 12 80 21 73 44 43 55
REMARK Flexibility Score: inf
ROOT
ATOM      1  C   UNL A   1      34.048  28.567  27.254  1.00  0.00     0.275 C 
ENDROOT
BRANCH   1   2
ATOM      2  C   UNL A   1      33.225  27.876  26.169  1.00  0.00     0.274 C 
BRANCH   2   3
ATOM      3  O   UNL A   1      31.917  27.499  26.648  1.00  0.00    -0.457 OA
BRANCH   3   4
ATOM      4  C   UNL A   1      31.114  26.884  25.729  1.00  0.00     0.370 C 
ATOM      5  O   UNL A   1      30.132  26.213  26.047  1.00  0.00    -0.245 OA
BRANCH   4   6
ATOM      6  C   UNL A   1      31.657  26.935  24.291  1.00  0.00     0.328 C 
BRANCH   6   7
ATOM      7  C   UNL A   1      31.284  28.123  23.427  1.00  0.00     0.049 A 
ATOM      8  C   UNL A   1      33.695  28.906  22.724  1.00  0.00     0.065 C 
ATOM      9  C   UNL A   1      32.208  28.915  22.743  1.00  0.00     0.022 A 
ATOM     10  N   UNL A   1      31.512  29.783  21.944  1.00  0.00    -0.358 N 
ATOM     11  C   UNL A   1      30.163  29.623  22.113  1.00  0.00     0.046 A 
ATOM     12  H   UNL A   1      31.927  30.431  21.331  1.00  0.00     0.166 HD
ATOM     13  C   UNL A   1      29.980  28.658  23.105  1.00  0.00     0.009 A 
ATOM     14  C   UNL A   1      29.104  30.260  21.451  1.00  0.00     0.027 A 
ATOM     15  C   UNL A   1      28.652  28.390  23.508  1.00  0.00     0.011 A 
ATOM     16  C   UNL A   1      27.805  29.919  21.824  1.00  0.00     0.002 A 
ATOM     17  C   UNL A   1      27.579  29.009  22.851  1.00  0.00     0.001 A 
ENDBRANCH   6   7
BRANCH   6  18
ATOM     18  N   UNL A   1      31.589  25.612  23.615  1.00  0.00    -0.319 N 
ATOM     19  C   UNL A   1      32.642  24.669  23.988  1.00  0.00     0.263 C 
ATOM     20  C   UNL A   1      31.533  25.567  22.160  1.00  0.00     0.263 C 
ATOM     21  H   UNL A   1      30.676  25.344  23.980  1.00  0.00     0.349 HD
ATOM     22  C   UNL A   1      33.682  24.737  22.882  1.00  0.00     0.067 C 
ATOM     23  C   UNL A   1      32.926  25.223  21.656  1.00  0.00     0.067 C 
ENDBRANCH   6  18
ENDBRANCH   4   6
ENDBRANCH   3   4
ENDBRANCH   2   3
ENDBRANCH   1   2
BRANCH   1  24
ATOM     24  O   UNL A   1      33.492  29.861  27.532  1.00  0.00    -0.458 OA
BRANCH  24  25
ATOM     25  C   UNL A   1      34.320  30.753  28.126  1.00  0.00     0.338 C 
ATOM     26  O   UNL A   1      34.016  31.865  28.522  1.00  0.00    -0.246 OA
BRANCH  25  27
ATOM     27  C   UNL A   1      35.676  30.174  28.300  1.00  0.00     0.060 A 
ATOM     28  C   UNL A   1      36.112  29.684  29.529  1.00  0.00     0.016 A 
ATOM     29  C   UNL A   1      36.579  30.225  27.234  1.00  0.00     0.016 A 
ATOM     30  C   UNL A   1      37.455  29.360  29.722  1.00  0.00     0.010 A 
ATOM     31  C   UNL A   1      37.907  29.808  27.410  1.00  0.00     0.010 A 
ATOM     32  C   UNL A   1      38.382  29.415  28.672  1.00  0.00    -0.014 A 
BRANCH  32  33
ATOM     33  C   UNL A   1      39.832  29.116  28.903  1.00  0.00     0.031 A 
ATOM     34  C   UNL A   1      40.747  30.153  29.518  1.00  0.00     0.074 A 
ATOM     35  C   UNL A   1      40.353  27.908  28.594  1.00  0.00     0.049 A 
ATOM     36  N   UNL A   1      42.056  30.164  29.587  1.00  0.00    -0.248 NA
ATOM     37  C   UNL A   1      40.113  31.341  30.114  1.00  0.00     0.031 C 
ATOM     38  C   UNL A   1      39.612  26.772  28.041  1.00  0.00     0.029 A 
ATOM     39  N   UNL A   1      41.634  27.426  28.725  1.00  0.00    -0.354 N 
ATOM     40  C   UNL A   1      42.403  31.391  30.145  1.00  0.00     0.074 A 
ATOM     41  C   UNL A   1      41.165  32.091  30.417  1.00  0.00     0.031 C 
ATOM     42  C   UNL A   1      40.425  25.711  27.957  1.00  0.00     0.029 A 
ATOM     43  C   UNL A   1      41.775  26.116  28.332  1.00  0.00     0.049 A 
ATOM     44  H   UNL A   1      42.381  27.969  29.066  1.00  0.00     0.167 HD
ATOM     45  C   UNL A   1      43.636  31.895  30.396  1.00  0.00     0.031 A 
ATOM     46  C   UNL A   1      42.863  25.329  28.231  1.00  0.00     0.031 A 
ATOM     47  C   UNL A   1      44.868  31.170  30.206  1.00  0.00     0.049 A 
ATOM     48  C   UNL A   1      44.218  25.896  28.534  1.00  0.00     0.074 A 
ATOM     49  C   UNL A   1      46.164  31.600  30.439  1.00  0.00     0.029 A 
ATOM     50  N   UNL A   1      44.958  29.858  29.773  1.00  0.00    -0.354 N 
ATOM     51  N   UNL A   1      44.533  27.103  28.936  1.00  0.00    -0.248 NA
ATOM     52  C   UNL A   1      45.367  25.002  28.336  1.00  0.00     0.031 C 
ATOM     53  C   UNL A   1      47.040  30.555  30.123  1.00  0.00     0.029 A 
ATOM     54  C   UNL A   1      46.285  29.461  29.734  1.00  0.00     0.049 A 
ATOM     55  H   UNL A   1      44.192  29.289  29.529  1.00  0.00     0.167 HD
ATOM     56  C   UNL A   1      45.918  27.119  29.026  1.00  0.00     0.074 A 
ATOM     57  C   UNL A   1      46.379  25.791  28.673  1.00  0.00     0.031 C 
ATOM     58  C   UNL A   1      46.737  28.148  29.357  1.00  0.00     0.031 A 
BRANCH  45  59
ATOM     59  C   UNL A   1      43.732  33.324  30.861  1.00  0.00    -0.014 A 
ATOM     60  C   UNL A   1      43.815  33.657  32.224  1.00  0.00     0.010 A 
ATOM     61  C   UNL A   1      43.808  34.351  29.900  1.00  0.00     0.010 A 
ATOM     62  C   UNL A   1      43.947  34.994  32.618  1.00  0.00     0.020 A 
ATOM     63  C   UNL A   1      43.962  35.685  30.288  1.00  0.00     0.020 A 
ATOM     64  C   UNL A   1      44.016  36.000  31.648  1.00  0.00     0.054 A 
BRANCH  64  65
ATOM     65  S   UNL A   1      44.230  37.721  32.179  1.00  0.00     0.124 S 
ATOM     66  O   UNL A   1      43.301  37.805  33.304  1.00  0.00    -0.237 OA
ATOM     67  O   UNL A   1      45.646  37.779  32.530  1.00  0.00    -0.237 OA
ATOM     68  O   UNL A   1      43.852  38.497  31.000  1.00  0.00    -0.744 OA
ENDBRANCH  64  65
ENDBRANCH  45  59
BRANCH  46  69
ATOM     69  C   UNL A   1      42.710  23.927  27.759  1.00  0.00    -0.014 A 
ATOM     70  C   UNL A   1      42.487  22.885  28.675  1.00  0.00     0.010 A 
ATOM     71  C   UNL A   1      42.733  23.638  26.382  1.00  0.00     0.010 A 
ATOM     72  C   UNL A   1      42.276  21.580  28.221  1.00  0.00     0.020 A 
ATOM     73  C   UNL A   1      42.492  22.341  25.924  1.00  0.00     0.020 A 
ATOM     74  C   UNL A   1      42.270  21.318  26.848  1.00  0.00     0.054 A 
BRANCH  74  75
ATOM     75  S   UNL A   1      41.883  19.644  26.266  1.00  0.00     0.124 S 
ATOM     76  O   UNL A   1      42.677  19.555  25.045  1.00  0.00    -0.237 OA
ATOM     77  O   UNL A   1      42.331  18.804  27.375  1.00  0.00    -0.237 OA
ATOM     78  O   UNL A   1      40.434  19.681  26.073  1.00  0.00    -0.744 OA
ENDBRANCH  74  75
ENDBRANCH  46  69
BRANCH  58  79
ATOM     79  C   UNL A   1      48.214  27.865  29.357  1.00  0.00    -0.014 A 
ATOM     80  C   UNL A   1      48.994  28.105  28.212  1.00  0.00     0.010 A 
ATOM     81  C   UNL A   1      48.826  27.346  30.511  1.00  0.00     0.010 A 
ATOM     82  C   UNL A   1      50.353  27.781  28.204  1.00  0.00     0.020 A 
ATOM     83  C   UNL A   1      50.189  27.040  30.513  1.00  0.00     0.020 A 
ATOM     84  C   UNL A   1      50.939  27.239  29.351  1.00  0.00     0.054 A 
BRANCH  84  85
ATOM     85  S   UNL A   1      52.703  26.812  29.319  1.00  0.00     0.124 S 
ATOM     86  O   UNL A   1      52.804  26.037  28.085  1.00  0.00    -0.237 OA
ATOM     87  O   UNL A   1      53.353  28.120  29.295  1.00  0.00    -0.237 OA
ATOM     88  O   UNL A   1      52.895  26.052  30.551  1.00  0.00    -0.744 OA
ENDBRANCH  84  85
ENDBRANCH  58  79
ENDBRANCH  32  33
ENDBRANCH  25  27
ENDBRANCH  24  25
ENDBRANCH   1  24
TORSDOF 16
ENDMDL
MODEL 3
REMARK VINA RESULT:     -10.6      3.557      7.843
REMARK SMILES Cc1[nH]c2ccccc2c1[C@@H](C(=O)OCCOC(=O)c1ccc(-c2c3nc(c(-c4ccc(S(=O)(=O)[O-])cc4)c4ccc([nH]4)c(-c4ccc(S(=O)(=O)[O-])cc4)c4nc(c(-c5ccc(S(=O)(=O)[O-])cc5)c5ccc2[nH]5)C=C4)C=C3)cc1)[NH+]1CCCC1
REMARK SMILES IDX 16 1 15 2 14 3 12 4 13 5 11 6 10 7 1 8 2 9 3 10 4 11 9 13
REMARK SMILES IDX 5 14 8 15 6 16 7 17 80 18 81 19 84 20 82 22 83 23 17 24
REMARK SMILES IDX 18 25 19 26 20 27 21 28 79 29 22 30 78 31 23 32 24 33 25 34
REMARK SMILES IDX 72 35 26 36 77 37 71 38 73 39 27 40 76 41 70 42 69 43 28 45
REMARK SMILES IDX 58 46 39 47 57 48 40 49 43 50 56 51 74 52 41 53 42 54 55 56
REMARK SMILES IDX 75 57 44 58 29 59 30 60 38 61 31 62 37 63 32 64 33 65 34 66
REMARK SMILES IDX 35 67 36 68 59 69 60 70 68 71 61 72 67 73 62 74 63 75 64 76
REMARK SMILES IDX 65 77 66 78 45 79 46 80 54 81 47 82 53 83 48 84 49 85 50 86
REMARK SMILES IDX 51 87 52 88
REMARK H PARENT 3 12 80 21 73 44 43 55
REMARK Flexibility Score: inf
ROOT
ATOM      1  C   UNL A   1      37.505  21.719  24.812  1.00  0.00     0.275 C 
ENDROOT
BRANCH   1   2
ATOM      2  C   UNL A   1      36.737  22.235  23.596  1.00  0.00     0.274 C 
BRANCH   2   3
ATOM      3  O   UNL A   1      35.860  23.327  23.941  1.00  0.00    -0.457 OA
BRANCH   3   4
ATOM      4  C   UNL A   1      34.563  23.185  23.533  1.00  0.00     0.370 C 
ATOM      5  O   UNL A   1      34.210  23.365  22.368  1.00  0.00    -0.245 OA
BRANCH   4   6
ATOM      6  C   UNL A   1      33.563  22.985  24.684  1.00  0.00     0.328 C 
BRANCH   6   7
ATOM      7  C   UNL A   1      33.478  21.615  25.327  1.00  0.00     0.049 A 
ATOM      8  C   UNL A   1      34.114  22.267  27.794  1.00  0.00     0.065 C 
ATOM      9  C   UNL A   1      33.689  21.372  26.685  1.00  0.00     0.022 A 
ATOM     10  N   UNL A   1      33.373  20.064  26.936  1.00  0.00    -0.358 N 
ATOM     11  C   UNL A   1      33.006  19.423  25.783  1.00  0.00     0.046 A 
ATOM     12  H   UNL A   1      33.403  19.643  27.825  1.00  0.00     0.166 HD
ATOM     13  C   UNL A   1      33.151  20.336  24.737  1.00  0.00     0.009 A 
ATOM     14  C   UNL A   1      32.553  18.109  25.603  1.00  0.00     0.027 A 
ATOM     15  C   UNL A   1      32.908  19.862  23.428  1.00  0.00     0.011 A 
ATOM     16  C   UNL A   1      32.252  17.697  24.306  1.00  0.00     0.002 A 
ATOM     17  C   UNL A   1      32.443  18.554  23.228  1.00  0.00     0.001 A 
ENDBRANCH   6   7
BRANCH   6  18
ATOM     18  N   UNL A   1      32.257  23.644  24.419  1.00  0.00    -0.319 N 
ATOM     19  C   UNL A   1      32.242  25.093  24.609  1.00  0.00     0.263 C 
ATOM     20  C   UNL A   1      31.069  23.156  25.107  1.00  0.00     0.263 C 
ATOM     21  H   UNL A   1      32.191  23.376  23.437  1.00  0.00     0.349 HD
ATOM     22  C   UNL A   1      31.636  25.335  25.981  1.00  0.00     0.067 C 
ATOM     23  C   UNL A   1      30.780  24.109  26.257  1.00  0.00     0.067 C 
ENDBRANCH   6  18
ENDBRANCH   4   6
ENDBRANCH   3   4
ENDBRANCH   2   3
ENDBRANCH   1   2
BRANCH   1  24
ATOM     24  O   UNL A   1      37.760  22.803  25.717  1.00  0.00    -0.458 OA
BRANCH  24  25
ATOM     25  C   UNL A   1      39.032  22.919  26.168  1.00  0.00     0.338 C 
ATOM     26  O   UNL A   1      39.917  22.089  26.048  1.00  0.00    -0.246 OA
BRANCH  25  27
ATOM     27  C   UNL A   1      39.247  24.247  26.797  1.00  0.00     0.060 A 
ATOM     28  C   UNL A   1      40.013  25.234  26.180  1.00  0.00     0.016 A 
ATOM     29  C   UNL A   1      38.765  24.474  28.089  1.00  0.00     0.016 A 
ATOM     30  C   UNL A   1      40.388  26.378  26.886  1.00  0.00     0.010 A 
ATOM     31  C   UNL A   1      39.067  25.669  28.758  1.00  0.00     0.010 A 
ATOM     32  C   UNL A   1      39.927  26.622  28.187  1.00  0.00    -0.014 A 
BRANCH  32  33
ATOM     33  C   UNL A   1      40.378  27.827  28.955  1.00  0.00     0.031 A 
ATOM     34  C   UNL A   1      41.788  27.914  29.499  1.00  0.00     0.074 A 
ATOM     35  C   UNL A   1      39.550  28.875  29.157  1.00  0.00     0.049 A 
ATOM     36  N   UNL A   1      42.288  28.759  30.367  1.00  0.00    -0.248 NA
ATOM     37  C   UNL A   1      42.756  26.910  29.024  1.00  0.00     0.031 C 
ATOM     38  C   UNL A   1      38.176  28.988  28.664  1.00  0.00     0.029 A 
ATOM     39  N   UNL A   1      39.756  30.064  29.819  1.00  0.00    -0.354 N 
ATOM     40  C   UNL A   1      43.592  28.336  30.610  1.00  0.00     0.074 A 
ATOM     41  C   UNL A   1      43.813  27.169  29.782  1.00  0.00     0.031 C 
ATOM     42  C   UNL A   1      37.694  30.202  28.967  1.00  0.00     0.029 A 
ATOM     43  C   UNL A   1      38.673  30.911  29.781  1.00  0.00     0.049 A 
ATOM     44  H   UNL A   1      40.598  30.285  30.277  1.00  0.00     0.167 HD
ATOM     45  C   UNL A   1      44.514  28.860  31.455  1.00  0.00     0.031 A 
ATOM     46  C   UNL A   1      38.457  32.104  30.368  1.00  0.00     0.031 A 
ATOM     47  C   UNL A   1      44.328  30.068  32.219  1.00  0.00     0.049 A 
ATOM     48  C   UNL A   1      39.498  32.680  31.281  1.00  0.00     0.074 A 
ATOM     49  C   UNL A   1      45.211  30.677  33.096  1.00  0.00     0.029 A 
ATOM     50  N   UNL A   1      43.201  30.872  32.172  1.00  0.00    -0.354 N 
ATOM     51  N   UNL A   1      40.673  32.194  31.599  1.00  0.00    -0.248 NA
ATOM     52  C   UNL A   1      39.166  33.950  31.942  1.00  0.00     0.031 C 
ATOM     53  C   UNL A   1      44.607  31.835  33.599  1.00  0.00     0.029 A 
ATOM     54  C   UNL A   1      43.365  31.969  33.001  1.00  0.00     0.049 A 
ATOM     55  H   UNL A   1      42.400  30.690  31.628  1.00  0.00     0.167 HD
ATOM     56  C   UNL A   1      41.216  33.092  32.507  1.00  0.00     0.074 A 
ATOM     57  C   UNL A   1      40.259  34.169  32.661  1.00  0.00     0.031 C 
ATOM     58  C   UNL A   1      42.398  33.022  33.168  1.00  0.00     0.031 A 
BRANCH  45  59
ATOM     59  C   UNL A   1      45.804  28.106  31.645  1.00  0.00    -0.014 A 
ATOM     60  C   UNL A   1      45.935  27.088  32.606  1.00  0.00     0.010 A 
ATOM     61  C   UNL A   1      46.888  28.383  30.790  1.00  0.00     0.010 A 
ATOM     62  C   UNL A   1      47.136  26.379  32.724  1.00  0.00     0.020 A 
ATOM     63  C   UNL A   1      48.081  27.662  30.890  1.00  0.00     0.020 A 
ATOM     64  C   UNL A   1      48.203  26.673  31.867  1.00  0.00     0.054 A 
BRANCH  64  65
ATOM     65  S   UNL A   1      49.736  25.712  32.010  1.00  0.00     0.124 S 
ATOM     66  O   UNL A   1      50.675  26.718  32.500  1.00  0.00    -0.237 OA
ATOM     67  O   UNL A   1      49.377  24.670  32.968  1.00  0.00    -0.237 OA
ATOM     68  O   UNL A   1      49.979  25.244  30.648  1.00  0.00    -0.744 OA
ENDBRANCH  64  65
ENDBRANCH  45  59
BRANCH  46  69
ATOM     69  C   UNL A   1      37.161  32.801  30.151  1.00  0.00    -0.014 A 
ATOM     70  C   UNL A   1      36.115  32.669  31.079  1.00  0.00     0.010 A 
ATOM     71  C   UNL A   1      36.990  33.646  29.039  1.00  0.00     0.010 A 
ATOM     72  C   UNL A   1      34.924  33.380  30.906  1.00  0.00     0.020 A 
ATOM     73  C   UNL A   1      35.814  34.382  28.879  1.00  0.00     0.020 A 
ATOM     74  C   UNL A   1      34.786  34.240  29.812  1.00  0.00     0.054 A 
BRANCH  74  75
ATOM     75  S   UNL A   1      33.282  35.244  29.658  1.00  0.00     0.124 S 
ATOM     76  O   UNL A   1      33.821  36.541  29.266  1.00  0.00    -0.237 OA
ATOM     77  O   UNL A   1      32.524  34.535  28.629  1.00  0.00    -0.237 OA
ATOM     78  O   UNL A   1      32.698  35.184  30.997  1.00  0.00    -0.744 OA
ENDBRANCH  74  75
ENDBRANCH  46  69
BRANCH  58  79
ATOM     79  C   UNL A   1      42.716  34.150  34.110  1.00  0.00    -0.014 A 
ATOM     80  C   UNL A   1      43.381  35.303  33.656  1.00  0.00     0.010 A 
ATOM     81  C   UNL A   1      42.352  34.054  35.464  1.00  0.00     0.010 A 
ATOM     82  C   UNL A   1      43.726  36.318  34.553  1.00  0.00     0.020 A 
ATOM     83  C   UNL A   1      42.676  35.076  36.360  1.00  0.00     0.020 A 
ATOM     84  C   UNL A   1      43.382  36.191  35.902  1.00  0.00     0.054 A 
BRANCH  84  85
ATOM     85  S   UNL A   1      43.847  37.514  37.055  1.00  0.00     0.124 S 
ATOM     86  O   UNL A   1      44.008  38.655  36.157  1.00  0.00    -0.237 OA
ATOM     87  O   UNL A   1      42.698  37.579  37.954  1.00  0.00    -0.237 OA
ATOM     88  O   UNL A   1      45.080  37.020  37.663  1.00  0.00    -0.744 OA
ENDBRANCH  84  85
ENDBRANCH  58  79
ENDBRANCH  32  33
ENDBRANCH  25  27
ENDBRANCH  24  25
ENDBRANCH   1  24
TORSDOF 16
ENDMDL
