MODEL 1
REMARK VINA RESULT:     -10.7      0.000      0.000
REMARK SMILES O=C(CCc1cccnc1)Nc1ccsc1C(=O)OCCOC(=O)c1ccc(-c2c3nc(c(-c4ccc(S(=O)(=O)[O-])cc4)c4ccc([nH]4)c(-c4ccc(S(=O)(=O)[O-])cc4)c4nc(c(-c5ccc(S(=O)(=O)[O-])cc5)c5ccc2[nH]5)C=C4)C=C3)cc1
REMARK SMILES IDX 20 1 19 2 17 3 18 4 16 5 12 6 13 7 14 8 15 9 11 10 1 11 2 12
REMARK SMILES IDX 3 14 4 15 5 16 6 17 10 18 7 19 9 20 8 21 21 22 22 23 23 24
REMARK SMILES IDX 24 25 25 26 26 27 84 28 27 29 83 30 28 31 29 32 30 33 77 34
REMARK SMILES IDX 31 35 82 36 76 37 78 38 32 39 81 40 75 41 74 42 33 44 63 45
REMARK SMILES IDX 44 46 62 47 45 48 48 49 61 50 79 51 46 52 47 53 60 55 80 56
REMARK SMILES IDX 49 57 34 58 35 59 43 60 36 61 42 62 37 63 38 64 39 65 40 66
REMARK SMILES IDX 41 67 64 68 65 69 73 70 66 71 72 72 67 73 68 74 69 75 70 76
REMARK SMILES IDX 71 77 50 78 51 79 59 80 52 81 58 82 53 83 54 84 55 85 56 86
REMARK SMILES IDX 57 87
REMARK H PARENT 11 13 78 43 48 54
REMARK Flexibility Score: inf
ROOT
ATOM      1  C   UNL A   1      33.769  28.741  26.277  1.00  0.00     0.275 C 
ENDROOT
BRANCH   1   2
ATOM      2  O   UNL A   1      33.499  27.367  26.649  1.00  0.00    -0.458 OA
BRANCH   2   3
ATOM      3  C   UNL A   1      32.236  26.893  26.390  1.00  0.00     0.350 C 
ATOM      4  O   UNL A   1      31.268  27.094  27.114  1.00  0.00    -0.245 OA
BRANCH   3   5
ATOM      5  C   UNL A   1      32.217  26.180  25.123  1.00  0.00     0.136 A 
ATOM      6  C   UNL A   1      31.194  25.934  24.217  1.00  0.00     0.066 A 
ATOM      7  C   UNL A   1      31.553  24.908  23.290  1.00  0.00     0.039 A 
ATOM      8  C   UNL A   1      32.884  24.566  23.382  1.00  0.00     0.068 A 
ATOM      9  S   UNL A   1      33.683  25.446  24.607  1.00  0.00    -0.135 S 
BRANCH   6  10
ATOM     10  N   UNL A   1      30.003  26.650  24.193  1.00  0.00    -0.325 N 
ATOM     11  O   UNL A   1      30.247  27.818  22.204  1.00  0.00    -0.275 OA
ATOM     12  C   UNL A   1      29.601  27.523  23.205  1.00  0.00     0.224 C 
ATOM     13  H   UNL A   1      29.391  26.522  24.953  1.00  0.00     0.169 HD
BRANCH  12  14
ATOM     14  C   UNL A   1      28.195  28.077  23.427  1.00  0.00     0.105 C 
BRANCH  14  15
ATOM     15  C   UNL A   1      27.673  28.953  22.268  1.00  0.00     0.047 C 
BRANCH  15  16
ATOM     16  C   UNL A   1      28.058  30.416  22.327  1.00  0.00    -0.029 A 
ATOM     17  C   UNL A   1      27.988  31.270  21.228  1.00  0.00     0.007 A 
ATOM     18  C   UNL A   1      28.430  31.018  23.514  1.00  0.00     0.114 A 
ATOM     19  C   UNL A   1      28.337  32.620  21.363  1.00  0.00     0.020 A 
ATOM     20  N   UNL A   1      28.829  32.297  23.678  1.00  0.00    -0.264 NA
ATOM     21  C   UNL A   1      28.771  33.079  22.593  1.00  0.00     0.111 A 
ENDBRANCH  15  16
ENDBRANCH  14  15
ENDBRANCH  12  14
ENDBRANCH   6  10
ENDBRANCH   3   5
ENDBRANCH   2   3
ENDBRANCH   1   2
BRANCH   1  22
ATOM     22  C   UNL A   1      34.290  29.547  27.474  1.00  0.00     0.275 C 
BRANCH  22  23
ATOM     23  O   UNL A   1      35.711  29.377  27.561  1.00  0.00    -0.458 OA
BRANCH  23  24
ATOM     24  C   UNL A   1      36.221  29.675  28.777  1.00  0.00     0.338 C 
ATOM     25  O   UNL A   1      35.616  29.806  29.825  1.00  0.00    -0.246 OA
BRANCH  24  26
ATOM     26  C   UNL A   1      37.676  29.536  28.680  1.00  0.00     0.060 A 
ATOM     27  C   UNL A   1      38.229  29.619  27.401  1.00  0.00     0.016 A 
ATOM     28  C   UNL A   1      38.475  29.314  29.800  1.00  0.00     0.016 A 
ATOM     29  C   UNL A   1      39.590  29.428  27.218  1.00  0.00     0.010 A 
ATOM     30  C   UNL A   1      39.844  29.118  29.616  1.00  0.00     0.010 A 
ATOM     31  C   UNL A   1      40.397  29.137  28.322  1.00  0.00    -0.014 A 
BRANCH  31  32
ATOM     32  C   UNL A   1      41.783  28.668  28.102  1.00  0.00     0.031 A 
ATOM     33  C   UNL A   1      42.898  29.668  28.223  1.00  0.00     0.074 A 
ATOM     34  C   UNL A   1      42.040  27.374  27.844  1.00  0.00     0.049 A 
ATOM     35  N   UNL A   1      44.170  29.528  27.957  1.00  0.00    -0.248 NA
ATOM     36  C   UNL A   1      42.525  31.011  28.702  1.00  0.00     0.031 C 
ATOM     37  C   UNL A   1      41.041  26.306  27.792  1.00  0.00     0.029 A 
ATOM     38  N   UNL A   1      43.226  26.741  27.586  1.00  0.00    -0.354 N 
ATOM     39  C   UNL A   1      44.741  30.773  28.196  1.00  0.00     0.074 A 
ATOM     40  C   UNL A   1      43.677  31.659  28.616  1.00  0.00     0.031 C 
ATOM     41  C   UNL A   1      41.661  25.143  27.527  1.00  0.00     0.029 A 
ATOM     42  C   UNL A   1      43.087  25.396  27.338  1.00  0.00     0.049 A 
ATOM     43  H   UNL A   1      44.094  27.204  27.577  1.00  0.00     0.167 HD
ATOM     44  C   UNL A   1      46.037  31.143  28.074  1.00  0.00     0.031 A 
ATOM     45  C   UNL A   1      44.007  24.482  26.976  1.00  0.00     0.031 A 
ATOM     46  C   UNL A   1      47.083  30.245  27.668  1.00  0.00     0.049 A 
ATOM     47  C   UNL A   1      45.435  24.925  26.794  1.00  0.00     0.074 A 
ATOM     48  C   UNL A   1      48.428  30.510  27.486  1.00  0.00     0.029 A 
ATOM     49  N   UNL A   1      46.898  28.898  27.392  1.00  0.00    -0.354 N 
ATOM     50  N   UNL A   1      45.954  26.120  26.963  1.00  0.00    -0.248 NA
ATOM     51  C   UNL A   1      46.398  23.901  26.372  1.00  0.00     0.031 C 
ATOM     52  C   UNL A   1      49.051  29.328  27.068  1.00  0.00     0.029 A 
ATOM     53  C   UNL A   1      48.102  28.317  27.037  1.00  0.00     0.049 A 
ATOM     54  H   UNL A   1      46.036  28.425  27.441  1.00  0.00     0.167 HD
ATOM     55  C   UNL A   1      47.310  25.985  26.688  1.00  0.00     0.074 A 
ATOM     56  C   UNL A   1      47.531  24.591  26.354  1.00  0.00     0.031 C 
ATOM     57  C   UNL A   1      48.288  26.925  26.713  1.00  0.00     0.031 A 
BRANCH  44  58
ATOM     58  C   UNL A   1      46.368  32.588  28.336  1.00  0.00    -0.014 A 
ATOM     59  C   UNL A   1      46.439  33.526  27.290  1.00  0.00     0.010 A 
ATOM     60  C   UNL A   1      46.631  33.010  29.652  1.00  0.00     0.010 A 
ATOM     61  C   UNL A   1      46.819  34.847  27.549  1.00  0.00     0.020 A 
ATOM     62  C   UNL A   1      46.984  34.335  29.919  1.00  0.00     0.020 A 
ATOM     63  C   UNL A   1      47.098  35.241  28.862  1.00  0.00     0.054 A 
BRANCH  63  64
ATOM     64  S   UNL A   1      47.598  36.957  29.174  1.00  0.00     0.124 S 
ATOM     65  O   UNL A   1      48.338  36.832  30.427  1.00  0.00    -0.237 OA
ATOM     66  O   UNL A   1      48.403  37.279  27.999  1.00  0.00    -0.237 OA
ATOM     67  O   UNL A   1      46.328  37.675  29.269  1.00  0.00    -0.744 OA
ENDBRANCH  63  64
ENDBRANCH  44  58
BRANCH  45  68
ATOM     68  C   UNL A   1      43.602  23.070  26.746  1.00  0.00    -0.014 A 
ATOM     69  C   UNL A   1      43.987  22.397  25.575  1.00  0.00     0.010 A 
ATOM     70  C   UNL A   1      42.849  22.379  27.716  1.00  0.00     0.010 A 
ATOM     71  C   UNL A   1      43.624  21.061  25.372  1.00  0.00     0.020 A 
ATOM     72  C   UNL A   1      42.506  21.037  27.528  1.00  0.00     0.020 A 
ATOM     73  C   UNL A   1      42.888  20.389  26.352  1.00  0.00     0.054 A 
BRANCH  73  74
ATOM     74  S   UNL A   1      42.484  18.637  26.099  1.00  0.00     0.124 S 
ATOM     75  O   UNL A   1      43.402  18.266  25.027  1.00  0.00    -0.237 OA
ATOM     76  O   UNL A   1      42.770  18.053  27.408  1.00  0.00    -0.237 OA
ATOM     77  O   UNL A   1      41.069  18.663  25.733  1.00  0.00    -0.744 OA
ENDBRANCH  73  74
ENDBRANCH  45  68
BRANCH  57  78
ATOM     78  C   UNL A   1      49.687  26.466  26.409  1.00  0.00    -0.014 A 
ATOM     79  C   UNL A   1      50.489  25.873  27.398  1.00  0.00     0.010 A 
ATOM     80  C   UNL A   1      50.182  26.587  25.098  1.00  0.00     0.010 A 
ATOM     81  C   UNL A   1      51.779  25.435  27.087  1.00  0.00     0.020 A 
ATOM     82  C   UNL A   1      51.462  26.129  24.779  1.00  0.00     0.020 A 
ATOM     83  C   UNL A   1      52.258  25.568  25.779  1.00  0.00     0.054 A 
BRANCH  83  84
ATOM     84  S   UNL A   1      53.920  24.957  25.388  1.00  0.00     0.124 S 
ATOM     85  O   UNL A   1      54.254  25.730  24.195  1.00  0.00    -0.237 OA
ATOM     86  O   UNL A   1      54.679  25.295  26.590  1.00  0.00    -0.237 OA
ATOM     87  O   UNL A   1      53.719  23.526  25.169  1.00  0.00    -0.744 OA
ENDBRANCH  83  84
ENDBRANCH  57  78
ENDBRANCH  31  32
ENDBRANCH  24  26
ENDBRANCH  23  24
ENDBRANCH  22  23
ENDBRANCH   1  22
TORSDOF 18
ENDMDL
MODEL 2
REMARK VINA RESULT:     -10.5      7.193     12.398
REMARK SMILES O=C(CCc1cccnc1)Nc1ccsc1C(=O)OCCOC(=O)c1ccc(-c2c3nc(c(-c4ccc(S(=O)(=O)[O-])cc4)c4ccc([nH]4)c(-c4ccc(S(=O)(=O)[O-])cc4)c4nc(c(-c5ccc(S(=O)(=O)[O-])cc5)c5ccc2[nH]5)C=C4)C=C3)cc1
REMARK SMILES IDX 20 1 19 2 17 3 18 4 16 5 12 6 13 7 14 8 15 9 11 10 1 11 2 12
REMARK SMILES IDX 3 14 4 15 5 16 6 17 10 18 7 19 9 20 8 21 21 22 22 23 23 24
REMARK SMILES IDX 24 25 25 26 26 27 84 28 27 29 83 30 28 31 29 32 30 33 77 34
REMARK SMILES IDX 31 35 82 36 76 37 78 38 32 39 81 40 75 41 74 42 33 44 63 45
REMARK SMILES IDX 44 46 62 47 45 48 48 49 61 50 79 51 46 52 47 53 60 55 80 56
REMARK SMILES IDX 49 57 34 58 35 59 43 60 36 61 42 62 37 63 38 64 39 65 40 66
REMARK SMILES IDX 41 67 64 68 65 69 73 70 66 71 72 72 67 73 68 74 69 75 70 76
REMARK SMILES IDX 71 77 50 78 51 79 59 80 52 81 58 82 53 83 54 84 55 85 56 86
REMARK SMILES IDX 57 87
REMARK H PARENT 11 13 78 43 48 54
REMARK Flexibility Score: inf
ROOT
ATOM      1  C   UNL A   1      38.546  22.671  25.739  1.00  0.00     0.275 C 
ENDROOT
BRANCH   1   2
ATOM      2  O   UNL A   1      37.347  21.903  25.471  1.00  0.00    -0.458 OA
BRANCH   2   3
ATOM      3  C   UNL A   1      36.530  22.363  24.467  1.00  0.00     0.350 C 
ATOM      4  O   UNL A   1      36.933  22.960  23.476  1.00  0.00    -0.245 OA
BRANCH   3   5
ATOM      5  C   UNL A   1      35.149  21.992  24.733  1.00  0.00     0.136 A 
ATOM      6  C   UNL A   1      33.995  22.754  24.852  1.00  0.00     0.066 A 
ATOM      7  C   UNL A   1      32.935  22.007  25.452  1.00  0.00     0.039 A 
ATOM      8  C   UNL A   1      33.243  20.670  25.570  1.00  0.00     0.068 A 
ATOM      9  S   UNL A   1      34.815  20.327  25.001  1.00  0.00    -0.135 S 
BRANCH   6  10
ATOM     10  N   UNL A   1      33.886  24.057  24.382  1.00  0.00    -0.325 N 
ATOM     11  O   UNL A   1      33.597  23.670  22.112  1.00  0.00    -0.275 OA
ATOM     12  C   UNL A   1      33.686  24.432  23.070  1.00  0.00     0.224 C 
ATOM     13  H   UNL A   1      33.959  24.779  25.047  1.00  0.00     0.169 HD
BRANCH  12  14
ATOM     14  C   UNL A   1      33.513  25.940  22.895  1.00  0.00     0.105 C 
BRANCH  14  15
ATOM     15  C   UNL A   1      32.088  26.450  23.197  1.00  0.00     0.047 C 
BRANCH  15  16
ATOM     16  C   UNL A   1      31.880  27.041  24.574  1.00  0.00    -0.029 A 
ATOM     17  C   UNL A   1      32.188  28.363  24.894  1.00  0.00     0.007 A 
ATOM     18  C   UNL A   1      31.289  26.316  25.591  1.00  0.00     0.114 A 
ATOM     19  C   UNL A   1      31.945  28.850  26.185  1.00  0.00     0.020 A 
ATOM     20  N   UNL A   1      31.090  26.725  26.862  1.00  0.00    -0.264 NA
ATOM     21  C   UNL A   1      31.421  27.993  27.135  1.00  0.00     0.111 A 
ENDBRANCH  15  16
ENDBRANCH  14  15
ENDBRANCH  12  14
ENDBRANCH   6  10
ENDBRANCH   3   5
ENDBRANCH   2   3
ENDBRANCH   1   2
BRANCH   1  22
ATOM     22  C   UNL A   1      38.207  24.020  26.385  1.00  0.00     0.275 C 
BRANCH  22  23
ATOM     23  O   UNL A   1      39.236  24.353  27.325  1.00  0.00    -0.458 OA
BRANCH  23  24
ATOM     24  C   UNL A   1      39.930  25.467  26.998  1.00  0.00     0.338 C 
ATOM     25  O   UNL A   1      40.438  25.739  25.925  1.00  0.00    -0.246 OA
BRANCH  24  26
ATOM     26  C   UNL A   1      39.728  26.434  28.080  1.00  0.00     0.060 A 
ATOM     27  C   UNL A   1      40.330  27.684  27.922  1.00  0.00     0.016 A 
ATOM     28  C   UNL A   1      38.988  26.127  29.220  1.00  0.00     0.016 A 
ATOM     29  C   UNL A   1      40.244  28.630  28.932  1.00  0.00     0.010 A 
ATOM     30  C   UNL A   1      38.903  27.076  30.238  1.00  0.00     0.010 A 
ATOM     31  C   UNL A   1      39.563  28.314  30.112  1.00  0.00    -0.014 A 
BRANCH  31  32
ATOM     32  C   UNL A   1      39.698  29.203  31.287  1.00  0.00     0.031 A 
ATOM     33  C   UNL A   1      40.892  29.020  32.181  1.00  0.00     0.074 A 
ATOM     34  C   UNL A   1      38.801  30.174  31.523  1.00  0.00     0.049 A 
ATOM     35  N   UNL A   1      41.165  29.586  33.326  1.00  0.00    -0.248 NA
ATOM     36  C   UNL A   1      41.913  28.061  31.723  1.00  0.00     0.031 C 
ATOM     37  C   UNL A   1      37.655  30.495  30.671  1.00  0.00     0.029 A 
ATOM     38  N   UNL A   1      38.721  31.077  32.549  1.00  0.00    -0.354 N 
ATOM     39  C   UNL A   1      42.366  29.023  33.745  1.00  0.00     0.074 A 
ATOM     40  C   UNL A   1      42.762  28.063  32.739  1.00  0.00     0.031 C 
ATOM     41  C   UNL A   1      36.989  31.532  31.209  1.00  0.00     0.029 A 
ATOM     42  C   UNL A   1      37.632  31.910  32.465  1.00  0.00     0.049 A 
ATOM     43  H   UNL A   1      39.381  31.124  33.279  1.00  0.00     0.167 HD
ATOM     44  C   UNL A   1      43.071  29.285  34.870  1.00  0.00     0.031 A 
ATOM     45  C   UNL A   1      37.193  32.852  33.321  1.00  0.00     0.031 A 
ATOM     46  C   UNL A   1      42.668  30.253  35.853  1.00  0.00     0.049 A 
ATOM     47  C   UNL A   1      37.964  33.091  34.592  1.00  0.00     0.074 A 
ATOM     48  C   UNL A   1      43.288  30.588  37.043  1.00  0.00     0.029 A 
ATOM     49  N   UNL A   1      41.539  31.053  35.749  1.00  0.00    -0.354 N 
ATOM     50  N   UNL A   1      39.065  32.510  35.009  1.00  0.00    -0.248 NA
ATOM     51  C   UNL A   1      37.433  34.109  35.507  1.00  0.00     0.031 C 
ATOM     52  C   UNL A   1      42.515  31.569  37.674  1.00  0.00     0.029 A 
ATOM     53  C   UNL A   1      41.440  31.879  36.854  1.00  0.00     0.049 A 
ATOM     54  H   UNL A   1      40.902  31.035  34.998  1.00  0.00     0.167 HD
ATOM     55  C   UNL A   1      39.371  33.108  36.226  1.00  0.00     0.074 A 
ATOM     56  C   UNL A   1      38.345  34.102  36.471  1.00  0.00     0.031 C 
ATOM     57  C   UNL A   1      40.407  32.861  37.066  1.00  0.00     0.031 A 
BRANCH  44  58
ATOM     58  C   UNL A   1      44.316  28.471  35.106  1.00  0.00    -0.014 A 
ATOM     59  C   UNL A   1      45.571  28.898  34.637  1.00  0.00     0.010 A 
ATOM     60  C   UNL A   1      44.222  27.247  35.794  1.00  0.00     0.010 A 
ATOM     61  C   UNL A   1      46.701  28.091  34.806  1.00  0.00     0.020 A 
ATOM     62  C   UNL A   1      45.353  26.450  35.988  1.00  0.00     0.020 A 
ATOM     63  C   UNL A   1      46.583  26.866  35.472  1.00  0.00     0.054 A 
BRANCH  63  64
ATOM     64  S   UNL A   1      48.059  25.831  35.671  1.00  0.00     0.124 S 
ATOM     65  O   UNL A   1      48.912  26.312  34.588  1.00  0.00    -0.237 OA
ATOM     66  O   UNL A   1      48.509  26.165  37.020  1.00  0.00    -0.237 OA
ATOM     67  O   UNL A   1      47.552  24.470  35.508  1.00  0.00    -0.744 OA
ENDBRANCH  63  64
ENDBRANCH  44  58
BRANCH  45  68
ATOM     68  C   UNL A   1      35.959  33.622  33.009  1.00  0.00    -0.014 A 
ATOM     69  C   UNL A   1      34.696  33.124  33.370  1.00  0.00     0.010 A 
ATOM     70  C   UNL A   1      36.043  34.876  32.373  1.00  0.00     0.010 A 
ATOM     71  C   UNL A   1      33.538  33.861  33.096  1.00  0.00     0.020 A 
ATOM     72  C   UNL A   1      34.892  35.626  32.120  1.00  0.00     0.020 A 
ATOM     73  C   UNL A   1      33.644  35.110  32.476  1.00  0.00     0.054 A 
BRANCH  73  74
ATOM     74  S   UNL A   1      32.136  36.079  32.190  1.00  0.00     0.124 S 
ATOM     75  O   UNL A   1      31.090  35.115  32.517  1.00  0.00    -0.237 OA
ATOM     76  O   UNL A   1      32.289  37.188  33.128  1.00  0.00    -0.237 OA
ATOM     77  O   UNL A   1      32.231  36.448  30.779  1.00  0.00    -0.744 OA
ENDBRANCH  73  74
ENDBRANCH  45  68
BRANCH  57  78
ATOM     78  C   UNL A   1      40.502  33.709  38.304  1.00  0.00    -0.014 A 
ATOM     79  C   UNL A   1      41.285  34.875  38.329  1.00  0.00     0.010 A 
ATOM     80  C   UNL A   1      39.752  33.356  39.440  1.00  0.00     0.010 A 
ATOM     81  C   UNL A   1      41.341  35.659  39.484  1.00  0.00     0.020 A 
ATOM     82  C   UNL A   1      39.787  34.149  40.588  1.00  0.00     0.020 A 
ATOM     83  C   UNL A   1      40.593  35.290  40.608  1.00  0.00     0.054 A 
BRANCH  83  84
ATOM     84  S   UNL A   1      40.649  36.343  42.083  1.00  0.00     0.124 S 
ATOM     85  O   UNL A   1      41.146  37.603  41.537  1.00  0.00    -0.237 OA
ATOM     86  O   UNL A   1      39.256  36.354  42.524  1.00  0.00    -0.237 OA
ATOM     87  O   UNL A   1      41.571  35.642  42.973  1.00  0.00    -0.744 OA
ENDBRANCH  83  84
ENDBRANCH  57  78
ENDBRANCH  31  32
ENDBRANCH  24  26
ENDBRANCH  23  24
ENDBRANCH  22  23
ENDBRANCH   1  22
TORSDOF 18
ENDMDL
MODEL 3
REMARK VINA RESULT:     -10.4      4.596     10.836
REMARK SMILES O=C(CCc1cccnc1)Nc1ccsc1C(=O)OCCOC(=O)c1ccc(-c2c3nc(c(-c4ccc(S(=O)(=O)[O-])cc4)c4ccc([nH]4)c(-c4ccc(S(=O)(=O)[O-])cc4)c4nc(c(-c5ccc(S(=O)(=O)[O-])cc5)c5ccc2[nH]5)C=C4)C=C3)cc1
REMARK SMILES IDX 20 1 19 2 17 3 18 4 16 5 12 6 13 7 14 8 15 9 11 10 1 11 2 12
REMARK SMILES IDX 3 14 4 15 5 16 6 17 10 18 7 19 9 20 8 21 21 22 22 23 23 24
REMARK SMILES IDX 24 25 25 26 26 27 84 28 27 29 83 30 28 31 29 32 30 33 77 34
REMARK SMILES IDX 31 35 82 36 76 37 78 38 32 39 81 40 75 41 74 42 33 44 63 45
REMARK SMILES IDX 44 46 62 47 45 48 48 49 61 50 79 51 46 52 47 53 60 55 80 56
REMARK SMILES IDX 49 57 34 58 35 59 43 60 36 61 42 62 37 63 38 64 39 65 40 66
REMARK SMILES IDX 41 67 64 68 65 69 73 70 66 71 72 72 67 73 68 74 69 75 70 76
REMARK SMILES IDX 71 77 50 78 51 79 59 80 52 81 58 82 53 83 54 84 55 85 56 86
REMARK SMILES IDX 57 87
REMARK H PARENT 11 13 78 43 48 54
REMARK Flexibility Score: inf
ROOT
ATOM      1  C   UNL A   1      35.857  22.757  25.109  1.00  0.00     0.275 C 
ENDROOT
BRANCH   1   2
ATOM      2  O   UNL A   1      35.682  23.941  24.292  1.00  0.00    -0.458 OA
BRANCH   2   3
ATOM      3  C   UNL A   1      34.622  24.757  24.606  1.00  0.00     0.350 C 
ATOM      4  O   UNL A   1      34.475  25.299  25.695  1.00  0.00    -0.245 OA
BRANCH   3   5
ATOM      5  C   UNL A   1      33.753  24.917  23.452  1.00  0.00     0.136 A 
ATOM      6  C   UNL A   1      33.232  23.995  22.553  1.00  0.00     0.066 A 
ATOM      7  C   UNL A   1      32.713  24.638  21.387  1.00  0.00     0.039 A 
ATOM      8  C   UNL A   1      32.660  26.007  21.528  1.00  0.00     0.068 A 
ATOM      9  S   UNL A   1      33.272  26.515  23.038  1.00  0.00    -0.135 S 
BRANCH   6  10
ATOM     10  N   UNL A   1      33.177  22.630  22.803  1.00  0.00    -0.325 N 
ATOM     11  O   UNL A   1      31.700  22.583  24.592  1.00  0.00    -0.275 OA
ATOM     12  C   UNL A   1      32.422  22.014  23.779  1.00  0.00     0.224 C 
ATOM     13  H   UNL A   1      33.728  22.049  22.231  1.00  0.00     0.169 HD
BRANCH  12  14
ATOM     14  C   UNL A   1      32.506  20.489  23.732  1.00  0.00     0.105 C 
BRANCH  14  15
ATOM     15  C   UNL A   1      33.720  19.902  24.482  1.00  0.00     0.047 C 
BRANCH  15  16
ATOM     16  C   UNL A   1      33.679  18.410  24.729  1.00  0.00    -0.029 A 
ATOM     17  C   UNL A   1      34.725  17.550  24.397  1.00  0.00     0.007 A 
ATOM     18  C   UNL A   1      32.617  17.814  25.384  1.00  0.00     0.114 A 
ATOM     19  C   UNL A   1      34.627  16.181  24.679  1.00  0.00     0.020 A 
ATOM     20  N   UNL A   1      32.456  16.495  25.623  1.00  0.00    -0.264 NA
ATOM     21  C   UNL A   1      33.472  15.700  25.267  1.00  0.00     0.111 A 
ENDBRANCH  15  16
ENDBRANCH  14  15
ENDBRANCH  12  14
ENDBRANCH   6  10
ENDBRANCH   3   5
ENDBRANCH   2   3
ENDBRANCH   1   2
BRANCH   1  22
ATOM     22  C   UNL A   1      36.949  22.970  26.165  1.00  0.00     0.275 C 
BRANCH  22  23
ATOM     23  O   UNL A   1      38.229  22.917  25.522  1.00  0.00    -0.458 OA
BRANCH  23  24
ATOM     24  C   UNL A   1      39.267  22.839  26.384  1.00  0.00     0.338 C 
ATOM     25  O   UNL A   1      40.072  21.933  26.500  1.00  0.00    -0.246 OA
BRANCH  24  26
ATOM     26  C   UNL A   1      39.438  24.169  26.976  1.00  0.00     0.060 A 
ATOM     27  C   UNL A   1      40.053  25.135  26.175  1.00  0.00     0.016 A 
ATOM     28  C   UNL A   1      39.028  24.461  28.275  1.00  0.00     0.016 A 
ATOM     29  C   UNL A   1      40.314  26.397  26.687  1.00  0.00     0.010 A 
ATOM     30  C   UNL A   1      39.293  25.729  28.791  1.00  0.00     0.010 A 
ATOM     31  C   UNL A   1      39.970  26.686  28.011  1.00  0.00    -0.014 A 
BRANCH  31  32
ATOM     32  C   UNL A   1      40.486  27.922  28.640  1.00  0.00     0.031 A 
ATOM     33  C   UNL A   1      41.941  27.975  29.012  1.00  0.00     0.074 A 
ATOM     34  C   UNL A   1      39.685  28.983  28.833  1.00  0.00     0.049 A 
ATOM     35  N   UNL A   1      42.594  28.888  29.680  1.00  0.00    -0.248 NA
ATOM     36  C   UNL A   1      42.770  26.836  28.579  1.00  0.00     0.031 C 
ATOM     37  C   UNL A   1      38.280  29.070  28.429  1.00  0.00     0.029 A 
ATOM     38  N   UNL A   1      39.944  30.196  29.412  1.00  0.00    -0.354 N 
ATOM     39  C   UNL A   1      43.898  28.417  29.782  1.00  0.00     0.074 A 
ATOM     40  C   UNL A   1      43.941  27.132  29.120  1.00  0.00     0.031 C 
ATOM     41  C   UNL A   1      37.804  30.281  28.766  1.00  0.00     0.029 A 
ATOM     42  C   UNL A   1      38.852  31.029  29.455  1.00  0.00     0.049 A 
ATOM     43  H   UNL A   1      40.828  30.447  29.765  1.00  0.00     0.167 HD
ATOM     44  C   UNL A   1      44.962  29.005  30.377  1.00  0.00     0.031 A 
ATOM     45  C   UNL A   1      38.713  32.247  30.012  1.00  0.00     0.031 A 
ATOM     46  C   UNL A   1      44.902  30.290  31.019  1.00  0.00     0.049 A 
ATOM     47  C   UNL A   1      39.894  32.861  30.715  1.00  0.00     0.074 A 
ATOM     48  C   UNL A   1      45.907  30.976  31.676  1.00  0.00     0.029 A 
ATOM     49  N   UNL A   1      43.768  31.089  31.072  1.00  0.00    -0.354 N 
ATOM     50  N   UNL A   1      41.108  32.380  30.860  1.00  0.00    -0.248 NA
ATOM     51  C   UNL A   1      39.688  34.178  31.331  1.00  0.00     0.031 C 
ATOM     52  C   UNL A   1      45.372  32.177  32.154  1.00  0.00     0.029 A 
ATOM     53  C   UNL A   1      44.046  32.260  31.753  1.00  0.00     0.049 A 
ATOM     54  H   UNL A   1      42.895  30.856  30.682  1.00  0.00     0.167 HD
ATOM     55  C   UNL A   1      41.816  33.346  31.565  1.00  0.00     0.074 A 
ATOM     56  C   UNL A   1      40.898  34.442  31.806  1.00  0.00     0.031 C 
ATOM     57  C   UNL A   1      43.109  33.333  31.974  1.00  0.00     0.031 A 
BRANCH  44  58
ATOM     58  C   UNL A   1      46.253  28.232  30.397  1.00  0.00    -0.014 A 
ATOM     59  C   UNL A   1      47.209  28.373  29.375  1.00  0.00     0.010 A 
ATOM     60  C   UNL A   1      46.505  27.332  31.449  1.00  0.00     0.010 A 
ATOM     61  C   UNL A   1      48.368  27.591  29.378  1.00  0.00     0.020 A 
ATOM     62  C   UNL A   1      47.674  26.568  31.470  1.00  0.00     0.020 A 
ATOM     63  C   UNL A   1      48.589  26.686  30.421  1.00  0.00     0.054 A 
BRANCH  63  64
ATOM     64  S   UNL A   1      50.095  25.675  30.400  1.00  0.00     0.124 S 
ATOM     65  O   UNL A   1      51.140  26.689  30.506  1.00  0.00    -0.237 OA
ATOM     66  O   UNL A   1      49.929  24.821  31.573  1.00  0.00    -0.237 OA
ATOM     67  O   UNL A   1      50.028  24.982  29.115  1.00  0.00    -0.744 OA
ENDBRANCH  63  64
ENDBRANCH  44  58
BRANCH  45  68
ATOM     68  C   UNL A   1      37.405  32.952  29.940  1.00  0.00    -0.014 A 
ATOM     69  C   UNL A   1      37.001  33.588  28.754  1.00  0.00     0.010 A 
ATOM     70  C   UNL A   1      36.542  32.967  31.052  1.00  0.00     0.010 A 
ATOM     71  C   UNL A   1      35.761  34.232  28.681  1.00  0.00     0.020 A 
ATOM     72  C   UNL A   1      35.292  33.587  30.976  1.00  0.00     0.020 A 
ATOM     73  C   UNL A   1      34.912  34.224  29.793  1.00  0.00     0.054 A 
BRANCH  73  74
ATOM     74  S   UNL A   1      33.280  35.007  29.656  1.00  0.00     0.124 S 
ATOM     75  O   UNL A   1      33.622  36.336  29.160  1.00  0.00    -0.237 OA
ATOM     76  O   UNL A   1      32.589  34.135  28.709  1.00  0.00    -0.237 OA
ATOM     77  O   UNL A   1      32.765  34.960  31.023  1.00  0.00    -0.744 OA
ENDBRANCH  73  74
ENDBRANCH  45  68
BRANCH  57  78
ATOM     78  C   UNL A   1      43.615  34.557  32.687  1.00  0.00    -0.014 A 
ATOM     79  C   UNL A   1      44.080  35.674  31.974  1.00  0.00     0.010 A 
ATOM     80  C   UNL A   1      43.573  34.602  34.092  1.00  0.00     0.010 A 
ATOM     81  C   UNL A   1      44.525  36.808  32.658  1.00  0.00     0.020 A 
ATOM     82  C   UNL A   1      43.995  35.742  34.778  1.00  0.00     0.020 A 
ATOM     83  C   UNL A   1      44.482  36.835  34.056  1.00  0.00     0.054 A 
BRANCH  83  84
ATOM     84  S   UNL A   1      45.027  38.332  34.923  1.00  0.00     0.124 S 
ATOM     85  O   UNL A   1      44.956  39.336  33.865  1.00  0.00    -0.237 OA
ATOM     86  O   UNL A   1      44.034  38.468  35.986  1.00  0.00    -0.237 OA
ATOM     87  O   UNL A   1      46.374  37.997  35.376  1.00  0.00    -0.744 OA
ENDBRANCH  83  84
ENDBRANCH  57  78
ENDBRANCH  31  32
ENDBRANCH  24  26
ENDBRANCH  23  24
ENDBRANCH  22  23
ENDBRANCH   1  22
TORSDOF 18
ENDMDL
