MODEL 1
REMARK VINA RESULT:     -13.2      0.000      0.000
REMARK SMILES Cc1cnn(C2(C(=O)OCCOC(=O)c3ccc(-c4c5nc(c(-c6ccc(S(=O)(=O)[O-])cc6)c6ccc([nH]6)c(-c6ccc(S(=O)(=O)[O-])cc6)c6nc(c(-c7ccc(S(=O)(=O)[O-])cc7)c7ccc4[nH]7)C=C6)C=C5)cc3)CCN(C(=O)c3cc4ccccc4[nH]3)CC2)c1
REMARK SMILES IDX 11 1 10 2 9 3 7 4 8 5 6 6 75 7 90 8 76 9 89 10 77 11 78 12
REMARK SMILES IDX 79 13 5 14 1 15 2 16 3 17 91 18 4 19 80 20 81 21 88 22 82 23
REMARK SMILES IDX 87 24 83 26 86 27 84 28 85 29 12 30 13 31 14 32 15 33 16 34
REMARK SMILES IDX 74 35 17 36 73 37 18 38 19 39 20 40 67 41 21 42 72 43 66 44
REMARK SMILES IDX 68 45 22 46 71 47 65 48 64 49 23 51 53 52 34 53 52 54 35 55
REMARK SMILES IDX 38 56 51 57 69 58 36 59 37 60 50 62 70 63 39 64 24 65 25 66
REMARK SMILES IDX 33 67 26 68 32 69 27 70 28 71 29 72 30 73 31 74 54 75 55 76
REMARK SMILES IDX 63 77 56 78 62 79 57 80 58 81 59 82 60 83 61 84 40 85 41 86
REMARK SMILES IDX 49 87 42 88 48 89 43 90 44 91 45 92 46 93 47 94
REMARK H PARENT 88 25 68 50 38 61
REMARK Flexibility Score: inf
ROOT
ATOM      1  C   UNL A   1      38.424  21.159  25.262  1.00  0.00     0.275 C 
ENDROOT
BRANCH   1   2
ATOM      2  C   UNL A   1      36.994  20.646  25.147  1.00  0.00     0.274 C 
BRANCH   2   3
ATOM      3  O   UNL A   1      36.039  21.706  25.340  1.00  0.00    -0.460 OA
BRANCH   3   4
ATOM      4  C   UNL A   1      35.263  22.049  24.260  1.00  0.00     0.334 C 
ATOM      5  O   UNL A   1      35.734  22.623  23.282  1.00  0.00    -0.249 OA
BRANCH   4   6
ATOM      6  C   UNL A   1      33.747  21.870  24.562  1.00  0.00     0.163 C 
ATOM      7  C   UNL A   1      33.381  22.141  26.047  1.00  0.00     0.064 C 
ATOM      8  C   UNL A   1      33.165  22.946  23.623  1.00  0.00     0.064 C 
ATOM      9  C   UNL A   1      31.954  22.625  26.278  1.00  0.00     0.123 C 
ATOM     10  C   UNL A   1      31.758  23.394  23.937  1.00  0.00     0.123 C 
ATOM     11  N   UNL A   1      31.575  23.685  25.354  1.00  0.00    -0.337 N 
ATOM     12  C   UNL A   1      31.058  24.881  25.861  1.00  0.00     0.270 C 
ATOM     13  O   UNL A   1      31.121  25.171  27.055  1.00  0.00    -0.267 OA
BRANCH   6  14
ATOM     14  N   UNL A   1      33.273  20.514  24.187  1.00  0.00    -0.255 N 
ATOM     15  C   UNL A   1      33.051  16.853  24.295  1.00  0.00     0.048 C 
ATOM     16  C   UNL A   1      32.982  18.313  24.061  1.00  0.00    -0.013 A 
ATOM     17  C   UNL A   1      32.243  19.009  23.088  1.00  0.00     0.138 A 
ATOM     18  C   UNL A   1      33.649  19.310  24.738  1.00  0.00     0.113 A 
ATOM     19  N   UNL A   1      32.459  20.325  23.127  1.00  0.00    -0.180 NA
ENDBRANCH   6  14
BRANCH  12  20
ATOM     20  C   UNL A   1      30.499  25.815  24.911  1.00  0.00     0.105 A 
ATOM     21  C   UNL A   1      31.094  26.812  24.155  1.00  0.00     0.042 A 
ATOM     22  N   UNL A   1      29.161  25.836  24.595  1.00  0.00    -0.351 N 
ATOM     23  C   UNL A   1      30.061  27.628  23.630  1.00  0.00     0.000 A 
ATOM     24  C   UNL A   1      28.854  26.990  23.912  1.00  0.00     0.046 A 
ATOM     25  H   UNL A   1      28.517  25.129  24.825  1.00  0.00     0.167 HD
ATOM     26  C   UNL A   1      30.044  28.871  22.971  1.00  0.00     0.010 A 
ATOM     27  C   UNL A   1      27.618  27.523  23.539  1.00  0.00     0.026 A 
ATOM     28  C   UNL A   1      28.813  29.435  22.622  1.00  0.00     0.001 A 
ATOM     29  C   UNL A   1      27.621  28.765  22.895  1.00  0.00     0.002 A 
ENDBRANCH  12  20
ENDBRANCH   4   6
ENDBRANCH   3   4
ENDBRANCH   2   3
ENDBRANCH   1   2
BRANCH   1  30
ATOM     30  O   UNL A   1      38.489  22.368  26.020  1.00  0.00    -0.458 OA
BRANCH  30  31
ATOM     31  C   UNL A   1      39.615  22.472  26.762  1.00  0.00     0.338 C 
ATOM     32  O   UNL A   1      40.108  21.602  27.463  1.00  0.00    -0.246 OA
BRANCH  31  33
ATOM     33  C   UNL A   1      40.068  23.856  26.835  1.00  0.00     0.060 A 
ATOM     34  C   UNL A   1      41.394  24.053  27.235  1.00  0.00     0.016 A 
ATOM     35  C   UNL A   1      39.110  24.874  26.884  1.00  0.00     0.016 A 
ATOM     36  C   UNL A   1      41.715  25.225  27.878  1.00  0.00     0.010 A 
ATOM     37  C   UNL A   1      39.436  26.047  27.522  1.00  0.00     0.010 A 
ATOM     38  C   UNL A   1      40.706  26.169  28.089  1.00  0.00    -0.014 A 
BRANCH  38  39
ATOM     39  C   UNL A   1      41.036  27.330  28.893  1.00  0.00     0.031 A 
ATOM     40  C   UNL A   1      42.184  28.114  28.386  1.00  0.00     0.074 A 
ATOM     41  C   UNL A   1      40.265  27.722  29.923  1.00  0.00     0.049 A 
ATOM     42  N   UNL A   1      43.273  28.438  29.000  1.00  0.00    -0.248 NA
ATOM     43  C   UNL A   1      42.158  28.482  26.960  1.00  0.00     0.031 C 
ATOM     44  C   UNL A   1      38.957  27.185  30.316  1.00  0.00     0.029 A 
ATOM     45  N   UNL A   1      40.419  28.798  30.740  1.00  0.00    -0.354 N 
ATOM     46  C   UNL A   1      43.995  29.209  28.096  1.00  0.00     0.074 A 
ATOM     47  C   UNL A   1      43.341  29.073  26.820  1.00  0.00     0.031 C 
ATOM     48  C   UNL A   1      38.332  28.089  31.100  1.00  0.00     0.029 A 
ATOM     49  C   UNL A   1      39.242  29.193  31.357  1.00  0.00     0.049 A 
ATOM     50  H   UNL A   1      41.282  29.251  30.880  1.00  0.00     0.167 HD
ATOM     51  C   UNL A   1      44.947  30.093  28.494  1.00  0.00     0.031 A 
ATOM     52  C   UNL A   1      38.998  30.395  31.934  1.00  0.00     0.031 A 
ATOM     53  C   UNL A   1      45.409  29.835  29.830  1.00  0.00     0.049 A 
ATOM     54  C   UNL A   1      40.307  31.035  32.214  1.00  0.00     0.074 A 
ATOM     55  C   UNL A   1      46.037  28.773  30.448  1.00  0.00     0.029 A 
ATOM     56  N   UNL A   1      44.911  30.626  30.839  1.00  0.00    -0.354 N 
ATOM     57  N   UNL A   1      41.166  30.577  33.080  1.00  0.00    -0.248 NA
ATOM     58  C   UNL A   1      40.857  31.958  31.230  1.00  0.00     0.031 C 
ATOM     59  C   UNL A   1      45.505  28.740  31.769  1.00  0.00     0.029 A 
ATOM     60  C   UNL A   1      44.606  29.804  31.895  1.00  0.00     0.049 A 
ATOM     61  H   UNL A   1      44.794  31.603  30.810  1.00  0.00     0.167 HD
ATOM     62  C   UNL A   1      42.413  30.809  32.513  1.00  0.00     0.074 A 
ATOM     63  C   UNL A   1      42.163  31.767  31.440  1.00  0.00     0.031 C 
ATOM     64  C   UNL A   1      43.478  29.997  32.784  1.00  0.00     0.031 A 
BRANCH  51  65
ATOM     65  C   UNL A   1      45.160  31.414  27.801  1.00  0.00    -0.014 A 
ATOM     66  C   UNL A   1      46.469  31.905  27.641  1.00  0.00     0.010 A 
ATOM     67  C   UNL A   1      44.101  32.316  27.557  1.00  0.00     0.010 A 
ATOM     68  C   UNL A   1      46.702  33.250  27.328  1.00  0.00     0.020 A 
ATOM     69  C   UNL A   1      44.321  33.643  27.197  1.00  0.00     0.020 A 
ATOM     70  C   UNL A   1      45.622  34.114  27.130  1.00  0.00     0.054 A 
BRANCH  70  71
ATOM     71  S   UNL A   1      45.926  35.879  26.879  1.00  0.00     0.124 S 
ATOM     72  O   UNL A   1      46.672  35.876  25.625  1.00  0.00    -0.237 OA
ATOM     73  O   UNL A   1      44.572  36.422  26.812  1.00  0.00    -0.237 OA
ATOM     74  O   UNL A   1      46.689  36.267  28.063  1.00  0.00    -0.744 OA
ENDBRANCH  70  71
ENDBRANCH  51  65
BRANCH  52  75
ATOM     75  C   UNL A   1      37.706  31.124  31.934  1.00  0.00    -0.014 A 
ATOM     76  C   UNL A   1      37.047  31.453  33.131  1.00  0.00     0.010 A 
ATOM     77  C   UNL A   1      37.225  31.704  30.740  1.00  0.00     0.010 A 
ATOM     78  C   UNL A   1      35.967  32.353  33.134  1.00  0.00     0.020 A 
ATOM     79  C   UNL A   1      36.142  32.588  30.732  1.00  0.00     0.020 A 
ATOM     80  C   UNL A   1      35.528  32.924  31.934  1.00  0.00     0.054 A 
BRANCH  80  81
ATOM     81  S   UNL A   1      34.223  34.186  31.962  1.00  0.00     0.124 S 
ATOM     82  O   UNL A   1      33.279  33.635  32.928  1.00  0.00    -0.237 OA
ATOM     83  O   UNL A   1      34.947  35.380  32.392  1.00  0.00    -0.237 OA
ATOM     84  O   UNL A   1      33.746  34.220  30.579  1.00  0.00    -0.744 OA
ENDBRANCH  80  81
ENDBRANCH  52  75
BRANCH  64  85
ATOM     85  C   UNL A   1      43.357  29.016  33.929  1.00  0.00    -0.014 A 
ATOM     86  C   UNL A   1      43.542  29.383  35.277  1.00  0.00     0.010 A 
ATOM     87  C   UNL A   1      42.876  27.724  33.648  1.00  0.00     0.010 A 
ATOM     88  C   UNL A   1      43.273  28.476  36.313  1.00  0.00     0.020 A 
ATOM     89  C   UNL A   1      42.589  26.822  34.676  1.00  0.00     0.020 A 
ATOM     90  C   UNL A   1      42.795  27.200  36.004  1.00  0.00     0.054 A 
BRANCH  90  91
ATOM     91  S   UNL A   1      42.381  26.056  37.352  1.00  0.00     0.124 S 
ATOM     92  O   UNL A   1      43.334  26.432  38.391  1.00  0.00    -0.237 OA
ATOM     93  O   UNL A   1      40.983  26.376  37.633  1.00  0.00    -0.237 OA
ATOM     94  O   UNL A   1      42.596  24.734  36.765  1.00  0.00    -0.744 OA
ENDBRANCH  90  91
ENDBRANCH  64  85
ENDBRANCH  38  39
ENDBRANCH  31  33
ENDBRANCH  30  31
ENDBRANCH   1  30
TORSDOF 16
ENDMDL
MODEL 2
REMARK VINA RESULT:     -13.1      2.633      9.516
REMARK SMILES Cc1cnn(C2(C(=O)OCCOC(=O)c3ccc(-c4c5nc(c(-c6ccc(S(=O)(=O)[O-])cc6)c6ccc([nH]6)c(-c6ccc(S(=O)(=O)[O-])cc6)c6nc(c(-c7ccc(S(=O)(=O)[O-])cc7)c7ccc4[nH]7)C=C6)C=C5)cc3)CCN(C(=O)c3cc4ccccc4[nH]3)CC2)c1
REMARK SMILES IDX 11 1 10 2 9 3 7 4 8 5 6 6 75 7 90 8 76 9 89 10 77 11 78 12
REMARK SMILES IDX 79 13 5 14 1 15 2 16 3 17 91 18 4 19 80 20 81 21 88 22 82 23
REMARK SMILES IDX 87 24 83 26 86 27 84 28 85 29 12 30 13 31 14 32 15 33 16 34
REMARK SMILES IDX 74 35 17 36 73 37 18 38 19 39 20 40 67 41 21 42 72 43 66 44
REMARK SMILES IDX 68 45 22 46 71 47 65 48 64 49 23 51 53 52 34 53 52 54 35 55
REMARK SMILES IDX 38 56 51 57 69 58 36 59 37 60 50 62 70 63 39 64 24 65 25 66
REMARK SMILES IDX 33 67 26 68 32 69 27 70 28 71 29 72 30 73 31 74 54 75 55 76
REMARK SMILES IDX 63 77 56 78 62 79 57 80 58 81 59 82 60 83 61 84 40 85 41 86
REMARK SMILES IDX 49 87 42 88 48 89 43 90 44 91 45 92 46 93 47 94
REMARK H PARENT 88 25 68 50 38 61
REMARK Flexibility Score: inf
ROOT
ATOM      1  C   UNL A   1      32.760  30.770  27.195  1.00  0.00     0.275 C 
ENDROOT
BRANCH   1   2
ATOM      2  C   UNL A   1      32.019  30.201  25.991  1.00  0.00     0.274 C 
BRANCH   2   3
ATOM      3  O   UNL A   1      32.474  28.872  25.675  1.00  0.00    -0.460 OA
BRANCH   3   4
ATOM      4  C   UNL A   1      31.570  27.850  25.833  1.00  0.00     0.334 C 
ATOM      5  O   UNL A   1      31.224  27.459  26.944  1.00  0.00    -0.249 OA
BRANCH   4   6
ATOM      6  C   UNL A   1      31.286  27.121  24.488  1.00  0.00     0.163 C 
ATOM      7  C   UNL A   1      32.493  27.146  23.510  1.00  0.00     0.064 C 
ATOM      8  C   UNL A   1      31.007  25.699  25.015  1.00  0.00     0.064 C 
ATOM      9  C   UNL A   1      32.555  25.975  22.537  1.00  0.00     0.123 C 
ATOM     10  C   UNL A   1      31.118  24.592  23.996  1.00  0.00     0.123 C 
ATOM     11  N   UNL A   1      32.333  24.697  23.197  1.00  0.00    -0.337 N 
ATOM     12  C   UNL A   1      33.262  23.667  23.023  1.00  0.00     0.270 C 
ATOM     13  O   UNL A   1      34.372  23.859  22.526  1.00  0.00    -0.267 OA
BRANCH   6  14
ATOM     14  N   UNL A   1      30.096  27.685  23.802  1.00  0.00    -0.255 N 
ATOM     15  C   UNL A   1      28.140  30.095  21.846  1.00  0.00     0.048 C 
ATOM     16  C   UNL A   1      28.716  28.998  22.657  1.00  0.00    -0.013 A 
ATOM     17  C   UNL A   1      28.066  27.870  23.188  1.00  0.00     0.138 A 
ATOM     18  C   UNL A   1      30.016  28.859  23.088  1.00  0.00     0.113 A 
ATOM     19  N   UNL A   1      28.882  27.109  23.921  1.00  0.00    -0.180 NA
ENDBRANCH   6  14
BRANCH  12  20
ATOM     20  C   UNL A   1      32.901  22.358  23.516  1.00  0.00     0.105 A 
ATOM     21  C   UNL A   1      32.919  21.829  24.796  1.00  0.00     0.042 A 
ATOM     22  N   UNL A   1      32.435  21.361  22.692  1.00  0.00    -0.351 N 
ATOM     23  C   UNL A   1      32.764  20.425  24.684  1.00  0.00     0.000 A 
ATOM     24  C   UNL A   1      32.453  20.154  23.353  1.00  0.00     0.046 A 
ATOM     25  H   UNL A   1      32.133  21.491  21.765  1.00  0.00     0.167 HD
ATOM     26  C   UNL A   1      32.898  19.357  25.590  1.00  0.00     0.010 A 
ATOM     27  C   UNL A   1      32.235  18.856  22.881  1.00  0.00     0.026 A 
ATOM     28  C   UNL A   1      32.718  18.050  25.126  1.00  0.00     0.001 A 
ATOM     29  C   UNL A   1      32.384  17.807  23.794  1.00  0.00     0.002 A 
ENDBRANCH  12  20
ENDBRANCH   4   6
ENDBRANCH   3   4
ENDBRANCH   2   3
ENDBRANCH   1   2
BRANCH   1  30
ATOM     30  O   UNL A   1      34.148  30.435  27.163  1.00  0.00    -0.458 OA
BRANCH  30  31
ATOM     31  C   UNL A   1      34.933  31.359  27.763  1.00  0.00     0.338 C 
ATOM     32  O   UNL A   1      34.960  32.556  27.524  1.00  0.00    -0.246 OA
BRANCH  31  33
ATOM     33  C   UNL A   1      35.955  30.724  28.586  1.00  0.00     0.060 A 
ATOM     34  C   UNL A   1      36.773  31.581  29.329  1.00  0.00     0.016 A 
ATOM     35  C   UNL A   1      36.310  29.399  28.311  1.00  0.00     0.016 A 
ATOM     36  C   UNL A   1      38.049  31.168  29.630  1.00  0.00     0.010 A 
ATOM     37  C   UNL A   1      37.585  28.987  28.619  1.00  0.00     0.010 A 
ATOM     38  C   UNL A   1      38.464  29.907  29.192  1.00  0.00    -0.014 A 
BRANCH  38  39
ATOM     39  C   UNL A   1      39.856  29.555  29.396  1.00  0.00     0.031 A 
ATOM     40  C   UNL A   1      40.244  29.411  30.817  1.00  0.00     0.074 A 
ATOM     41  C   UNL A   1      40.669  29.248  28.369  1.00  0.00     0.049 A 
ATOM     42  N   UNL A   1      41.186  30.016  31.460  1.00  0.00    -0.248 NA
ATOM     43  C   UNL A   1      39.382  28.563  31.658  1.00  0.00     0.031 C 
ATOM     44  C   UNL A   1      40.301  29.077  26.959  1.00  0.00     0.029 A 
ATOM     45  N   UNL A   1      41.973  28.865  28.401  1.00  0.00    -0.354 N 
ATOM     46  C   UNL A   1      41.156  29.490  32.747  1.00  0.00     0.074 A 
ATOM     47  C   UNL A   1      39.941  28.725  32.854  1.00  0.00     0.031 C 
ATOM     48  C   UNL A   1      41.274  28.379  26.336  1.00  0.00     0.029 A 
ATOM     49  C   UNL A   1      42.370  28.171  27.269  1.00  0.00     0.049 A 
ATOM     50  H   UNL A   1      42.577  29.064  29.153  1.00  0.00     0.167 HD
ATOM     51  C   UNL A   1      42.237  29.523  33.570  1.00  0.00     0.031 A 
ATOM     52  C   UNL A   1      43.465  27.382  27.150  1.00  0.00     0.031 A 
ATOM     53  C   UNL A   1      43.211  30.496  33.156  1.00  0.00     0.049 A 
ATOM     54  C   UNL A   1      44.403  27.743  28.241  1.00  0.00     0.074 A 
ATOM     55  C   UNL A   1      43.201  31.867  32.998  1.00  0.00     0.029 A 
ATOM     56  N   UNL A   1      44.319  30.039  32.481  1.00  0.00    -0.354 N 
ATOM     57  N   UNL A   1      45.004  28.896  28.326  1.00  0.00    -0.248 NA
ATOM     58  C   UNL A   1      44.359  26.980  29.481  1.00  0.00     0.031 C 
ATOM     59  C   UNL A   1      44.040  32.119  31.875  1.00  0.00     0.029 A 
ATOM     60  C   UNL A   1      44.541  30.893  31.430  1.00  0.00     0.049 A 
ATOM     61  H   UNL A   1      44.854  29.246  32.710  1.00  0.00     0.167 HD
ATOM     62  C   UNL A   1      45.041  29.189  29.683  1.00  0.00     0.074 A 
ATOM     63  C   UNL A   1      44.742  27.923  30.347  1.00  0.00     0.031 C 
ATOM     64  C   UNL A   1      45.034  30.480  30.131  1.00  0.00     0.031 A 
BRANCH  51  65
ATOM     65  C   UNL A   1      42.563  28.397  34.515  1.00  0.00    -0.014 A 
ATOM     66  C   UNL A   1      43.047  28.695  35.803  1.00  0.00     0.010 A 
ATOM     67  C   UNL A   1      42.680  27.058  34.080  1.00  0.00     0.010 A 
ATOM     68  C   UNL A   1      43.682  27.719  36.580  1.00  0.00     0.020 A 
ATOM     69  C   UNL A   1      43.266  26.068  34.865  1.00  0.00     0.020 A 
ATOM     70  C   UNL A   1      43.805  26.415  36.093  1.00  0.00     0.054 A 
BRANCH  70  71
ATOM     71  S   UNL A   1      44.759  25.198  37.031  1.00  0.00     0.124 S 
ATOM     72  O   UNL A   1      46.120  25.696  36.863  1.00  0.00    -0.237 OA
ATOM     73  O   UNL A   1      44.194  25.326  38.372  1.00  0.00    -0.237 OA
ATOM     74  O   UNL A   1      44.464  23.938  36.354  1.00  0.00    -0.744 OA
ENDBRANCH  70  71
ENDBRANCH  51  65
BRANCH  52  75
ATOM     75  C   UNL A   1      43.568  26.133  26.354  1.00  0.00    -0.014 A 
ATOM     76  C   UNL A   1      44.635  25.911  25.469  1.00  0.00     0.010 A 
ATOM     77  C   UNL A   1      42.716  25.044  26.641  1.00  0.00     0.010 A 
ATOM     78  C   UNL A   1      44.859  24.638  24.915  1.00  0.00     0.020 A 
ATOM     79  C   UNL A   1      42.922  23.778  26.084  1.00  0.00     0.020 A 
ATOM     80  C   UNL A   1      44.006  23.576  25.236  1.00  0.00     0.054 A 
BRANCH  80  81
ATOM     81  S   UNL A   1      44.378  21.907  24.626  1.00  0.00     0.124 S 
ATOM     82  O   UNL A   1      43.272  21.124  25.169  1.00  0.00    -0.237 OA
ATOM     83  O   UNL A   1      44.374  22.091  23.177  1.00  0.00    -0.237 OA
ATOM     84  O   UNL A   1      45.688  21.612  25.206  1.00  0.00    -0.744 OA
ENDBRANCH  80  81
ENDBRANCH  52  75
BRANCH  64  85
ATOM     85  C   UNL A   1      45.277  31.587  29.128  1.00  0.00    -0.014 A 
ATOM     86  C   UNL A   1      46.567  32.012  28.751  1.00  0.00     0.010 A 
ATOM     87  C   UNL A   1      44.172  32.095  28.422  1.00  0.00     0.010 A 
ATOM     88  C   UNL A   1      46.744  32.936  27.711  1.00  0.00     0.020 A 
ATOM     89  C   UNL A   1      44.344  33.001  27.371  1.00  0.00     0.020 A 
ATOM     90  C   UNL A   1      45.629  33.423  27.025  1.00  0.00     0.054 A 
BRANCH  90  91
ATOM     91  S   UNL A   1      45.869  34.562  25.632  1.00  0.00     0.124 S 
ATOM     92  O   UNL A   1      45.463  35.845  26.198  1.00  0.00    -0.237 OA
ATOM     93  O   UNL A   1      47.295  34.425  25.341  1.00  0.00    -0.237 OA
ATOM     94  O   UNL A   1      44.983  34.035  24.595  1.00  0.00    -0.744 OA
ENDBRANCH  90  91
ENDBRANCH  64  85
ENDBRANCH  38  39
ENDBRANCH  31  33
ENDBRANCH  30  31
ENDBRANCH   1  30
TORSDOF 16
ENDMDL
MODEL 3
REMARK VINA RESULT:     -13.0      1.920      3.031
REMARK SMILES Cc1cnn(C2(C(=O)OCCOC(=O)c3ccc(-c4c5nc(c(-c6ccc(S(=O)(=O)[O-])cc6)c6ccc([nH]6)c(-c6ccc(S(=O)(=O)[O-])cc6)c6nc(c(-c7ccc(S(=O)(=O)[O-])cc7)c7ccc4[nH]7)C=C6)C=C5)cc3)CCN(C(=O)c3cc4ccccc4[nH]3)CC2)c1
REMARK SMILES IDX 11 1 10 2 9 3 7 4 8 5 6 6 75 7 90 8 76 9 89 10 77 11 78 12
REMARK SMILES IDX 79 13 5 14 1 15 2 16 3 17 91 18 4 19 80 20 81 21 88 22 82 23
REMARK SMILES IDX 87 24 83 26 86 27 84 28 85 29 12 30 13 31 14 32 15 33 16 34
REMARK SMILES IDX 74 35 17 36 73 37 18 38 19 39 20 40 67 41 21 42 72 43 66 44
REMARK SMILES IDX 68 45 22 46 71 47 65 48 64 49 23 51 53 52 34 53 52 54 35 55
REMARK SMILES IDX 38 56 51 57 69 58 36 59 37 60 50 62 70 63 39 64 24 65 25 66
REMARK SMILES IDX 33 67 26 68 32 69 27 70 28 71 29 72 30 73 31 74 54 75 55 76
REMARK SMILES IDX 63 77 56 78 62 79 57 80 58 81 59 82 60 83 61 84 40 85 41 86
REMARK SMILES IDX 49 87 42 88 48 89 43 90 44 91 45 92 46 93 47 94
REMARK H PARENT 88 25 68 50 38 61
REMARK Flexibility Score: inf
ROOT
ATOM      1  C   UNL A   1      37.331  21.628  25.330  1.00  0.00     0.275 C 
ENDROOT
BRANCH   1   2
ATOM      2  C   UNL A   1      35.921  21.404  25.862  1.00  0.00     0.274 C 
BRANCH   2   3
ATOM      3  O   UNL A   1      35.414  22.583  26.516  1.00  0.00    -0.460 OA
BRANCH   3   4
ATOM      4  C   UNL A   1      34.072  22.602  26.811  1.00  0.00     0.334 C 
ATOM      5  O   UNL A   1      33.548  21.728  27.495  1.00  0.00    -0.249 OA
BRANCH   4   6
ATOM      6  C   UNL A   1      33.314  23.667  25.966  1.00  0.00     0.163 C 
ATOM      7  C   UNL A   1      31.939  24.064  26.570  1.00  0.00     0.064 C 
ATOM      8  C   UNL A   1      34.328  24.827  26.039  1.00  0.00     0.064 C 
ATOM      9  C   UNL A   1      31.471  25.473  26.226  1.00  0.00     0.123 C 
ATOM     10  C   UNL A   1      33.779  26.194  25.713  1.00  0.00     0.123 C 
ATOM     11  N   UNL A   1      32.524  26.464  26.405  1.00  0.00    -0.337 N 
ATOM     12  C   UNL A   1      32.275  27.591  27.194  1.00  0.00     0.270 C 
ATOM     13  O   UNL A   1      31.293  27.675  27.930  1.00  0.00    -0.267 OA
BRANCH   6  14
ATOM     14  N   UNL A   1      33.115  23.212  24.567  1.00  0.00    -0.255 N 
ATOM     15  C   UNL A   1      31.854  21.111  21.836  1.00  0.00     0.048 C 
ATOM     16  C   UNL A   1      32.485  22.080  22.760  1.00  0.00    -0.013 A 
ATOM     17  C   UNL A   1      33.372  23.129  22.456  1.00  0.00     0.138 A 
ATOM     18  C   UNL A   1      32.358  22.149  24.129  1.00  0.00     0.113 A 
ATOM     19  N   UNL A   1      33.792  23.774  23.545  1.00  0.00    -0.180 NA
ENDBRANCH   6  14
BRANCH  12  20
ATOM     20  C   UNL A   1      33.263  28.645  27.172  1.00  0.00     0.105 A 
ATOM     21  C   UNL A   1      34.646  28.598  27.118  1.00  0.00     0.042 A 
ATOM     22  N   UNL A   1      32.922  29.977  27.198  1.00  0.00    -0.351 N 
ATOM     23  C   UNL A   1      35.134  29.891  27.430  1.00  0.00     0.000 A 
ATOM     24  C   UNL A   1      34.033  30.744  27.468  1.00  0.00     0.046 A 
ATOM     25  H   UNL A   1      32.017  30.330  27.046  1.00  0.00     0.167 HD
ATOM     26  C   UNL A   1      36.411  30.405  27.720  1.00  0.00     0.010 A 
ATOM     27  C   UNL A   1      34.147  32.107  27.754  1.00  0.00     0.026 A 
ATOM     28  C   UNL A   1      36.539  31.759  28.043  1.00  0.00     0.001 A 
ATOM     29  C   UNL A   1      35.423  32.596  28.050  1.00  0.00     0.002 A 
ENDBRANCH  12  20
ENDBRANCH   4   6
ENDBRANCH   3   4
ENDBRANCH   2   3
ENDBRANCH   1   2
BRANCH   1  30
ATOM     30  O   UNL A   1      37.978  22.712  25.998  1.00  0.00    -0.458 OA
BRANCH  30  31
ATOM     31  C   UNL A   1      39.207  22.393  26.463  1.00  0.00     0.338 C 
ATOM     32  O   UNL A   1      39.557  21.313  26.914  1.00  0.00    -0.246 OA
BRANCH  31  33
ATOM     33  C   UNL A   1      40.040  23.582  26.604  1.00  0.00     0.060 A 
ATOM     34  C   UNL A   1      41.118  23.482  27.490  1.00  0.00     0.016 A 
ATOM     35  C   UNL A   1      39.529  24.813  26.180  1.00  0.00     0.016 A 
ATOM     36  C   UNL A   1      41.560  24.625  28.113  1.00  0.00     0.010 A 
ATOM     37  C   UNL A   1      39.977  25.955  26.800  1.00  0.00     0.010 A 
ATOM     38  C   UNL A   1      40.921  25.835  27.821  1.00  0.00    -0.014 A 
BRANCH  38  39
ATOM     39  C   UNL A   1      41.310  26.997  28.595  1.00  0.00     0.031 A 
ATOM     40  C   UNL A   1      42.535  27.669  28.109  1.00  0.00     0.074 A 
ATOM     41  C   UNL A   1      40.531  27.490  29.576  1.00  0.00     0.049 A 
ATOM     42  N   UNL A   1      43.621  27.933  28.757  1.00  0.00    -0.248 NA
ATOM     43  C   UNL A   1      42.596  27.980  26.670  1.00  0.00     0.031 C 
ATOM     44  C   UNL A   1      39.170  27.071  29.931  1.00  0.00     0.029 A 
ATOM     45  N   UNL A   1      40.737  28.582  30.357  1.00  0.00    -0.354 N 
ATOM     46  C   UNL A   1      44.437  28.609  27.857  1.00  0.00     0.074 A 
ATOM     47  C   UNL A   1      43.826  28.472  26.559  1.00  0.00     0.031 C 
ATOM     48  C   UNL A   1      38.588  28.051  30.654  1.00  0.00     0.029 A 
ATOM     49  C   UNL A   1      39.571  29.091  30.909  1.00  0.00     0.049 A 
ATOM     50  H   UNL A   1      41.627  28.973  30.518  1.00  0.00     0.167 HD
ATOM     51  C   UNL A   1      45.439  29.432  28.263  1.00  0.00     0.031 A 
ATOM     52  C   UNL A   1      39.400  30.331  31.430  1.00  0.00     0.031 A 
ATOM     53  C   UNL A   1      45.826  29.193  29.626  1.00  0.00     0.049 A 
ATOM     54  C   UNL A   1      40.743  30.879  31.741  1.00  0.00     0.074 A 
ATOM     55  C   UNL A   1      46.343  28.111  30.309  1.00  0.00     0.029 A 
ATOM     56  N   UNL A   1      45.352  30.060  30.582  1.00  0.00    -0.354 N 
ATOM     57  N   UNL A   1      41.528  30.390  32.660  1.00  0.00    -0.248 NA
ATOM     58  C   UNL A   1      41.403  31.716  30.749  1.00  0.00     0.031 C 
ATOM     59  C   UNL A   1      45.757  28.173  31.606  1.00  0.00     0.029 A 
ATOM     60  C   UNL A   1      44.941  29.307  31.654  1.00  0.00     0.049 A 
ATOM     61  H   UNL A   1      45.314  31.041  30.512  1.00  0.00     0.167 HD
ATOM     62  C   UNL A   1      42.811  30.503  32.139  1.00  0.00     0.074 A 
ATOM     63  C   UNL A   1      42.680  31.433  31.021  1.00  0.00     0.031 C 
ATOM     64  C   UNL A   1      43.797  29.622  32.485  1.00  0.00     0.031 A 
BRANCH  51  65
ATOM     65  C   UNL A   1      45.783  30.703  27.530  1.00  0.00    -0.014 A 
ATOM     66  C   UNL A   1      47.102  30.906  27.084  1.00  0.00     0.010 A 
ATOM     67  C   UNL A   1      44.922  31.822  27.519  1.00  0.00     0.010 A 
ATOM     68  C   UNL A   1      47.553  32.180  26.718  1.00  0.00     0.020 A 
ATOM     69  C   UNL A   1      45.346  33.085  27.111  1.00  0.00     0.020 A 
ATOM     70  C   UNL A   1      46.674  33.265  26.756  1.00  0.00     0.054 A 
BRANCH  70  71
ATOM     71  S   UNL A   1      47.298  34.932  26.433  1.00  0.00     0.124 S 
ATOM     72  O   UNL A   1      47.486  34.901  24.986  1.00  0.00    -0.237 OA
ATOM     73  O   UNL A   1      46.205  35.772  26.915  1.00  0.00    -0.237 OA
ATOM     74  O   UNL A   1      48.524  34.997  27.225  1.00  0.00    -0.744 OA
ENDBRANCH  70  71
ENDBRANCH  51  65
BRANCH  52  75
ATOM     75  C   UNL A   1      38.170  31.157  31.347  1.00  0.00    -0.014 A 
ATOM     76  C   UNL A   1      36.900  30.612  31.597  1.00  0.00     0.010 A 
ATOM     77  C   UNL A   1      38.271  32.561  31.240  1.00  0.00     0.010 A 
ATOM     78  C   UNL A   1      35.779  31.445  31.764  1.00  0.00     0.020 A 
ATOM     79  C   UNL A   1      37.160  33.396  31.390  1.00  0.00     0.020 A 
ATOM     80  C   UNL A   1      35.919  32.834  31.670  1.00  0.00     0.054 A 
BRANCH  80  81
ATOM     81  S   UNL A   1      34.498  33.908  32.019  1.00  0.00     0.124 S 
ATOM     82  O   UNL A   1      35.140  35.132  32.485  1.00  0.00    -0.237 OA
ATOM     83  O   UNL A   1      33.838  33.992  30.719  1.00  0.00    -0.237 OA
ATOM     84  O   UNL A   1      33.752  33.172  33.040  1.00  0.00    -0.744 OA
ENDBRANCH  80  81
ENDBRANCH  52  75
BRANCH  64  85
ATOM     85  C   UNL A   1      43.553  28.700  33.660  1.00  0.00    -0.014 A 
ATOM     86  C   UNL A   1      42.896  27.460  33.540  1.00  0.00     0.010 A 
ATOM     87  C   UNL A   1      44.158  29.021  34.889  1.00  0.00     0.010 A 
ATOM     88  C   UNL A   1      42.827  26.575  34.626  1.00  0.00     0.020 A 
ATOM     89  C   UNL A   1      44.108  28.134  35.969  1.00  0.00     0.020 A 
ATOM     90  C   UNL A   1      43.437  26.918  35.835  1.00  0.00     0.054 A 
BRANCH  90  91
ATOM     91  S   UNL A   1      43.406  25.737  37.213  1.00  0.00     0.124 S 
ATOM     92  O   UNL A   1      42.680  26.472  38.245  1.00  0.00    -0.237 OA
ATOM     93  O   UNL A   1      42.703  24.589  36.644  1.00  0.00    -0.237 OA
ATOM     94  O   UNL A   1      44.821  25.502  37.502  1.00  0.00    -0.744 OA
ENDBRANCH  90  91
ENDBRANCH  64  85
ENDBRANCH  38  39
ENDBRANCH  31  33
ENDBRANCH  30  31
ENDBRANCH   1  30
TORSDOF 16
ENDMDL
