MODEL 1
REMARK VINA RESULT:     -10.5      0.000      0.000
REMARK SMILES C[C@@H](CC[NH+](C)C)NC(=O)Cn1cccc1C(=O)OCCOC(=O)c1ccc(-c2c3nc(c(-c4ccc(S(=O)(=O)[O-])cc4)c4ccc([nH]4)c(-c4ccc(S(=O)(=O)[O-])cc4)c4nc(c(-c5ccc(S(=O)(=O)[O-])cc5)c5ccc2[nH]5)C=C4)C=C3)cc1
REMARK SMILES IDX 19 1 17 2 18 3 16 4 12 5 13 6 14 7 15 8 11 9 9 10 8 11 10 13
REMARK SMILES IDX 2 14 1 15 3 16 4 17 5 18 6 19 7 20 20 22 21 23 22 24 23 25
REMARK SMILES IDX 24 26 25 27 26 28 84 29 27 30 83 31 28 32 29 33 30 34 77 35
REMARK SMILES IDX 31 36 82 37 76 38 78 39 32 40 81 41 75 42 74 43 33 45 63 46
REMARK SMILES IDX 44 47 62 48 45 49 48 50 61 51 79 52 46 53 47 54 60 56 80 57
REMARK SMILES IDX 49 58 34 59 35 60 43 61 36 62 42 63 37 64 38 65 39 66 40 67
REMARK SMILES IDX 41 68 64 69 65 70 73 71 66 72 72 73 67 74 68 75 69 76 70 77
REMARK SMILES IDX 71 78 50 79 51 80 59 81 52 82 58 83 53 84 54 85 55 86 56 87
REMARK SMILES IDX 57 88
REMARK H PARENT 8 12 5 21 78 44 48 55
REMARK Flexibility Score: inf
ROOT
ATOM      1  O   UNL A   1      31.953  29.077  26.148  1.00  0.00    -0.457 OA
ENDROOT
BRANCH   1   2
ATOM      2  C   UNL A   1      31.413  27.854  26.431  1.00  0.00     0.355 C 
ATOM      3  O   UNL A   1      31.091  27.496  27.543  1.00  0.00    -0.244 OA
BRANCH   2   4
ATOM      4  C   UNL A   1      31.197  27.073  25.216  1.00  0.00     0.128 A 
ATOM      5  N   UNL A   1      31.709  25.840  24.833  1.00  0.00    -0.333 N 
ATOM      6  C   UNL A   1      31.351  25.577  23.526  1.00  0.00     0.087 A 
ATOM      7  C   UNL A   1      30.518  26.578  23.092  1.00  0.00     0.020 A 
ATOM      8  C   UNL A   1      30.411  27.505  24.149  1.00  0.00     0.035 A 
BRANCH   5   9
ATOM      9  C   UNL A   1      32.518  24.914  25.613  1.00  0.00     0.222 C 
BRANCH   9  10
ATOM     10  C   UNL A   1      31.731  23.776  26.235  1.00  0.00     0.240 C 
ATOM     11  N   UNL A   1      32.222  22.501  26.223  1.00  0.00    -0.352 N 
ATOM     12  H   UNL A   1      31.589  21.813  26.530  1.00  0.00     0.163 HD
ATOM     13  O   UNL A   1      30.592  23.951  26.677  1.00  0.00    -0.273 OA
BRANCH  11  14
ATOM     14  C   UNL A   1      33.532  21.995  25.828  1.00  0.00     0.084 C 
ATOM     15  C   UNL A   1      34.356  21.488  27.014  1.00  0.00     0.031 C 
BRANCH  14  16
ATOM     16  C   UNL A   1      33.399  20.934  24.726  1.00  0.00     0.086 C 
BRANCH  16  17
ATOM     17  C   UNL A   1      34.287  19.675  24.809  1.00  0.00     0.263 C 
BRANCH  17  18
ATOM     18  N   UNL A   1      33.554  18.402  24.687  1.00  0.00    -0.340 N 
ATOM     19  C   UNL A   1      32.470  18.544  23.704  1.00  0.00     0.332 C 
ATOM     20  C   UNL A   1      34.407  17.288  24.246  1.00  0.00     0.332 C 
ATOM     21  H   UNL A   1      33.198  18.189  25.618  1.00  0.00     0.347 HD
ENDBRANCH  17  18
ENDBRANCH  16  17
ENDBRANCH  14  16
ENDBRANCH  11  14
ENDBRANCH   9  10
ENDBRANCH   5   9
ENDBRANCH   2   4
ENDBRANCH   1   2
BRANCH   1  22
ATOM     22  C   UNL A   1      32.977  29.543  27.041  1.00  0.00     0.275 C 
BRANCH  22  23
ATOM     23  C   UNL A   1      34.360  29.089  26.579  1.00  0.00     0.275 C 
BRANCH  23  24
ATOM     24  O   UNL A   1      35.291  28.955  27.657  1.00  0.00    -0.458 OA
BRANCH  24  25
ATOM     25  C   UNL A   1      36.051  30.059  27.849  1.00  0.00     0.338 C 
ATOM     26  O   UNL A   1      35.812  31.196  27.474  1.00  0.00    -0.246 OA
BRANCH  25  27
ATOM     27  C   UNL A   1      37.339  29.698  28.431  1.00  0.00     0.060 A 
ATOM     28  C   UNL A   1      38.492  29.857  27.656  1.00  0.00     0.016 A 
ATOM     29  C   UNL A   1      37.336  28.952  29.615  1.00  0.00     0.016 A 
ATOM     30  C   UNL A   1      39.649  29.206  28.044  1.00  0.00     0.010 A 
ATOM     31  C   UNL A   1      38.479  28.264  29.977  1.00  0.00     0.010 A 
ATOM     32  C   UNL A   1      39.625  28.384  29.180  1.00  0.00    -0.014 A 
BRANCH  32  33
ATOM     33  C   UNL A   1      40.869  27.723  29.602  1.00  0.00     0.031 A 
ATOM     34  C   UNL A   1      41.159  26.477  28.758  1.00  0.00     0.074 A 
ATOM     35  C   UNL A   1      41.515  28.284  30.670  1.00  0.00     0.049 A 
ATOM     36  N   UNL A   1      41.879  25.439  29.043  1.00  0.00    -0.248 NA
ATOM     37  C   UNL A   1      40.495  26.318  27.431  1.00  0.00     0.031 C 
ATOM     38  C   UNL A   1      41.076  29.516  31.372  1.00  0.00     0.029 A 
ATOM     39  N   UNL A   1      42.644  27.955  31.386  1.00  0.00    -0.354 N 
ATOM     40  C   UNL A   1      41.888  24.599  27.908  1.00  0.00     0.074 A 
ATOM     41  C   UNL A   1      40.957  25.153  26.977  1.00  0.00     0.031 C 
ATOM     42  C   UNL A   1      41.869  29.776  32.435  1.00  0.00     0.029 A 
ATOM     43  C   UNL A   1      42.907  28.769  32.520  1.00  0.00     0.049 A 
ATOM     44  H   UNL A   1      43.231  27.208  31.128  1.00  0.00     0.167 HD
ATOM     45  C   UNL A   1      42.741  23.545  27.764  1.00  0.00     0.031 A 
ATOM     46  C   UNL A   1      43.863  28.614  33.485  1.00  0.00     0.031 A 
ATOM     47  C   UNL A   1      43.514  23.370  28.945  1.00  0.00     0.049 A 
ATOM     48  C   UNL A   1      44.687  27.473  33.051  1.00  0.00     0.074 A 
ATOM     49  C   UNL A   1      43.206  22.891  30.192  1.00  0.00     0.029 A 
ATOM     50  N   UNL A   1      44.702  24.055  29.003  1.00  0.00    -0.354 N 
ATOM     51  N   UNL A   1      45.538  27.491  32.072  1.00  0.00    -0.248 NA
ATOM     52  C   UNL A   1      44.506  26.182  33.727  1.00  0.00     0.031 C 
ATOM     53  C   UNL A   1      43.975  23.702  31.055  1.00  0.00     0.029 A 
ATOM     54  C   UNL A   1      44.830  24.507  30.294  1.00  0.00     0.049 A 
ATOM     55  H   UNL A   1      45.338  24.194  28.266  1.00  0.00     0.167 HD
ATOM     56  C   UNL A   1      45.689  26.157  31.788  1.00  0.00     0.074 A 
ATOM     57  C   UNL A   1      45.318  25.435  32.985  1.00  0.00     0.031 C 
ATOM     58  C   UNL A   1      45.574  25.726  30.506  1.00  0.00     0.031 A 
BRANCH  45  59
ATOM     59  C   UNL A   1      43.124  22.740  26.556  1.00  0.00    -0.014 A 
ATOM     60  C   UNL A   1      42.531  21.459  26.424  1.00  0.00     0.010 A 
ATOM     61  C   UNL A   1      44.247  23.022  25.765  1.00  0.00     0.010 A 
ATOM     62  C   UNL A   1      43.116  20.455  25.653  1.00  0.00     0.020 A 
ATOM     63  C   UNL A   1      44.820  22.027  24.955  1.00  0.00     0.020 A 
ATOM     64  C   UNL A   1      44.283  20.736  24.952  1.00  0.00     0.054 A 
BRANCH  64  65
ATOM     65  S   UNL A   1      45.127  19.367  24.117  1.00  0.00     0.124 S 
ATOM     66  O   UNL A   1      44.637  19.494  22.748  1.00  0.00    -0.237 OA
ATOM     67  O   UNL A   1      46.537  19.698  24.309  1.00  0.00    -0.237 OA
ATOM     68  O   UNL A   1      44.669  18.185  24.844  1.00  0.00    -0.744 OA
ENDBRANCH  64  65
ENDBRANCH  45  59
BRANCH  46  69
ATOM     69  C   UNL A   1      44.197  29.173  34.850  1.00  0.00    -0.014 A 
ATOM     70  C   UNL A   1      45.411  29.751  35.241  1.00  0.00     0.010 A 
ATOM     71  C   UNL A   1      43.142  29.258  35.805  1.00  0.00     0.010 A 
ATOM     72  C   UNL A   1      45.510  30.501  36.439  1.00  0.00     0.020 A 
ATOM     73  C   UNL A   1      43.208  30.039  36.961  1.00  0.00     0.020 A 
ATOM     74  C   UNL A   1      44.391  30.686  37.260  1.00  0.00     0.054 A 
BRANCH  74  75
ATOM     75  S   UNL A   1      44.413  31.880  38.629  1.00  0.00     0.124 S 
ATOM     76  O   UNL A   1      44.361  31.014  39.802  1.00  0.00    -0.237 OA
ATOM     77  O   UNL A   1      45.673  32.590  38.422  1.00  0.00    -0.237 OA
ATOM     78  O   UNL A   1      43.216  32.686  38.392  1.00  0.00    -0.744 OA
ENDBRANCH  74  75
ENDBRANCH  46  69
BRANCH  58  79
ATOM     79  C   UNL A   1      45.870  26.770  29.440  1.00  0.00    -0.014 A 
ATOM     80  C   UNL A   1      44.837  27.615  28.997  1.00  0.00     0.010 A 
ATOM     81  C   UNL A   1      47.124  26.890  28.807  1.00  0.00     0.010 A 
ATOM     82  C   UNL A   1      45.044  28.544  27.966  1.00  0.00     0.020 A 
ATOM     83  C   UNL A   1      47.343  27.820  27.772  1.00  0.00     0.020 A 
ATOM     84  C   UNL A   1      46.297  28.645  27.360  1.00  0.00     0.054 A 
BRANCH  84  85
ATOM     85  S   UNL A   1      46.525  29.860  26.027  1.00  0.00     0.124 S 
ATOM     86  O   UNL A   1      46.653  29.019  24.840  1.00  0.00    -0.237 OA
ATOM     87  O   UNL A   1      45.296  30.646  26.103  1.00  0.00    -0.237 OA
ATOM     88  O   UNL A   1      47.742  30.575  26.407  1.00  0.00    -0.744 OA
ENDBRANCH  84  85
ENDBRANCH  58  79
ENDBRANCH  32  33
ENDBRANCH  25  27
ENDBRANCH  24  25
ENDBRANCH  23  24
ENDBRANCH  22  23
ENDBRANCH   1  22
TORSDOF 20
ENDMDL
MODEL 2
REMARK VINA RESULT:     -10.3      4.269      9.823
REMARK SMILES C[C@@H](CC[NH+](C)C)NC(=O)Cn1cccc1C(=O)OCCOC(=O)c1ccc(-c2c3nc(c(-c4ccc(S(=O)(=O)[O-])cc4)c4ccc([nH]4)c(-c4ccc(S(=O)(=O)[O-])cc4)c4nc(c(-c5ccc(S(=O)(=O)[O-])cc5)c5ccc2[nH]5)C=C4)C=C3)cc1
REMARK SMILES IDX 19 1 17 2 18 3 16 4 12 5 13 6 14 7 15 8 11 9 9 10 8 11 10 13
REMARK SMILES IDX 2 14 1 15 3 16 4 17 5 18 6 19 7 20 20 22 21 23 22 24 23 25
REMARK SMILES IDX 24 26 25 27 26 28 84 29 27 30 83 31 28 32 29 33 30 34 77 35
REMARK SMILES IDX 31 36 82 37 76 38 78 39 32 40 81 41 75 42 74 43 33 45 63 46
REMARK SMILES IDX 44 47 62 48 45 49 48 50 61 51 79 52 46 53 47 54 60 56 80 57
REMARK SMILES IDX 49 58 34 59 35 60 43 61 36 62 42 63 37 64 38 65 39 66 40 67
REMARK SMILES IDX 41 68 64 69 65 70 73 71 66 72 72 73 67 74 68 75 69 76 70 77
REMARK SMILES IDX 71 78 50 79 51 80 59 81 52 82 58 83 53 84 54 85 55 86 56 87
REMARK SMILES IDX 57 88
REMARK H PARENT 8 12 5 21 78 44 48 55
REMARK Flexibility Score: inf
ROOT
ATOM      1  O   UNL A   1      35.435  24.675  25.440  1.00  0.00    -0.457 OA
ENDROOT
BRANCH   1   2
ATOM      2  C   UNL A   1      34.326  24.791  24.650  1.00  0.00     0.355 C 
ATOM      3  O   UNL A   1      34.277  24.434  23.493  1.00  0.00    -0.244 OA
BRANCH   2   4
ATOM      4  C   UNL A   1      33.189  25.318  25.402  1.00  0.00     0.128 A 
ATOM      5  N   UNL A   1      32.045  24.685  25.870  1.00  0.00    -0.333 N 
ATOM      6  C   UNL A   1      31.175  25.625  26.384  1.00  0.00     0.087 A 
ATOM      7  C   UNL A   1      31.790  26.852  26.354  1.00  0.00     0.020 A 
ATOM      8  C   UNL A   1      33.051  26.660  25.754  1.00  0.00     0.035 A 
BRANCH   5   9
ATOM      9  C   UNL A   1      31.723  23.265  25.847  1.00  0.00     0.222 C 
BRANCH   9  10
ATOM     10  C   UNL A   1      32.484  22.442  26.870  1.00  0.00     0.240 C 
ATOM     11  N   UNL A   1      33.113  21.285  26.504  1.00  0.00    -0.352 N 
ATOM     12  H   UNL A   1      33.467  20.754  27.253  1.00  0.00     0.163 HD
ATOM     13  O   UNL A   1      32.472  22.737  28.068  1.00  0.00    -0.273 OA
BRANCH  11  14
ATOM     14  C   UNL A   1      33.345  20.711  25.183  1.00  0.00     0.084 C 
ATOM     15  C   UNL A   1      34.811  20.347  24.942  1.00  0.00     0.031 C 
BRANCH  14  16
ATOM     16  C   UNL A   1      32.409  19.518  24.934  1.00  0.00     0.086 C 
BRANCH  16  17
ATOM     17  C   UNL A   1      32.627  18.668  23.665  1.00  0.00     0.263 C 
BRANCH  17  18
ATOM     18  N   UNL A   1      32.678  17.215  23.906  1.00  0.00    -0.340 N 
ATOM     19  C   UNL A   1      33.901  16.655  23.312  1.00  0.00     0.332 C 
ATOM     20  C   UNL A   1      32.683  16.869  25.335  1.00  0.00     0.332 C 
ATOM     21  H   UNL A   1      31.837  16.827  23.481  1.00  0.00     0.347 HD
ENDBRANCH  17  18
ENDBRANCH  16  17
ENDBRANCH  14  16
ENDBRANCH  11  14
ENDBRANCH   9  10
ENDBRANCH   5   9
ENDBRANCH   2   4
ENDBRANCH   1   2
BRANCH   1  22
ATOM     22  C   UNL A   1      36.482  23.825  24.945  1.00  0.00     0.275 C 
BRANCH  22  23
ATOM     23  C   UNL A   1      37.497  23.507  26.042  1.00  0.00     0.275 C 
BRANCH  23  24
ATOM     24  O   UNL A   1      38.135  24.675  26.566  1.00  0.00    -0.458 OA
BRANCH  24  25
ATOM     25  C   UNL A   1      39.291  24.408  27.219  1.00  0.00     0.338 C 
ATOM     26  O   UNL A   1      39.723  23.312  27.539  1.00  0.00    -0.246 OA
BRANCH  25  27
ATOM     27  C   UNL A   1      39.916  25.644  27.677  1.00  0.00     0.060 A 
ATOM     28  C   UNL A   1      39.930  25.918  29.048  1.00  0.00     0.016 A 
ATOM     29  C   UNL A   1      40.214  26.620  26.720  1.00  0.00     0.016 A 
ATOM     30  C   UNL A   1      40.190  27.211  29.465  1.00  0.00     0.010 A 
ATOM     31  C   UNL A   1      40.427  27.922  27.135  1.00  0.00     0.010 A 
ATOM     32  C   UNL A   1      40.399  28.211  28.505  1.00  0.00    -0.014 A 
BRANCH  32  33
ATOM     33  C   UNL A   1      40.707  29.576  28.960  1.00  0.00     0.031 A 
ATOM     34  C   UNL A   1      39.432  30.360  29.290  1.00  0.00     0.074 A 
ATOM     35  C   UNL A   1      42.030  29.921  28.970  1.00  0.00     0.049 A 
ATOM     36  N   UNL A   1      39.239  31.641  29.323  1.00  0.00    -0.248 NA
ATOM     37  C   UNL A   1      38.162  29.622  29.548  1.00  0.00     0.031 C 
ATOM     38  C   UNL A   1      43.146  29.009  28.612  1.00  0.00     0.029 A 
ATOM     39  N   UNL A   1      42.715  31.078  29.269  1.00  0.00    -0.354 N 
ATOM     40  C   UNL A   1      37.911  31.863  29.747  1.00  0.00     0.074 A 
ATOM     41  C   UNL A   1      37.273  30.585  29.795  1.00  0.00     0.031 C 
ATOM     42  C   UNL A   1      44.330  29.659  28.639  1.00  0.00     0.029 A 
ATOM     43  C   UNL A   1      44.116  31.036  29.036  1.00  0.00     0.049 A 
ATOM     44  H   UNL A   1      42.265  31.880  29.621  1.00  0.00     0.167 HD
ATOM     45  C   UNL A   1      37.442  33.084  30.131  1.00  0.00     0.031 A 
ATOM     46  C   UNL A   1      45.030  32.050  29.112  1.00  0.00     0.031 A 
ATOM     47  C   UNL A   1      38.440  34.079  29.936  1.00  0.00     0.049 A 
ATOM     48  C   UNL A   1      44.290  33.216  29.621  1.00  0.00     0.074 A 
ATOM     49  C   UNL A   1      38.945  34.677  28.812  1.00  0.00     0.029 A 
ATOM     50  N   UNL A   1      39.289  34.306  30.991  1.00  0.00    -0.354 N 
ATOM     51  N   UNL A   1      43.874  33.368  30.841  1.00  0.00    -0.248 NA
ATOM     52  C   UNL A   1      43.929  34.282  28.677  1.00  0.00     0.031 C 
ATOM     53  C   UNL A   1      40.314  34.843  29.113  1.00  0.00     0.029 A 
ATOM     54  C   UNL A   1      40.537  34.501  30.451  1.00  0.00     0.049 A 
ATOM     55  H   UNL A   1      39.051  34.326  31.945  1.00  0.00     0.167 HD
ATOM     56  C   UNL A   1      42.903  34.329  30.704  1.00  0.00     0.074 A 
ATOM     57  C   UNL A   1      43.203  35.049  29.487  1.00  0.00     0.031 C 
ATOM     58  C   UNL A   1      41.679  34.129  31.254  1.00  0.00     0.031 A 
BRANCH  45  59
ATOM     59  C   UNL A   1      36.206  33.477  30.886  1.00  0.00    -0.014 A 
ATOM     60  C   UNL A   1      35.006  33.590  30.138  1.00  0.00     0.010 A 
ATOM     61  C   UNL A   1      36.232  34.051  32.165  1.00  0.00     0.010 A 
ATOM     62  C   UNL A   1      33.935  34.365  30.581  1.00  0.00     0.020 A 
ATOM     63  C   UNL A   1      35.140  34.802  32.634  1.00  0.00     0.020 A 
ATOM     64  C   UNL A   1      34.026  35.001  31.814  1.00  0.00     0.054 A 
BRANCH  64  65
ATOM     65  S   UNL A   1      32.707  36.154  32.279  1.00  0.00     0.124 S 
ATOM     66  O   UNL A   1      33.276  36.815  33.449  1.00  0.00    -0.237 OA
ATOM     67  O   UNL A   1      32.583  36.990  31.087  1.00  0.00    -0.237 OA
ATOM     68  O   UNL A   1      31.564  35.282  32.540  1.00  0.00    -0.744 OA
ENDBRANCH  64  65
ENDBRANCH  45  59
BRANCH  46  69
ATOM     69  C   UNL A   1      46.465  32.315  28.714  1.00  0.00    -0.014 A 
ATOM     70  C   UNL A   1      47.611  31.826  29.352  1.00  0.00     0.010 A 
ATOM     71  C   UNL A   1      46.693  33.012  27.491  1.00  0.00     0.010 A 
ATOM     72  C   UNL A   1      48.880  31.893  28.724  1.00  0.00     0.020 A 
ATOM     73  C   UNL A   1      47.926  33.037  26.836  1.00  0.00     0.020 A 
ATOM     74  C   UNL A   1      49.016  32.447  27.445  1.00  0.00     0.054 A 
BRANCH  74  75
ATOM     75  S   UNL A   1      50.559  32.274  26.502  1.00  0.00     0.124 S 
ATOM     76  O   UNL A   1      50.354  33.199  25.392  1.00  0.00    -0.237 OA
ATOM     77  O   UNL A   1      51.580  32.666  27.471  1.00  0.00    -0.237 OA
ATOM     78  O   UNL A   1      50.576  30.857  26.141  1.00  0.00    -0.744 OA
ENDBRANCH  74  75
ENDBRANCH  46  69
BRANCH  58  79
ATOM     79  C   UNL A   1      41.646  33.176  32.438  1.00  0.00    -0.014 A 
ATOM     80  C   UNL A   1      40.966  31.951  32.319  1.00  0.00     0.010 A 
ATOM     81  C   UNL A   1      42.203  33.489  33.695  1.00  0.00     0.010 A 
ATOM     82  C   UNL A   1      40.847  31.072  33.406  1.00  0.00     0.020 A 
ATOM     83  C   UNL A   1      42.091  32.614  34.792  1.00  0.00     0.020 A 
ATOM     84  C   UNL A   1      41.413  31.405  34.638  1.00  0.00     0.054 A 
BRANCH  84  85
ATOM     85  S   UNL A   1      41.236  30.240  36.021  1.00  0.00     0.124 S 
ATOM     86  O   UNL A   1      42.322  29.291  35.786  1.00  0.00    -0.237 OA
ATOM     87  O   UNL A   1      41.406  31.104  37.186  1.00  0.00    -0.237 OA
ATOM     88  O   UNL A   1      39.893  29.689  35.850  1.00  0.00    -0.744 OA
ENDBRANCH  84  85
ENDBRANCH  58  79
ENDBRANCH  32  33
ENDBRANCH  25  27
ENDBRANCH  24  25
ENDBRANCH  23  24
ENDBRANCH  22  23
ENDBRANCH   1  22
TORSDOF 20
ENDMDL
MODEL 3
REMARK VINA RESULT:     -10.0      3.695      9.480
REMARK SMILES C[C@@H](CC[NH+](C)C)NC(=O)Cn1cccc1C(=O)OCCOC(=O)c1ccc(-c2c3nc(c(-c4ccc(S(=O)(=O)[O-])cc4)c4ccc([nH]4)c(-c4ccc(S(=O)(=O)[O-])cc4)c4nc(c(-c5ccc(S(=O)(=O)[O-])cc5)c5ccc2[nH]5)C=C4)C=C3)cc1
REMARK SMILES IDX 19 1 17 2 18 3 16 4 12 5 13 6 14 7 15 8 11 9 9 10 8 11 10 13
REMARK SMILES IDX 2 14 1 15 3 16 4 17 5 18 6 19 7 20 20 22 21 23 22 24 23 25
REMARK SMILES IDX 24 26 25 27 26 28 84 29 27 30 83 31 28 32 29 33 30 34 77 35
REMARK SMILES IDX 31 36 82 37 76 38 78 39 32 40 81 41 75 42 74 43 33 45 63 46
REMARK SMILES IDX 44 47 62 48 45 49 48 50 61 51 79 52 46 53 47 54 60 56 80 57
REMARK SMILES IDX 49 58 34 59 35 60 43 61 36 62 42 63 37 64 38 65 39 66 40 67
REMARK SMILES IDX 41 68 64 69 65 70 73 71 66 72 72 73 67 74 68 75 69 76 70 77
REMARK SMILES IDX 71 78 50 79 51 80 59 81 52 82 58 83 53 84 54 85 55 86 56 87
REMARK SMILES IDX 57 88
REMARK H PARENT 8 12 5 21 78 44 48 55
REMARK Flexibility Score: inf
ROOT
ATOM      1  O   UNL A   1      36.778  20.615  25.039  1.00  0.00    -0.457 OA
ENDROOT
BRANCH   1   2
ATOM      2  C   UNL A   1      35.812  21.476  25.475  1.00  0.00     0.355 C 
ATOM      3  O   UNL A   1      36.040  22.564  25.957  1.00  0.00    -0.244 OA
BRANCH   2   4
ATOM      4  C   UNL A   1      34.473  20.954  25.208  1.00  0.00     0.128 A 
ATOM      5  N   UNL A   1      33.227  21.545  25.367  1.00  0.00    -0.333 N 
ATOM      6  C   UNL A   1      32.239  20.608  25.139  1.00  0.00     0.087 A 
ATOM      7  C   UNL A   1      32.832  19.441  24.726  1.00  0.00     0.020 A 
ATOM      8  C   UNL A   1      34.225  19.659  24.756  1.00  0.00     0.035 A 
BRANCH   5   9
ATOM      9  C   UNL A   1      32.917  22.920  25.731  1.00  0.00     0.222 C 
BRANCH   9  10
ATOM     10  C   UNL A   1      31.685  23.481  25.044  1.00  0.00     0.240 C 
ATOM     11  N   UNL A   1      31.768  24.007  23.786  1.00  0.00    -0.352 N 
ATOM     12  H   UNL A   1      30.952  24.461  23.475  1.00  0.00     0.163 HD
ATOM     13  O   UNL A   1      30.605  23.566  25.635  1.00  0.00    -0.273 OA
BRANCH  11  14
ATOM     14  C   UNL A   1      32.869  24.004  22.829  1.00  0.00     0.084 C 
ATOM     15  C   UNL A   1      32.994  22.682  22.070  1.00  0.00     0.031 C 
BRANCH  14  16
ATOM     16  C   UNL A   1      32.769  25.206  21.878  1.00  0.00     0.086 C 
BRANCH  16  17
ATOM     17  C   UNL A   1      33.335  26.562  22.348  1.00  0.00     0.263 C 
BRANCH  17  18
ATOM     18  N   UNL A   1      32.444  27.712  22.105  1.00  0.00    -0.340 N 
ATOM     19  C   UNL A   1      31.059  27.348  22.442  1.00  0.00     0.332 C 
ATOM     20  C   UNL A   1      32.798  28.891  22.907  1.00  0.00     0.332 C 
ATOM     21  H   UNL A   1      32.547  27.947  21.119  1.00  0.00     0.347 HD
ENDBRANCH  17  18
ENDBRANCH  16  17
ENDBRANCH  14  16
ENDBRANCH  11  14
ENDBRANCH   9  10
ENDBRANCH   5   9
ENDBRANCH   2   4
ENDBRANCH   1   2
BRANCH   1  22
ATOM     22  C   UNL A   1      38.139  21.017  25.265  1.00  0.00     0.275 C 
BRANCH  22  23
ATOM     23  C   UNL A   1      39.055  19.804  25.416  1.00  0.00     0.275 C 
BRANCH  23  24
ATOM     24  O   UNL A   1      39.962  19.925  26.516  1.00  0.00    -0.458 OA
BRANCH  24  25
ATOM     25  C   UNL A   1      41.252  19.688  26.176  1.00  0.00     0.338 C 
ATOM     26  O   UNL A   1      41.734  18.634  25.795  1.00  0.00    -0.246 OA
BRANCH  25  27
ATOM     27  C   UNL A   1      42.084  20.843  26.493  1.00  0.00     0.060 A 
ATOM     28  C   UNL A   1      42.253  21.196  27.836  1.00  0.00     0.016 A 
ATOM     29  C   UNL A   1      42.437  21.703  25.448  1.00  0.00     0.016 A 
ATOM     30  C   UNL A   1      42.729  22.460  28.136  1.00  0.00     0.010 A 
ATOM     31  C   UNL A   1      42.869  22.981  25.749  1.00  0.00     0.010 A 
ATOM     32  C   UNL A   1      42.998  23.357  27.091  1.00  0.00    -0.014 A 
BRANCH  32  33
ATOM     33  C   UNL A   1      43.536  24.686  27.420  1.00  0.00     0.031 A 
ATOM     34  C   UNL A   1      42.414  25.702  27.664  1.00  0.00     0.074 A 
ATOM     35  C   UNL A   1      44.899  24.801  27.410  1.00  0.00     0.049 A 
ATOM     36  N   UNL A   1      42.441  26.994  27.577  1.00  0.00    -0.248 NA
ATOM     37  C   UNL A   1      41.039  25.217  27.978  1.00  0.00     0.031 C 
ATOM     38  C   UNL A   1      45.841  23.684  27.148  1.00  0.00     0.029 A 
ATOM     39  N   UNL A   1      45.772  25.849  27.606  1.00  0.00    -0.354 N 
ATOM     40  C   UNL A   1      41.173  27.476  27.966  1.00  0.00     0.074 A 
ATOM     41  C   UNL A   1      40.328  26.335  28.126  1.00  0.00     0.031 C 
ATOM     42  C   UNL A   1      47.119  24.124  27.126  1.00  0.00     0.029 A 
ATOM     43  C   UNL A   1      47.143  25.548  27.391  1.00  0.00     0.049 A 
ATOM     44  H   UNL A   1      45.466  26.744  27.878  1.00  0.00     0.167 HD
ATOM     45  C   UNL A   1      40.920  28.789  28.231  1.00  0.00     0.031 A 
ATOM     46  C   UNL A   1      48.216  26.396  27.381  1.00  0.00     0.031 A 
ATOM     47  C   UNL A   1      42.071  29.579  27.953  1.00  0.00     0.049 A 
ATOM     48  C   UNL A   1      47.688  27.713  27.773  1.00  0.00     0.074 A 
ATOM     49  C   UNL A   1      42.662  29.976  26.782  1.00  0.00     0.029 A 
ATOM     50  N   UNL A   1      42.954  29.756  28.989  1.00  0.00    -0.354 N 
ATOM     51  N   UNL A   1      47.312  28.046  28.969  1.00  0.00    -0.248 NA
ATOM     52  C   UNL A   1      47.506  28.732  26.731  1.00  0.00     0.031 C 
ATOM     53  C   UNL A   1      44.041  29.935  27.079  1.00  0.00     0.029 A 
ATOM     54  C   UNL A   1      44.213  29.685  28.446  1.00  0.00     0.049 A 
ATOM     55  H   UNL A   1      42.729  29.905  29.935  1.00  0.00     0.167 HD
ATOM     56  C   UNL A   1      46.517  29.140  28.735  1.00  0.00     0.074 A 
ATOM     57  C   UNL A   1      46.927  29.683  27.458  1.00  0.00     0.031 C 
ATOM     58  C   UNL A   1      45.281  29.203  29.289  1.00  0.00     0.031 A 
BRANCH  45  59
ATOM     59  C   UNL A   1      39.773  29.455  28.935  1.00  0.00    -0.014 A 
ATOM     60  C   UNL A   1      38.571  29.609  28.198  1.00  0.00     0.010 A 
ATOM     61  C   UNL A   1      39.920  30.211  30.106  1.00  0.00     0.010 A 
ATOM     62  C   UNL A   1      37.626  30.578  28.531  1.00  0.00     0.020 A 
ATOM     63  C   UNL A   1      38.952  31.163  30.469  1.00  0.00     0.020 A 
ATOM     64  C   UNL A   1      37.843  31.379  29.647  1.00  0.00     0.054 A 
BRANCH  64  65
ATOM     65  S   UNL A   1      36.701  32.754  29.945  1.00  0.00     0.124 S 
ATOM     66  O   UNL A   1      36.871  32.988  31.376  1.00  0.00    -0.237 OA
ATOM     67  O   UNL A   1      37.231  33.800  29.073  1.00  0.00    -0.237 OA
ATOM     68  O   UNL A   1      35.403  32.218  29.542  1.00  0.00    -0.744 OA
ENDBRANCH  64  65
ENDBRANCH  45  59
BRANCH  46  69
ATOM     69  C   UNL A   1      49.673  26.376  26.973  1.00  0.00    -0.014 A 
ATOM     70  C   UNL A   1      50.765  26.077  27.795  1.00  0.00     0.010 A 
ATOM     71  C   UNL A   1      49.973  26.536  25.589  1.00  0.00     0.010 A 
ATOM     72  C   UNL A   1      52.041  25.801  27.242  1.00  0.00     0.020 A 
ATOM     73  C   UNL A   1      51.209  26.214  25.024  1.00  0.00     0.020 A 
ATOM     74  C   UNL A   1      52.237  25.815  25.856  1.00  0.00     0.054 A 
BRANCH  74  75
ATOM     75  S   UNL A   1      53.767  25.177  25.113  1.00  0.00     0.124 S 
ATOM     76  O   UNL A   1      53.630  25.579  23.718  1.00  0.00    -0.237 OA
ATOM     77  O   UNL A   1      54.809  25.865  25.871  1.00  0.00    -0.237 OA
ATOM     78  O   UNL A   1      53.686  23.737  25.361  1.00  0.00    -0.744 OA
ENDBRANCH  74  75
ENDBRANCH  46  69
BRANCH  58  79
ATOM     79  C   UNL A   1      45.095  28.383  30.557  1.00  0.00    -0.014 A 
ATOM     80  C   UNL A   1      44.498  27.113  30.476  1.00  0.00     0.010 A 
ATOM     81  C   UNL A   1      45.423  28.865  31.841  1.00  0.00     0.010 A 
ATOM     82  C   UNL A   1      44.240  26.351  31.625  1.00  0.00     0.020 A 
ATOM     83  C   UNL A   1      45.170  28.108  33.001  1.00  0.00     0.020 A 
ATOM     84  C   UNL A   1      44.580  26.851  32.884  1.00  0.00     0.054 A 
BRANCH  84  85
ATOM     85  S   UNL A   1      44.230  25.834  34.349  1.00  0.00     0.124 S 
ATOM     86  O   UNL A   1      44.542  26.738  35.453  1.00  0.00    -0.237 OA
ATOM     87  O   UNL A   1      42.813  25.519  34.184  1.00  0.00    -0.237 OA
ATOM     88  O   UNL A   1      45.137  24.695  34.213  1.00  0.00    -0.744 OA
ENDBRANCH  84  85
ENDBRANCH  58  79
ENDBRANCH  32  33
ENDBRANCH  25  27
ENDBRANCH  24  25
ENDBRANCH  23  24
ENDBRANCH  22  23
ENDBRANCH   1  22
TORSDOF 20
ENDMDL
